AV-unprocessed.smi:2104|AV-procd|sdf|8589|dock4
  -GOLD-   2272011323D 1   1.00000     0.00000
 Structure written by MMmdl.
 42 43  0  0  0  0  0  0  0  0  2 V2000
  143.4134  143.7630  161.9679 C   0  0  0  0  0  0  0  0  0  0  0  0
  144.5931  143.5053  161.0950 C   0  0  0  0  0  0  0  0  0  0  0  0
  144.8475  143.7594  159.7771 C   0  0  0  0  0  0  0  0  0  0  0  0
  146.1610  143.2474  159.5960 C   0  0  0  0  0  0  0  0  0  0  0  0
  146.8667  143.2648  158.4550 N   0  5  0  0  0  0  0  0  0  0  0  0
  147.7349  142.2639  158.1817 C   0  0  0  0  0  0  0  0  0  0  0  0
  147.7673  141.1578  158.7262 O   0  0  0  0  0  0  0  0  0  0  0  0
  148.6329  142.5720  157.2348 N   0  0  0  0  0  0  0  0  0  0  0  0
  149.7644  141.7447  156.8269 C   0  0  0  0  0  0  0  0  0  0  0  0
  151.0975  142.4395  157.1434 C   0  0  0  0  0  0  0  0  0  0  0  0
  151.3811  142.2917  158.5262 O   0  0  0  0  0  0  0  0  0  0  0  0
  152.6750  142.7230  158.9275 C   0  0  2  0  0  0  0  0  0  0  0  0
  153.0298  141.9646  160.2199 C   0  0  0  0  0  0  0  0  0  0  0  0
  152.1075  142.3582  161.3869 C   0  0  0  0  0  0  0  0  0  0  0  0
  152.1174  143.8763  161.6193 C   0  0  0  0  0  0  0  0  0  0  0  0
  151.7552  144.6396  160.3358 C   0  0  0  0  0  0  0  0  0  0  0  0
  152.6826  144.2535  159.1662 C   0  0  2  0  0  0  0  0  0  0  0  0
  152.3606  145.0623  157.9006 C   0  0  0  0  0  0  0  0  0  0  0  0
  146.6657  142.7430  160.7099 N   0  0  0  0  0  0  0  0  0  0  0  0
  145.6639  142.8993  161.6749 O   0  0  0  0  0  0  0  0  0  0  0  0
  143.5420  144.6911  162.5247 H   0  0  0  0  0  0  0  0  0  0  0  0
  143.2752  142.9532  162.6848 H   0  0  0  0  0  0  0  0  0  0  0  0
  142.5030  143.8472  161.3741 H   0  0  0  0  0  0  0  0  0  0  0  0
  144.1972  144.2298  159.0549 H   0  0  0  0  0  0  0  0  0  0  0  0
  148.5616  143.4858  156.8122 H   0  0  0  0  0  0  0  0  0  0  0  0
  149.7201  140.7577  157.2898 H   0  0  0  0  0  0  0  0  0  0  0  0
  149.6847  141.5859  155.7516 H   0  0  0  0  0  0  0  0  0  0  0  0
  151.9050  141.9884  156.5657 H   0  0  0  0  0  0  0  0  0  0  0  0
  151.0440  143.4912  156.8597 H   0  0  0  0  0  0  0  0  0  0  0  0
  153.4193  142.4667  158.1707 H   0  0  0  0  0  0  0  0  0  0  0  0
  152.9730  140.8893  160.0480 H   0  0  0  0  0  0  0  0  0  0  0  0
  154.0645  142.1774  160.4910 H   0  0  0  0  0  0  0  0  0  0  0  0
  151.0889  142.0288  161.1770 H   0  0  0  0  0  0  0  0  0  0  0  0
  152.4170  141.8413  162.2954 H   0  0  0  0  0  0  0  0  0  0  0  0
  151.4174  144.1349  162.4144 H   0  0  0  0  0  0  0  0  0  0  0  0
  153.1048  144.1870  161.9629 H   0  0  0  0  0  0  0  0  0  0  0  0
  150.7172  144.4356  160.0701 H   0  0  0  0  0  0  0  0  0  0  0  0
  151.8153  145.7125  160.5219 H   0  0  0  0  0  0  0  0  0  0  0  0
  153.6987  144.5255  159.4565 H   0  0  0  0  0  0  0  0  0  0  0  0
  151.3355  144.8963  157.5702 H   0  0  0  0  0  0  0  0  0  0  0  0
  153.0263  144.7932  157.0805 H   0  0  0  0  0  0  0  0  0  0  0  0
  152.4753  146.1313  158.0808 H   0  0  0  0  0  0  0  0  0  0  0  0
  1  2  1  0  0  0  0
  1 21  1  0  0  0  0
  1 22  1  0  0  0  0
  1 23  1  0  0  0  0
  2 20  1  0  0  0  0
  2  3  2  0  0  0  0
  3  4  1  0  0  0  0
  3 24  1  0  0  0  0
  4  5  1  0  0  0  0
  4 19  2  0  0  0  0
  5  6  1  0  0  0  0
  6  7  2  0  0  0  0
  6  8  1  0  0  0  0
  8  9  1  0  0  0  0
  8 25  1  0  0  0  0
  9 10  1  0  0  0  0
  9 26  1  0  0  0  0
  9 27  1  0  0  0  0
 10 11  1  0  0  0  0
 10 28  1  0  0  0  0
 10 29  1  0  0  0  0
 11 12  1  0  0  0  0
 12 17  1  0  0  0  0
 12 13  1  0  0  0  0
 12 30  1  0  0  0  0
 13 14  1  0  0  0  0
 13 31  1  0  0  0  0
 13 32  1  0  0  0  0
 14 15  1  0  0  0  0
 14 33  1  0  0  0  0
 14 34  1  0  0  0  0
 15 16  1  0  0  0  0
 15 35  1  0  0  0  0
 15 36  1  0  0  0  0
 16 17  1  0  0  0  0
 16 37  1  0  0  0  0
 16 38  1  0  0  0  0
 17 18  1  0  0  0  0
 17 39  1  0  0  0  0
 18 40  1  0  0  0  0
 18 41  1  0  0  0  0
 18 42  1  0  0  0  0
 19 20  1  0  0  0  0
M  CHG  1   5  -1
M  END
> <s_m_source_file>
AV-unprocessed.smi

> <i_m_source_file_index>
2104

> <i_lp_mmshare_version>
43012

> <i_f3d_flags>
0

> <s_epik_input>
W0NIM11jMVtjSF1jKG5vMSlbTkhdQyg9TylbTkhdW0NIMl1bQ0gyXU9bQ0BASF0yW0NIMl1bQ0gyXVtDSDJdW0NIMl1bQ0BIXTJbQ0gzXQ==

> <s_epik_cmdline>
J2VwaWtfcHl0aG9uJywgJy1waCcsICc3LjAnLCAnLXRuJywgJzgnLCAnLW1hJywgJzIwMCcsICctbWV0YWxfYmluZGluZycsICctaW1hZScsICc8aW5maWxlLm1hZT4nLCAnLW9tYWUnLCAnPG91dGZpbGUubWFlPic=

> <r_lp_tautomer_probability>
1

> <r_epik_Ionization_Penalty>
6.47137

> <r_epik_Ionization_Penalty_Charging>
6.47125

> <r_epik_Ionization_Penalty_Neutral>
0.000118933

> <r_epik_State_Penalty>
6.47124

> <r_epik_Charging_Adjusted_Penalty>
12.9425

> <i_epik_Tot_Q>
-1

> <i_epik_Tot_abs_Q>
1

> <r_epik_Metal_State_Penalty>
2.3995

> <b_epik_Metal_Only>
1

> <s_lp_Force_Field>
OPLS_2005

> <r_lp_Energy>
3.94735

> <b_lp_Chiralities_Consistent>
1

> <s_lp_Variant>
AV-unprocessed.smi:2104-7

> <Gold.Version>
5.8.1

> <Gold.Id.Protein>
6NUR|6NUR_protein|mol2

> <Gold.PLP.Fitness>
47.6916

> <Gold.PLP.PLP>
-40.5082

> <Gold.PLP.part.hbond>
-4.3811

> <Gold.PLP.part.metal>
0.0000

> <Gold.PLP.part.buried>
-3.4579

> <Gold.PLP.part.nonpolar>
-33.9217

> <Gold.PLP.part.repulsive>
0.7960

> <Gold.PLP.ligand.clash>
0.0000

> <Gold.PLP.ligand.torsion>
0.6516

> <Gold.PLP.Chemscore.Hbond>
2.7600

> <Gold.PLP.Chemscore.CHOScore>
0.0000

> <Gold.PLP.Chemscore.Metal>
0.0000

> <Gold.Chemscore.Hbonds>
donor molecule, donor type, donor heavy atom, donor atom, acceptor molecule, acceptor atom, score
      L1  H     8    25       P1  8028  1.00
      P1  H  6933  6944       L1    19  0.83
      P1  H  6934  6946       L1    19  0.93

> <Gold.PLP.Chemscore.Internal.Correction>
0.2066

> <Gold.Rescore>
     Score         DG    S(hbond)    S(metal)    S(lipo)     H(rot)  DE(clash)    DE(int)     intcor
     17.97     -21.48       2.08        0.00     114.76       1.71       1.31       2.21       ----

> <Gold.Chemscore.Fitness>
17.9676

> <Gold.Chemscore.DG>
-21.4846

> <Gold.Chemscore.ZeroCoef>
-5.4800

> <Gold.Chemscore.Hbond>
2.0826

> <Gold.Chemscore.Metal>
0.0000

> <Gold.Chemscore.Lipo>
114.7624

> <Gold.Chemscore.Internal_Hbond>
0.0000

> <Gold.Chemscore.DEClash>
1.3066

> <Gold.Chemscore.DEInternal>
2.2105

> <Gold.Chemscore.Rot>
1.7103

> <Gold.Chemscore.Internal.Correction>
   9.000000E+99

> <Gold.Chemscore.Hbonds>
donor molecule, donor type, donor heavy atom, donor atom, acceptor molecule, acceptor atom, score
      L1  H     8    25       P1  8028  0.34
      P1  H  6933  6944       L1    19  0.72
      P1  H  6934  6946       L1    19  0.25

> <Gold.Chemscore.Hbond.Weighted>
-6.9558

> <Gold.Chemscore.Metal.Weighted>
-0.0000

> <Gold.Chemscore.Lipo.Weighted>
-13.4272

> <Gold.Chemscore.Internal_Hbond.Weighted>
0.0000

> <Gold.Chemscore.DEClash.Weighted>
1.3066

> <Gold.Chemscore.DEInternal.Weighted>
2.2105

> <Gold.Chemscore.Rot.Weighted>
4.3784

> <Gold.Chemscore.Internal.Correction.Weighted>
   9.000000E+99

> <Gold.Protein.RotatedTorsions>
[ 6907 6896 6895 6894 ] final  103.33 input  -60.11 | X-H torsion
[ 7974 7965 7964 7962 ] final   35.12 input  175.53 | X-H torsion
[ 8008 7997 7996 7995 ] final  -75.96 input   59.86 | X-H torsion
[ 10167 10162 10161 10158 ] final  -51.18 input  -65.29 | X-H torsion
[ 10718 10713 10712 10709 ] final  115.52 input   66.30 | X-H torsion
[ 10763 10752 10751 10750 ] final  -47.41 input  -60.55 | X-H torsion
[ 11005 11000 10999 10996 ] final  -63.68 input  -57.11 | X-H torsion

> <Gold.Protein.ActiveResidues>
 VAL166  LYS551  ARG553  GLY616  TRP617  ASP618  TYR619  PRO620  LYS621  CYS622 
 ASP623  PHE694  ASN695  SER759  ASP760  ASP761  ALA762  ILE779  LEU786  VAL792 
 PHE793  MET794  SER795  GLU796  ALA797  LYS798  CYS799  TRP800  GLU811  SER814 

> <Gold.Protein.RotatedAtoms>
  152.5298  133.9842  159.7820 H   0  0  0  0  0  0  0  0  0  0  0  0  # atno 6907 bound_to 6896
  151.0090  133.5975  159.2692 H   0  0  0  0  0  0  0  0  0  0  0  0  # atno 6908 bound_to 6896
  151.3056  135.0787  159.9307 H   0  0  0  0  0  0  0  0  0  0  0  0  # atno 6909 bound_to 6896
  146.1305  139.6182  142.9230 H   0  0  0  0  0  0  0  0  0  0  0  0  # atno 7974 bound_to 7965
  154.5463  140.0735  156.8594 H   0  0  0  0  0  0  0  0  0  0  0  0  # atno 8008 bound_to 7997
  155.3081  140.3388  155.4227 H   0  0  0  0  0  0  0  0  0  0  0  0  # atno 8009 bound_to 7997
  156.1921  140.1690  156.8057 H   0  0  0  0  0  0  0  0  0  0  0  0  # atno 8010 bound_to 7997
  140.6601  143.2629  151.4466 H   0  0  0  0  0  0  0  0  0  0  0  0  # atno 10167 bound_to 10162
  157.6217  131.1013  150.7341 H   0  0  0  0  0  0  0  0  0  0  0  0  # atno 10718 bound_to 10713
  154.0609  135.6618  153.4811 H   0  0  0  0  0  0  0  0  0  0  0  0  # atno 10763 bound_to 10752
  153.0427  135.5134  154.7660 H   0  0  0  0  0  0  0  0  0  0  0  0  # atno 10764 bound_to 10752
  154.6696  135.3027  154.9726 H   0  0  0  0  0  0  0  0  0  0  0  0  # atno 10765 bound_to 10752
  141.1401  133.6655  156.5717 H   0  0  0  0  0  0  0  0  0  0  0  0  # atno 11005 bound_to 11000
  145.5271  141.0429  143.2403 LP  0  0  0  0  0  0  0  0  0  0  0  0  # atno 17320 bound_to 7965
  144.7686  139.6788  143.7204 LP  0  0  0  0  0  0  0  0  0  0  0  0  # atno 17321 bound_to 7965
  139.5833  144.1661  152.1996 LP  0  0  0  0  0  0  0  0  0  0  0  0  # atno 17342 bound_to 10162
  140.0993  144.5553  150.7000 LP  0  0  0  0  0  0  0  0  0  0  0  0  # atno 17343 bound_to 10162
  156.7697  130.4825  149.5421 LP  0  0  0  0  0  0  0  0  0  0  0  0  # atno 17370 bound_to 10713
  156.1366  130.6215  151.0409 LP  0  0  0  0  0  0  0  0  0  0  0  0  # atno 17371 bound_to 10713
  140.3907  134.7442  157.4720 LP  0  0  0  0  0  0  0  0  0  0  0  0  # atno 17394 bound_to 11000
  140.0568  134.6052  155.8795 LP  0  0  0  0  0  0  0  0  0  0  0  0  # atno 17395 bound_to 11000

$$$$
