#       Name:                AV-unprocessed.smi:3250
#       Creating user name   scv26
#       Creation time:       Fri Mar 27 18:31:24 2020


#       File generated by GOLD software.
#

@<TRIPOS>MOLECULE
AV-unprocessed.smi:3250
    45    46     1
SMALL
NO_CHARGES


@<TRIPOS>ATOM
      1 ****        -3.0752   3.2806  -1.4970 C.3            1 S1                 0.0000
      2 ****        -2.1186   3.4246  -0.3049 C.3            1 S1                 0.0000
      3 ****        -2.2875   2.3358   0.6941 N.4            1 S1                 1.0000
      4 ****        -1.7724   2.6830   2.0410 C.3            1 S1                 0.0000
      5 ****        -0.2392   2.5628   2.0976 C.3            1 S1                 0.0000
      6 ****         0.1444   1.2471   1.7186 O.3            1 S1                 0.0000
      7 ****        -0.2304   0.9315   0.3810 C.3            1 S1                 0.0000
      8 ****         0.2861  -0.4777   0.0609 C.3            1 S1                 0.0000
      9 ****         1.7389  -0.5143  -0.0144 N.pl3          1 S1                 0.0000
     10 ****         2.4710  -1.6557  -0.2801 C.ar           1 S1                 0.0000
     11 ****         3.7970  -1.5083  -0.2479 N.ar           1 S1                 0.0000
     12 ****         4.5420  -2.6061  -0.5021 C.ar           1 S1                 0.0000
     13 ****         3.9525  -3.8532  -0.7897 C.ar           1 S1                 0.0000
     14 ****         2.5437  -3.8961  -0.7980 C.ar           1 S1                 0.0000
     15 ****         1.9031  -5.0866  -1.0719 O.3            1 S1                 0.0000
     16 ****         0.4801  -5.0983  -1.0702 C.3            1 S1                 0.0000
     17 ****         1.8059  -2.7868  -0.5411 N.ar           1 S1                 0.0000
     18 ****        -1.7692   1.0099   0.2678 C.3            1 S1                 0.0000
     19 ****        -2.9951   4.1444  -2.1573 H              1 S1                 0.0000
     20 ****        -4.1119   3.2148  -1.1655 H              1 S1                 0.0000
     21 ****        -2.8553   2.3970  -2.0956 H              1 S1                 0.0000
     22 ****        -1.0865   3.4833  -0.6500 H              1 S1                 0.0000
     23 ****        -2.3336   4.3805   0.1743 H              1 S1                 0.0000
     24 ****        -2.0956   3.6825   2.3340 H              1 S1                 0.0000
     25 ****        -2.2132   1.9955   2.7640 H              1 S1                 0.0000
     26 ****         0.2425   3.2994   1.4530 H              1 S1                 0.0000
     27 ****         0.1127   2.7521   3.1119 H              1 S1                 0.0000
     28 ****         0.2312   1.6399  -0.3085 H              1 S1                 0.0000
     29 ****        -0.0604  -1.1890   0.8117 H              1 S1                 0.0000
     30 ****        -0.1130  -0.8050  -0.8998 H              1 S1                 0.0000
     31 ****         2.2552   0.3260   0.2019 H              1 S1                 0.0000
     32 ****         5.6153  -2.4891  -0.4759 H              1 S1                 0.0000
     33 ****         4.5495  -4.7299  -0.9927 H              1 S1                 0.0000
     34 ****         0.1273  -6.1035  -1.2996 H              1 S1                 0.0000
     35 ****         0.0749  -4.4247  -1.8265 H              1 S1                 0.0000
     36 ****         0.0799  -4.8220  -0.0936 H              1 S1                 0.0000
     37 ****        -2.2161   0.2529   0.9139 H              1 S1                 0.0000
     38 ****        -2.0940   0.7698  -0.7438 H              1 S1                 0.0000
     39 ****        -3.2868   2.2329   0.8011 H              1 S1                 0.0000
     40 ****        -0.2945   0.5949   2.3366 LP             1 S1                 0.0000
     41 ****         1.1379   1.1670   1.8003 LP             1 S1                 0.0000
     42 ****         4.2199  -0.6252  -0.0448 LP             1 S1                 0.0000
     43 ****         2.2063  -5.7509  -0.3887 LP             1 S1                 0.0000
     44 ****         2.2013  -5.3822  -1.9795 LP             1 S1                 0.0000
     45 ****         0.8063  -2.8136  -0.5466 LP             1 S1                 0.0000
@<TRIPOS>BOND
    1    1    2 1     
    2    1   19 1     
    3    1   20 1     
    4    1   21 1     
    5    2    3 1     
    6    2   22 1     
    7    2   23 1     
    8    3   18 1     
    9    3    4 1     
   10    3   39 1     
   11    4    5 1     
   12    4   24 1     
   13    4   25 1     
   14    5    6 1     
   15    5   26 1     
   16    5   27 1     
   17    6    7 1     
   18    7    8 1     
   19    7   18 1     
   20    7   28 1     
   21    8    9 1     
   22    8   29 1     
   23    8   30 1     
   24    9   10 1     
   25    9   31 1     
   26   10   17 ar    
   27   10   11 ar    
   28   11   12 ar    
   29   12   13 ar    
   30   12   32 1     
   31   13   14 ar    
   32   13   33 1     
   33   14   15 1     
   34   14   17 ar    
   35   15   16 1     
   36   16   34 1     
   37   16   35 1     
   38   16   36 1     
   39   18   37 1     
   40   18   38 1     
   41    6   40 1     
   42    6   41 1     
   43   11   42 1     
   44   15   43 1     
   45   15   44 1     
   46   17   45 1     
@<TRIPOS>SUBSTRUCTURE
      1 S1             1
@<TRIPOS>SET
LONE_PAIRS      STATIC     ATOMS    <user>   **** ""
6 40 41 42 43 44 45
DONOR_HYDROGENS      STATIC     ATOMS    <user>   **** ""
2 39 31
ATOM$BLUE        STATIC     ATOMS    COLORGROUP SYSTEM
6 40 41 42 43 44 45
ATOM$RED        STATIC     ATOMS    COLORGROUP SYSTEM
2 39 31
