AV-unprocessed.smi:1767|AV-procd|sdf|7139|dock6
  -GOLD-   22720 8373D 1   1.00000     0.00000
 Structure written by MMmdl.
 32 34  0  0  0  0  0  0  0  0  1 V2000
  151.3019  144.4364  157.0708 O   0  0  0  0  0  0  0  0  0  0  0  0
  151.4146  143.1470  157.6372 C   0  0  2  0  0  0  0  0  0  0  0  0
  150.0524  142.4385  157.5008 C   0  0  0  0  0  0  0  0  0  0  0  0
  149.9936  141.5860  156.3269 N   0  0  0  0  0  0  0  0  0  0  0  0
  150.9481  140.7415  155.8917 C   0  0  0  0  0  0  0  0  0  0  0  0
  150.6847  140.0362  154.7956 N   0  0  0  0  0  0  0  0  0  0  0  0
  149.4100  140.4750  154.4808 C   0  0  0  0  0  0  0  0  0  0  0  0
  148.5505  140.1093  153.4202 C   0  0  0  0  0  0  0  0  0  0  0  0
  147.2735  140.6962  153.3008 C   0  0  0  0  0  0  0  0  0  0  0  0
  146.8371  141.6562  154.2368 C   0  0  0  0  0  0  0  0  0  0  0  0
  147.6765  142.0374  155.3011 C   0  0  0  0  0  0  0  0  0  0  0  0
  148.9495  141.4485  155.4178 C   0  0  0  0  0  0  0  0  0  0  0  0
  151.9015  143.1920  159.0794 C   0  0  0  0  0  0  0  0  0  0  0  0
  152.9210  142.3136  159.5064 C   0  0  0  0  0  0  0  0  0  0  0  0
  153.3557  142.3274  160.8459 C   0  0  0  0  0  0  0  0  0  0  0  0
  152.7745  143.2205  161.7662 C   0  0  0  0  0  0  0  0  0  0  0  0
  153.1912  143.2323  163.0545 F   0  0  0  0  0  0  0  0  0  0  0  0
  151.7586  144.1001  161.3464 C   0  0  0  0  0  0  0  0  0  0  0  0
  151.3227  144.0860  160.0073 C   0  0  0  0  0  0  0  0  0  0  0  0
  150.4047  144.5680  156.8046 H   0  0  0  0  0  0  0  0  0  0  0  0
  152.1524  142.6126  157.0369 H   0  0  0  0  0  0  0  0  0  0  0  0
  149.8332  141.8399  158.3859 H   0  0  0  0  0  0  0  0  0  0  0  0
  149.2522  143.1756  157.4181 H   0  0  0  0  0  0  0  0  0  0  0  0
  151.8880  140.6345  156.4133 H   0  0  0  0  0  0  0  0  0  0  0  0
  148.8740  139.3748  152.6977 H   0  0  0  0  0  0  0  0  0  0  0  0
  146.6251  140.4078  152.4865 H   0  0  0  0  0  0  0  0  0  0  0  0
  145.8572  142.0997  154.1378 H   0  0  0  0  0  0  0  0  0  0  0  0
  147.3433  142.7696  156.0213 H   0  0  0  0  0  0  0  0  0  0  0  0
  153.3663  141.6182  158.8100 H   0  0  0  0  0  0  0  0  0  0  0  0
  154.1331  141.6505  161.1681 H   0  0  0  0  0  0  0  0  0  0  0  0
  151.3108  144.7836  162.0525 H   0  0  0  0  0  0  0  0  0  0  0  0
  150.5356  144.7576  159.6971 H   0  0  0  0  0  0  0  0  0  0  0  0
  1  2  1  0  0  0  0
  1 20  1  0  0  0  0
  2  3  1  0  0  0  0
  2 13  1  0  0  0  0
  2 21  1  0  0  0  0
  3  4  1  0  0  0  0
  3 22  1  0  0  0  0
  3 23  1  0  0  0  0
  4 12  1  0  0  0  0
  4  5  1  0  0  0  0
  5  6  2  0  0  0  0
  5 24  1  0  0  0  0
  6  7  1  0  0  0  0
  7 12  2  0  0  0  0
  7  8  1  0  0  0  0
  8  9  2  0  0  0  0
  8 25  1  0  0  0  0
  9 10  1  0  0  0  0
  9 26  1  0  0  0  0
 10 11  2  0  0  0  0
 10 27  1  0  0  0  0
 11 12  1  0  0  0  0
 11 28  1  0  0  0  0
 13 19  1  0  0  0  0
 13 14  2  0  0  0  0
 14 15  1  0  0  0  0
 14 29  1  0  0  0  0
 15 16  2  0  0  0  0
 15 30  1  0  0  0  0
 16 17  1  0  0  0  0
 16 18  1  0  0  0  0
 18 19  2  0  0  0  0
 18 31  1  0  0  0  0
 19 32  1  0  0  0  0
M  END
> <s_m_source_file>
AV-unprocessed.smi

> <i_m_source_file_index>
1767

> <i_lp_mmshare_version>
43012

> <i_f3d_flags>
0

> <s_epik_input>
W2NIXTFbY0hdYyhGKVtjSF1bY0hdYzFbQ0BIXShbT0hdKVtDSDJdbihbY0hdbjIpYyhjMjMpW2NIXVtjSF1bY0hdW2NIXTM=

> <s_epik_cmdline>
J2VwaWtfcHl0aG9uJywgJy1waCcsICc3LjAnLCAnLXRuJywgJzgnLCAnLW1hJywgJzIwMCcsICctbWV0YWxfYmluZGluZycsICctaW1hZScsICc8aW5maWxlLm1hZT4nLCAnLW9tYWUnLCAnPG91dGZpbGUubWFlPic=

> <r_epik_Ionization_Penalty>
0.0696514

> <r_epik_Ionization_Penalty_Charging>
0

> <r_epik_Ionization_Penalty_Neutral>
0.0696514

> <r_epik_State_Penalty>
0.0610247

> <r_epik_Charging_Adjusted_Penalty>
0.0610247

> <i_epik_Tot_Q>
0

> <i_epik_Tot_abs_Q>
0

> <r_epik_Metal_State_Penalty>
6.42746e-05

> <b_epik_Metal_Only>
0

> <s_lp_Force_Field>
OPLS_2005

> <r_lp_Energy>
11.9132

> <b_lp_Chiralities_Consistent>
1

> <s_lp_Variant>
AV-unprocessed.smi:1767-1

> <Gold.Version>
5.8.1

> <Gold.Id.Protein>
6NUR|6NUR_protein|mol2

> <Gold.PLP.Fitness>
52.4102

> <Gold.PLP.PLP>
-48.6027

> <Gold.PLP.part.hbond>
-2.0000

> <Gold.PLP.part.metal>
0.0000

> <Gold.PLP.part.buried>
-0.0098

> <Gold.PLP.part.nonpolar>
-46.7578

> <Gold.PLP.part.repulsive>
0.0701

> <Gold.PLP.ligand.clash>
0.0000

> <Gold.PLP.ligand.torsion>
1.1091

> <Gold.PLP.Chemscore.Hbond>
2.0000

> <Gold.PLP.Chemscore.CHOScore>
0.0000

> <Gold.PLP.Chemscore.Metal>
0.0000

> <Gold.Chemscore.Hbonds>
donor molecule, donor type, donor heavy atom, donor atom, acceptor molecule, acceptor atom, score
      L1  H     1    20       P1  8028  1.00
      P1  H  7989  7998       L1     6  1.00

> <Gold.PLP.Chemscore.Internal.Correction>
0.0258

> <Gold.Rescore>
     Score         DG    S(hbond)    S(metal)    S(lipo)     H(rot)  DE(clash)    DE(int)     intcor
     16.28     -18.59       1.04        0.00     124.30       1.91       1.67       0.64       ----

> <Gold.Chemscore.Fitness>
16.2765

> <Gold.Chemscore.DG>
-18.5939

> <Gold.Chemscore.ZeroCoef>
-5.4800

> <Gold.Chemscore.Hbond>
1.0373

> <Gold.Chemscore.Metal>
0.0000

> <Gold.Chemscore.Lipo>
124.2995

> <Gold.Chemscore.Internal_Hbond>
0.0000

> <Gold.Chemscore.DEClash>
1.6734

> <Gold.Chemscore.DEInternal>
0.6440

> <Gold.Chemscore.Rot>
1.9116

> <Gold.Chemscore.Internal.Correction>
   9.000000E+99

> <Gold.Chemscore.Hbonds>
donor molecule, donor type, donor heavy atom, donor atom, acceptor molecule, acceptor atom, score
      L1  H     1    20       P1  8028  0.88
      P1  H  7989  7998       L1     6  0.11

> <Gold.Chemscore.Hbond.Weighted>
-3.4646

> <Gold.Chemscore.Metal.Weighted>
-0.0000

> <Gold.Chemscore.Lipo.Weighted>
-14.5430

> <Gold.Chemscore.Internal_Hbond.Weighted>
0.0000

> <Gold.Chemscore.DEClash.Weighted>
1.6734

> <Gold.Chemscore.DEInternal.Weighted>
0.6440

> <Gold.Chemscore.Rot.Weighted>
4.8937

> <Gold.Chemscore.Internal.Correction.Weighted>
   9.000000E+99

> <Gold.Protein.RotatedTorsions>
[ 6907 6896 6895 6894 ] final  -70.06 input  -60.11 | X-H torsion
[ 7974 7965 7964 7962 ] final  -97.20 input  175.53 | X-H torsion
[ 8008 7997 7996 7995 ] final  106.51 input   59.86 | X-H torsion
[ 10167 10162 10161 10158 ] final  -60.92 input  -65.29 | X-H torsion
[ 10718 10713 10712 10709 ] final -125.49 input   66.30 | X-H torsion
[ 10763 10752 10751 10750 ] final   36.98 input  -60.55 | X-H torsion
[ 11005 11000 10999 10996 ] final   20.16 input  -57.11 | X-H torsion

> <Gold.Protein.ActiveResidues>
 VAL166  LYS551  ARG553  GLY616  TRP617  ASP618  TYR619  PRO620  LYS621  CYS622 
 ASP623  PHE694  ASN695  SER759  ASP760  ASP761  ALA762  ILE779  LEU786  VAL792 
 PHE793  MET794  SER795  GLU796  ALA797  LYS798  CYS799  TRP800  GLU811  SER814 

> <Gold.Protein.RotatedAtoms>
  150.7275  134.5507  159.5792 H   0  0  0  0  0  0  0  0  0  0  0  0  # atno 6907 bound_to 6896
  152.2995  134.7624  160.0370 H   0  0  0  0  0  0  0  0  0  0  0  0  # atno 6908 bound_to 6896
  151.8210  133.3359  159.3621 H   0  0  0  0  0  0  0  0  0  0  0  0  # atno 6909 bound_to 6896
  145.3368  140.9452  143.2630 H   0  0  0  0  0  0  0  0  0  0  0  0  # atno 7974 bound_to 7965
  156.1749  140.3111  155.9041 H   0  0  0  0  0  0  0  0  0  0  0  0  # atno 8008 bound_to 7997
  155.3508  140.0471  157.3063 H   0  0  0  0  0  0  0  0  0  0  0  0  # atno 8009 bound_to 7997
  154.5280  140.2221  155.8866 H   0  0  0  0  0  0  0  0  0  0  0  0  # atno 8010 bound_to 7997
  140.6040  143.2368  151.5864 H   0  0  0  0  0  0  0  0  0  0  0  0  # atno 10167 bound_to 10162
  156.1680  130.6648  151.0141 H   0  0  0  0  0  0  0  0  0  0  0  0  # atno 10718 bound_to 10713
  153.0055  135.6290  154.2072 H   0  0  0  0  0  0  0  0  0  0  0  0  # atno 10763 bound_to 10752
  154.1815  135.2813  155.3052 H   0  0  0  0  0  0  0  0  0  0  0  0  # atno 10764 bound_to 10752
  154.5831  135.5641  153.7264 H   0  0  0  0  0  0  0  0  0  0  0  0  # atno 10765 bound_to 10752
  140.4056  134.1672  155.7665 H   0  0  0  0  0  0  0  0  0  0  0  0  # atno 11005 bound_to 11000
  144.8821  139.4889  143.6718 LP  0  0  0  0  0  0  0  0  0  0  0  0  # atno 17320 bound_to 7965
  146.3023  139.7468  142.9082 LP  0  0  0  0  0  0  0  0  0  0  0  0  # atno 17321 bound_to 7965
  139.5311  144.2913  152.1150 LP  0  0  0  0  0  0  0  0  0  0  0  0  # atno 17342 bound_to 10162
  140.2099  144.4573  150.6391 LP  0  0  0  0  0  0  0  0  0  0  0  0  # atno 17343 bound_to 10162
  157.6782  131.0845  150.7439 LP  0  0  0  0  0  0  0  0  0  0  0  0  # atno 17370 bound_to 10713
  156.7499  130.4765  149.5459 LP  0  0  0  0  0  0  0  0  0  0  0  0  # atno 17371 bound_to 10713
  141.1840  133.8352  157.1154 LP  0  0  0  0  0  0  0  0  0  0  0  0  # atno 17394 bound_to 11000
  140.0304  134.9904  157.0769 LP  0  0  0  0  0  0  0  0  0  0  0  0  # atno 17395 bound_to 11000

$$$$
