AV-unprocessed.smi:2925|AV-procd|sdf|11225|dock6
  -GOLD-   2272016113D 1   1.00000     0.00000
 Structure written by MMmdl.
 44 45  0  0  0  0  0  0  0  0  1 V2000
  147.0378  141.6647  153.5597 C   0  0  0  0  0  0  0  0  0  0  0  0
  147.5307  140.2213  153.7409 C   0  0  0  0  0  0  0  0  0  0  0  0
  148.9966  140.1190  154.2120 C   0  0  1  0  0  0  0  0  0  0  0  0
  149.1206  140.7084  155.5449 N   0  0  0  0  0  0  0  0  0  0  0  0
  150.2652  141.1025  156.1210 C   0  0  0  0  0  0  0  0  0  0  0  0
  151.3694  141.0277  155.5801 O   0  0  0  0  0  0  0  0  0  0  0  0
  150.0523  141.5569  157.3685 N   0  0  0  0  0  0  0  0  0  0  0  0
  151.0397  141.9873  158.2677 C   0  0  0  0  0  0  0  0  0  0  0  0
  152.0063  141.1133  158.6533 C   0  0  0  0  0  0  0  0  0  0  0  0
  152.0688  139.6962  158.1055 C   0  0  0  0  0  0  0  0  0  0  0  0
  153.0186  141.5526  159.5911 C   0  0  0  0  0  0  0  0  0  0  0  0
  152.9794  142.8054  160.0642 C   0  0  0  0  0  0  0  0  0  0  0  0
  151.9710  143.7041  159.6873 N   0  0  0  0  0  0  0  0  0  0  0  0
  152.0049  145.0464  160.2744 C   0  0  0  0  0  0  0  0  0  0  0  0
  150.9649  143.3554  158.8345 C   0  0  0  0  0  0  0  0  0  0  0  0
  150.0503  144.1428  158.5810 O   0  0  0  0  0  0  0  0  0  0  0  0
  149.5022  138.6602  154.2473 C   0  0  1  0  0  0  0  0  0  0  0  0
  151.0042  138.5096  154.5039 C   0  0  0  0  0  0  0  0  0  0  0  0
  151.0799  137.1350  155.1268 C   0  0  0  0  0  0  0  0  0  0  0  0
  149.8289  137.1283  155.9965 C   0  0  0  0  0  0  0  0  0  0  0  0
  148.8782  137.9338  155.3072 O   0  0  0  0  0  0  0  0  0  0  0  0
  146.0172  141.6787  153.1769 H   0  0  0  0  0  0  0  0  0  0  0  0
  147.6650  142.2071  152.8518 H   0  0  0  0  0  0  0  0  0  0  0  0
  147.0423  142.2140  154.5013 H   0  0  0  0  0  0  0  0  0  0  0  0
  146.8790  139.7037  154.4458 H   0  0  0  0  0  0  0  0  0  0  0  0
  147.4161  139.7041  152.7881 H   0  0  0  0  0  0  0  0  0  0  0  0
  149.6115  140.6782  153.5041 H   0  0  0  0  0  0  0  0  0  0  0  0
  148.2674  140.8063  156.0749 H   0  0  0  0  0  0  0  0  0  0  0  0
  149.1222  141.4579  157.7474 H   0  0  0  0  0  0  0  0  0  0  0  0
  152.9257  139.1547  158.5071 H   0  0  0  0  0  0  0  0  0  0  0  0
  152.1605  139.7102  157.0189 H   0  0  0  0  0  0  0  0  0  0  0  0
  151.1672  139.1432  158.3707 H   0  0  0  0  0  0  0  0  0  0  0  0
  153.8062  140.8829  159.9046 H   0  0  0  0  0  0  0  0  0  0  0  0
  153.7080  143.1905  160.7626 H   0  0  0  0  0  0  0  0  0  0  0  0
  151.9588  145.8107  159.4971 H   0  0  0  0  0  0  0  0  0  0  0  0
  152.9122  145.2306  160.8507 H   0  0  0  0  0  0  0  0  0  0  0  0
  151.1550  145.1901  160.9429 H   0  0  0  0  0  0  0  0  0  0  0  0
  149.2501  138.1528  153.3145 H   0  0  0  0  0  0  0  0  0  0  0  0
  151.6019  138.5974  153.5962 H   0  0  0  0  0  0  0  0  0  0  0  0
  151.3514  139.2592  155.2166 H   0  0  0  0  0  0  0  0  0  0  0  0
  151.0074  136.3680  154.3546 H   0  0  0  0  0  0  0  0  0  0  0  0
  151.9957  136.9678  155.6942 H   0  0  0  0  0  0  0  0  0  0  0  0
  149.4471  136.1225  156.1731 H   0  0  0  0  0  0  0  0  0  0  0  0
  150.0348  137.5883  156.9639 H   0  0  0  0  0  0  0  0  0  0  0  0
  1  2  1  0  0  0  0
  1 22  1  0  0  0  0
  1 23  1  0  0  0  0
  1 24  1  0  0  0  0
  2  3  1  0  0  0  0
  2 25  1  0  0  0  0
  2 26  1  0  0  0  0
  3  4  1  0  0  0  0
  3 17  1  0  0  0  0
  3 27  1  0  0  0  0
  4  5  1  0  0  0  0
  4 28  1  0  0  0  0
  5  6  2  0  0  0  0
  5  7  1  0  0  0  0
  7  8  1  0  0  0  0
  7 29  1  0  0  0  0
  8 15  1  0  0  0  0
  8  9  2  0  0  0  0
  9 10  1  0  0  0  0
  9 11  1  0  0  0  0
 10 30  1  0  0  0  0
 10 31  1  0  0  0  0
 10 32  1  0  0  0  0
 11 12  2  0  0  0  0
 11 33  1  0  0  0  0
 12 13  1  0  0  0  0
 12 34  1  0  0  0  0
 13 14  1  0  0  0  0
 13 15  1  0  0  0  0
 14 35  1  0  0  0  0
 14 36  1  0  0  0  0
 14 37  1  0  0  0  0
 15 16  2  0  0  0  0
 17 21  1  0  0  0  0
 17 18  1  0  0  0  0
 17 38  1  0  0  0  0
 18 19  1  0  0  0  0
 18 39  1  0  0  0  0
 18 40  1  0  0  0  0
 19 20  1  0  0  0  0
 19 41  1  0  0  0  0
 19 42  1  0  0  0  0
 20 21  1  0  0  0  0
 20 43  1  0  0  0  0
 20 44  1  0  0  0  0
M  END
> <s_m_source_file>
AV-unprocessed.smi

> <i_m_source_file_index>
2925

> <i_lp_mmshare_version>
43012

> <i_f3d_flags>
0

> <s_epik_input>
TzFbQ0gyXVtDSDJdW0NIMl1bQ0BIXTFbQ0BIXShbQ0gyXVtDSDNdKVtOSF1DKD1PKVtOSF1jMmMoW0NIM10pW2NIXVtjSF1uKFtDSDNdKWMyPU8=

> <s_epik_cmdline>
J2VwaWtfcHl0aG9uJywgJy1waCcsICc3LjAnLCAnLXRuJywgJzgnLCAnLW1hJywgJzIwMCcsICctbWV0YWxfYmluZGluZycsICctaW1hZScsICc8aW5maWxlLm1hZT4nLCAnLW9tYWUnLCAnPG91dGZpbGUubWFlPic=

> <r_lp_tautomer_probability>
1

> <r_epik_Ionization_Penalty>
2.58789e-05

> <r_epik_Ionization_Penalty_Charging>
6.72534e-06

> <r_epik_Ionization_Penalty_Neutral>
1.91535e-05

> <r_epik_State_Penalty>
-0

> <r_epik_Charging_Adjusted_Penalty>
6.72534e-06

> <i_epik_Tot_Q>
0

> <i_epik_Tot_abs_Q>
0

> <r_epik_Metal_State_Penalty>
-0

> <b_epik_Metal_Only>
0

> <s_lp_Force_Field>
OPLS_2005

> <r_lp_Energy>
35.3317

> <b_lp_Chiralities_Consistent>
1

> <s_lp_Variant>
AV-unprocessed.smi:2925-4

> <Gold.Version>
5.8.1

> <Gold.Id.Protein>
6NUR|6NUR_protein|mol2

> <Gold.PLP.Fitness>
40.2864

> <Gold.PLP.PLP>
-39.8379

> <Gold.PLP.part.hbond>
-1.0000

> <Gold.PLP.part.metal>
0.0000

> <Gold.PLP.part.buried>
-3.3960

> <Gold.PLP.part.nonpolar>
-35.8500

> <Gold.PLP.part.repulsive>
0.4370

> <Gold.PLP.ligand.clash>
0.0000

> <Gold.PLP.ligand.torsion>
0.8510

> <Gold.PLP.Chemscore.Hbond>
0.5054

> <Gold.PLP.Chemscore.CHOScore>
0.0000

> <Gold.PLP.Chemscore.Metal>
0.0000

> <Gold.Chemscore.Hbonds>
donor molecule, donor type, donor heavy atom, donor atom, acceptor molecule, acceptor atom, score
      P1  H  7989  7998       L1     6  0.52

> <Gold.PLP.Chemscore.Internal.Correction>
0.6342

> <Gold.Rescore>
     Score         DG    S(hbond)    S(metal)    S(lipo)     H(rot)  DE(clash)    DE(int)     intcor
     12.63     -15.31       0.56        0.00      97.70       1.36       0.40       2.27       ----

> <Gold.Chemscore.Fitness>
12.6332

> <Gold.Chemscore.DG>
-15.3062

> <Gold.Chemscore.ZeroCoef>
-5.4800

> <Gold.Chemscore.Hbond>
0.5603

> <Gold.Chemscore.Metal>
0.0000

> <Gold.Chemscore.Lipo>
97.7020

> <Gold.Chemscore.Internal_Hbond>
0.0000

> <Gold.Chemscore.DEClash>
0.4039

> <Gold.Chemscore.DEInternal>
2.2691

> <Gold.Chemscore.Rot>
1.3579

> <Gold.Chemscore.Internal.Correction>
   9.000000E+99

> <Gold.Chemscore.Hbonds>
donor molecule, donor type, donor heavy atom, donor atom, acceptor molecule, acceptor atom, score
      P1  H  7989  7998       L1     6  0.50

> <Gold.Chemscore.Hbond.Weighted>
-1.8714

> <Gold.Chemscore.Metal.Weighted>
-0.0000

> <Gold.Chemscore.Lipo.Weighted>
-11.4311

> <Gold.Chemscore.Internal_Hbond.Weighted>
0.0000

> <Gold.Chemscore.DEClash.Weighted>
0.4039

> <Gold.Chemscore.DEInternal.Weighted>
2.2691

> <Gold.Chemscore.Rot.Weighted>
3.4763

> <Gold.Chemscore.Internal.Correction.Weighted>
   9.000000E+99

> <Gold.Protein.RotatedTorsions>
[ 6907 6896 6895 6894 ] final   32.17 input  -60.11 | X-H torsion
[ 7974 7965 7964 7962 ] final  -61.10 input  175.53 | X-H torsion
[ 8008 7997 7996 7995 ] final  140.33 input   59.86 | X-H torsion
[ 10167 10162 10161 10158 ] final   29.35 input  -65.29 | X-H torsion
[ 10718 10713 10712 10709 ] final -138.44 input   66.30 | X-H torsion
[ 10763 10752 10751 10750 ] final  106.12 input  -60.55 | X-H torsion
[ 11005 11000 10999 10996 ] final   86.99 input  -57.11 | X-H torsion

> <Gold.Protein.ActiveResidues>
 VAL166  LYS551  ARG553  GLY616  TRP617  ASP618  TYR619  PRO620  LYS621  CYS622 
 ASP623  PHE694  ASN695  SER759  ASP760  ASP761  ALA762  ILE779  LEU786  VAL792 
 PHE793  MET794  SER795  GLU796  ALA797  LYS798  CYS799  TRP800  GLU811  SER814 

> <Gold.Protein.RotatedAtoms>
  152.0707  134.9535  160.0574 H   0  0  0  0  0  0  0  0  0  0  0  0  # atno 6907 bound_to 6896
  152.0862  133.4172  159.4531 H   0  0  0  0  0  0  0  0  0  0  0  0  # atno 6908 bound_to 6896
  150.6836  134.2844  159.4684 H   0  0  0  0  0  0  0  0  0  0  0  0  # atno 6909 bound_to 6896
  145.8076  140.8618  143.0199 H   0  0  0  0  0  0  0  0  0  0  0  0  # atno 7974 bound_to 7965
  156.2980  140.2344  156.4383 H   0  0  0  0  0  0  0  0  0  0  0  0  # atno 8008 bound_to 7997
  154.8209  140.0438  157.1430 H   0  0  0  0  0  0  0  0  0  0  0  0  # atno 8009 bound_to 7997
  154.9316  140.3017  155.5168 H   0  0  0  0  0  0  0  0  0  0  0  0  # atno 8010 bound_to 7997
  140.4773  144.0670  150.6254 H   0  0  0  0  0  0  0  0  0  0  0  0  # atno 10167 bound_to 10162
  156.2994  130.7420  151.1467 H   0  0  0  0  0  0  0  0  0  0  0  0  # atno 10718 bound_to 10713
  153.3887  135.3887  155.1908 H   0  0  0  0  0  0  0  0  0  0  0  0  # atno 10763 bound_to 10752
  154.8716  135.3743  154.4765 H   0  0  0  0  0  0  0  0  0  0  0  0  # atno 10764 bound_to 10752
  153.5249  135.7086  153.5774 H   0  0  0  0  0  0  0  0  0  0  0  0  # atno 10765 bound_to 10752
  139.8930  134.8392  156.2798 H   0  0  0  0  0  0  0  0  0  0  0  0  # atno 11005 bound_to 11000
  144.6761  140.0349  143.7482 LP  0  0  0  0  0  0  0  0  0  0  0  0  # atno 17320 bound_to 7965
  145.9812  139.2942  143.1041 LP  0  0  0  0  0  0  0  0  0  0  0  0  # atno 17321 bound_to 7965
  140.3902  143.2756  152.0069 LP  0  0  0  0  0  0  0  0  0  0  0  0  # atno 17342 bound_to 10162
  139.4827  144.6083  151.7480 LP  0  0  0  0  0  0  0  0  0  0  0  0  # atno 17343 bound_to 10162
  157.7364  131.0563  150.5416 LP  0  0  0  0  0  0  0  0  0  0  0  0  # atno 17370 bound_to 10713
  156.5542  130.4239  149.6093 LP  0  0  0  0  0  0  0  0  0  0  0  0  # atno 17371 bound_to 10713
  141.0046  133.7131  156.1014 LP  0  0  0  0  0  0  0  0  0  0  0  0  # atno 17394 bound_to 11000
  140.7451  134.4107  157.5549 LP  0  0  0  0  0  0  0  0  0  0  0  0  # atno 17395 bound_to 11000

$$$$
