#       Name:                AV-unprocessed.smi:102
#       Creating user name   scv26
#       Creation time:       Thu Mar 26 17:53:24 2020


#       File generated by GOLD software.
#

@<TRIPOS>MOLECULE
AV-unprocessed.smi:102
    56    57     1
SMALL
NO_CHARGES


@<TRIPOS>ATOM
      1 ****        -4.3314   3.3754   1.8622 C.3            1 S1                 0.0000
      2 ****        -3.7303   2.1575   1.1734 C.2            1 S1                 0.0000
      3 ****        -3.8358   1.0298   1.6562 O.2            1 S1                 0.0000
      4 ****        -3.1023   2.4751   0.0269 O.3            1 S1                 0.0000
      5 ****        -2.4552   1.4697  -0.7412 C.3            1 S1                 0.0000
      6 ****        -0.9741   1.3416  -0.3380 C.3            1 S1                 0.0000
      7 ****        -0.8674   0.6572   0.9067 O.3            1 S1                 0.0000
      8 ****        -0.7544  -0.7200   0.7006 C.3            1 S1                 0.0000
      9 ****         0.3561  -1.2486   1.5841 N.am           1 S1                 0.0000
     10 ****         1.4525  -0.4575   1.8825 C.2            1 S1                 0.0000
     11 ****         2.4595  -0.9193   2.6509 C.2            1 S1                 0.0000
     12 ****         3.5121  -0.1282   2.9210 F              1 S1                 0.0000
     13 ****         2.3985  -2.2803   3.1805 C.2            1 S1                 0.0000
     14 ****         3.3161  -2.6935   3.8876 O.2            1 S1                 0.0000
     15 ****         1.3123  -3.0420   2.8599 N.pl3          1 S1                -1.0000
     16 ****         0.2948  -2.5818   2.0746 C.2            1 S1                 0.0000
     17 ****        -0.6736  -3.2721   1.7563 O.2            1 S1                 0.0000
     18 ****        -0.4807  -0.9513  -0.7995 C.3            1 S1                 0.0000
     19 ****         0.5832  -1.8678  -1.0453 O.3            1 S1                 0.0000
     20 ****         0.6717  -2.5046  -2.2226 C.2            1 S1                 0.0000
     21 ****         1.8654  -3.4480  -2.2821 C.3            1 S1                 0.0000
     22 ****        -0.0914  -2.3703  -3.1794 O.2            1 S1                 0.0000
     23 ****        -0.1841   0.4560  -1.3065 C.3            1 S1                 0.0000
     24 ****         1.2056   0.7533  -1.1980 O.3            1 S1                 0.0000
     25 ****         1.7684   1.6902  -1.9779 C.2            1 S1                 0.0000
     26 ****         3.2610   1.8384  -1.7158 C.3            1 S1                 0.0000
     27 ****         1.1894   2.3806  -2.8167 O.2            1 S1                 0.0000
     28 ****        -4.9300   3.9543   1.1587 H              1 S1                 0.0000
     29 ****        -3.5407   4.0150   2.2548 H              1 S1                 0.0000
     30 ****        -4.9715   3.0698   2.6902 H              1 S1                 0.0000
     31 ****        -2.9746   0.5125  -0.6766 H              1 S1                 0.0000
     32 ****        -2.5139   1.7803  -1.7845 H              1 S1                 0.0000
     33 ****        -0.5360   2.3377  -0.2623 H              1 S1                 0.0000
     34 ****        -1.6767  -1.1914   1.0423 H              1 S1                 0.0000
     35 ****         1.5142   0.5475   1.4931 H              1 S1                 0.0000
     36 ****        -1.4135  -1.3108  -1.2368 H              1 S1                 0.0000
     37 ****         2.0719  -3.8681  -1.2971 H              1 S1                 0.0000
     38 ****         2.7511  -2.9121  -2.6231 H              1 S1                 0.0000
     39 ****         1.6683  -4.2685  -2.9721 H              1 S1                 0.0000
     40 ****        -0.5154   0.5705  -2.3398 H              1 S1                 0.0000
     41 ****         3.7577   0.8712  -1.7965 H              1 S1                 0.0000
     42 ****         3.4310   2.2327  -0.7139 H              1 S1                 0.0000
     43 ****         3.7114   2.5198  -2.4377 H              1 S1                 0.0000
     44 ****        -4.3245   0.8989   2.5188 LP             1 S1                 0.0000
     45 ****        -3.4327   0.2448   1.1858 LP             1 S1                 0.0000
     46 ****        -1.6832   0.8420   1.4547 LP             1 S1                 0.0000
     47 ****        -0.0576   0.9845   1.3937 LP             1 S1                 0.0000
     48 ****         4.0938  -2.1000   4.0950 LP             1 S1                 0.0000
     49 ****         3.2845  -3.6230   4.2552 LP             1 S1                 0.0000
     50 ****         1.2596  -3.9754   3.2148 LP             1 S1                 0.0000
     51 ****        -1.3878  -2.8911   1.1691 LP             1 S1                 0.0000
     52 ****        -0.7460  -4.2138   2.0850 LP             1 S1                 0.0000
     53 ****        -0.8636  -1.7379  -3.1181 LP             1 S1                 0.0000
     54 ****         0.0611  -2.8936  -4.0178 LP             1 S1                 0.0000
     55 ****         0.2070   2.2675  -2.9655 LP             1 S1                 0.0000
     56 ****         1.7015   3.0546  -3.3492 LP             1 S1                 0.0000
@<TRIPOS>BOND
    1    1    2 1     
    2    1   28 1     
    3    1   29 1     
    4    1   30 1     
    5    2    3 2     
    6    2    4 1     
    7    4    5 1     
    8    5    6 1     
    9    5   31 1     
   10    5   32 1     
   11    6   23 1     
   12    6    7 1     
   13    6   33 1     
   14    7    8 1     
   15    8    9 1     
   16    8   18 1     
   17    8   34 1     
   18    9   16 am    
   19    9   10 1     
   20   10   11 2     
   21   10   35 1     
   22   11   12 1     
   23   11   13 1     
   24   13   14 2     
   25   13   15 1     
   26   15   16 1     
   27   16   17 2     
   28   18   19 1     
   29   18   23 1     
   30   18   36 1     
   31   19   20 1     
   32   20   21 1     
   33   20   22 2     
   34   21   37 1     
   35   21   38 1     
   36   21   39 1     
   37   23   24 1     
   38   23   40 1     
   39   24   25 1     
   40   25   26 1     
   41   25   27 2     
   42   26   41 1     
   43   26   42 1     
   44   26   43 1     
   45    3   44 1     
   46    3   45 1     
   47    7   46 1     
   48    7   47 1     
   49   14   48 1     
   50   14   49 1     
   51   15   50 1     
   52   17   51 1     
   53   17   52 1     
   54   22   53 1     
   55   22   54 1     
   56   27   55 1     
   57   27   56 1     
@<TRIPOS>SUBSTRUCTURE
      1 S1             1
@<TRIPOS>SET
LONE_PAIRS      STATIC     ATOMS    <user>   **** ""
13 44 45 46 47 48 49 50 51 52 53 54 55 56
ATOM$BLUE        STATIC     ATOMS    COLORGROUP SYSTEM
13 44 45 46 47 48 49 50 51 52 53 54 55 56
