AV-unprocessed.smi:1356|AV-procd|sdf|5542|dock3
  -GOLD-   22720 5133D 1   1.00000     0.00000
 Structure written by MMmdl.
 41 42  0  0  0  0  0  0  0  0  1 V2000
  150.2135  131.7529  155.1145 C   0  0  0  0  0  0  0  0  0  0  0  0
  149.0832  132.3323  154.2819 C   0  0  2  0  0  0  0  0  0  0  0  0
  149.3939  133.2820  153.1509 C   0  0  0  0  0  0  0  0  0  0  0  0
  148.6210  133.7824  154.3540 C   0  0  2  0  0  0  0  0  0  0  0  0
  149.3063  134.7160  155.2939 C   0  0  0  0  0  0  0  0  0  0  0  0
  149.4780  134.4476  156.4831 O   0  0  0  0  0  0  0  0  0  0  0  0
  149.6594  135.8886  154.7455 N   0  0  0  0  0  0  0  0  0  0  0  0
  150.3043  136.9855  155.4581 C   0  0  0  0  0  0  0  0  0  0  0  0
  151.2322  137.7956  154.5321 C   0  0  0  0  0  0  0  0  0  0  0  0
  151.9428  138.9403  155.2600 C   0  0  0  0  0  0  0  0  0  0  0  0
  152.9381  139.4720  154.7672 O   0  0  0  0  0  0  0  0  0  0  0  0
  151.4147  139.3178  156.4344 N   0  0  0  0  0  0  0  0  0  0  0  0
  151.9319  140.3901  157.2770 C   0  0  0  0  0  0  0  0  0  0  0  0
  151.0416  141.6419  157.2080 C   0  0  0  0  0  0  0  0  0  0  0  0
  151.4942  142.7236  158.1700 C   0  0  0  0  0  0  0  0  0  0  0  0
  151.5305  144.0757  157.7673 C   0  0  0  0  0  0  0  0  0  0  0  0
  151.9625  145.0412  158.6973 C   0  0  0  0  0  0  0  0  0  0  0  0
  152.3410  144.6196  159.9865 C   0  0  0  0  0  0  0  0  0  0  0  0
  152.2704  143.2452  160.2896 C   0  0  0  0  0  0  0  0  0  0  0  0
  151.8576  142.3113  159.4055 N   0  0  0  0  0  0  0  0  0  0  0  0
  151.0549  132.4434  155.1772 H   0  0  0  0  0  0  0  0  0  0  0  0
  150.5671  130.8245  154.6657 H   0  0  0  0  0  0  0  0  0  0  0  0
  149.8620  131.5370  156.1236 H   0  0  0  0  0  0  0  0  0  0  0  0
  148.2840  131.6148  154.1070 H   0  0  0  0  0  0  0  0  0  0  0  0
  150.4274  133.6041  153.0329 H   0  0  0  0  0  0  0  0  0  0  0  0
  148.8408  133.1673  152.2212 H   0  0  0  0  0  0  0  0  0  0  0  0
  147.5492  133.9368  154.2456 H   0  0  0  0  0  0  0  0  0  0  0  0
  149.4607  136.0330  153.7658 H   0  0  0  0  0  0  0  0  0  0  0  0
  149.5203  137.6299  155.8579 H   0  0  0  0  0  0  0  0  0  0  0  0
  150.8535  136.5945  156.3167 H   0  0  0  0  0  0  0  0  0  0  0  0
  151.9930  137.1457  154.0979 H   0  0  0  0  0  0  0  0  0  0  0  0
  150.6548  138.2007  153.6995 H   0  0  0  0  0  0  0  0  0  0  0  0
  150.5943  138.8314  156.7664 H   0  0  0  0  0  0  0  0  0  0  0  0
  151.9790  140.0216  158.3022 H   0  0  0  0  0  0  0  0  0  0  0  0
  152.9557  140.6333  156.9873 H   0  0  0  0  0  0  0  0  0  0  0  0
  151.0386  142.0478  156.1957 H   0  0  0  0  0  0  0  0  0  0  0  0
  150.0075  141.3776  157.4343 H   0  0  0  0  0  0  0  0  0  0  0  0
  151.2354  144.3679  156.7701 H   0  0  0  0  0  0  0  0  0  0  0  0
  152.0031  146.0859  158.4264 H   0  0  0  0  0  0  0  0  0  0  0  0
  152.6773  145.3321  160.7252 H   0  0  0  0  0  0  0  0  0  0  0  0
  152.5533  142.8864  161.2682 H   0  0  0  0  0  0  0  0  0  0  0  0
  1  2  1  0  0  0  0
  1 21  1  0  0  0  0
  1 22  1  0  0  0  0
  1 23  1  0  0  0  0
  2  4  1  0  0  0  0
  2  3  1  0  0  0  0
  2 24  1  0  0  0  0
  3  4  1  0  0  0  0
  3 25  1  0  0  0  0
  3 26  1  0  0  0  0
  4  5  1  0  0  0  0
  4 27  1  0  0  0  0
  5  6  2  0  0  0  0
  5  7  1  0  0  0  0
  7  8  1  0  0  0  0
  7 28  1  0  0  0  0
  8  9  1  0  0  0  0
  8 29  1  0  0  0  0
  8 30  1  0  0  0  0
  9 10  1  0  0  0  0
  9 31  1  0  0  0  0
  9 32  1  0  0  0  0
 10 11  2  0  0  0  0
 10 12  1  0  0  0  0
 12 13  1  0  0  0  0
 12 33  1  0  0  0  0
 13 14  1  0  0  0  0
 13 34  1  0  0  0  0
 13 35  1  0  0  0  0
 14 15  1  0  0  0  0
 14 36  1  0  0  0  0
 14 37  1  0  0  0  0
 15 20  1  0  0  0  0
 15 16  2  0  0  0  0
 16 17  1  0  0  0  0
 16 38  1  0  0  0  0
 17 18  2  0  0  0  0
 17 39  1  0  0  0  0
 18 19  1  0  0  0  0
 18 40  1  0  0  0  0
 19 20  2  0  0  0  0
 19 41  1  0  0  0  0
M  END
> <s_m_source_file>
AV-unprocessed.smi

> <i_m_source_file_index>
1356

> <i_lp_mmshare_version>
43012

> <i_f3d_flags>
0

> <s_epik_input>
W0NIM11bQ0BASF0xW0NIMl1bQ0BIXTFDKD1PKVtOSF1bQ0gyXVtDSDJdQyg9TylbTkhdW0NIMl1bQ0gyXWMyW2NIXVtjSF1bY0hdW2NIXW4y

> <s_epik_cmdline>
J2VwaWtfcHl0aG9uJywgJy1waCcsICc3LjAnLCAnLXRuJywgJzgnLCAnLW1hJywgJzIwMCcsICctbWV0YWxfYmluZGluZycsICctaW1hZScsICc8aW5maWxlLm1hZT4nLCAnLW9tYWUnLCAnPG91dGZpbGUubWFlPic=

> <r_epik_Ionization_Penalty>
0.0258005

> <r_epik_Ionization_Penalty_Charging>
0

> <r_epik_Ionization_Penalty_Neutral>
0.0258005

> <r_epik_State_Penalty>
0.0210245

> <r_epik_Charging_Adjusted_Penalty>
0.0210245

> <i_epik_Tot_Q>
0

> <i_epik_Tot_abs_Q>
0

> <r_epik_Metal_State_Penalty>
0.0201445

> <b_epik_Metal_Only>
0

> <s_lp_Force_Field>
OPLS_2005

> <r_lp_Energy>
6.96632

> <b_lp_Chiralities_Consistent>
1

> <s_lp_Variant>
AV-unprocessed.smi:1356-3

> <Gold.Version>
5.8.1

> <Gold.Id.Protein>
6NUR|6NUR_protein|mol2

> <Gold.PLP.Fitness>
48.1735

> <Gold.PLP.PLP>
-43.3006

> <Gold.PLP.part.hbond>
-2.9091

> <Gold.PLP.part.metal>
0.0000

> <Gold.PLP.part.buried>
-5.8228

> <Gold.PLP.part.nonpolar>
-34.3994

> <Gold.PLP.part.repulsive>
0.1521

> <Gold.PLP.ligand.clash>
0.0000

> <Gold.PLP.ligand.torsion>
0.8616

> <Gold.PLP.Chemscore.Hbond>
2.1054

> <Gold.PLP.Chemscore.CHOScore>
0.0000

> <Gold.PLP.Chemscore.Metal>
0.0000

> <Gold.Chemscore.Hbonds>
donor molecule, donor type, donor heavy atom, donor atom, acceptor molecule, acceptor atom, score
      L1  H     7    28       P1  7948  1.00
      P1  H  7989  7998       L1    11  0.13
      P1  H  7997  8009       L1    11  1.00

> <Gold.PLP.Chemscore.Internal.Correction>
0.2796

> <Gold.Rescore>
     Score         DG    S(hbond)    S(metal)    S(lipo)     H(rot)  DE(clash)    DE(int)     intcor
     16.88     -17.80       1.74        0.00     103.14       2.18       0.02       0.89       ----

> <Gold.Chemscore.Fitness>
16.8825

> <Gold.Chemscore.DG>
-17.7961

> <Gold.Chemscore.ZeroCoef>
-5.4800

> <Gold.Chemscore.Hbond>
1.7416

> <Gold.Chemscore.Metal>
0.0000

> <Gold.Chemscore.Lipo>
103.1435

> <Gold.Chemscore.Internal_Hbond>
0.0000

> <Gold.Chemscore.DEClash>
0.0238

> <Gold.Chemscore.DEInternal>
0.8898

> <Gold.Chemscore.Rot>
2.1753

> <Gold.Chemscore.Internal.Correction>
   9.000000E+99

> <Gold.Chemscore.Hbonds>
donor molecule, donor type, donor heavy atom, donor atom, acceptor molecule, acceptor atom, score
      L1  H     7    28       P1  7948  0.60
      P1  H  7989  7998       L1    11  0.01
      P1  H  7997  8009       L1    11  0.95

> <Gold.Chemscore.Hbond.Weighted>
-5.8169

> <Gold.Chemscore.Metal.Weighted>
-0.0000

> <Gold.Chemscore.Lipo.Weighted>
-12.0678

> <Gold.Chemscore.Internal_Hbond.Weighted>
0.0000

> <Gold.Chemscore.DEClash.Weighted>
0.0238

> <Gold.Chemscore.DEInternal.Weighted>
0.8898

> <Gold.Chemscore.Rot.Weighted>
5.5687

> <Gold.Chemscore.Internal.Correction.Weighted>
   9.000000E+99

> <Gold.Protein.RotatedTorsions>
[ 6907 6896 6895 6894 ] final  -87.88 input  -60.11 | X-H torsion
[ 7974 7965 7964 7962 ] final  144.34 input  175.53 | X-H torsion
[ 8008 7997 7996 7995 ] final -130.29 input   59.86 | X-H torsion
[ 10167 10162 10161 10158 ] final -161.38 input  -65.29 | X-H torsion
[ 10718 10713 10712 10709 ] final  171.73 input   66.30 | X-H torsion
[ 10763 10752 10751 10750 ] final   56.04 input  -60.55 | X-H torsion
[ 11005 11000 10999 10996 ] final -114.08 input  -57.11 | X-H torsion

> <Gold.Protein.ActiveResidues>
 VAL166  LYS551  ARG553  GLY616  TRP617  ASP618  TYR619  PRO620  LYS621  CYS622 
 ASP623  PHE694  ASN695  SER759  ASP760  ASP761  ALA762  ILE779  LEU786  VAL792 
 PHE793  MET794  SER795  GLU796  ALA797  LYS798  CYS799  TRP800  GLU811  SER814 

> <Gold.Protein.RotatedAtoms>
  150.6867  134.2828  159.4634 H   0  0  0  0  0  0  0  0  0  0  0  0  # atno 6907 bound_to 6896
  152.0740  134.9512  160.0583 H   0  0  0  0  0  0  0  0  0  0  0  0  # atno 6908 bound_to 6896
  152.0891  133.4156  159.4572 H   0  0  0  0  0  0  0  0  0  0  0  0  # atno 6909 bound_to 6896
  144.8844  139.5651  143.5828 H   0  0  0  0  0  0  0  0  0  0  0  0  # atno 7974 bound_to 7965
  155.2932  140.0449  157.3024 H   0  0  0  0  0  0  0  0  0  0  0  0  # atno 8008 bound_to 7997
  154.5529  140.2323  155.8424 H   0  0  0  0  0  0  0  0  0  0  0  0  # atno 8009 bound_to 7997
  156.1982  140.3032  155.9478 H   0  0  0  0  0  0  0  0  0  0  0  0  # atno 8010 bound_to 7997
  139.6469  144.0156  152.2133 H   0  0  0  0  0  0  0  0  0  0  0  0  # atno 10167 bound_to 10162
  156.9893  131.0143  151.2861 H   0  0  0  0  0  0  0  0  0  0  0  0  # atno 10718 bound_to 10713
  152.9826  135.5690  154.5165 H   0  0  0  0  0  0  0  0  0  0  0  0  # atno 10763 bound_to 10752
  154.4660  135.2783  155.1680 H   0  0  0  0  0  0  0  0  0  0  0  0  # atno 10764 bound_to 10752
  154.3247  135.6261  153.5577 H   0  0  0  0  0  0  0  0  0  0  0  0  # atno 10765 bound_to 10752
  141.0574  133.9590  157.2729 H   0  0  0  0  0  0  0  0  0  0  0  0  # atno 11005 bound_to 11000
  146.3015  139.7442  142.9088 LP  0  0  0  0  0  0  0  0  0  0  0  0  # atno 17320 bound_to 7965
  145.3896  141.0370  143.3131 LP  0  0  0  0  0  0  0  0  0  0  0  0  # atno 17321 bound_to 7965
  139.9860  144.6395  150.7858 LP  0  0  0  0  0  0  0  0  0  0  0  0  # atno 17342 bound_to 10162
  140.7519  143.2980  151.3153 LP  0  0  0  0  0  0  0  0  0  0  0  0  # atno 17343 bound_to 10162
  157.5470  130.8157  149.8098 LP  0  0  0  0  0  0  0  0  0  0  0  0  # atno 17370 bound_to 10713
  156.0213  130.3794  150.1953 LP  0  0  0  0  0  0  0  0  0  0  0  0  # atno 17371 bound_to 10713
  139.9402  135.0192  156.8685 LP  0  0  0  0  0  0  0  0  0  0  0  0  # atno 17394 bound_to 11000
  140.5936  134.0238  155.7509 LP  0  0  0  0  0  0  0  0  0  0  0  0  # atno 17395 bound_to 11000

$$$$
