#       Name:                AV-unprocessed.smi:99
#       Creating user name   scv26
#       Creation time:       Thu Mar 26 17:35:45 2020


#       File generated by GOLD software.
#

@<TRIPOS>MOLECULE
AV-unprocessed.smi:99
    65    68     1
SMALL
NO_CHARGES


@<TRIPOS>ATOM
      1 ****        -4.0055  -0.8135   0.4967 O.2            1 S1                 0.0000
      2 ****        -3.1361  -0.1350  -0.0533 C.2            1 S1                 0.0000
      3 ****        -1.9188  -0.6055  -0.3850 O.3            1 S1                 0.0000
      4 ****        -1.5264  -1.9189  -0.0208 C.3            1 S1                 0.0000
      5 ****         0.0047  -2.0028  -0.0564 C.3            1 S1                 0.0000
      6 ****         0.4225  -3.3558   0.0892 O.3            1 S1                 0.0000
      7 ****         1.7248  -3.4036   0.6061 C.3            1 S1                 0.0000
      8 ****         2.6665  -3.9438  -0.4532 N.am           1 S1                 0.0000
      9 ****         2.3444  -3.8986  -1.7999 C.2            1 S1                 0.0000
     10 ****         3.1856  -4.3786  -2.7388 C.2            1 S1                 0.0000
     11 ****         4.4618  -4.9584  -2.3300 C.2            1 S1                 0.0000
     12 ****         5.2191  -5.3983  -3.1928 O.2            1 S1                 0.0000
     13 ****         4.7583  -4.9850  -0.9985 N.pl3          1 S1                -1.0000
     14 ****         3.9111  -4.4961  -0.0463 C.2            1 S1                 0.0000
     15 ****         4.1718  -4.5036   1.1572 O.2            1 S1                 0.0000
     16 ****         2.0898  -1.9731   1.0732 C.3            1 S1                 0.0000
     17 ****         2.9528  -1.2987   0.1688 O.3            1 S1                 0.0000
     18 ****         0.7135  -1.3263   1.1157 C.3            1 S1                 0.0000
     19 ****         0.7845   0.0951   1.0323 O.3            1 S1                 0.0000
     20 ****        -0.0217   0.8838   1.7762 C.2            1 S1                 0.0000
     21 ****        -0.8258   0.4564   2.6067 O.2            1 S1                 0.0000
     22 ****         0.1296   2.3307   1.4524 C.ar           1 S1                 0.0000
     23 ****        -0.7588   3.2663   2.0319 C.ar           1 S1                 0.0000
     24 ****        -0.6583   4.6365   1.7228 C.ar           1 S1                 0.0000
     25 ****         0.3345   5.0881   0.8343 C.ar           1 S1                 0.0000
     26 ****         1.2280   4.1679   0.2561 C.ar           1 S1                 0.0000
     27 ****         1.1273   2.7966   0.5613 C.ar           1 S1                 0.0000
     28 ****        -3.3079   1.3055  -0.4000 C.ar           1 S1                 0.0000
     29 ****        -4.5057   1.9675  -0.0439 C.ar           1 S1                 0.0000
     30 ****        -4.6844   3.3336  -0.3365 C.ar           1 S1                 0.0000
     31 ****        -3.6679   4.0542  -0.9901 C.ar           1 S1                 0.0000
     32 ****        -2.4735   3.4063  -1.3538 C.ar           1 S1                 0.0000
     33 ****        -2.2940   2.0401  -1.0634 C.ar           1 S1                 0.0000
     34 ****        -1.8909  -2.1824   0.9733 H              1 S1                 0.0000
     35 ****        -1.9614  -2.6241  -0.7297 H              1 S1                 0.0000
     36 ****         0.3848  -1.6218  -1.0060 H              1 S1                 0.0000
     37 ****         1.7279  -4.1378   1.4134 H              1 S1                 0.0000
     38 ****         1.4074  -3.4721  -2.1227 H              1 S1                 0.0000
     39 ****         2.9189  -4.3346  -3.7846 H              1 S1                 0.0000
     40 ****         2.5583  -2.0063   2.0571 H              1 S1                 0.0000
     41 ****         2.5848  -1.3624  -0.6990 H              1 S1                 0.0000
     42 ****         0.2324  -1.6435   2.0423 H              1 S1                 0.0000
     43 ****        -1.5346   2.9418   2.7104 H              1 S1                 0.0000
     44 ****        -1.3465   5.3411   2.1659 H              1 S1                 0.0000
     45 ****         0.4104   6.1387   0.5963 H              1 S1                 0.0000
     46 ****         1.9910   4.5134  -0.4256 H              1 S1                 0.0000
     47 ****         1.8261   2.1159   0.0974 H              1 S1                 0.0000
     48 ****        -5.2978   1.4362   0.4639 H              1 S1                 0.0000
     49 ****        -5.6021   3.8294  -0.0563 H              1 S1                 0.0000
     50 ****        -3.8037   5.1026  -1.2111 H              1 S1                 0.0000
     51 ****        -1.6899   3.9585  -1.8511 H              1 S1                 0.0000
     52 ****        -1.3612   1.5767  -1.3497 H              1 S1                 0.0000
     53 ****        -3.8248  -1.7711   0.7214 LP             1 S1                 0.0000
     54 ****        -4.8917  -0.4066   0.7182 LP             1 S1                 0.0000
     55 ****         0.4041  -3.8058  -0.8037 LP             1 S1                 0.0000
     56 ****        -0.1990  -3.8288   0.7137 LP             1 S1                 0.0000
     57 ****         4.9572  -5.3557  -4.1570 LP             1 S1                 0.0000
     58 ****         6.0970  -5.7988  -2.9305 LP             1 S1                 0.0000
     59 ****         5.6309  -5.3783  -0.7087 LP             1 S1                 0.0000
     60 ****         3.5166  -4.1287   1.8130 LP             1 S1                 0.0000
     61 ****         5.0387  -4.8847   1.4786 LP             1 S1                 0.0000
     62 ****         3.8574  -1.7248   0.1840 LP             1 S1                 0.0000
     63 ****         3.0328  -0.3373   0.4318 LP             1 S1                 0.0000
     64 ****        -0.9092  -0.5281   2.7613 LP             1 S1                 0.0000
     65 ****        -1.3949   1.0940   3.1258 LP             1 S1                 0.0000
@<TRIPOS>BOND
    1    1    2 2     
    2    2    3 1     
    3    2   28 1     
    4    3    4 1     
    5    4    5 1     
    6    4   34 1     
    7    4   35 1     
    8    5   18 1     
    9    5    6 1     
   10    5   36 1     
   11    6    7 1     
   12    7    8 1     
   13    7   16 1     
   14    7   37 1     
   15    8   14 am    
   16    8    9 1     
   17    9   10 2     
   18    9   38 1     
   19   10   11 1     
   20   10   39 1     
   21   11   12 2     
   22   11   13 1     
   23   13   14 1     
   24   14   15 2     
   25   16   17 1     
   26   16   18 1     
   27   16   40 1     
   28   17   41 1     
   29   18   19 1     
   30   18   42 1     
   31   19   20 1     
   32   20   21 2     
   33   20   22 1     
   34   22   27 ar    
   35   22   23 ar    
   36   23   24 ar    
   37   23   43 1     
   38   24   25 ar    
   39   24   44 1     
   40   25   26 ar    
   41   25   45 1     
   42   26   27 ar    
   43   26   46 1     
   44   27   47 1     
   45   28   33 ar    
   46   28   29 ar    
   47   29   30 ar    
   48   29   48 1     
   49   30   31 ar    
   50   30   49 1     
   51   31   32 ar    
   52   31   50 1     
   53   32   33 ar    
   54   32   51 1     
   55   33   52 1     
   56    1   53 1     
   57    1   54 1     
   58    6   55 1     
   59    6   56 1     
   60   12   57 1     
   61   12   58 1     
   62   13   59 1     
   63   15   60 1     
   64   15   61 1     
   65   17   62 1     
   66   17   63 1     
   67   21   64 1     
   68   21   65 1     
@<TRIPOS>SUBSTRUCTURE
      1 S1             1
@<TRIPOS>SET
LONE_PAIRS      STATIC     ATOMS    <user>   **** ""
13 53 54 55 56 57 58 59 60 61 62 63 64 65
DONOR_HYDROGENS      STATIC     ATOMS    <user>   **** ""
1 41
ATOM$BLUE        STATIC     ATOMS    COLORGROUP SYSTEM
13 53 54 55 56 57 58 59 60 61 62 63 64 65
ATOM$RED        STATIC     ATOMS    COLORGROUP SYSTEM
1 41
