#       Name:                AV-unprocessed.smi:141
#       Creating user name   scv26
#       Creation time:       Thu Mar 26 18:34:23 2020


#       File generated by GOLD software.
#

@<TRIPOS>MOLECULE
AV-unprocessed.smi:141
    64    67     1
SMALL
NO_CHARGES


@<TRIPOS>ATOM
      1 ****        -0.7662   1.4294  -0.4827 O.2            1 S1                 0.0000
      2 ****        -0.0455   0.4293  -0.4719 C.2            1 S1                 0.0000
      3 ****         1.4868   0.6109  -0.5172 C.3            1 S1                 0.0000
      4 ****         1.9173   2.0273  -0.5350 N.am           1 S1                 0.0000
      5 ****         2.1322   2.6885   0.7002 C.2            1 S1                 0.0000
      6 ****         1.9835   2.1012   1.7730 O.2            1 S1                 0.0000
      7 ****         2.5224   4.0908   0.6053 C.2            1 S1                 0.0000
      8 ****         2.7391   4.7985   1.7269 F              1 S1                 0.0000
      9 ****         2.6635   4.6930  -0.5933 C.2            1 S1                 0.0000
     10 ****         2.4548   4.0343  -1.7911 N.am           1 S1                 0.0000
     11 ****         2.6013   4.7465  -3.1174 C.3            1 S1                 0.0000
     12 ****         1.2486   5.3114  -3.5665 C.3            1 S1                 0.0000
     13 ****         1.3177   6.7321  -3.0504 C.3            1 S1                 0.0000
     14 ****         2.7977   7.0492  -3.2294 C.3            1 S1                 0.0000
     15 ****         3.4784   5.8256  -2.9633 O.3            1 S1                 0.0000
     16 ****         2.0594   2.6790  -1.7836 C.2            1 S1                 0.0000
     17 ****         1.8317   2.0843  -2.8394 O.2            1 S1                 0.0000
     18 ****        -0.5578  -0.8247  -0.4187 N.am           1 S1                 0.0000
     19 ****         0.2220  -2.0675  -0.3432 C.3            1 S1                 0.0000
     20 ****         0.0307  -2.6896   1.0519 C.3            1 S1                 0.0000
     21 ****        -1.4641  -2.9379   1.3554 C.3            1 S1                 0.0000
     22 ****        -1.6845  -3.4851   2.7835 C.3            1 S1                 0.0000
     23 ****        -2.2228  -4.9040   2.7874 C.ar           1 S1                 0.0000
     24 ****        -3.6134  -5.1337   2.8464 C.ar           1 S1                 0.0000
     25 ****        -4.1136  -6.4504   2.8416 C.ar           1 S1                 0.0000
     26 ****        -3.2251  -7.5413   2.7761 C.ar           1 S1                 0.0000
     27 ****        -1.8362  -7.3151   2.7143 C.ar           1 S1                 0.0000
     28 ****        -1.3354  -5.9985   2.7200 C.ar           1 S1                 0.0000
     29 ****        -2.2904  -1.6599   1.0913 C.3            1 S1                 0.0000
     30 ****        -1.9981  -1.0871  -0.3072 C.3            1 S1                 0.0000
     31 ****         1.9283   0.0918   0.3350 H              1 S1                 0.0000
     32 ****         1.8770   0.0855  -1.3900 H              1 S1                 0.0000
     33 ****         2.9449   5.7355  -0.6021 H              1 S1                 0.0000
     34 ****         3.0314   4.0203  -3.8090 H              1 S1                 0.0000
     35 ****         1.2125   5.3023  -4.6566 H              1 S1                 0.0000
     36 ****         0.4062   4.7365  -3.1798 H              1 S1                 0.0000
     37 ****         0.6654   7.4177  -3.5915 H              1 S1                 0.0000
     38 ****         1.0472   6.7637  -1.9944 H              1 S1                 0.0000
     39 ****         2.9995   7.3447  -4.2600 H              1 S1                 0.0000
     40 ****         3.1394   7.8494  -2.5725 H              1 S1                 0.0000
     41 ****        -0.1324  -2.7581  -1.1099 H              1 S1                 0.0000
     42 ****         1.2837  -1.9362  -0.5447 H              1 S1                 0.0000
     43 ****         0.5837  -3.6274   1.1165 H              1 S1                 0.0000
     44 ****         0.4583  -2.0245   1.8038 H              1 S1                 0.0000
     45 ****        -1.8138  -3.6848   0.6402 H              1 S1                 0.0000
     46 ****        -0.7566  -3.4612   3.3567 H              1 S1                 0.0000
     47 ****        -2.3793  -2.8513   3.3364 H              1 S1                 0.0000
     48 ****        -4.3001  -4.3009   2.8930 H              1 S1                 0.0000
     49 ****        -5.1787  -6.6233   2.8871 H              1 S1                 0.0000
     50 ****        -3.6089  -8.5508   2.7716 H              1 S1                 0.0000
     51 ****        -1.1550  -8.1515   2.6616 H              1 S1                 0.0000
     52 ****        -0.2693  -5.8304   2.6699 H              1 S1                 0.0000
     53 ****        -3.3547  -1.8785   1.1852 H              1 S1                 0.0000
     54 ****        -2.0605  -0.9056   1.8455 H              1 S1                 0.0000
     55 ****        -2.6078  -0.1991  -0.4772 H              1 S1                 0.0000
     56 ****        -2.2966  -1.8013  -1.0760 H              1 S1                 0.0000
     57 ****        -0.3562   2.3408  -0.5204 LP             1 S1                 0.0000
     58 ****        -1.7607   1.3293  -0.4539 LP             1 S1                 0.0000
     59 ****         1.7064   1.1405   1.7828 LP             1 S1                 0.0000
     60 ****         2.1400   2.5853   2.6339 LP             1 S1                 0.0000
     61 ****         4.2417   5.7257  -3.6017 LP             1 S1                 0.0000
     62 ****         3.8271   5.8377  -2.0262 LP             1 S1                 0.0000
     63 ****         1.5420   1.1274  -2.8218 LP             1 S1                 0.0000
     64 ****         1.9368   2.5589  -3.7133 LP             1 S1                 0.0000
@<TRIPOS>BOND
    1    1    2 2     
    2    2    3 1     
    3    2   18 am    
    4    3    4 1     
    5    3   31 1     
    6    3   32 1     
    7    4   16 am    
    8    4    5 am    
    9    5    6 2     
   10    5    7 1     
   11    7    8 1     
   12    7    9 2     
   13    9   10 1     
   14    9   33 1     
   15   10   11 1     
   16   10   16 am    
   17   11   15 1     
   18   11   12 1     
   19   11   34 1     
   20   12   13 1     
   21   12   35 1     
   22   12   36 1     
   23   13   14 1     
   24   13   37 1     
   25   13   38 1     
   26   14   15 1     
   27   14   39 1     
   28   14   40 1     
   29   16   17 2     
   30   18   30 1     
   31   18   19 1     
   32   19   20 1     
   33   19   41 1     
   34   19   42 1     
   35   20   21 1     
   36   20   43 1     
   37   20   44 1     
   38   21   22 1     
   39   21   29 1     
   40   21   45 1     
   41   22   23 1     
   42   22   46 1     
   43   22   47 1     
   44   23   28 ar    
   45   23   24 ar    
   46   24   25 ar    
   47   24   48 1     
   48   25   26 ar    
   49   25   49 1     
   50   26   27 ar    
   51   26   50 1     
   52   27   28 ar    
   53   27   51 1     
   54   28   52 1     
   55   29   30 1     
   56   29   53 1     
   57   29   54 1     
   58   30   55 1     
   59   30   56 1     
   60    1   57 1     
   61    1   58 1     
   62    6   59 1     
   63    6   60 1     
   64   15   61 1     
   65   15   62 1     
   66   17   63 1     
   67   17   64 1     
@<TRIPOS>SUBSTRUCTURE
      1 S1             1
@<TRIPOS>SET
LONE_PAIRS      STATIC     ATOMS    <user>   **** ""
8 57 58 59 60 61 62 63 64
ATOM$BLUE        STATIC     ATOMS    COLORGROUP SYSTEM
8 57 58 59 60 61 62 63 64
