AV-unprocessed.smi:21|AV-procd|sdf|152|dock3
  -GOLD-   2262015373D 1   1.00000     0.00000
 Structure written by MMmdl.
 62 65  0  0  0  0  0  0  0  0  2 V2000
  144.8995  135.6437  154.3027 C   0  0  0  0  0  0  0  0  0  0  0  0
  145.0406  134.4628  155.0758 O   0  0  0  0  0  0  0  0  0  0  0  0
  146.3693  133.9637  155.1077 C   0  0  2  0  0  0  0  0  0  0  0  0
  147.3358  135.0470  155.5651 C   0  0  0  0  0  0  0  0  0  0  0  0
  148.6820  134.5630  155.0175 C   0  0  2  0  0  0  0  0  0  0  0  0
  149.7271  135.6828  154.8428 C   0  0  0  0  0  0  0  0  0  0  0  0
  150.3168  136.1042  156.1161 N   0  0  0  0  0  0  0  0  0  0  0  0
  149.7210  135.5920  157.3440 C   0  0  0  0  0  0  0  0  0  0  0  0
  151.1915  137.1510  156.1643 C   0  0  0  0  0  0  0  0  0  0  0  0
  152.0120  137.3514  155.0981 N   0  0  0  0  0  0  0  0  0  0  0  0
  152.8905  138.3568  155.0845 C   0  0  0  0  0  0  0  0  0  0  0  0
  153.1169  139.2759  156.0219 N   0  0  0  0  0  0  0  0  0  0  0  0
  152.3021  139.0912  157.0981 C   0  0  0  0  0  0  0  0  0  0  0  0
  151.3206  138.0681  157.2544 C   0  0  0  0  0  0  0  0  0  0  0  0
  150.6889  138.2253  158.4850 N   0  0  0  0  0  0  0  0  0  0  0  0
  151.2643  139.2653  159.0219 C   0  0  0  0  0  0  0  0  0  0  0  0
  152.2514  139.8422  158.2587 N   0  0  0  0  0  0  0  0  0  0  0  0
  153.0555  141.0012  158.6059 C   0  0  0  0  0  0  0  0  0  0  0  0
  152.6809  141.6265  159.9733 C   0  0  1  0  0  0  0  0  0  0  0  0
  153.5016  140.9685  161.1076 C   0  0  0  0  0  0  0  0  0  0  0  0
  154.8859  141.1354  160.8829 O   0  0  0  0  0  0  0  0  0  0  0  0
  152.7690  143.1787  159.9650 C   0  0  1  0  0  0  0  0  0  0  0  0
  152.2160  143.8724  158.7190 C   0  0  0  0  0  0  0  0  0  0  0  0
  151.3683  145.0194  159.2728 C   0  0  0  0  0  0  0  0  0  0  0  0
  151.8307  145.1927  160.6028 O   0  0  0  0  0  0  0  0  0  0  0  0
  152.0656  143.8953  161.1228 C   0  0  0  0  0  0  0  0  0  0  0  0
  148.3554  133.9184  153.7232 N   0  3  1  0  0  0  0  0  0  0  0  0
  149.2275  132.7740  153.3798 C   0  0  0  0  0  0  0  0  0  0  0  0
  146.9096  133.5897  153.7214 C   0  0  0  0  0  0  0  0  0  0  0  0
  146.4504  133.1121  155.7862 H   0  0  0  0  0  0  0  0  0  0  0  0
  149.0674  133.7978  155.6942 H   0  0  0  0  0  0  0  0  0  0  0  0
  143.8575  135.9634  154.3130 H   0  0  0  0  0  0  0  0  0  0  0  0
  145.1870  135.4713  153.2648 H   0  0  0  0  0  0  0  0  0  0  0  0
  145.5024  136.4598  154.7023 H   0  0  0  0  0  0  0  0  0  0  0  0
  147.0628  135.9998  155.1084 H   0  0  0  0  0  0  0  0  0  0  0  0
  147.3390  135.1818  156.6474 H   0  0  0  0  0  0  0  0  0  0  0  0
  150.5396  135.3183  154.2136 H   0  0  0  0  0  0  0  0  0  0  0  0
  149.3002  136.5189  154.2890 H   0  0  0  0  0  0  0  0  0  0  0  0
  149.0170  136.3124  157.7613 H   0  0  0  0  0  0  0  0  0  0  0  0
  150.4889  135.3751  158.0871 H   0  0  0  0  0  0  0  0  0  0  0  0
  149.1766  134.6662  157.1562 H   0  0  0  0  0  0  0  0  0  0  0  0
  153.4997  138.4351  154.1960 H   0  0  0  0  0  0  0  0  0  0  0  0
  150.9870  139.6368  159.9980 H   0  0  0  0  0  0  0  0  0  0  0  0
  154.1012  140.6918  158.6010 H   0  0  0  0  0  0  0  0  0  0  0  0
  152.9514  141.7430  157.8130 H   0  0  0  0  0  0  0  0  0  0  0  0
  151.6320  141.3895  160.1593 H   0  0  0  0  0  0  0  0  0  0  0  0
  153.2517  141.4005  162.0768 H   0  0  0  0  0  0  0  0  0  0  0  0
  153.3081  139.8994  161.1785 H   0  0  0  0  0  0  0  0  0  0  0  0
  155.0711  142.0599  160.8179 H   0  0  0  0  0  0  0  0  0  0  0  0
  153.8191  143.4694  160.0067 H   0  0  0  0  0  0  0  0  0  0  0  0
  153.0379  144.2613  158.1165 H   0  0  0  0  0  0  0  0  0  0  0  0
  151.6275  143.2226  158.0726 H   0  0  0  0  0  0  0  0  0  0  0  0
  151.4685  145.9359  158.6910 H   0  0  0  0  0  0  0  0  0  0  0  0
  150.3134  144.7414  159.2935 H   0  0  0  0  0  0  0  0  0  0  0  0
  151.1081  143.4393  161.3744 H   0  0  0  0  0  0  0  0  0  0  0  0
  152.6746  143.9307  162.0262 H   0  0  0  0  0  0  0  0  0  0  0  0
  149.1186  131.9654  154.1037 H   0  0  0  0  0  0  0  0  0  0  0  0
  150.2741  133.0786  153.3612 H   0  0  0  0  0  0  0  0  0  0  0  0
  148.9747  132.3860  152.3925 H   0  0  0  0  0  0  0  0  0  0  0  0
  146.7094  132.5443  153.4818 H   0  0  0  0  0  0  0  0  0  0  0  0
  146.4344  134.1991  152.9517 H   0  0  0  0  0  0  0  0  0  0  0  0
  148.4843  134.6199  153.0078 H   0  0  0  0  0  0  0  0  0  0  0  0
  1  2  1  0  0  0  0
  1 32  1  0  0  0  0
  1 33  1  0  0  0  0
  1 34  1  0  0  0  0
  2  3  1  0  0  0  0
  3 30  1  0  0  0  0
  3 29  1  0  0  0  0
  3  4  1  0  0  0  0
  4  5  1  0  0  0  0
  4 35  1  0  0  0  0
  4 36  1  0  0  0  0
  5 31  1  0  0  0  0
  5  6  1  0  0  0  0
  5 27  1  0  0  0  0
  6  7  1  0  0  0  0
  6 37  1  0  0  0  0
  6 38  1  0  0  0  0
  7  8  1  0  0  0  0
  7  9  1  0  0  0  0
  8 39  1  0  0  0  0
  8 40  1  0  0  0  0
  8 41  1  0  0  0  0
  9 14  1  0  0  0  0
  9 10  2  0  0  0  0
 10 11  1  0  0  0  0
 11 12  2  0  0  0  0
 11 42  1  0  0  0  0
 12 13  1  0  0  0  0
 13 17  1  0  0  0  0
 13 14  2  0  0  0  0
 14 15  1  0  0  0  0
 15 16  2  0  0  0  0
 16 17  1  0  0  0  0
 16 43  1  0  0  0  0
 17 18  1  0  0  0  0
 18 19  1  0  0  0  0
 18 44  1  0  0  0  0
 18 45  1  0  0  0  0
 19 20  1  0  0  0  0
 19 22  1  0  0  0  0
 19 46  1  0  0  0  0
 20 21  1  0  0  0  0
 20 47  1  0  0  0  0
 20 48  1  0  0  0  0
 21 49  1  0  0  0  0
 22 26  1  0  0  0  0
 22 23  1  0  0  0  0
 22 50  1  0  0  0  0
 23 24  1  0  0  0  0
 23 51  1  0  0  0  0
 23 52  1  0  0  0  0
 24 25  1  0  0  0  0
 24 53  1  0  0  0  0
 24 54  1  0  0  0  0
 25 26  1  0  0  0  0
 26 55  1  0  0  0  0
 26 56  1  0  0  0  0
 27 28  1  0  0  0  0
 27 29  1  0  0  0  0
 27 62  1  0  0  0  0
 28 57  1  0  0  0  0
 28 58  1  0  0  0  0
 28 59  1  0  0  0  0
 29 60  1  0  0  0  0
 29 61  1  0  0  0  0
M  CHG  1  27   1
M  END
> <s_m_source_file>
AV-unprocessed.smi

> <i_m_source_file_index>
21

> <i_lp_mmshare_version>
43012

> <i_f3d_flags>
0

> <s_epik_input>
W0NIM11PW0NASF0xW0NIMl1bQ0BIXShOKFtDSDNdKVtDSDJdMSlbQ0gyXU4oW0NIM10pYyhuW2NIXW4yKWMoYzIzKW5bY0hdbjNbQ0gyXVtDQEhdKFtDSDJdW09IXSlbQ0BASF00W0NIMl1bQ0gyXU9bQ0gyXTQ=

> <s_epik_cmdline>
J2VwaWtfcHl0aG9uJywgJy1waCcsICc3LjAnLCAnLXRuJywgJzgnLCAnLW1hJywgJzIwMCcsICctbWV0YWxfYmluZGluZycsICctaW1hZScsICc8aW5maWxlLm1hZT4nLCAnLW9tYWUnLCAnPG91dGZpbGUubWFlPic=

> <r_lp_tautomer_probability>
1

> <r_epik_Ionization_Penalty>
0.0157465

> <r_epik_Ionization_Penalty_Charging>
0.015354

> <r_epik_Ionization_Penalty_Neutral>
0.000392529

> <r_epik_State_Penalty>
0.0120612

> <r_epik_Charging_Adjusted_Penalty>
0.0274152

> <i_epik_Tot_Q>
1

> <i_epik_Tot_abs_Q>
1

> <r_epik_Metal_State_Penalty>
0.0121253

> <b_epik_Metal_Only>
0

> <s_lp_Force_Field>
OPLS_2005

> <r_lp_Energy>
58.5761

> <b_lp_Chiralities_Consistent>
1

> <s_lp_Variant>
AV-unprocessed.smi:21-32

> <Gold.Version>
5.8.1

> <Gold.Id.Protein>
6NUR|6NUR_protein|mol2

> <Gold.PLP.Fitness>
52.3694

> <Gold.PLP.PLP>
-42.8681

> <Gold.PLP.part.hbond>
-3.8446

> <Gold.PLP.part.metal>
0.0000

> <Gold.PLP.part.buried>
-5.4166

> <Gold.PLP.part.nonpolar>
-33.9078

> <Gold.PLP.part.repulsive>
0.3493

> <Gold.PLP.ligand.clash>
0.0752

> <Gold.PLP.ligand.torsion>
1.1351

> <Gold.PLP.Chemscore.Hbond>
3.7722

> <Gold.PLP.Chemscore.CHOScore>
0.0000

> <Gold.PLP.Chemscore.Metal>
0.0000

> <Gold.Chemscore.Hbonds>
donor molecule, donor type, donor heavy atom, donor atom, acceptor molecule, acceptor atom, score
      L1  H    27    62       P1  7948  2.00
      P1  H  7997  8010       L1    12  1.00
      P1  H 10752 10764       L1    10  0.84

> <Gold.PLP.Chemscore.Internal.Correction>
0.5301

> <Gold.Rescore>
     Score         DG    S(hbond)    S(metal)    S(lipo)     H(rot)  DE(clash)    DE(int)     intcor
     14.27     -16.92       2.28        0.00     100.07       3.08       0.05       2.59       ----

> <Gold.Chemscore.Fitness>
14.2736

> <Gold.Chemscore.DG>
-16.9156

> <Gold.Chemscore.ZeroCoef>
-5.4800

> <Gold.Chemscore.Hbond>
2.2760

> <Gold.Chemscore.Metal>
0.0000

> <Gold.Chemscore.Lipo>
100.0669

> <Gold.Chemscore.Internal_Hbond>
0.0000

> <Gold.Chemscore.DEClash>
0.0536

> <Gold.Chemscore.DEInternal>
2.5884

> <Gold.Chemscore.Rot>
3.0758

> <Gold.Chemscore.Internal.Correction>
   9.000000E+99

> <Gold.Chemscore.Hbonds>
donor molecule, donor type, donor heavy atom, donor atom, acceptor molecule, acceptor atom, score
      L1  H    27    62       P1  7948  0.34
      P1  H  7997  8010       L1    12  0.61
      P1  H 10752 10764       L1    10  0.43

> <Gold.Chemscore.Hbond.Weighted>
-7.6019

> <Gold.Chemscore.Metal.Weighted>
-0.0000

> <Gold.Chemscore.Lipo.Weighted>
-11.7078

> <Gold.Chemscore.Internal_Hbond.Weighted>
0.0000

> <Gold.Chemscore.DEClash.Weighted>
0.0536

> <Gold.Chemscore.DEInternal.Weighted>
2.5884

> <Gold.Chemscore.Rot.Weighted>
7.8741

> <Gold.Chemscore.Internal.Correction.Weighted>
   9.000000E+99

> <Gold.Protein.RotatedTorsions>
[ 6907 6896 6895 6894 ] final -107.37 input  -60.11 | X-H torsion
[ 7974 7965 7964 7962 ] final  152.00 input  175.53 | X-H torsion
[ 8008 7997 7996 7995 ] final   66.19 input   59.86 | X-H torsion
[ 10167 10162 10161 10158 ] final   41.30 input  -65.29 | X-H torsion
[ 10718 10713 10712 10709 ] final  117.44 input   66.30 | X-H torsion
[ 10763 10752 10751 10750 ] final  -62.01 input  -60.55 | X-H torsion
[ 11005 11000 10999 10996 ] final   77.73 input  -57.11 | X-H torsion

> <Gold.Protein.ActiveResidues>
 VAL166  LYS551  ARG553  GLY616  TRP617  ASP618  TYR619  PRO620  LYS621  CYS622 
 ASP623  PHE694  ASN695  SER759  ASP760  ASP761  ALA762  ILE779  LEU786  VAL792 
 PHE793  MET794  SER795  GLU796  ALA797  LYS798  CYS799  TRP800  GLU811  SER814 

> <Gold.Protein.RotatedAtoms>
  150.7440  133.9836  159.3584 H   0  0  0  0  0  0  0  0  0  0  0  0  # atno 6907 bound_to 6896
  151.7779  135.0767  160.0379 H   0  0  0  0  0  0  0  0  0  0  0  0  # atno 6908 bound_to 6896
  152.3294  133.5904  159.5835 H   0  0  0  0  0  0  0  0  0  0  0  0  # atno 6909 bound_to 6896
  144.8253  139.6611  143.6082 H   0  0  0  0  0  0  0  0  0  0  0  0  # atno 7974 bound_to 7965
  155.6735  140.3497  155.4827 H   0  0  0  0  0  0  0  0  0  0  0  0  # atno 8008 bound_to 7997
  155.9668  140.1148  157.0870 H   0  0  0  0  0  0  0  0  0  0  0  0  # atno 8009 bound_to 7997
  154.4156  140.1165  156.5239 H   0  0  0  0  0  0  0  0  0  0  0  0  # atno 8010 bound_to 7997
  140.3657  144.2171  150.6135 H   0  0  0  0  0  0  0  0  0  0  0  0  # atno 10167 bound_to 10162
  157.6096  131.1037  150.7615 H   0  0  0  0  0  0  0  0  0  0  0  0  # atno 10718 bound_to 10713
  154.2933  135.6249  153.5394 H   0  0  0  0  0  0  0  0  0  0  0  0  # atno 10763 bound_to 10752
  152.9849  135.5661  154.5365 H   0  0  0  0  0  0  0  0  0  0  0  0  # atno 10764 bound_to 10752
  154.4981  135.2870  155.1419 H   0  0  0  0  0  0  0  0  0  0  0  0  # atno 10765 bound_to 10752
  139.9242  134.7707  156.1560 H   0  0  0  0  0  0  0  0  0  0  0  0  # atno 11005 bound_to 11000
  146.2558  139.6300  142.9396 LP  0  0  0  0  0  0  0  0  0  0  0  0  # atno 17320 bound_to 7965
  145.5014  141.0437  143.2538 LP  0  0  0  0  0  0  0  0  0  0  0  0  # atno 17321 bound_to 7965
  140.5083  143.2298  151.8574 LP  0  0  0  0  0  0  0  0  0  0  0  0  # atno 17342 bound_to 10162
  139.4809  144.4979  151.9099 LP  0  0  0  0  0  0  0  0  0  0  0  0  # atno 17343 bound_to 10162
  156.7995  130.4916  149.5372 LP  0  0  0  0  0  0  0  0  0  0  0  0  # atno 17370 bound_to 10713
  156.1194  130.6099  151.0171 LP  0  0  0  0  0  0  0  0  0  0  0  0  # atno 17371 bound_to 10713
  141.0787  133.6764  156.2290 LP  0  0  0  0  0  0  0  0  0  0  0  0  # atno 17394 bound_to 11000
  140.6385  134.5190  157.5567 LP  0  0  0  0  0  0  0  0  0  0  0  0  # atno 17395 bound_to 11000

$$$$
