AV-unprocessed.smi:3331|AV-procd|sdf|12817|dock8
  -GOLD-   2272019193D 1   1.00000     0.00000
 Structure written by MMmdl.
 47 48  0  0  0  0  0  0  0  0  2 V2000
  151.9450  138.2614  159.2004 C   0  0  0  0  0  0  0  0  0  0  0  0
  151.6241  138.4402  157.7100 C   0  0  2  0  0  0  0  0  0  0  0  0
  152.4937  137.5130  156.8302 C   0  0  0  0  0  0  0  0  0  0  0  0
  152.3011  137.7619  155.3171 C   0  0  1  0  0  0  0  0  0  0  0  0
  150.9930  137.1468  154.7878 C   0  0  0  0  0  0  0  0  0  0  0  0
  152.4191  139.2719  155.0147 C   0  0  0  0  0  0  0  0  0  0  0  0
  151.4574  140.0188  155.8391 N   0  0  0  0  0  0  0  0  0  0  0  0
  150.3411  140.6538  155.3987 C   0  0  0  0  0  0  0  0  0  0  0  0
  150.0248  140.6628  154.2074 O   0  0  0  0  0  0  0  0  0  0  0  0
  149.4262  141.3924  156.3964 C   0  0  2  0  0  0  0  0  0  0  0  0
  148.1351  141.8593  155.6987 C   0  0  0  0  0  0  0  0  0  0  0  0
  150.1451  142.5373  157.0008 N   0  3  0  0  0  0  0  0  0  0  0  0
  150.4978  142.3919  158.4295 C   0  0  0  0  0  0  0  0  0  0  0  0
  151.4372  143.5177  158.8899 C   0  0  0  0  0  0  0  0  0  0  0  0
  152.1493  143.1700  160.1070 N   0  0  0  0  0  0  0  0  0  0  0  0
  153.0071  142.1126  160.3262 C   0  0  0  0  0  0  0  0  0  0  0  0
  153.4430  142.2042  161.6168 C   0  0  0  0  0  0  0  0  0  0  0  0
  152.7874  143.3649  162.1145 C   0  0  0  0  0  0  0  0  0  0  0  0
  152.0156  143.9421  161.2075 N   0  0  0  0  0  0  0  0  0  0  0  0
  151.7896  139.9091  157.2663 C   0  0  0  0  0  0  0  0  0  0  0  0
  152.9794  138.5287  159.4186 H   0  0  0  0  0  0  0  0  0  0  0  0
  151.7948  137.2276  159.5127 H   0  0  0  0  0  0  0  0  0  0  0  0
  151.3020  138.8885  159.8186 H   0  0  0  0  0  0  0  0  0  0  0  0
  150.5787  138.1620  157.5684 H   0  0  0  0  0  0  0  0  0  0  0  0
  153.5430  137.6839  157.0753 H   0  0  0  0  0  0  0  0  0  0  0  0
  152.2973  136.4673  157.0703 H   0  0  0  0  0  0  0  0  0  0  0  0
  153.1149  137.2560  154.7960 H   0  0  0  0  0  0  0  0  0  0  0  0
  150.1130  137.5933  155.2507 H   0  0  0  0  0  0  0  0  0  0  0  0
  150.9588  136.0750  154.9839 H   0  0  0  0  0  0  0  0  0  0  0  0
  150.9059  137.2832  153.7098 H   0  0  0  0  0  0  0  0  0  0  0  0
  153.4253  139.6117  155.2655 H   0  0  0  0  0  0  0  0  0  0  0  0
  152.3301  139.4567  153.9462 H   0  0  0  0  0  0  0  0  0  0  0  0
  149.1851  140.7211  157.2187 H   0  0  0  0  0  0  0  0  0  0  0  0
  147.6185  141.0315  155.2118 H   0  0  0  0  0  0  0  0  0  0  0  0
  148.3458  142.6087  154.9346 H   0  0  0  0  0  0  0  0  0  0  0  0
  147.4337  142.2979  156.4082 H   0  0  0  0  0  0  0  0  0  0  0  0
  151.0122  142.6451  156.4928 H   0  0  0  0  0  0  0  0  0  0  0  0
  149.5870  142.4080  159.0278 H   0  0  0  0  0  0  0  0  0  0  0  0
  150.9755  141.4258  158.5994 H   0  0  0  0  0  0  0  0  0  0  0  0
  152.1590  143.7648  158.1097 H   0  0  0  0  0  0  0  0  0  0  0  0
  150.8617  144.4242  159.0809 H   0  0  0  0  0  0  0  0  0  0  0  0
  153.2347  141.3922  159.5542 H   0  0  0  0  0  0  0  0  0  0  0  0
  154.1258  141.5421  162.1287 H   0  0  0  0  0  0  0  0  0  0  0  0
  152.8502  143.8029  163.0999 H   0  0  0  0  0  0  0  0  0  0  0  0
  151.1755  140.5562  157.8940 H   0  0  0  0  0  0  0  0  0  0  0  0
  152.8172  140.2389  157.4256 H   0  0  0  0  0  0  0  0  0  0  0  0
  149.6005  143.3776  156.8689 H   0  0  0  0  0  0  0  0  0  0  0  0
  1  2  1  0  0  0  0
  1 21  1  0  0  0  0
  1 22  1  0  0  0  0
  1 23  1  0  0  0  0
  2 20  1  0  0  0  0
  2  3  1  0  0  0  0
  2 24  1  0  0  0  0
  3  4  1  0  0  0  0
  3 25  1  0  0  0  0
  3 26  1  0  0  0  0
  4  5  1  0  0  0  0
  4  6  1  0  0  0  0
  4 27  1  0  0  0  0
  5 28  1  0  0  0  0
  5 29  1  0  0  0  0
  5 30  1  0  0  0  0
  6  7  1  0  0  0  0
  6 31  1  0  0  0  0
  6 32  1  0  0  0  0
  7  8  1  0  0  0  0
  7 20  1  0  0  0  0
  8  9  2  0  0  0  0
  8 10  1  0  0  0  0
 10 11  1  0  0  0  0
 10 12  1  0  0  0  0
 10 33  1  0  0  0  0
 11 34  1  0  0  0  0
 11 35  1  0  0  0  0
 11 36  1  0  0  0  0
 12 13  1  0  0  0  0
 12 37  1  0  0  0  0
 12 47  1  0  0  0  0
 13 14  1  0  0  0  0
 13 38  1  0  0  0  0
 13 39  1  0  0  0  0
 14 15  1  0  0  0  0
 14 40  1  0  0  0  0
 14 41  1  0  0  0  0
 15 19  1  0  0  0  0
 15 16  1  0  0  0  0
 16 17  2  0  0  0  0
 16 42  1  0  0  0  0
 17 18  1  0  0  0  0
 17 43  1  0  0  0  0
 18 19  2  0  0  0  0
 18 44  1  0  0  0  0
 20 45  1  0  0  0  0
 20 46  1  0  0  0  0
M  CHG  1  12   1
M  END
> <s_m_source_file>
AV-unprocessed.smi

> <i_m_source_file_index>
3331

> <i_lp_mmshare_version>
43012

> <i_f3d_flags>
0

> <s_epik_input>
W0NIM11bQ0BASF0xW0NIMl1bQ0BASF0oW0NIM10pW0NIMl1OKFtDSDJdMSlDKD1PKVtDQEhdKFtDSDNdKVtOSF1bQ0gyXVtDSDJdbjJbY0hdW2NIXVtjSF1uMg==

> <s_epik_cmdline>
J2VwaWtfcHl0aG9uJywgJy1waCcsICc3LjAnLCAnLXRuJywgJzgnLCAnLW1hJywgJzIwMCcsICctbWV0YWxfYmluZGluZycsICctaW1hZScsICc8aW5maWxlLm1hZT4nLCAnLW9tYWUnLCAnPG91dGZpbGUubWFlPic=

> <r_lp_tautomer_probability>
1

> <r_epik_Ionization_Penalty>
0.189706

> <r_epik_Ionization_Penalty_Charging>
0.189703

> <r_epik_Ionization_Penalty_Neutral>
2.45875e-06

> <r_epik_State_Penalty>
0.179341

> <r_epik_Charging_Adjusted_Penalty>
0.369044

> <i_epik_Tot_Q>
1

> <i_epik_Tot_abs_Q>
1

> <r_epik_Metal_State_Penalty>
0.179578

> <b_epik_Metal_Only>
0

> <s_lp_Force_Field>
OPLS_2005

> <r_lp_Energy>
28.246

> <b_lp_Chiralities_Consistent>
1

> <s_lp_Variant>
AV-unprocessed.smi:3331-1

> <Gold.Version>
5.8.1

> <Gold.Id.Protein>
6NUR|6NUR_protein|mol2

> <Gold.PLP.Fitness>
47.6542

> <Gold.PLP.PLP>
-41.2588

> <Gold.PLP.part.hbond>
-2.0000

> <Gold.PLP.part.metal>
0.0000

> <Gold.PLP.part.buried>
-1.5387

> <Gold.PLP.part.nonpolar>
-37.4548

> <Gold.PLP.part.repulsive>
0.3398

> <Gold.PLP.ligand.clash>
0.0000

> <Gold.PLP.ligand.torsion>
0.9122

> <Gold.PLP.Chemscore.Hbond>
2.7200

> <Gold.PLP.Chemscore.CHOScore>
0.0000

> <Gold.PLP.Chemscore.Metal>
0.0000

> <Gold.Chemscore.Hbonds>
donor molecule, donor type, donor heavy atom, donor atom, acceptor molecule, acceptor atom, score
      L1  H    12    47       P1  8028  1.98
      P1  H  7989  7998       L1     9  0.72

> <Gold.PLP.Chemscore.Internal.Correction>
0.0598

> <Gold.Rescore>
     Score         DG    S(hbond)    S(metal)    S(lipo)     H(rot)  DE(clash)    DE(int)     intcor
     16.99     -18.12       1.53        0.00     102.03       1.73       0.11       1.01       ----

> <Gold.Chemscore.Fitness>
16.9915

> <Gold.Chemscore.DG>
-18.1151

> <Gold.Chemscore.ZeroCoef>
-5.4800

> <Gold.Chemscore.Hbond>
1.5312

> <Gold.Chemscore.Metal>
0.0000

> <Gold.Chemscore.Lipo>
102.0342

> <Gold.Chemscore.Internal_Hbond>
0.0000

> <Gold.Chemscore.DEClash>
0.1135

> <Gold.Chemscore.DEInternal>
1.0102

> <Gold.Chemscore.Rot>
1.7254

> <Gold.Chemscore.Internal.Correction>
   9.000000E+99

> <Gold.Chemscore.Hbonds>
donor molecule, donor type, donor heavy atom, donor atom, acceptor molecule, acceptor atom, score
      L1  H    12    47       P1  8028  0.92
      P1  H  7989  7998       L1     9  0.18

> <Gold.Chemscore.Hbond.Weighted>
-5.1142

> <Gold.Chemscore.Metal.Weighted>
-0.0000

> <Gold.Chemscore.Lipo.Weighted>
-11.9380

> <Gold.Chemscore.Internal_Hbond.Weighted>
0.0000

> <Gold.Chemscore.DEClash.Weighted>
0.1135

> <Gold.Chemscore.DEInternal.Weighted>
1.0102

> <Gold.Chemscore.Rot.Weighted>
4.4170

> <Gold.Chemscore.Internal.Correction.Weighted>
   9.000000E+99

> <Gold.Protein.RotatedTorsions>
[ 6907 6896 6895 6894 ] final  -12.93 input  -60.11 | X-H torsion
[ 7974 7965 7964 7962 ] final  -95.73 input  175.53 | X-H torsion
[ 8008 7997 7996 7995 ] final  -22.87 input   59.86 | X-H torsion
[ 10167 10162 10161 10158 ] final   56.23 input  -65.29 | X-H torsion
[ 10718 10713 10712 10709 ] final   99.89 input   66.30 | X-H torsion
[ 10763 10752 10751 10750 ] final  -52.79 input  -60.55 | X-H torsion
[ 11005 11000 10999 10996 ] final -177.47 input  -57.11 | X-H torsion

> <Gold.Protein.ActiveResidues>
 VAL166  LYS551  ARG553  GLY616  TRP617  ASP618  TYR619  PRO620  LYS621  CYS622 
 ASP623  PHE694  ASN695  SER759  ASP760  ASP761  ALA762  ILE779  LEU786  VAL792 
 PHE793  MET794  SER795  GLU796  ALA797  LYS798  CYS799  TRP800  GLU811  SER814 

> <Gold.Protein.RotatedAtoms>
  151.3628  135.0907  159.9439 H   0  0  0  0  0  0  0  0  0  0  0  0  # atno 6907 bound_to 6896
  152.5157  133.9241  159.7559 H   0  0  0  0  0  0  0  0  0  0  0  0  # atno 6908 bound_to 6896
  150.9639  133.6361  159.2779 H   0  0  0  0  0  0  0  0  0  0  0  0  # atno 6909 bound_to 6896
  145.3562  140.9484  143.2526 H   0  0  0  0  0  0  0  0  0  0  0  0  # atno 7974 bound_to 7965
  154.4618  140.1996  156.0224 H   0  0  0  0  0  0  0  0  0  0  0  0  # atno 8008 bound_to 7997
  156.0854  140.3265  155.7719 H   0  0  0  0  0  0  0  0  0  0  0  0  # atno 8009 bound_to 7997
  155.5043  140.0556  157.2925 H   0  0  0  0  0  0  0  0  0  0  0  0  # atno 8010 bound_to 7997
  140.2110  144.3889  150.6489 H   0  0  0  0  0  0  0  0  0  0  0  0  # atno 10167 bound_to 10162
  157.6866  131.0682  150.5017 H   0  0  0  0  0  0  0  0  0  0  0  0  # atno 10718 bound_to 10713
  154.1484  135.6494  153.4958 H   0  0  0  0  0  0  0  0  0  0  0  0  # atno 10763 bound_to 10752
  153.0145  135.5332  154.6834 H   0  0  0  0  0  0  0  0  0  0  0  0  # atno 10764 bound_to 10752
  154.6114  135.2954  155.0399 H   0  0  0  0  0  0  0  0  0  0  0  0  # atno 10765 bound_to 10752
  140.4406  134.6435  157.4755 H   0  0  0  0  0  0  0  0  0  0  0  0  # atno 11005 bound_to 11000
  144.8680  139.5079  143.6781 LP  0  0  0  0  0  0  0  0  0  0  0  0  # atno 17320 bound_to 7965
  146.2947  139.7242  142.9135 LP  0  0  0  0  0  0  0  0  0  0  0  0  # atno 17321 bound_to 7965
  140.6323  143.2189  151.6468 LP  0  0  0  0  0  0  0  0  0  0  0  0  # atno 17342 bound_to 10162
  139.5180  144.3298  152.0836 LP  0  0  0  0  0  0  0  0  0  0  0  0  # atno 17343 bound_to 10162
  156.5338  130.4191  149.6188 LP  0  0  0  0  0  0  0  0  0  0  0  0  # atno 17370 bound_to 10713
  156.3045  130.7195  151.2074 LP  0  0  0  0  0  0  0  0  0  0  0  0  # atno 17371 bound_to 10713
  140.0072  134.6745  155.9436 LP  0  0  0  0  0  0  0  0  0  0  0  0  # atno 17394 bound_to 11000
  141.1707  133.6537  156.4642 LP  0  0  0  0  0  0  0  0  0  0  0  0  # atno 17395 bound_to 11000

$$$$
