AV-unprocessed.smi:1134|AV-procd|sdf|4857|dock10
  -GOLD-   22720 3433D 1   1.00000     0.00000
 Structure written by MMmdl.
 35 36  0  0  0  0  0  0  0  0  3 V2000
  148.7647  139.2017  158.2077 O   0  0  0  0  0  0  0  0  0  0  0  0
  149.6550  138.4128  157.8935 C   0  0  0  0  0  0  0  0  0  0  0  0
  151.0279  138.9683  157.4756 C   0  0  0  0  0  0  0  0  0  0  0  0
  151.1254  140.4393  157.4520 N   0  0  0  0  0  0  0  0  0  0  0  0
  151.4097  141.0773  158.6755 C   0  0  0  0  0  0  0  0  0  0  0  0
  151.5262  142.4159  158.7750 C   0  0  0  0  0  0  0  0  0  0  0  0
  151.8263  143.0527  160.0384 N   0  3  0  0  0  0  0  0  0  0  0  0
  151.7343  142.3908  161.0671 O   0  0  0  0  0  0  0  0  0  0  0  0
  152.1627  144.2331  160.0450 O   0  5  0  0  0  0  0  0  0  0  0  0
  151.3454  143.1997  157.5684 C   0  0  0  0  0  0  0  0  0  0  0  0
  151.0774  142.5953  156.3943 C   0  0  0  0  0  0  0  0  0  0  0  0
  150.9579  141.1375  156.2872 C   0  0  0  0  0  0  0  0  0  0  0  0
  150.7282  140.5785  155.2151 O   0  0  0  0  0  0  0  0  0  0  0  0
  149.4807  137.0802  157.9060 N   0  0  0  0  0  0  0  0  0  0  0  0
  148.2516  136.3970  158.2859 C   0  0  0  0  0  0  0  0  0  0  0  0
  148.5478  135.1122  159.0806 C   0  0  0  0  0  0  0  0  0  0  0  0
  147.7666  135.0621  160.3224 N   0  0  0  0  0  0  0  0  0  0  0  0
  147.5963  136.1381  161.1246 C   0  0  0  0  0  0  0  0  0  0  0  0
  148.0613  137.2569  160.9078 O   0  0  0  0  0  0  0  0  0  0  0  0
  146.7590  135.8666  162.3804 C   0  0  0  0  0  0  0  0  0  0  0  0
  146.3358  134.1250  162.2851 S   0  0  0  0  0  0  0  0  0  0  0  0
  147.1894  133.9372  160.7771 C   0  0  0  0  0  0  0  0  0  0  0  0
  147.2405  132.8458  160.2107 O   0  0  0  0  0  0  0  0  0  0  0  0
  151.7852  138.5459  158.1384 H   0  0  0  0  0  0  0  0  0  0  0  0
  151.2670  138.5655  156.4903 H   0  0  0  0  0  0  0  0  0  0  0  0
  151.5321  140.4047  159.5124 H   0  0  0  0  0  0  0  0  0  0  0  0
  151.4247  144.2765  157.5972 H   0  0  0  0  0  0  0  0  0  0  0  0
  150.9471  143.1986  155.5078 H   0  0  0  0  0  0  0  0  0  0  0  0
  150.2589  136.4972  157.6342 H   0  0  0  0  0  0  0  0  0  0  0  0
  147.6091  137.0675  158.8592 H   0  0  0  0  0  0  0  0  0  0  0  0
  147.7094  136.1546  157.3715 H   0  0  0  0  0  0  0  0  0  0  0  0
  148.3307  134.2373  158.4650 H   0  0  0  0  0  0  0  0  0  0  0  0
  149.6141  135.0462  159.3041 H   0  0  0  0  0  0  0  0  0  0  0  0
  147.3361  136.0725  163.2820 H   0  0  0  0  0  0  0  0  0  0  0  0
  145.8584  136.4808  162.3843 H   0  0  0  0  0  0  0  0  0  0  0  0
  1  2  2  0  0  0  0
  2  3  1  0  0  0  0
  2 14  1  0  0  0  0
  3  4  1  0  0  0  0
  3 24  1  0  0  0  0
  3 25  1  0  0  0  0
  4 12  1  0  0  0  0
  4  5  1  0  0  0  0
  5  6  2  0  0  0  0
  5 26  1  0  0  0  0
  6  7  1  0  0  0  0
  6 10  1  0  0  0  0
  7  8  2  0  0  0  0
  7  9  1  0  0  0  0
 10 11  2  0  0  0  0
 10 27  1  0  0  0  0
 11 12  1  0  0  0  0
 11 28  1  0  0  0  0
 12 13  2  0  0  0  0
 14 15  1  0  0  0  0
 14 29  1  0  0  0  0
 15 16  1  0  0  0  0
 15 30  1  0  0  0  0
 15 31  1  0  0  0  0
 16 17  1  0  0  0  0
 16 32  1  0  0  0  0
 16 33  1  0  0  0  0
 17 22  1  0  0  0  0
 17 18  1  0  0  0  0
 18 19  2  0  0  0  0
 18 20  1  0  0  0  0
 20 21  1  0  0  0  0
 20 34  1  0  0  0  0
 20 35  1  0  0  0  0
 21 22  1  0  0  0  0
 22 23  2  0  0  0  0
M  CHG  1   7   1
M  CHG  1   9  -1
M  END
> <s_m_source_file>
AV-unprocessed.smi

> <i_m_source_file_index>
1134

> <i_lp_mmshare_version>
43012

> <i_f3d_flags>
0

> <s_epik_input>
Tz1jMVtjSF1bY0hdYyhbTitdKD1PKVtPLV0pW2NIXW4xW0NIMl1DKD1PKVtOSF1bQ0gyXVtDSDJdTjJDKD1PKVtDSDJdU0MyPU8=

> <s_epik_cmdline>
J2VwaWtfcHl0aG9uJywgJy1waCcsICc3LjAnLCAnLXRuJywgJzgnLCAnLW1hJywgJzIwMCcsICctbWV0YWxfYmluZGluZycsICctaW1hZScsICc8aW5maWxlLm1hZT4nLCAnLW9tYWUnLCAnPG91dGZpbGUubWFlPic=

> <r_lp_tautomer_probability>
1

> <r_epik_Ionization_Penalty>
5.49556e-08

> <r_epik_Ionization_Penalty_Charging>
6.94392e-11

> <r_epik_Ionization_Penalty_Neutral>
5.48861e-08

> <r_epik_State_Penalty>
-0

> <r_epik_Charging_Adjusted_Penalty>
6.94392e-11

> <i_epik_Tot_Q>
0

> <i_epik_Tot_abs_Q>
2

> <r_epik_Metal_State_Penalty>
-0

> <b_epik_Metal_Only>
0

> <s_lp_Force_Field>
OPLS_2005

> <r_lp_Energy>
19.8089

> <b_lp_Chiralities_Consistent>
1

> <s_lp_Variant>
AV-unprocessed.smi:1134-1

> <Gold.Version>
5.8.1

> <Gold.Id.Protein>
6NUR|6NUR_protein|mol2

> <Gold.PLP.Fitness>
44.0509

> <Gold.PLP.PLP>
-38.2328

> <Gold.PLP.part.hbond>
-4.7332

> <Gold.PLP.part.metal>
0.0000

> <Gold.PLP.part.buried>
-4.1611

> <Gold.PLP.part.nonpolar>
-29.1823

> <Gold.PLP.part.repulsive>
0.2430

> <Gold.PLP.ligand.clash>
0.0000

> <Gold.PLP.ligand.torsion>
1.1762

> <Gold.PLP.Chemscore.Hbond>
2.7183

> <Gold.PLP.Chemscore.CHOScore>
0.0000

> <Gold.PLP.Chemscore.Metal>
0.0000

> <Gold.Chemscore.Hbonds>
donor molecule, donor type, donor heavy atom, donor atom, acceptor molecule, acceptor atom, score
      P1  H  6931  6943       L1    19  0.88
      P1  H  6933  6945       L1     8  0.29
      P1  H  6934  6947       L1    19  0.70
      P1  H  7989  7998       L1    13  0.96

> <Gold.PLP.Chemscore.Internal.Correction>
0.0156

> <Gold.Rescore>
     Score         DG    S(hbond)    S(metal)    S(lipo)     H(rot)  DE(clash)    DE(int)     intcor
     13.17     -15.74       3.05        0.00      60.58       2.74       0.19       2.38       ----

> <Gold.Chemscore.Fitness>
13.1681

> <Gold.Chemscore.DG>
-15.7393

> <Gold.Chemscore.ZeroCoef>
-5.4800

> <Gold.Chemscore.Hbond>
3.0480

> <Gold.Chemscore.Metal>
0.0000

> <Gold.Chemscore.Lipo>
60.5778

> <Gold.Chemscore.Internal_Hbond>
0.0000

> <Gold.Chemscore.DEClash>
0.1943

> <Gold.Chemscore.DEInternal>
2.3770

> <Gold.Chemscore.Rot>
2.7377

> <Gold.Chemscore.Internal.Correction>
   9.000000E+99

> <Gold.Chemscore.Hbonds>
donor molecule, donor type, donor heavy atom, donor atom, acceptor molecule, acceptor atom, score
      P1  H  6931  6943       L1    19  0.86
      P1  H  6933  6945       L1     8  0.29
      P1  H  6934  6947       L1    19  0.69
      P1  H  7989  7998       L1    13  0.91

> <Gold.Chemscore.Hbond.Weighted>
-10.1803

> <Gold.Chemscore.Metal.Weighted>
-0.0000

> <Gold.Chemscore.Lipo.Weighted>
-7.0876

> <Gold.Chemscore.Internal_Hbond.Weighted>
0.0000

> <Gold.Chemscore.DEClash.Weighted>
0.1943

> <Gold.Chemscore.DEInternal.Weighted>
2.3770

> <Gold.Chemscore.Rot.Weighted>
7.0085

> <Gold.Chemscore.Internal.Correction.Weighted>
   9.000000E+99

> <Gold.Protein.RotatedTorsions>
[ 6907 6896 6895 6894 ] final  -21.93 input  -60.11 | X-H torsion
[ 7974 7965 7964 7962 ] final  -69.16 input  175.53 | X-H torsion
[ 8008 7997 7996 7995 ] final  -90.42 input   59.86 | X-H torsion
[ 10167 10162 10161 10158 ] final   75.96 input  -65.29 | X-H torsion
[ 10718 10713 10712 10709 ] final   82.51 input   66.30 | X-H torsion
[ 10763 10752 10751 10750 ] final   -1.92 input  -60.55 | X-H torsion
[ 11005 11000 10999 10996 ] final   -3.09 input  -57.11 | X-H torsion

> <Gold.Protein.ActiveResidues>
 VAL166  LYS551  ARG553  GLY616  TRP617  ASP618  TYR619  PRO620  LYS621  CYS622 
 ASP623  PHE694  ASN695  SER759  ASP760  ASP761  ALA762  ILE779  LEU786  VAL792 
 PHE793  MET794  SER795  GLU796  ALA797  LYS798  CYS799  TRP800  GLU811  SER814 

> <Gold.Protein.RotatedAtoms>
  151.2261  135.0537  159.8968 H   0  0  0  0  0  0  0  0  0  0  0  0  # atno 6907 bound_to 6896
  152.5410  134.0588  159.8153 H   0  0  0  0  0  0  0  0  0  0  0  0  # atno 6908 bound_to 6896
  151.0761  133.5379  159.2655 H   0  0  0  0  0  0  0  0  0  0  0  0  # atno 6909 bound_to 6896
  145.7073  140.9092  143.0699 H   0  0  0  0  0  0  0  0  0  0  0  0  # atno 7974 bound_to 7965
  154.6984  140.0530  157.0433 H   0  0  0  0  0  0  0  0  0  0  0  0  # atno 8008 bound_to 7997
  155.0719  140.3200  155.4609 H   0  0  0  0  0  0  0  0  0  0  0  0  # atno 8009 bound_to 7997
  156.2752  140.2080  156.5847 H   0  0  0  0  0  0  0  0  0  0  0  0  # atno 8010 bound_to 7997
  139.9973  144.5712  150.7767 H   0  0  0  0  0  0  0  0  0  0  0  0  # atno 10167 bound_to 10162
  157.6859  131.0051  150.2385 H   0  0  0  0  0  0  0  0  0  0  0  0  # atno 10718 bound_to 10713
  153.3512  135.6986  153.6787 H   0  0  0  0  0  0  0  0  0  0  0  0  # atno 10763 bound_to 10752
  153.5513  135.3553  155.2761 H   0  0  0  0  0  0  0  0  0  0  0  0  # atno 10764 bound_to 10752
  154.8653  135.4227  154.2748 H   0  0  0  0  0  0  0  0  0  0  0  0  # atno 10765 bound_to 10752
  140.6655  133.9283  155.8462 H   0  0  0  0  0  0  0  0  0  0  0  0  # atno 11005 bound_to 11000
  144.6951  139.9028  143.7459 LP  0  0  0  0  0  0  0  0  0  0  0  0  # atno 17320 bound_to 7965
  146.0744  139.3732  143.0503 LP  0  0  0  0  0  0  0  0  0  0  0  0  # atno 17321 bound_to 7965
  140.7432  143.2843  151.3509 LP  0  0  0  0  0  0  0  0  0  0  0  0  # atno 17342 bound_to 10162
  139.6297  144.0746  152.2465 LP  0  0  0  0  0  0  0  0  0  0  0  0  # atno 17343 bound_to 10162
  156.3004  130.3757  149.7756 LP  0  0  0  0  0  0  0  0  0  0  0  0  # atno 17370 bound_to 10713
  156.5388  130.8290  151.3262 LP  0  0  0  0  0  0  0  0  0  0  0  0  # atno 17371 bound_to 10713
  141.0433  134.0590  157.3875 LP  0  0  0  0  0  0  0  0  0  0  0  0  # atno 17394 bound_to 11000
  139.8999  135.0160  156.7216 LP  0  0  0  0  0  0  0  0  0  0  0  0  # atno 17395 bound_to 11000

$$$$
