AV-unprocessed.smi:36|AV-procd|sdf|286|dock8
  -GOLD-   2262016 63D 1   1.00000     0.00000
 Structure written by MMmdl.
 64 67  0  0  0  0  0  0  0  0  1 V2000
  150.7686  128.1327  154.8081 C   0  0  0  0  0  0  0  0  0  0  0  0
  150.8663  129.6012  155.2541 C   0  0  0  0  0  0  0  0  0  0  0  0
  152.3350  130.0574  155.2348 C   0  0  0  0  0  0  0  0  0  0  0  0
  150.0365  130.4902  154.3130 C   0  0  0  0  0  0  0  0  0  0  0  0
  150.1865  129.7714  157.0314 Si  0  0  0  0  0  0  0  0  0  0  0  0
  148.4292  129.0627  157.1686 C   0  0  0  0  0  0  0  0  0  0  0  0
  151.3259  128.9110  158.2853 C   0  0  0  0  0  0  0  0  0  0  0  0
  150.1247  131.4195  157.4071 O   0  0  0  0  0  0  0  0  0  0  0  0
  148.9266  132.1663  157.4373 C   0  0  0  0  0  0  0  0  0  0  0  0
  149.1514  133.5203  156.7534 C   0  0  1  0  0  0  0  0  0  0  0  0
  150.3290  134.1302  157.2755 O   0  0  0  0  0  0  0  0  0  0  0  0
  150.9888  134.8452  156.2728 C   0  0  2  0  0  0  0  0  0  0  0  0
  151.0878  136.2692  156.7058 N   0  0  0  0  0  0  0  0  0  0  0  0
  151.2287  136.7723  157.9810 C   0  0  0  0  0  0  0  0  0  0  0  0
  151.3000  138.0743  158.0621 N   0  0  0  0  0  0  0  0  0  0  0  0
  151.1962  138.4999  156.7435 C   0  0  0  0  0  0  0  0  0  0  0  0
  151.2033  139.7734  156.1169 C   0  0  0  0  0  0  0  0  0  0  0  0
  151.3448  140.8959  156.8602 N   0  0  0  0  0  0  0  0  0  0  0  0
  152.2274  141.1174  157.9921 C   0  0  0  0  0  0  0  0  0  0  0  0
  153.0590  140.2819  158.3479 O   0  0  0  0  0  0  0  0  0  0  0  0
  152.1283  142.4622  158.6515 C   0  0  0  0  0  0  0  0  0  0  0  0
  152.5317  142.6216  159.9965 C   0  0  0  0  0  0  0  0  0  0  0  0
  152.4205  143.8744  160.6305 C   0  0  0  0  0  0  0  0  0  0  0  0
  151.8977  144.9765  159.9278 C   0  0  0  0  0  0  0  0  0  0  0  0
  151.4843  144.8244  158.5908 C   0  0  0  0  0  0  0  0  0  0  0  0
  151.5951  143.5722  157.9556 C   0  0  0  0  0  0  0  0  0  0  0  0
  151.0737  139.8053  154.7641 N   0  0  0  0  0  0  0  0  0  0  0  0
  150.9452  138.6686  154.0729 C   0  0  0  0  0  0  0  0  0  0  0  0
  150.9259  137.4135  154.5271 N   0  0  0  0  0  0  0  0  0  0  0  0
  151.0576  137.3746  155.8844 C   0  0  0  0  0  0  0  0  0  0  0  0
  150.1473  134.7331  155.0013 C   0  0  0  0  0  0  0  0  0  0  0  0
  149.4142  133.4324  155.2478 C   0  0  2  0  0  0  0  0  0  0  0  0
  148.2209  133.3744  154.4936 O   0  0  0  0  0  0  0  0  0  0  0  0
  151.1499  128.0003  153.7951 H   0  0  0  0  0  0  0  0  0  0  0  0
  149.7364  127.7821  154.8186 H   0  0  0  0  0  0  0  0  0  0  0  0
  151.3449  127.4789  155.4632 H   0  0  0  0  0  0  0  0  0  0  0  0
  152.9523  129.4402  155.8880 H   0  0  0  0  0  0  0  0  0  0  0  0
  152.4328  131.0907  155.5691 H   0  0  0  0  0  0  0  0  0  0  0  0
  152.7565  129.9945  154.2310 H   0  0  0  0  0  0  0  0  0  0  0  0
  150.4054  130.4352  153.2882 H   0  0  0  0  0  0  0  0  0  0  0  0
  150.0735  131.5358  154.6207 H   0  0  0  0  0  0  0  0  0  0  0  0
  148.9891  130.1879  154.3008 H   0  0  0  0  0  0  0  0  0  0  0  0
  148.4019  128.0051  156.9073 H   0  0  0  0  0  0  0  0  0  0  0  0
  147.7357  129.5801  156.5061 H   0  0  0  0  0  0  0  0  0  0  0  0
  148.0390  129.1555  158.1818 H   0  0  0  0  0  0  0  0  0  0  0  0
  151.4253  127.8469  158.0719 H   0  0  0  0  0  0  0  0  0  0  0  0
  150.9425  129.0015  159.3013 H   0  0  0  0  0  0  0  0  0  0  0  0
  152.3275  129.3396  158.2775 H   0  0  0  0  0  0  0  0  0  0  0  0
  148.1440  131.6100  156.9204 H   0  0  0  0  0  0  0  0  0  0  0  0
  148.6017  132.3048  158.4690 H   0  0  0  0  0  0  0  0  0  0  0  0
  148.3141  134.1921  156.9523 H   0  0  0  0  0  0  0  0  0  0  0  0
  152.0123  134.4859  156.1613 H   0  0  0  0  0  0  0  0  0  0  0  0
  151.2801  136.1382  158.8543 H   0  0  0  0  0  0  0  0  0  0  0  0
  150.7394  141.6657  156.6157 H   0  0  0  0  0  0  0  0  0  0  0  0
  152.9320  141.7846  160.5507 H   0  0  0  0  0  0  0  0  0  0  0  0
  152.7343  143.9890  161.6576 H   0  0  0  0  0  0  0  0  0  0  0  0
  151.8104  145.9364  160.4150 H   0  0  0  0  0  0  0  0  0  0  0  0
  151.0777  145.6683  158.0526 H   0  0  0  0  0  0  0  0  0  0  0  0
  151.2613  143.4751  156.9326 H   0  0  0  0  0  0  0  0  0  0  0  0
  150.8442  138.7815  153.0035 H   0  0  0  0  0  0  0  0  0  0  0  0
  149.4472  135.5691  154.9439 H   0  0  0  0  0  0  0  0  0  0  0  0
  150.7741  134.7288  154.1093 H   0  0  0  0  0  0  0  0  0  0  0  0
  150.0568  132.5830  155.0116 H   0  0  0  0  0  0  0  0  0  0  0  0
  148.4456  133.4118  153.5761 H   0  0  0  0  0  0  0  0  0  0  0  0
  1  2  1  0  0  0  0
  1 34  1  0  0  0  0
  1 35  1  0  0  0  0
  1 36  1  0  0  0  0
  2  3  1  0  0  0  0
  2  4  1  0  0  0  0
  2  5  1  0  0  0  0
  3 37  1  0  0  0  0
  3 38  1  0  0  0  0
  3 39  1  0  0  0  0
  4 40  1  0  0  0  0
  4 41  1  0  0  0  0
  4 42  1  0  0  0  0
  5  6  1  0  0  0  0
  5  7  1  0  0  0  0
  5  8  1  0  0  0  0
  6 43  1  0  0  0  0
  6 44  1  0  0  0  0
  6 45  1  0  0  0  0
  7 46  1  0  0  0  0
  7 47  1  0  0  0  0
  7 48  1  0  0  0  0
  8  9  1  0  0  0  0
  9 10  1  0  0  0  0
  9 49  1  0  0  0  0
  9 50  1  0  0  0  0
 10 32  1  0  0  0  0
 10 11  1  0  0  0  0
 10 51  1  0  0  0  0
 11 12  1  0  0  0  0
 12 13  1  0  0  0  0
 12 31  1  0  0  0  0
 12 52  1  0  0  0  0
 13 30  1  0  0  0  0
 13 14  1  0  0  0  0
 14 15  2  0  0  0  0
 14 53  1  0  0  0  0
 15 16  1  0  0  0  0
 16 30  2  0  0  0  0
 16 17  1  0  0  0  0
 17 18  1  0  0  0  0
 17 27  2  0  0  0  0
 18 19  1  0  0  0  0
 18 54  1  0  0  0  0
 19 20  2  0  0  0  0
 19 21  1  0  0  0  0
 21 26  1  0  0  0  0
 21 22  2  0  0  0  0
 22 23  1  0  0  0  0
 22 55  1  0  0  0  0
 23 24  2  0  0  0  0
 23 56  1  0  0  0  0
 24 25  1  0  0  0  0
 24 57  1  0  0  0  0
 25 26  2  0  0  0  0
 25 58  1  0  0  0  0
 26 59  1  0  0  0  0
 27 28  1  0  0  0  0
 28 29  2  0  0  0  0
 28 60  1  0  0  0  0
 29 30  1  0  0  0  0
 31 32  1  0  0  0  0
 31 61  1  0  0  0  0
 31 62  1  0  0  0  0
 32 33  1  0  0  0  0
 32 63  1  0  0  0  0
 33 64  1  0  0  0  0
M  END
> <s_m_source_file>
AV-unprocessed.smi

> <i_m_source_file_index>
36

> <i_lp_mmshare_version>
43012

> <i_f3d_flags>
0

> <s_epik_input>
W0NIM11DKFtDSDNdKShbQ0gzXSlbU2ldKFtDSDNdKShbQ0gzXSlPW0NIMl1bQ0BASF0xT1tDQEhdKFtDSDJdW0NASF0xW09IXSluKFtjSF1uMiljKGMyMyluW2NIXW5jM1tOSF1DKD1PKWM0W2NIXVtjSF1bY0hdW2NIXVtjSF00

> <s_epik_cmdline>
J2VwaWtfcHl0aG9uJywgJy1waCcsICc3LjAnLCAnLXRuJywgJzgnLCAnLW1hJywgJzIwMCcsICctbWV0YWxfYmluZGluZycsICctaW1hZScsICc8aW5maWxlLm1hZT4nLCAnLW9tYWUnLCAnPG91dGZpbGUubWFlPic=

> <r_lp_tautomer_probability>
1

> <r_epik_Ionization_Penalty>
0.00150433

> <r_epik_Ionization_Penalty_Charging>
0

> <r_epik_Ionization_Penalty_Neutral>
0.00150433

> <r_epik_State_Penalty>
0.00724046

> <r_epik_Charging_Adjusted_Penalty>
0.00724046

> <i_epik_Tot_Q>
0

> <i_epik_Tot_abs_Q>
0

> <r_epik_Metal_State_Penalty>
0.323355

> <b_epik_Metal_Only>
0

> <s_epik_Chemistry_Notes>
This compound contains an acetal/aminal-like group ( X-CH(R)-Y where X, Y are N, S, or O) that may be acid/base labile, releasing an aldehyde.

> <s_lp_Force_Field>
OPLS_2005

> <r_lp_Energy>
35.7954

> <b_lp_Chiralities_Consistent>
1

> <s_lp_Variant>
AV-unprocessed.smi:36-8

> <Gold.Version>
5.8.1

> <Gold.Id.Protein>
6NUR|6NUR_protein|mol2

> <Gold.PLP.Fitness>
54.1417

> <Gold.PLP.PLP>
-48.5147

> <Gold.PLP.part.hbond>
-3.0000

> <Gold.PLP.part.metal>
0.0000

> <Gold.PLP.part.buried>
-7.8140

> <Gold.PLP.part.nonpolar>
-38.4079

> <Gold.PLP.part.repulsive>
0.3555

> <Gold.PLP.ligand.clash>
0.0000

> <Gold.PLP.ligand.torsion>
2.7497

> <Gold.PLP.Chemscore.Hbond>
2.6960

> <Gold.PLP.Chemscore.CHOScore>
0.9790

> <Gold.PLP.Chemscore.Metal>
0.0000

> <Gold.Chemscore.Hbonds>
donor molecule, donor type, donor heavy atom, donor atom, acceptor molecule, acceptor atom, score
      P1  H  6896  6907       L1    11  0.71
      P1  H  7989  7998       L1    27  1.00
      P1  H  7997  8009       L1    20  0.93
      L1  C    28    60       P1  7957  0.92

> <Gold.PLP.Chemscore.Internal.Correction>
0.1014

> <Gold.Rescore>
     Score         DG    S(hbond)    S(metal)    S(lipo)     H(rot)  DE(clash)    DE(int)     intcor
     13.70     -19.65       2.63        0.00     105.10       2.70       0.04       5.92       ----

> <Gold.Chemscore.Fitness>
13.6974

> <Gold.Chemscore.DG>
-19.6537

> <Gold.Chemscore.ZeroCoef>
-5.4800

> <Gold.Chemscore.Hbond>
2.6346

> <Gold.Chemscore.Metal>
0.0000

> <Gold.Chemscore.Lipo>
105.1002

> <Gold.Chemscore.Internal_Hbond>
0.0000

> <Gold.Chemscore.DEClash>
0.0352

> <Gold.Chemscore.DEInternal>
5.9211

> <Gold.Chemscore.Rot>
2.7041

> <Gold.Chemscore.Internal.Correction>
   9.000000E+99

> <Gold.Chemscore.Hbonds>
donor molecule, donor type, donor heavy atom, donor atom, acceptor molecule, acceptor atom, score
      P1  H  6896  6907       L1    11  0.66
      P1  H  7989  7998       L1    27  0.26
      P1  H  7997  8009       L1    20  0.74

> <Gold.Chemscore.Hbond.Weighted>
-8.7995

> <Gold.Chemscore.Metal.Weighted>
-0.0000

> <Gold.Chemscore.Lipo.Weighted>
-12.2967

> <Gold.Chemscore.Internal_Hbond.Weighted>
0.0000

> <Gold.Chemscore.DEClash.Weighted>
0.0352

> <Gold.Chemscore.DEInternal.Weighted>
5.9211

> <Gold.Chemscore.Rot.Weighted>
6.9225

> <Gold.Chemscore.Internal.Correction.Weighted>
   9.000000E+99

> <Gold.Protein.RotatedTorsions>
[ 6907 6896 6895 6894 ] final -122.34 input  -60.11 | X-H torsion
[ 7974 7965 7964 7962 ] final  179.42 input  175.53 | X-H torsion
[ 8008 7997 7996 7995 ] final  153.07 input   59.86 | X-H torsion
[ 10167 10162 10161 10158 ] final  142.81 input  -65.29 | X-H torsion
[ 10718 10713 10712 10709 ] final    8.57 input   66.30 | X-H torsion
[ 10763 10752 10751 10750 ] final  -53.09 input  -60.55 | X-H torsion
[ 11005 11000 10999 10996 ] final -127.72 input  -57.11 | X-H torsion

> <Gold.Protein.ActiveResidues>
 VAL166  LYS551  ARG553  GLY616  TRP617  ASP618  TYR619  PRO620  LYS621  CYS622 
 ASP623  PHE694  ASN695  SER759  ASP760  ASP761  ALA762  ILE779  LEU786  VAL792 
 PHE793  MET794  SER795  GLU796  ALA797  LYS798  CYS799  TRP800  GLU811  SER814 

> <Gold.Protein.RotatedAtoms>
  150.8567  133.7705  159.3006 H   0  0  0  0  0  0  0  0  0  0  0  0  # atno 6907 bound_to 6896
  151.5360  135.1067  159.9924 H   0  0  0  0  0  0  0  0  0  0  0  0  # atno 6908 bound_to 6896
  152.4595  133.7748  159.6874 H   0  0  0  0  0  0  0  0  0  0  0  0  # atno 6909 bound_to 6896
  144.7146  140.0546  143.6434 H   0  0  0  0  0  0  0  0  0  0  0  0  # atno 7974 bound_to 7965
  156.2599  140.2003  156.6433 H   0  0  0  0  0  0  0  0  0  0  0  0  # atno 8008 bound_to 7997
  154.6592  140.0562  157.0068 H   0  0  0  0  0  0  0  0  0  0  0  0  # atno 8009 bound_to 7997
  155.1301  140.3233  155.4479 H   0  0  0  0  0  0  0  0  0  0  0  0  # atno 8010 bound_to 7997
  139.4985  144.6082  151.6331 H   0  0  0  0  0  0  0  0  0  0  0  0  # atno 10167 bound_to 10162
  156.9535  130.5906  149.5658 H   0  0  0  0  0  0  0  0  0  0  0  0  # atno 10718 bound_to 10713
  154.1533  135.6486  153.4968 H   0  0  0  0  0  0  0  0  0  0  0  0  # atno 10763 bound_to 10752
  153.0131  135.5343  154.6786 H   0  0  0  0  0  0  0  0  0  0  0  0  # atno 10764 bound_to 10752
  154.6080  135.2951  155.0435 H   0  0  0  0  0  0  0  0  0  0  0  0  # atno 10765 bound_to 10752
  140.9576  134.0981  157.4001 H   0  0  0  0  0  0  0  0  0  0  0  0  # atno 11005 bound_to 11000
  145.9915  139.3019  143.0982 LP  0  0  0  0  0  0  0  0  0  0  0  0  # atno 17320 bound_to 7965
  145.8897  140.9311  143.0558 LP  0  0  0  0  0  0  0  0  0  0  0  0  # atno 17321 bound_to 7965
  140.5750  144.0045  150.6236 LP  0  0  0  0  0  0  0  0  0  0  0  0  # atno 17342 bound_to 10162
  140.3175  143.3158  152.0818 LP  0  0  0  0  0  0  0  0  0  0  0  0  # atno 17343 bound_to 10162
  156.0352  130.5440  150.8636 LP  0  0  0  0  0  0  0  0  0  0  0  0  # atno 17370 bound_to 10713
  157.5706  131.0946  150.9424 LP  0  0  0  0  0  0  0  0  0  0  0  0  # atno 17371 bound_to 10713
  139.8867  135.0084  156.6516 LP  0  0  0  0  0  0  0  0  0  0  0  0  # atno 17394 bound_to 11000
  140.7514  133.8894  155.8350 LP  0  0  0  0  0  0  0  0  0  0  0  0  # atno 17395 bound_to 11000

$$$$
