AV-unprocessed.smi:2204|AV-procd|sdf|8939|dock8
  -GOLD-   2272012153D 1   1.00000     0.00000
 Structure written by MMmdl.
 39 40  0  0  0  0  0  0  0  0  1 V2000
  153.7767  141.3877  161.4520 C   0  0  0  0  0  0  0  0  0  0  0  0
  153.0603  142.4749  160.7069 C   0  0  0  0  0  0  0  0  0  0  0  0
  152.5875  143.7202  161.2062 C   0  0  0  0  0  0  0  0  0  0  0  0
  151.9955  144.3137  160.1272 C   0  0  0  0  0  0  0  0  0  0  0  0
  151.2942  145.6275  160.0195 C   0  0  0  0  0  0  0  0  0  0  0  0
  152.1360  143.4421  159.0609 N   0  0  0  0  0  0  0  0  0  0  0  0
  151.6576  143.5758  157.6900 C   0  0  0  0  0  0  0  0  0  0  0  0
  151.0255  142.2757  157.1823 C   0  0  0  0  0  0  0  0  0  0  0  0
  151.1817  141.2296  157.8111 O   0  0  0  0  0  0  0  0  0  0  0  0
  150.3037  142.3635  156.0540 N   0  0  0  0  0  0  0  0  0  0  0  0
  149.4643  141.3167  155.4793 C   0  0  2  0  0  0  0  0  0  0  0  0
  148.6614  140.6217  156.5882 C   0  0  0  0  0  0  0  0  0  0  0  0
  150.3380  140.3287  154.6791 C   0  0  1  0  0  0  0  0  0  0  0  0
  151.4907  139.6949  155.4703 C   0  0  0  0  0  0  0  0  0  0  0  0
  151.6458  138.3555  154.7877 C   0  0  0  0  0  0  0  0  0  0  0  0
  150.1951  138.0000  154.4885 C   0  0  0  0  0  0  0  0  0  0  0  0
  149.5577  139.2370  154.1885 O   0  0  0  0  0  0  0  0  0  0  0  0
  152.7935  142.3176  159.4212 N   0  0  0  0  0  0  0  0  0  0  0  0
  154.1257  141.7403  162.4227 H   0  0  0  0  0  0  0  0  0  0  0  0
  154.6452  141.0323  160.8968 H   0  0  0  0  0  0  0  0  0  0  0  0
  153.1187  140.5360  161.6257 H   0  0  0  0  0  0  0  0  0  0  0  0
  152.6607  144.1131  162.2095 H   0  0  0  0  0  0  0  0  0  0  0  0
  151.2752  146.1387  160.9824 H   0  0  0  0  0  0  0  0  0  0  0  0
  150.2628  145.4918  159.6928 H   0  0  0  0  0  0  0  0  0  0  0  0
  151.7962  146.2791  159.3041 H   0  0  0  0  0  0  0  0  0  0  0  0
  150.9269  144.3827  157.6319 H   0  0  0  0  0  0  0  0  0  0  0  0
  152.4952  143.8595  157.0509 H   0  0  0  0  0  0  0  0  0  0  0  0
  150.2507  143.2673  155.6069 H   0  0  0  0  0  0  0  0  0  0  0  0
  148.7493  141.7566  154.7820 H   0  0  0  0  0  0  0  0  0  0  0  0
  148.0158  139.8460  156.1758 H   0  0  0  0  0  0  0  0  0  0  0  0
  148.0251  141.3332  157.1154 H   0  0  0  0  0  0  0  0  0  0  0  0
  149.3173  140.1532  157.3228 H   0  0  0  0  0  0  0  0  0  0  0  0
  150.7584  140.8355  153.8091 H   0  0  0  0  0  0  0  0  0  0  0  0
  152.4007  140.2946  155.4449 H   0  0  0  0  0  0  0  0  0  0  0  0
  151.2240  139.5368  156.5156 H   0  0  0  0  0  0  0  0  0  0  0  0
  152.2071  138.4675  153.8592 H   0  0  0  0  0  0  0  0  0  0  0  0
  152.1478  137.6128  155.4083 H   0  0  0  0  0  0  0  0  0  0  0  0
  150.0964  137.2886  153.6686 H   0  0  0  0  0  0  0  0  0  0  0  0
  149.7206  137.5694  155.3705 H   0  0  0  0  0  0  0  0  0  0  0  0
  1  2  1  0  0  0  0
  1 19  1  0  0  0  0
  1 20  1  0  0  0  0
  1 21  1  0  0  0  0
  2 18  2  0  0  0  0
  2  3  1  0  0  0  0
  3  4  2  0  0  0  0
  3 22  1  0  0  0  0
  4  5  1  0  0  0  0
  4  6  1  0  0  0  0
  5 23  1  0  0  0  0
  5 24  1  0  0  0  0
  5 25  1  0  0  0  0
  6  7  1  0  0  0  0
  6 18  1  0  0  0  0
  7  8  1  0  0  0  0
  7 26  1  0  0  0  0
  7 27  1  0  0  0  0
  8  9  2  0  0  0  0
  8 10  1  0  0  0  0
 10 11  1  0  0  0  0
 10 28  1  0  0  0  0
 11 12  1  0  0  0  0
 11 13  1  0  0  0  0
 11 29  1  0  0  0  0
 12 30  1  0  0  0  0
 12 31  1  0  0  0  0
 12 32  1  0  0  0  0
 13 17  1  0  0  0  0
 13 14  1  0  0  0  0
 13 33  1  0  0  0  0
 14 15  1  0  0  0  0
 14 34  1  0  0  0  0
 14 35  1  0  0  0  0
 15 16  1  0  0  0  0
 15 36  1  0  0  0  0
 15 37  1  0  0  0  0
 16 17  1  0  0  0  0
 16 38  1  0  0  0  0
 16 39  1  0  0  0  0
M  END
> <s_m_source_file>
AV-unprocessed.smi

> <i_m_source_file_index>
2204

> <i_lp_mmshare_version>
43012

> <i_f3d_flags>
0

> <s_epik_input>
W0NIM11jMVtjSF1jKFtDSDNdKW4objEpW0NIMl1DKD1PKVtOSF1bQ0BIXShbQ0gzXSlbQ0BASF0yW0NIMl1bQ0gyXVtDSDJdTzI=

> <s_epik_cmdline>
J2VwaWtfcHl0aG9uJywgJy1waCcsICc3LjAnLCAnLXRuJywgJzgnLCAnLW1hJywgJzIwMCcsICctbWV0YWxfYmluZGluZycsICctaW1hZScsICc8aW5maWxlLm1hZT4nLCAnLW9tYWUnLCAnPG91dGZpbGUubWFlPic=

> <r_lp_tautomer_probability>
1

> <r_epik_Ionization_Penalty>
0.000433354

> <r_epik_Ionization_Penalty_Charging>
0

> <r_epik_Ionization_Penalty_Neutral>
0.000433354

> <r_epik_State_Penalty>
-0

> <r_epik_Charging_Adjusted_Penalty>
0

> <i_epik_Tot_Q>
0

> <i_epik_Tot_abs_Q>
0

> <r_epik_Metal_State_Penalty>
-0

> <b_epik_Metal_Only>
0

> <s_lp_Force_Field>
OPLS_2005

> <r_lp_Energy>
16.4317

> <b_lp_Chiralities_Consistent>
1

> <s_lp_Variant>
AV-unprocessed.smi:2204-3

> <Gold.Version>
5.8.1

> <Gold.Id.Protein>
6NUR|6NUR_protein|mol2

> <Gold.PLP.Fitness>
44.2846

> <Gold.PLP.PLP>
-43.4562

> <Gold.PLP.part.hbond>
-1.0000

> <Gold.PLP.part.metal>
0.0000

> <Gold.PLP.part.buried>
-2.5519

> <Gold.PLP.part.nonpolar>
-40.2722

> <Gold.PLP.part.repulsive>
0.7791

> <Gold.PLP.ligand.clash>
0.0000

> <Gold.PLP.ligand.torsion>
0.6758

> <Gold.PLP.Chemscore.Hbond>
0.7200

> <Gold.PLP.Chemscore.CHOScore>
0.0000

> <Gold.PLP.Chemscore.Metal>
0.0000

> <Gold.Chemscore.Hbonds>
donor molecule, donor type, donor heavy atom, donor atom, acceptor molecule, acceptor atom, score
      L1  H    10    28       P1  8028  0.67

> <Gold.PLP.Chemscore.Internal.Correction>
0.0199

> <Gold.Rescore>
     Score         DG    S(hbond)    S(metal)    S(lipo)     H(rot)  DE(clash)    DE(int)     intcor
     11.90     -16.98       0.91        0.00     105.18       1.50       0.12       4.96       ----

> <Gold.Chemscore.Fitness>
11.8959

> <Gold.Chemscore.DG>
-16.9815

> <Gold.Chemscore.ZeroCoef>
-5.4800

> <Gold.Chemscore.Hbond>
0.9091

> <Gold.Chemscore.Metal>
0.0000

> <Gold.Chemscore.Lipo>
105.1812

> <Gold.Chemscore.Internal_Hbond>
0.0000

> <Gold.Chemscore.DEClash>
0.1211

> <Gold.Chemscore.DEInternal>
4.9645

> <Gold.Chemscore.Rot>
1.5005

> <Gold.Chemscore.Internal.Correction>
   9.000000E+99

> <Gold.Chemscore.Hbonds>
donor molecule, donor type, donor heavy atom, donor atom, acceptor molecule, acceptor atom, score
      L1  H    10    28       P1  8028  0.64

> <Gold.Chemscore.Hbond.Weighted>
-3.0365

> <Gold.Chemscore.Metal.Weighted>
-0.0000

> <Gold.Chemscore.Lipo.Weighted>
-12.3062

> <Gold.Chemscore.Internal_Hbond.Weighted>
0.0000

> <Gold.Chemscore.DEClash.Weighted>
0.1211

> <Gold.Chemscore.DEInternal.Weighted>
4.9645

> <Gold.Chemscore.Rot.Weighted>
3.8412

> <Gold.Chemscore.Internal.Correction.Weighted>
   9.000000E+99

> <Gold.Protein.RotatedTorsions>
[ 6907 6896 6895 6894 ] final  -51.27 input  -60.11 | X-H torsion
[ 7974 7965 7964 7962 ] final  -20.29 input  175.53 | X-H torsion
[ 8008 7997 7996 7995 ] final -109.18 input   59.86 | X-H torsion
[ 10167 10162 10161 10158 ] final   40.62 input  -65.29 | X-H torsion
[ 10718 10713 10712 10709 ] final  -74.00 input   66.30 | X-H torsion
[ 10763 10752 10751 10750 ] final -152.45 input  -60.55 | X-H torsion
[ 11005 11000 10999 10996 ] final -146.41 input  -57.11 | X-H torsion

> <Gold.Protein.ActiveResidues>
 VAL166  LYS551  ARG553  GLY616  TRP617  ASP618  TYR619  PRO620  LYS621  CYS622 
 ASP623  PHE694  ASN695  SER759  ASP760  ASP761  ALA762  ILE779  LEU786  VAL792 
 PHE793  MET794  SER795  GLU796  ALA797  LYS798  CYS799  TRP800  GLU811  SER814 

> <Gold.Protein.RotatedAtoms>
  150.8628  134.7984  159.7095 H   0  0  0  0  0  0  0  0  0  0  0  0  # atno 6907 bound_to 6896
  152.4659  134.5073  159.9753 H   0  0  0  0  0  0  0  0  0  0  0  0  # atno 6908 bound_to 6896
  151.5174  133.3435  159.2931 H   0  0  0  0  0  0  0  0  0  0  0  0  # atno 6909 bound_to 6896
  146.1796  140.4182  142.8500 H   0  0  0  0  0  0  0  0  0  0  0  0  # atno 7974 bound_to 7965
  154.9555  140.0400  157.2164 H   0  0  0  0  0  0  0  0  0  0  0  0  # atno 8008 bound_to 7997
  154.7938  140.2840  155.5949 H   0  0  0  0  0  0  0  0  0  0  0  0  # atno 8009 bound_to 7997
  156.2953  140.2568  156.2792 H   0  0  0  0  0  0  0  0  0  0  0  0  # atno 8010 bound_to 7997
  140.3724  144.2087  150.6132 H   0  0  0  0  0  0  0  0  0  0  0  0  # atno 10167 bound_to 10162
  156.0259  130.4407  150.2826 H   0  0  0  0  0  0  0  0  0  0  0  0  # atno 10718 bound_to 10713
  154.7993  135.3236  154.7589 H   0  0  0  0  0  0  0  0  0  0  0  0  # atno 10763 bound_to 10752
  153.8260  135.6883  153.4825 H   0  0  0  0  0  0  0  0  0  0  0  0  # atno 10764 bound_to 10752
  153.1701  135.4626  154.9834 H   0  0  0  0  0  0  0  0  0  0  0  0  # atno 10765 bound_to 10752
  140.7823  134.3065  157.5041 H   0  0  0  0  0  0  0  0  0  0  0  0  # atno 11005 bound_to 11000
  144.8293  140.6680  143.6302 LP  0  0  0  0  0  0  0  0  0  0  0  0  # atno 17320 bound_to 7965
  145.4114  139.1579  143.4123 LP  0  0  0  0  0  0  0  0  0  0  0  0  # atno 17321 bound_to 7965
  140.5020  143.2315  151.8664 LP  0  0  0  0  0  0  0  0  0  0  0  0  # atno 17342 bound_to 10162
  139.4802  144.5049  151.9011 LP  0  0  0  0  0  0  0  0  0  0  0  0  # atno 17343 bound_to 10162
  157.0930  131.0175  151.3114 LP  0  0  0  0  0  0  0  0  0  0  0  0  # atno 17370 bound_to 10713
  157.4839  130.7782  149.7441 LP  0  0  0  0  0  0  0  0  0  0  0  0  # atno 17371 bound_to 10713
  139.8741  134.9326  156.3557 LP  0  0  0  0  0  0  0  0  0  0  0  0  # atno 17394 bound_to 11000
  140.9470  133.7476  156.0222 LP  0  0  0  0  0  0  0  0  0  0  0  0  # atno 17395 bound_to 11000

$$$$
