#       Name:                AV-unprocessed.smi:2650
#       Creating user name   scv26
#       Creation time:       Fri Mar 27 14:30:28 2020


#       File generated by GOLD software.
#

@<TRIPOS>MOLECULE
AV-unprocessed.smi:2650
    40    41     1
SMALL
NO_CHARGES


@<TRIPOS>ATOM
      1 ****        -0.6065   1.4128  -0.4350 O.2            1 S1                 0.0000
      2 ****        -1.1082   0.3055  -0.6320 C.2            1 S1                 0.0000
      3 ****        -0.3877  -0.8175  -0.7657 N.am           1 S1                 0.0000
      4 ****         1.0662  -0.8880  -0.6899 C.3            1 S1                 0.0000
      5 ****         1.5529  -0.8969   0.7710 C.3            1 S1                 0.0000
      6 ****         3.0152  -0.9561   0.8468 N.am           1 S1                 0.0000
      7 ****         3.7208  -2.0953   0.8744 C.2            1 S1                 0.0000
      8 ****         3.2627  -3.2373   0.8475 O.2            1 S1                 0.0000
      9 ****         5.2154  -1.8109   0.9379 C.3            1 S1                 0.0000
     10 ****         5.2770  -0.2801   0.9355 C.3            1 S1                 0.0000
     11 ****         3.8102   0.1231   0.8667 C.2            1 S1                 0.0000
     12 ****         3.4462   1.2979   0.8307 O.2            1 S1                 0.0000
     13 ****        -2.4253   0.0556  -0.7379 N.am           1 S1                 0.0000
     14 ****        -3.5033   0.9759  -0.6444 C.ar           1 S1                 0.0000
     15 ****        -4.7896   0.4084  -0.7889 C.ar           1 S1                 0.0000
     16 ****        -5.9254   1.2375  -0.7118 C.ar           1 S1                 0.0000
     17 ****        -5.7454   2.6148  -0.4917 C.ar           1 S1                 0.0000
     18 ****        -4.4311   3.0988  -0.3584 C.ar           1 S1                 0.0000
     19 ****        -3.3414   2.3060  -0.4322 N.ar           1 S1                 0.0000
     20 ****        -0.8783  -1.6852  -0.9258 H              1 S1                 0.0000
     21 ****         1.3868  -1.7985  -1.1967 H              1 S1                 0.0000
     22 ****         1.5083  -0.0548  -1.2393 H              1 S1                 0.0000
     23 ****         1.1939  -0.0084   1.2938 H              1 S1                 0.0000
     24 ****         1.1162  -1.7440   1.3030 H              1 S1                 0.0000
     25 ****         5.6470  -2.2342   1.8455 H              1 S1                 0.0000
     26 ****         5.7223  -2.2395   0.0728 H              1 S1                 0.0000
     27 ****         5.7376   0.1097   1.8438 H              1 S1                 0.0000
     28 ****         5.8201   0.1046   0.0716 H              1 S1                 0.0000
     29 ****        -2.6879  -0.9052  -0.9000 H              1 S1                 0.0000
     30 ****        -4.9100  -0.6521  -0.9570 H              1 S1                 0.0000
     31 ****        -6.9169   0.8229  -0.8190 H              1 S1                 0.0000
     32 ****        -6.5917   3.2825  -0.4266 H              1 S1                 0.0000
     33 ****        -4.2488   4.1495  -0.1879 H              1 S1                 0.0000
     34 ****         0.3867   1.5067  -0.3672 LP             1 S1                 0.0000
     35 ****        -1.1924   2.2179  -0.3429 LP             1 S1                 0.0000
     36 ****         2.2738  -3.3784   0.8005 LP             1 S1                 0.0000
     37 ****         3.8793  -4.0242   0.8726 LP             1 S1                 0.0000
     38 ****         2.4720   1.5182   0.7814 LP             1 S1                 0.0000
     39 ****         4.1245   2.0323   0.8507 LP             1 S1                 0.0000
     40 ****        -2.4255   2.6944  -0.3317 LP             1 S1                 0.0000
@<TRIPOS>BOND
    1    1    2 2     
    2    2    3 am    
    3    2   13 am    
    4    3    4 1     
    5    3   20 1     
    6    4    5 1     
    7    4   21 1     
    8    4   22 1     
    9    5    6 1     
   10    5   23 1     
   11    5   24 1     
   12    6   11 am    
   13    6    7 am    
   14    7    8 2     
   15    7    9 1     
   16    9   10 1     
   17    9   25 1     
   18    9   26 1     
   19   10   11 1     
   20   10   27 1     
   21   10   28 1     
   22   11   12 2     
   23   13   14 1     
   24   13   29 1     
   25   14   19 ar    
   26   14   15 ar    
   27   15   16 ar    
   28   15   30 1     
   29   16   17 ar    
   30   16   31 1     
   31   17   18 ar    
   32   17   32 1     
   33   18   19 ar    
   34   18   33 1     
   35    1   34 1     
   36    1   35 1     
   37    8   36 1     
   38    8   37 1     
   39   12   38 1     
   40   12   39 1     
   41   19   40 1     
@<TRIPOS>SUBSTRUCTURE
      1 S1             1
@<TRIPOS>SET
LONE_PAIRS      STATIC     ATOMS    <user>   **** ""
7 34 35 36 37 38 39 40
DONOR_HYDROGENS      STATIC     ATOMS    <user>   **** ""
2 20 29
ATOM$BLUE        STATIC     ATOMS    COLORGROUP SYSTEM
7 34 35 36 37 38 39 40
ATOM$RED        STATIC     ATOMS    COLORGROUP SYSTEM
2 20 29
