AV-unprocessed.smi:203|AV-procd|sdf|1589|dock5
  -GOLD-   2262019483D 1   1.00000     0.00000
 Structure written by MMmdl.
 57 61  0  0  0  0  0  0  0  0  1 V2000
  153.9589  137.2203  162.4440 O   0  0  0  0  0  0  0  0  0  0  0  0
  153.7191  137.6984  161.3378 C   0  0  0  0  0  0  0  0  0  0  0  0
  154.3944  138.9481  160.8000 C   0  0  0  0  0  0  0  0  0  0  0  0
  153.6025  139.2652  159.5147 C   0  0  2  0  0  0  0  0  0  0  0  0
  152.7304  140.5585  159.5949 C   0  0  1  0  0  0  0  0  0  0  0  0
  153.4025  141.6853  160.4240 C   0  0  0  0  0  0  0  0  0  0  0  0
  152.5293  142.9451  160.4858 C   0  0  0  0  0  0  0  0  0  0  0  0
  152.1948  143.4156  159.0667 C   0  0  0  0  0  0  0  0  0  0  0  0
  151.5228  142.2863  158.2754 C   0  0  0  0  0  0  0  0  0  0  0  0
  152.3458  141.0768  158.2693 N   0  0  0  0  0  0  0  0  0  0  0  0
  151.8448  140.1729  157.3978 C   0  0  0  0  0  0  0  0  0  0  0  0
  152.6010  139.8725  156.3134 N   0  0  0  0  0  0  0  0  0  0  0  0
  152.1642  138.9754  155.4241 C   0  0  0  0  0  0  0  0  0  0  0  0
  151.0242  138.2804  155.4290 N   0  0  0  0  0  0  0  0  0  0  0  0
  150.2587  138.5894  156.5152 C   0  0  0  0  0  0  0  0  0  0  0  0
  150.5889  139.5183  157.5411 C   0  0  0  0  0  0  0  0  0  0  0  0
  149.5671  139.5705  158.4819 N   0  0  0  0  0  0  0  0  0  0  0  0
  148.6808  138.7229  158.0351 C   0  0  0  0  0  0  0  0  0  0  0  0
  149.0158  138.0889  156.8605 N   0  0  0  0  0  0  0  0  0  0  0  0
  148.2175  137.1078  156.1475 C   0  0  0  0  0  0  0  0  0  0  0  0
  147.9679  137.5102  154.6779 C   0  0  1  0  0  0  0  0  0  0  0  0
  147.2196  136.5150  154.0086 O   0  0  0  0  0  0  0  0  0  0  0  0
  147.2520  138.8655  154.5007 C   0  0  2  0  0  0  0  0  0  0  0  0
  147.0713  139.2995  153.0427 C   0  0  0  0  0  0  0  0  0  0  0  0
  147.0881  140.8210  153.1011 C   0  0  0  0  0  0  0  0  0  0  0  0
  147.4390  141.1394  154.5550 C   0  0  0  0  0  0  0  0  0  0  0  0
  148.0009  139.9368  155.0551 O   0  0  0  0  0  0  0  0  0  0  0  0
  152.7818  137.9891  159.2290 C   0  0  0  0  0  0  0  0  0  0  0  0
  152.8529  137.2124  160.4513 N   0  0  0  0  0  0  0  0  0  0  0  0
  154.3759  139.7567  161.5310 H   0  0  0  0  0  0  0  0  0  0  0  0
  155.4369  138.7233  160.5727 H   0  0  0  0  0  0  0  0  0  0  0  0
  154.3089  139.3657  158.6902 H   0  0  0  0  0  0  0  0  0  0  0  0
  151.8068  140.2943  160.1111 H   0  0  0  0  0  0  0  0  0  0  0  0
  153.6085  141.3507  161.4400 H   0  0  0  0  0  0  0  0  0  0  0  0
  154.3665  141.9511  159.9903 H   0  0  0  0  0  0  0  0  0  0  0  0
  151.6101  142.7323  161.0329 H   0  0  0  0  0  0  0  0  0  0  0  0
  153.0450  143.7347  161.0326 H   0  0  0  0  0  0  0  0  0  0  0  0
  151.5410  144.2873  159.1030 H   0  0  0  0  0  0  0  0  0  0  0  0
  153.1070  143.7288  158.5571 H   0  0  0  0  0  0  0  0  0  0  0  0
  150.5490  142.0618  158.7127 H   0  0  0  0  0  0  0  0  0  0  0  0
  151.3422  142.6188  157.2518 H   0  0  0  0  0  0  0  0  0  0  0  0
  152.8230  138.7868  154.5894 H   0  0  0  0  0  0  0  0  0  0  0  0
  147.7507  138.5364  158.5523 H   0  0  0  0  0  0  0  0  0  0  0  0
  148.7240  136.1437  156.2045 H   0  0  0  0  0  0  0  0  0  0  0  0
  147.2727  136.9915  156.6788 H   0  0  0  0  0  0  0  0  0  0  0  0
  148.9256  137.5624  154.1586 H   0  0  0  0  0  0  0  0  0  0  0  0
  147.5304  136.4577  153.1177 H   0  0  0  0  0  0  0  0  0  0  0  0
  146.2688  138.8394  154.9758 H   0  0  0  0  0  0  0  0  0  0  0  0
  147.8977  138.9513  152.4228 H   0  0  0  0  0  0  0  0  0  0  0  0
  146.1495  138.9071  152.6126 H   0  0  0  0  0  0  0  0  0  0  0  0
  147.8442  141.2160  152.4218 H   0  0  0  0  0  0  0  0  0  0  0  0
  146.1274  141.2552  152.8225 H   0  0  0  0  0  0  0  0  0  0  0  0
  148.1348  141.9736  154.6469 H   0  0  0  0  0  0  0  0  0  0  0  0
  146.5399  141.3795  155.1249 H   0  0  0  0  0  0  0  0  0  0  0  0
  151.7491  138.1934  158.9463 H   0  0  0  0  0  0  0  0  0  0  0  0
  153.2340  137.4108  158.4223 H   0  0  0  0  0  0  0  0  0  0  0  0
  152.2946  136.3845  160.6025 H   0  0  0  0  0  0  0  0  0  0  0  0
  1  2  2  0  0  0  0
  2 29  1  0  0  0  0
  2  3  1  0  0  0  0
  3  4  1  0  0  0  0
  3 30  1  0  0  0  0
  3 31  1  0  0  0  0
  4  5  1  0  0  0  0
  4 28  1  0  0  0  0
  4 32  1  0  0  0  0
  5 10  1  0  0  0  0
  5  6  1  0  0  0  0
  5 33  1  0  0  0  0
  6  7  1  0  0  0  0
  6 34  1  0  0  0  0
  6 35  1  0  0  0  0
  7  8  1  0  0  0  0
  7 36  1  0  0  0  0
  7 37  1  0  0  0  0
  8  9  1  0  0  0  0
  8 38  1  0  0  0  0
  8 39  1  0  0  0  0
  9 10  1  0  0  0  0
  9 40  1  0  0  0  0
  9 41  1  0  0  0  0
 10 11  1  0  0  0  0
 11 16  1  0  0  0  0
 11 12  2  0  0  0  0
 12 13  1  0  0  0  0
 13 14  2  0  0  0  0
 13 42  1  0  0  0  0
 14 15  1  0  0  0  0
 15 19  1  0  0  0  0
 15 16  2  0  0  0  0
 16 17  1  0  0  0  0
 17 18  2  0  0  0  0
 18 19  1  0  0  0  0
 18 43  1  0  0  0  0
 19 20  1  0  0  0  0
 20 21  1  0  0  0  0
 20 44  1  0  0  0  0
 20 45  1  0  0  0  0
 21 22  1  0  0  0  0
 21 23  1  0  0  0  0
 21 46  1  0  0  0  0
 22 47  1  0  0  0  0
 23 27  1  0  0  0  0
 23 24  1  0  0  0  0
 23 48  1  0  0  0  0
 24 25  1  0  0  0  0
 24 49  1  0  0  0  0
 24 50  1  0  0  0  0
 25 26  1  0  0  0  0
 25 51  1  0  0  0  0
 25 52  1  0  0  0  0
 26 27  1  0  0  0  0
 26 53  1  0  0  0  0
 26 54  1  0  0  0  0
 28 29  1  0  0  0  0
 28 55  1  0  0  0  0
 28 56  1  0  0  0  0
 29 57  1  0  0  0  0
M  END
> <s_m_source_file>
AV-unprocessed.smi

> <i_m_source_file_index>
203

> <i_lp_mmshare_version>
43012

> <i_f3d_flags>
0

> <s_epik_input>
Tz1DMVtDSDJdW0NASF0oW0NIMl1bTkhdMSlbQ0BASF0yW0NIMl1bQ0gyXVtDSDJdW0NIMl1OMmMobltjSF1uMyljKGMzNCluW2NIXW40W0NIMl1bQ0BIXShbT0hdKVtDQEBIXTVbQ0gyXVtDSDJdW0NIMl1PNQ==

> <s_epik_cmdline>
J2VwaWtfcHl0aG9uJywgJy1waCcsICc3LjAnLCAnLXRuJywgJzgnLCAnLW1hJywgJzIwMCcsICctbWV0YWxfYmluZGluZycsICctaW1hZScsICc8aW5maWxlLm1hZT4nLCAnLW9tYWUnLCAnPG91dGZpbGUubWFlPic=

> <r_lp_tautomer_probability>
1

> <r_epik_Ionization_Penalty>
0.00175146

> <r_epik_Ionization_Penalty_Charging>
0

> <r_epik_Ionization_Penalty_Neutral>
0.00175146

> <r_epik_State_Penalty>
0.00109045

> <r_epik_Charging_Adjusted_Penalty>
0.00109045

> <i_epik_Tot_Q>
0

> <i_epik_Tot_abs_Q>
0

> <r_epik_Metal_State_Penalty>
-0

> <b_epik_Metal_Only>
0

> <s_lp_Force_Field>
OPLS_2005

> <r_lp_Energy>
57.3309

> <b_lp_Chiralities_Consistent>
1

> <s_lp_Variant>
AV-unprocessed.smi:203-8

> <Gold.Version>
5.8.1

> <Gold.Id.Protein>
6NUR|6NUR_protein|mol2

> <Gold.PLP.Fitness>
45.0179

> <Gold.PLP.PLP>
-39.8705

> <Gold.PLP.part.hbond>
-2.0859

> <Gold.PLP.part.metal>
0.0000

> <Gold.PLP.part.buried>
-4.7995

> <Gold.PLP.part.nonpolar>
-32.1097

> <Gold.PLP.part.repulsive>
0.2239

> <Gold.PLP.ligand.clash>
0.0007

> <Gold.PLP.ligand.torsion>
0.5531

> <Gold.PLP.Chemscore.Hbond>
2.0000

> <Gold.PLP.Chemscore.CHOScore>
0.0000

> <Gold.PLP.Chemscore.Metal>
0.0000

> <Gold.Chemscore.Hbonds>
donor molecule, donor type, donor heavy atom, donor atom, acceptor molecule, acceptor atom, score
      L1  H    22    47       P1  7948  1.00
      P1  H  7997  8009       L1    12  1.00

> <Gold.PLP.Chemscore.Internal.Correction>
0.2545

> <Gold.Rescore>
     Score         DG    S(hbond)    S(metal)    S(lipo)     H(rot)  DE(clash)    DE(int)     intcor
     14.41     -16.77       1.93        0.00     100.77       2.72       0.24       2.13       ----

> <Gold.Chemscore.Fitness>
14.4101

> <Gold.Chemscore.DG>
-16.7736

> <Gold.Chemscore.ZeroCoef>
-5.4800

> <Gold.Chemscore.Hbond>
1.9340

> <Gold.Chemscore.Metal>
0.0000

> <Gold.Chemscore.Lipo>
100.7676

> <Gold.Chemscore.Internal_Hbond>
0.0000

> <Gold.Chemscore.DEClash>
0.2362

> <Gold.Chemscore.DEInternal>
2.1274

> <Gold.Chemscore.Rot>
2.7171

> <Gold.Chemscore.Internal.Correction>
   9.000000E+99

> <Gold.Chemscore.Hbonds>
donor molecule, donor type, donor heavy atom, donor atom, acceptor molecule, acceptor atom, score
      L1  H    22    47       P1  7948  0.95
      P1  H  7997  8009       L1    12  0.89

> <Gold.Chemscore.Hbond.Weighted>
-6.4595

> <Gold.Chemscore.Metal.Weighted>
-0.0000

> <Gold.Chemscore.Lipo.Weighted>
-11.7898

> <Gold.Chemscore.Internal_Hbond.Weighted>
0.0000

> <Gold.Chemscore.DEClash.Weighted>
0.2362

> <Gold.Chemscore.DEInternal.Weighted>
2.1274

> <Gold.Chemscore.Rot.Weighted>
6.9557

> <Gold.Chemscore.Internal.Correction.Weighted>
   9.000000E+99

> <Gold.Protein.RotatedTorsions>
[ 6907 6896 6895 6894 ] final  -15.86 input  -60.11 | X-H torsion
[ 7974 7965 7964 7962 ] final   -2.10 input  175.53 | X-H torsion
[ 8008 7997 7996 7995 ] final -160.88 input   59.86 | X-H torsion
[ 10167 10162 10161 10158 ] final   65.17 input  -65.29 | X-H torsion
[ 10718 10713 10712 10709 ] final  165.66 input   66.30 | X-H torsion
[ 10763 10752 10751 10750 ] final   12.29 input  -60.55 | X-H torsion
[ 11005 11000 10999 10996 ] final  -25.17 input  -57.11 | X-H torsion

> <Gold.Protein.ActiveResidues>
 VAL166  LYS551  ARG553  GLY616  TRP617  ASP618  TYR619  PRO620  LYS621  CYS622 
 ASP623  PHE694  ASN695  SER759  ASP760  ASP761  ALA762  ILE779  LEU786  VAL792 
 PHE793  MET794  SER795  GLU796  ALA797  LYS798  CYS799  TRP800  GLU811  SER814 

> <Gold.Protein.RotatedAtoms>
  151.3174  135.0810  159.9293 H   0  0  0  0  0  0  0  0  0  0  0  0  # atno 6907 bound_to 6896
  152.5264  133.9673  159.7756 H   0  0  0  0  0  0  0  0  0  0  0  0  # atno 6908 bound_to 6896
  150.9988  133.6024  159.2728 H   0  0  0  0  0  0  0  0  0  0  0  0  # atno 6909 bound_to 6896
  146.2409  140.1521  142.8334 H   0  0  0  0  0  0  0  0  0  0  0  0  # atno 7974 bound_to 7965
  155.7840  140.0869  157.2044 H   0  0  0  0  0  0  0  0  0  0  0  0  # atno 8008 bound_to 7997
  154.3988  140.1502  156.3143 H   0  0  0  0  0  0  0  0  0  0  0  0  # atno 8009 bound_to 7997
  155.8625  140.3429  155.5769 H   0  0  0  0  0  0  0  0  0  0  0  0  # atno 8010 bound_to 7997
  140.1142  144.4790  150.6959 H   0  0  0  0  0  0  0  0  0  0  0  0  # atno 10167 bound_to 10162
  157.0770  131.0382  151.2590 H   0  0  0  0  0  0  0  0  0  0  0  0  # atno 10718 bound_to 10713
  153.1837  135.6832  153.8443 H   0  0  0  0  0  0  0  0  0  0  0  0  # atno 10763 bound_to 10752
  153.7766  135.3188  155.3361 H   0  0  0  0  0  0  0  0  0  0  0  0  # atno 10764 bound_to 10752
  154.8075  135.4739  154.0527 H   0  0  0  0  0  0  0  0  0  0  0  0  # atno 10765 bound_to 10752
  140.8913  133.7586  156.0425 H   0  0  0  0  0  0  0  0  0  0  0  0  # atno 11005 bound_to 11000
  145.0159  140.8753  143.5196 LP  0  0  0  0  0  0  0  0  0  0  0  0  # atno 17320 bound_to 7965
  145.1561  139.2485  143.5415 LP  0  0  0  0  0  0  0  0  0  0  0  0  # atno 17321 bound_to 7965
  140.6908  143.2375  151.5135 LP  0  0  0  0  0  0  0  0  0  0  0  0  # atno 17342 bound_to 10162
  139.5603  144.2173  152.1680 LP  0  0  0  0  0  0  0  0  0  0  0  0  # atno 17343 bound_to 10162
  157.4831  130.7777  149.7433 LP  0  0  0  0  0  0  0  0  0  0  0  0  # atno 17370 bound_to 10713
  155.9934  130.3924  150.2901 LP  0  0  0  0  0  0  0  0  0  0  0  0  # atno 17371 bound_to 10713
  140.8343  134.3141  157.5337 LP  0  0  0  0  0  0  0  0  0  0  0  0  # atno 17394 bound_to 11000
  139.8730  134.9381  156.3705 LP  0  0  0  0  0  0  0  0  0  0  0  0  # atno 17395 bound_to 11000

$$$$
