AV-unprocessed.smi:671|AV-procd|sdf|3287|dock9
  -GOLD-   22720 0243D 1   1.00000     0.00000
 Structure written by MMmdl.
 50 51  0  0  0  0  0  0  0  0  2 V2000
  146.5790  138.4379  153.3909 C   0  0  0  0  0  0  0  0  0  0  0  0
  146.1513  139.3981  154.4498 C   0  0  0  0  0  0  0  0  0  0  0  0
  145.2844  139.1019  155.4546 N   0  3  0  0  0  0  0  0  0  0  0  0
  145.1061  140.1722  156.2422 N   0  0  0  0  0  0  0  0  0  0  0  0
  144.2053  140.0665  157.3902 C   0  0  0  0  0  0  0  0  0  0  0  0
  145.8453  141.2230  155.7860 C   0  0  0  0  0  0  0  0  0  0  0  0
  145.8786  142.5703  156.4318 C   0  0  0  0  0  0  0  0  0  0  0  0
  146.5115  140.7349  154.6533 C   0  0  0  0  0  0  0  0  0  0  0  0
  147.4628  141.5008  153.7778 C   0  0  0  0  0  0  0  0  0  0  0  0
  148.9448  141.1767  154.0680 C   0  0  2  0  0  0  0  0  0  0  0  0
  149.1593  139.7120  154.4798 C   0  0  0  0  0  0  0  0  0  0  0  0
  149.4501  142.0460  155.1332 N   0  0  0  0  0  0  0  0  0  0  0  0
  150.5743  141.9038  155.8597 C   0  0  0  0  0  0  0  0  0  0  0  0
  151.3434  140.9610  155.6855 O   0  0  0  0  0  0  0  0  0  0  0  0
  150.7762  142.8681  156.7737 N   0  0  0  0  0  0  0  0  0  0  0  0
  151.9010  142.9392  157.7012 C   0  0  1  0  0  0  0  0  0  0  0  0
  152.2791  144.4079  157.9749 C   0  0  0  0  0  0  0  0  0  0  0  0
  151.9365  144.6741  159.4414 C   0  0  0  0  0  0  0  0  0  0  0  0
  152.0752  143.3115  160.1115 C   0  0  0  0  0  0  0  0  0  0  0  0
  151.5362  142.3250  159.0713 C   0  0  2  0  0  0  0  0  0  0  0  0
  152.0506  140.8919  159.2666 C   0  0  0  0  0  0  0  0  0  0  0  0
  147.6581  138.2886  153.4321 H   0  0  0  0  0  0  0  0  0  0  0  0
  146.3201  138.8250  152.4051 H   0  0  0  0  0  0  0  0  0  0  0  0
  146.0902  137.4723  153.5243 H   0  0  0  0  0  0  0  0  0  0  0  0
  144.6146  140.6386  158.2233 H   0  0  0  0  0  0  0  0  0  0  0  0
  144.1007  139.0225  157.6891 H   0  0  0  0  0  0  0  0  0  0  0  0
  143.2301  140.4691  157.1150 H   0  0  0  0  0  0  0  0  0  0  0  0
  146.3679  143.3021  155.7904 H   0  0  0  0  0  0  0  0  0  0  0  0
  146.4236  142.5188  157.3744 H   0  0  0  0  0  0  0  0  0  0  0  0
  144.8650  142.9165  156.6348 H   0  0  0  0  0  0  0  0  0  0  0  0
  147.2366  141.2718  152.7359 H   0  0  0  0  0  0  0  0  0  0  0  0
  147.2957  142.5741  153.8684 H   0  0  0  0  0  0  0  0  0  0  0  0
  149.5339  141.3472  153.1653 H   0  0  0  0  0  0  0  0  0  0  0  0
  148.8685  139.0279  153.6829 H   0  0  0  0  0  0  0  0  0  0  0  0
  148.5777  139.4581  155.3667 H   0  0  0  0  0  0  0  0  0  0  0  0
  150.2088  139.5183  154.7041 H   0  0  0  0  0  0  0  0  0  0  0  0
  148.8951  142.8673  155.3272 H   0  0  0  0  0  0  0  0  0  0  0  0
  150.0911  143.6064  156.8377 H   0  0  0  0  0  0  0  0  0  0  0  0
  152.7727  142.4381  157.2750 H   0  0  0  0  0  0  0  0  0  0  0  0
  153.3526  144.5339  157.8277 H   0  0  0  0  0  0  0  0  0  0  0  0
  151.7823  145.1152  157.3092 H   0  0  0  0  0  0  0  0  0  0  0  0
  152.5790  145.4317  159.8910 H   0  0  0  0  0  0  0  0  0  0  0  0
  150.9060  145.0202  159.5240 H   0  0  0  0  0  0  0  0  0  0  0  0
  153.1289  143.1110  160.3112 H   0  0  0  0  0  0  0  0  0  0  0  0
  151.5401  143.2548  161.0599 H   0  0  0  0  0  0  0  0  0  0  0  0
  150.4493  142.3143  159.1755 H   0  0  0  0  0  0  0  0  0  0  0  0
  153.1368  140.8449  159.1829 H   0  0  0  0  0  0  0  0  0  0  0  0
  151.6296  140.2202  158.5181 H   0  0  0  0  0  0  0  0  0  0  0  0
  151.7749  140.5078  160.2487 H   0  0  0  0  0  0  0  0  0  0  0  0
  144.8084  138.2285  155.6423 H   0  0  0  0  0  0  0  0  0  0  0  0
  1  2  1  0  0  0  0
  1 22  1  0  0  0  0
  1 23  1  0  0  0  0
  1 24  1  0  0  0  0
  2  8  1  0  0  0  0
  2  3  2  0  0  0  0
  3  4  1  0  0  0  0
  3 50  1  0  0  0  0
  4  5  1  0  0  0  0
  4  6  1  0  0  0  0
  5 25  1  0  0  0  0
  5 26  1  0  0  0  0
  5 27  1  0  0  0  0
  6  7  1  0  0  0  0
  6  8  2  0  0  0  0
  7 28  1  0  0  0  0
  7 29  1  0  0  0  0
  7 30  1  0  0  0  0
  8  9  1  0  0  0  0
  9 10  1  0  0  0  0
  9 31  1  0  0  0  0
  9 32  1  0  0  0  0
 10 11  1  0  0  0  0
 10 12  1  0  0  0  0
 10 33  1  0  0  0  0
 11 34  1  0  0  0  0
 11 35  1  0  0  0  0
 11 36  1  0  0  0  0
 12 13  1  0  0  0  0
 12 37  1  0  0  0  0
 13 14  2  0  0  0  0
 13 15  1  0  0  0  0
 15 16  1  0  0  0  0
 15 38  1  0  0  0  0
 16 20  1  0  0  0  0
 16 17  1  0  0  0  0
 16 39  1  0  0  0  0
 17 18  1  0  0  0  0
 17 40  1  0  0  0  0
 17 41  1  0  0  0  0
 18 19  1  0  0  0  0
 18 42  1  0  0  0  0
 18 43  1  0  0  0  0
 19 20  1  0  0  0  0
 19 44  1  0  0  0  0
 19 45  1  0  0  0  0
 20 21  1  0  0  0  0
 20 46  1  0  0  0  0
 21 47  1  0  0  0  0
 21 48  1  0  0  0  0
 21 49  1  0  0  0  0
M  CHG  1   3   1
M  END
> <s_m_source_file>
AV-unprocessed.smi

> <i_m_source_file_index>
671

> <i_lp_mmshare_version>
43012

> <i_f3d_flags>
0

> <s_epik_input>
W0NIM11jMW5uKFtDSDNdKWMoW0NIM10pYzFbQ0gyXVtDQEhdKFtDSDNdKVtOSF1DKD1PKVtOSF1bQ0BASF0yW0NIMl1bQ0gyXVtDSDJdW0NASF0yW0NIM10=

> <s_epik_cmdline>
J2VwaWtfcHl0aG9uJywgJy1waCcsICc3LjAnLCAnLXRuJywgJzgnLCAnLW1hJywgJzIwMCcsICctbWV0YWxfYmluZGluZycsICctaW1hZScsICc8aW5maWxlLm1hZT4nLCAnLW9tYWUnLCAnPG91dGZpbGUubWFlPic=

> <r_lp_tautomer_probability>
1

> <r_epik_Ionization_Penalty>
2.28705

> <r_epik_Ionization_Penalty_Charging>
2.28698

> <r_epik_Ionization_Penalty_Neutral>
6.23157e-05

> <r_epik_State_Penalty>
2.43671

> <r_epik_Charging_Adjusted_Penalty>
4.72369

> <i_epik_Tot_Q>
1

> <i_epik_Tot_abs_Q>
1

> <r_epik_Metal_State_Penalty>
2.44911

> <b_epik_Metal_Only>
0

> <s_lp_Force_Field>
OPLS_2005

> <r_lp_Energy>
34.681

> <b_lp_Chiralities_Consistent>
1

> <s_lp_Variant>
AV-unprocessed.smi:671-15

> <Gold.Version>
5.8.1

> <Gold.Id.Protein>
6NUR|6NUR_protein|mol2

> <Gold.PLP.Fitness>
41.7937

> <Gold.PLP.PLP>
-37.7513

> <Gold.PLP.part.hbond>
-3.0000

> <Gold.PLP.part.metal>
0.0000

> <Gold.PLP.part.buried>
-4.8127

> <Gold.PLP.part.nonpolar>
-29.7096

> <Gold.PLP.part.repulsive>
0.2704

> <Gold.PLP.ligand.clash>
0.0000

> <Gold.PLP.ligand.torsion>
1.1524

> <Gold.PLP.Chemscore.Hbond>
2.1118

> <Gold.PLP.Chemscore.CHOScore>
0.0000

> <Gold.PLP.Chemscore.Metal>
0.0000

> <Gold.Chemscore.Hbonds>
donor molecule, donor type, donor heavy atom, donor atom, acceptor molecule, acceptor atom, score
      L1  H    12    37       P1  8028  0.94
      L1  H    15    38       P1  8028  0.82
      P1  H  7989  7998       L1    14  0.38

> <Gold.PLP.Chemscore.Internal.Correction>
0.0119

> <Gold.Rescore>
     Score         DG    S(hbond)    S(metal)    S(lipo)     H(rot)  DE(clash)    DE(int)     intcor
     17.15     -20.56       1.93        0.00     106.66       1.51       0.69       2.72       ----

> <Gold.Chemscore.Fitness>
17.1541

> <Gold.Chemscore.DG>
-20.5626

> <Gold.Chemscore.ZeroCoef>
-5.4800

> <Gold.Chemscore.Hbond>
1.9335

> <Gold.Chemscore.Metal>
0.0000

> <Gold.Chemscore.Lipo>
106.6605

> <Gold.Chemscore.Internal_Hbond>
0.0000

> <Gold.Chemscore.DEClash>
0.6905

> <Gold.Chemscore.DEInternal>
2.7180

> <Gold.Chemscore.Rot>
1.5057

> <Gold.Chemscore.Internal.Correction>
   9.000000E+99

> <Gold.Chemscore.Hbonds>
donor molecule, donor type, donor heavy atom, donor atom, acceptor molecule, acceptor atom, score
      L1  H    12    37       P1  8028  0.91
      L1  H    15    38       P1  8028  0.77
      P1  H  7989  7998       L1    14  0.17

> <Gold.Chemscore.Hbond.Weighted>
-6.4580

> <Gold.Chemscore.Metal.Weighted>
-0.0000

> <Gold.Chemscore.Lipo.Weighted>
-12.4793

> <Gold.Chemscore.Internal_Hbond.Weighted>
0.0000

> <Gold.Chemscore.DEClash.Weighted>
0.6905

> <Gold.Chemscore.DEInternal.Weighted>
2.7180

> <Gold.Chemscore.Rot.Weighted>
3.8547

> <Gold.Chemscore.Internal.Correction.Weighted>
   9.000000E+99

> <Gold.Protein.RotatedTorsions>
[ 6907 6896 6895 6894 ] final  167.75 input  -60.11 | X-H torsion
[ 7974 7965 7964 7962 ] final -150.67 input  175.53 | X-H torsion
[ 8008 7997 7996 7995 ] final -133.62 input   59.86 | X-H torsion
[ 10167 10162 10161 10158 ] final  161.31 input  -65.29 | X-H torsion
[ 10718 10713 10712 10709 ] final  -40.27 input   66.30 | X-H torsion
[ 10763 10752 10751 10750 ] final -167.24 input  -60.55 | X-H torsion
[ 11005 11000 10999 10996 ] final -149.75 input  -57.11 | X-H torsion

> <Gold.Protein.ActiveResidues>
 VAL166  LYS551  ARG553  GLY616  TRP617  ASP618  TYR619  PRO620  LYS621  CYS622 
 ASP623  PHE694  ASN695  SER759  ASP760  ASP761  ALA762  ILE779  LEU786  VAL792 
 PHE793  MET794  SER795  GLU796  ALA797  LYS798  CYS799  TRP800  GLU811  SER814 

> <Gold.Protein.RotatedAtoms>
  151.8584  133.3452  159.3695 H   0  0  0  0  0  0  0  0  0  0  0  0  # atno 6907 bound_to 6896
  150.7186  134.5231  159.5672 H   0  0  0  0  0  0  0  0  0  0  0  0  # atno 6908 bound_to 6896
  152.2739  134.7903  160.0460 H   0  0  0  0  0  0  0  0  0  0  0  0  # atno 6909 bound_to 6896
  144.7894  140.4901  143.5783 H   0  0  0  0  0  0  0  0  0  0  0  0  # atno 7974 bound_to 7965
  155.3486  140.0476  157.3046 H   0  0  0  0  0  0  0  0  0  0  0  0  # atno 8008 bound_to 7997
  154.5239  140.2234  155.8890 H   0  0  0  0  0  0  0  0  0  0  0  0  # atno 8009 bound_to 7997
  156.1719  140.3094  155.8995 H   0  0  0  0  0  0  0  0  0  0  0  0  # atno 8010 bound_to 7997
  139.4848  144.4549  151.8781 H   0  0  0  0  0  0  0  0  0  0  0  0  # atno 10167 bound_to 10162
  156.2832  130.4219  149.8315 H   0  0  0  0  0  0  0  0  0  0  0  0  # atno 10718 bound_to 10713
  154.6752  135.2945  154.9688 H   0  0  0  0  0  0  0  0  0  0  0  0  # atno 10763 bound_to 10752
  154.0702  135.6619  153.4827 H   0  0  0  0  0  0  0  0  0  0  0  0  # atno 10764 bound_to 10752
  153.0512  135.5173  154.7768 H   0  0  0  0  0  0  0  0  0  0  0  0  # atno 10765 bound_to 10752
  140.7475  134.3445  157.5134 H   0  0  0  0  0  0  0  0  0  0  0  0  # atno 11005 bound_to 11000
  145.5834  139.1490  143.3222 LP  0  0  0  0  0  0  0  0  0  0  0  0  # atno 17320 bound_to 7965
  146.2140  140.5963  142.9047 LP  0  0  0  0  0  0  0  0  0  0  0  0  # atno 17321 bound_to 7965
  140.4008  144.2496  150.5893 LP  0  0  0  0  0  0  0  0  0  0  0  0  # atno 17342 bound_to 10162
  140.5059  143.2304  151.8609 LP  0  0  0  0  0  0  0  0  0  0  0  0  # atno 17343 bound_to 10162
  156.5755  130.8443  151.3368 LP  0  0  0  0  0  0  0  0  0  0  0  0  # atno 17370 bound_to 10713
  157.7321  130.9709  150.1910 LP  0  0  0  0  0  0  0  0  0  0  0  0  # atno 17371 bound_to 10713
  139.8794  134.9120  156.3051 LP  0  0  0  0  0  0  0  0  0  0  0  0  # atno 17394 bound_to 11000
  140.9781  133.7284  156.0632 LP  0  0  0  0  0  0  0  0  0  0  0  0  # atno 17395 bound_to 11000

$$$$
