AV-unprocessed.smi:102|AV-procd|sdf|954|dock1
  -GOLD-   2262017483D 1   1.00000     0.00000
 Structure written by MMmdl.
 44 45  0  0  0  0  0  0  0  0  1 V2000
  152.4978  144.4903  158.4173 C   0  0  0  0  0  0  0  0  0  0  0  0
  151.4499  143.5143  158.9351 C   0  0  0  0  0  0  0  0  0  0  0  0
  151.1068  143.5064  160.1174 O   0  0  0  0  0  0  0  0  0  0  0  0
  150.9817  142.7060  157.9713 O   0  0  0  0  0  0  0  0  0  0  0  0
  149.9953  141.7370  158.2858 C   0  0  0  0  0  0  0  0  0  0  0  0
  148.6933  142.0672  157.5404 C   0  0  1  0  0  0  0  0  0  0  0  0
  148.8582  141.8098  156.1474 O   0  0  0  0  0  0  0  0  0  0  0  0
  148.3240  140.5696  155.7838 C   0  0  1  0  0  0  0  0  0  0  0  0
  149.4128  139.6839  155.2074 N   0  0  0  0  0  0  0  0  0  0  0  0
  150.6689  139.5624  155.7906 C   0  0  0  0  0  0  0  0  0  0  0  0
  151.6414  138.7670  155.2857 C   0  0  0  0  0  0  0  0  0  0  0  0
  152.8317  138.7001  155.9062 F   0  0  0  0  0  0  0  0  0  0  0  0
  151.4126  137.9877  154.0724 C   0  0  0  0  0  0  0  0  0  0  0  0
  152.2290  137.2364  153.5431 O   0  0  0  0  0  0  0  0  0  0  0  0
  150.1434  138.1537  153.5109 N   0  0  0  0  0  0  0  0  0  0  0  0
  149.1332  138.9712  154.0203 C   0  0  0  0  0  0  0  0  0  0  0  0
  148.0481  139.0438  153.4450 O   0  0  0  0  0  0  0  0  0  0  0  0
  147.6464  139.9651  157.0330 C   0  0  1  0  0  0  0  0  0  0  0  0
  148.4351  138.9366  157.6273 O   0  0  0  0  0  0  0  0  0  0  0  0
  147.9009  138.1103  158.5399 C   0  0  0  0  0  0  0  0  0  0  0  0
  148.8888  137.0492  159.0050 C   0  0  0  0  0  0  0  0  0  0  0  0
  146.7549  138.1646  158.9852 O   0  0  0  0  0  0  0  0  0  0  0  0
  147.5431  141.1537  157.9738 C   0  0  2  0  0  0  0  0  0  0  0  0
  146.2772  141.7799  157.8020 O   0  0  0  0  0  0  0  0  0  0  0  0
  145.6948  142.4297  158.8255 C   0  0  0  0  0  0  0  0  0  0  0  0
  144.3867  143.0960  158.4206 C   0  0  0  0  0  0  0  0  0  0  0  0
  146.1306  142.5126  159.9740 O   0  0  0  0  0  0  0  0  0  0  0  0
  149.9413  137.6386  152.6663 H   0  0  0  0  0  0  0  0  0  0  0  0
  153.2623  143.9612  157.8477 H   0  0  0  0  0  0  0  0  0  0  0  0
  152.9814  145.0076  159.2464 H   0  0  0  0  0  0  0  0  0  0  0  0
  152.0338  145.2337  157.7691 H   0  0  0  0  0  0  0  0  0  0  0  0
  150.3348  140.7324  158.0317 H   0  0  0  0  0  0  0  0  0  0  0  0
  149.8244  141.7561  159.3627 H   0  0  0  0  0  0  0  0  0  0  0  0
  148.4461  143.1172  157.7024 H   0  0  0  0  0  0  0  0  0  0  0  0
  147.6246  140.7394  154.9629 H   0  0  0  0  0  0  0  0  0  0  0  0
  150.9098  140.1180  156.6827 H   0  0  0  0  0  0  0  0  0  0  0  0
  146.6673  139.5762  156.7481 H   0  0  0  0  0  0  0  0  0  0  0  0
  149.3335  136.5431  158.1479 H   0  0  0  0  0  0  0  0  0  0  0  0
  148.3889  136.3047  159.6248 H   0  0  0  0  0  0  0  0  0  0  0  0
  149.6868  137.5071  159.5896 H   0  0  0  0  0  0  0  0  0  0  0  0
  147.6490  140.8360  159.0125 H   0  0  0  0  0  0  0  0  0  0  0  0
  143.7289  142.3767  157.9322 H   0  0  0  0  0  0  0  0  0  0  0  0
  144.5794  143.9160  157.7287 H   0  0  0  0  0  0  0  0  0  0  0  0
  143.8727  143.4953  159.2953 H   0  0  0  0  0  0  0  0  0  0  0  0
  1  2  1  0  0  0  0
  1 29  1  0  0  0  0
  1 30  1  0  0  0  0
  1 31  1  0  0  0  0
  2  3  2  0  0  0  0
  2  4  1  0  0  0  0
  4  5  1  0  0  0  0
  5  6  1  0  0  0  0
  5 32  1  0  0  0  0
  5 33  1  0  0  0  0
  6 23  1  0  0  0  0
  6  7  1  0  0  0  0
  6 34  1  0  0  0  0
  7  8  1  0  0  0  0
  8  9  1  0  0  0  0
  8 18  1  0  0  0  0
  8 35  1  0  0  0  0
  9 16  1  0  0  0  0
  9 10  1  0  0  0  0
 10 11  2  0  0  0  0
 10 36  1  0  0  0  0
 11 12  1  0  0  0  0
 11 13  1  0  0  0  0
 13 14  2  0  0  0  0
 13 15  1  0  0  0  0
 15 28  1  0  0  0  0
 15 16  1  0  0  0  0
 16 17  2  0  0  0  0
 18 19  1  0  0  0  0
 18 23  1  0  0  0  0
 18 37  1  0  0  0  0
 19 20  1  0  0  0  0
 20 21  1  0  0  0  0
 20 22  2  0  0  0  0
 21 38  1  0  0  0  0
 21 39  1  0  0  0  0
 21 40  1  0  0  0  0
 23 24  1  0  0  0  0
 23 41  1  0  0  0  0
 24 25  1  0  0  0  0
 25 26  1  0  0  0  0
 25 27  2  0  0  0  0
 26 42  1  0  0  0  0
 26 43  1  0  0  0  0
 26 44  1  0  0  0  0
M  END
> <s_m_source_file>
AV-unprocessed.smi

> <i_m_source_file_index>
102

> <i_lp_mmshare_version>
43012

> <i_f3d_flags>
0

> <s_epik_input>
W0NIM11DKD1PKU9bQ0gyXVtDQEBIXTFPW0NASF0oW0NAQEhdKE9DKD1PKVtDSDNdKVtDQEhdMU9DKD1PKVtDSDNdKW4yW2NIXWMoRiljKD1PKVtuSF1jMj1P

> <s_epik_cmdline>
J2VwaWtfcHl0aG9uJywgJy1waCcsICc3LjAnLCAnLXRuJywgJzgnLCAnLW1hJywgJzIwMCcsICctbWV0YWxfYmluZGluZycsICctaW1hZScsICc8aW5maWxlLm1hZT4nLCAnLW9tYWUnLCAnPG91dGZpbGUubWFlPic=

> <r_lp_tautomer_probability>
0.999537

> <r_epik_Ionization_Penalty>
0.058267

> <r_epik_Ionization_Penalty_Charging>
0.058267

> <r_epik_Ionization_Penalty_Neutral>
6.57791e-16

> <r_epik_State_Penalty>
0.0503774

> <r_epik_Charging_Adjusted_Penalty>
0.108644

> <i_epik_Tot_Q>
0

> <i_epik_Tot_abs_Q>
0

> <r_epik_Metal_State_Penalty>
2.6644

> <b_epik_Metal_Only>
0

> <s_epik_Chemistry_Notes>
This compound has an ester and may undergo hydrolysis at high or low pH. This compound contains an acetal/aminal-like group ( X-CH(R)-Y where X, Y are N, S, or O) that may be acid/base labile, releasing an aldehyde.

> <s_lp_Force_Field>
OPLS_2005

> <r_lp_Energy>
14.5716

> <b_lp_Chiralities_Consistent>
1

> <s_lp_Variant>
AV-unprocessed.smi:102-10

> <Gold.Version>
5.8.1

> <Gold.Id.Protein>
6NUR|6NUR_protein|mol2

> <Gold.PLP.Fitness>
35.5357

> <Gold.PLP.PLP>
-27.4778

> <Gold.PLP.part.hbond>
-5.5873

> <Gold.PLP.part.metal>
0.0000

> <Gold.PLP.part.buried>
-1.5516

> <Gold.PLP.part.nonpolar>
-25.4624

> <Gold.PLP.part.repulsive>
5.5221

> <Gold.PLP.ligand.clash>
0.0000

> <Gold.PLP.ligand.torsion>
1.3621

> <Gold.PLP.Chemscore.Hbond>
3.4780

> <Gold.PLP.Chemscore.CHOScore>
0.0000

> <Gold.PLP.Chemscore.Metal>
0.0000

> <Gold.Chemscore.Hbonds>
donor molecule, donor type, donor heavy atom, donor atom, acceptor molecule, acceptor atom, score
      L1  H    15    28       P1  7948  0.83
      P1  H  6934  6946       L1    27  1.00
      P1  H  6934  6947       L1    22  0.36
      P1  H 10752 10763       L1    14  1.00

> <Gold.PLP.Chemscore.Internal.Correction>
0.3481

> <Gold.Rescore>
     Score         DG    S(hbond)    S(metal)    S(lipo)     H(rot)  DE(clash)    DE(int)     intcor
      4.37      -8.91       2.72        0.00      40.22       4.05       2.66       1.88       ----

> <Gold.Chemscore.Fitness>
4.3668

> <Gold.Chemscore.DG>
-8.9091

> <Gold.Chemscore.ZeroCoef>
-5.4800

> <Gold.Chemscore.Hbond>
2.7234

> <Gold.Chemscore.Metal>
0.0000

> <Gold.Chemscore.Lipo>
40.2230

> <Gold.Chemscore.Internal_Hbond>
0.0000

> <Gold.Chemscore.DEClash>
2.6597

> <Gold.Chemscore.DEInternal>
1.8826

> <Gold.Chemscore.Rot>
4.0520

> <Gold.Chemscore.Internal.Correction>
   9.000000E+99

> <Gold.Chemscore.Hbonds>
donor molecule, donor type, donor heavy atom, donor atom, acceptor molecule, acceptor atom, score
      L1  H    15    28       P1  7948  0.14
      P1  H  6934  6946       L1    27  0.91
      P1  H  6934  6947       L1    22  0.08
      P1  H 10752 10763       L1    14  0.96

> <Gold.Chemscore.Hbond.Weighted>
-9.0962

> <Gold.Chemscore.Metal.Weighted>
-0.0000

> <Gold.Chemscore.Lipo.Weighted>
-4.7061

> <Gold.Chemscore.Internal_Hbond.Weighted>
0.0000

> <Gold.Chemscore.DEClash.Weighted>
2.6597

> <Gold.Chemscore.DEInternal.Weighted>
1.8826

> <Gold.Chemscore.Rot.Weighted>
10.3732

> <Gold.Chemscore.Internal.Correction.Weighted>
   9.000000E+99

> <Gold.Protein.RotatedTorsions>
[ 6907 6896 6895 6894 ] final  161.02 input  -60.11 | X-H torsion
[ 7974 7965 7964 7962 ] final  -12.38 input  175.53 | X-H torsion
[ 8008 7997 7996 7995 ] final   99.12 input   59.86 | X-H torsion
[ 10167 10162 10161 10158 ] final    9.39 input  -65.29 | X-H torsion
[ 10718 10713 10712 10709 ] final  173.16 input   66.30 | X-H torsion
[ 10763 10752 10751 10750 ] final   17.66 input  -60.55 | X-H torsion
[ 11005 11000 10999 10996 ] final -136.83 input  -57.11 | X-H torsion

> <Gold.Protein.ActiveResidues>
 VAL166  LYS551  ARG553  GLY616  TRP617  ASP618  TYR619  PRO620  LYS621  CYS622 
 ASP623  PHE694  ASN695  SER759  ASP760  ASP761  ALA762  ILE779  LEU786  VAL792 
 PHE793  MET794  SER795  GLU796  ALA797  LYS798  CYS799  TRP800  GLU811  SER814 

> <Gold.Protein.RotatedAtoms>
  151.9619  133.3698  159.4038 H   0  0  0  0  0  0  0  0  0  0  0  0  # atno 6907 bound_to 6896
  150.6963  134.4231  159.5223 H   0  0  0  0  0  0  0  0  0  0  0  0  # atno 6908 bound_to 6896
  152.1922  134.8662  160.0567 H   0  0  0  0  0  0  0  0  0  0  0  0  # atno 6909 bound_to 6896
  146.2154  140.3049  142.8378 H   0  0  0  0  0  0  0  0  0  0  0  0  # atno 7974 bound_to 7965
  156.1073  140.3233  155.8023 H   0  0  0  0  0  0  0  0  0  0  0  0  # atno 8008 bound_to 7997
  155.4734  140.0548  157.2994 H   0  0  0  0  0  0  0  0  0  0  0  0  # atno 8009 bound_to 7997
  154.4736  140.2022  155.9948 H   0  0  0  0  0  0  0  0  0  0  0  0  # atno 8010 bound_to 7997
  140.6258  143.8105  150.7231 H   0  0  0  0  0  0  0  0  0  0  0  0  # atno 10167 bound_to 10162
  156.9683  131.0082  151.2911 H   0  0  0  0  0  0  0  0  0  0  0  0  # atno 10718 bound_to 10713
  153.1319  135.6742  153.9165 H   0  0  0  0  0  0  0  0  0  0  0  0  # atno 10763 bound_to 10752
  153.8649  135.3077  155.3441 H   0  0  0  0  0  0  0  0  0  0  0  0  # atno 10764 bound_to 10752
  154.7714  135.4937  153.9739 H   0  0  0  0  0  0  0  0  0  0  0  0  # atno 10765 bound_to 10752
  140.8768  134.1982  157.4616 H   0  0  0  0  0  0  0  0  0  0  0  0  # atno 11005 bound_to 11000
  144.9030  140.7665  143.5855 LP  0  0  0  0  0  0  0  0  0  0  0  0  # atno 17320 bound_to 7965
  145.2976  139.1861  143.4707 LP  0  0  0  0  0  0  0  0  0  0  0  0  # atno 17321 bound_to 7965
  140.1705  143.4199  152.2004 LP  0  0  0  0  0  0  0  0  0  0  0  0  # atno 17342 bound_to 10162
  139.5478  144.7313  151.4527 LP  0  0  0  0  0  0  0  0  0  0  0  0  # atno 17343 bound_to 10162
  157.5610  130.8246  149.8266 LP  0  0  0  0  0  0  0  0  0  0  0  0  # atno 17370 bound_to 10713
  156.0293  130.3769  150.1733 LP  0  0  0  0  0  0  0  0  0  0  0  0  # atno 17371 bound_to 10713
  139.8716  134.9799  156.5056 LP  0  0  0  0  0  0  0  0  0  0  0  0  # atno 17394 bound_to 11000
  140.8508  133.8133  155.9167 LP  0  0  0  0  0  0  0  0  0  0  0  0  # atno 17395 bound_to 11000

$$$$
