AV-unprocessed.smi:1671|AV-procd|sdf|6698|dock6
  -GOLD-   22720 7433D 1   1.00000     0.00000
 Structure written by MMmdl.
 44 45  0  0  0  0  0  0  0  0  1 V2000
  147.7229  133.9921  154.5146 C   0  0  0  0  0  0  0  0  0  0  0  0
  148.6577  135.1452  155.5563 S   0  0  0  0  0  0  0  0  0  0  0  0
  150.3645  134.7116  155.1057 C   0  0  1  0  0  0  0  0  0  0  0  0
  150.3810  133.9096  153.7949 C   0  0  0  0  0  0  0  0  0  0  0  0
  151.2625  135.9507  155.0065 C   0  0  0  0  0  0  0  0  0  0  0  0
  152.1929  136.1104  155.7972 O   0  0  0  0  0  0  0  0  0  0  0  0
  150.9753  136.8213  154.0260 N   0  0  0  0  0  0  0  0  0  0  0  0
  151.7048  138.0584  153.7667 C   0  0  0  0  0  0  0  0  0  0  0  0
  151.7551  139.0198  154.9464 C   0  0  0  0  0  0  0  0  0  0  0  0
  150.8124  140.0561  155.1130 C   0  0  0  0  0  0  0  0  0  0  0  0
  150.9233  140.9089  156.2275 C   0  0  0  0  0  0  0  0  0  0  0  0
  151.9777  140.7077  157.1499 C   0  0  0  0  0  0  0  0  0  0  0  0
  152.1040  141.5473  158.2782 N   0  0  0  0  0  0  0  0  0  0  0  0
  153.2490  141.2755  159.1433 C   0  0  0  0  0  0  0  0  0  0  0  0
  153.1055  142.0336  160.4735 C   0  0  0  0  0  0  0  0  0  0  0  0
  152.9194  143.4221  160.2194 O   0  0  0  0  0  0  0  0  0  0  0  0
  151.7349  143.6766  159.4697 C   0  0  1  0  0  0  0  0  0  0  0  0
  151.5724  145.1935  159.3260 C   0  0  0  0  0  0  0  0  0  0  0  0
  151.8409  142.9745  158.1026 C   0  0  0  0  0  0  0  0  0  0  0  0
  152.8909  139.7203  156.9770 N   0  0  0  0  0  0  0  0  0  0  0  0
  152.7785  138.9040  155.9082 C   0  0  0  0  0  0  0  0  0  0  0  0
  146.6534  134.1602  154.6389 H   0  0  0  0  0  0  0  0  0  0  0  0
  147.9405  132.9599  154.7881 H   0  0  0  0  0  0  0  0  0  0  0  0
  147.9749  134.1362  153.4639 H   0  0  0  0  0  0  0  0  0  0  0  0
  150.7508  134.0611  155.8920 H   0  0  0  0  0  0  0  0  0  0  0  0
  151.3988  133.6509  153.5003 H   0  0  0  0  0  0  0  0  0  0  0  0
  149.9274  134.4689  152.9755 H   0  0  0  0  0  0  0  0  0  0  0  0
  149.8259  132.9776  153.9035 H   0  0  0  0  0  0  0  0  0  0  0  0
  150.1972  136.6127  153.4171 H   0  0  0  0  0  0  0  0  0  0  0  0
  152.7191  137.8225  153.4400 H   0  0  0  0  0  0  0  0  0  0  0  0
  151.2240  138.5678  152.9317 H   0  0  0  0  0  0  0  0  0  0  0  0
  150.0143  140.2047  154.4006 H   0  0  0  0  0  0  0  0  0  0  0  0
  150.2109  141.7107  156.3529 H   0  0  0  0  0  0  0  0  0  0  0  0
  153.3569  140.2121  159.3523 H   0  0  0  0  0  0  0  0  0  0  0  0
  154.1585  141.5918  158.6308 H   0  0  0  0  0  0  0  0  0  0  0  0
  152.2691  141.6431  161.0555 H   0  0  0  0  0  0  0  0  0  0  0  0
  154.0026  141.9015  161.0784 H   0  0  0  0  0  0  0  0  0  0  0  0
  150.8746  143.2863  160.0167 H   0  0  0  0  0  0  0  0  0  0  0  0
  150.6716  145.4401  158.7634 H   0  0  0  0  0  0  0  0  0  0  0  0
  152.4231  145.6341  158.8056 H   0  0  0  0  0  0  0  0  0  0  0  0
  151.4954  145.6714  160.3029 H   0  0  0  0  0  0  0  0  0  0  0  0
  152.6444  143.4181  157.5125 H   0  0  0  0  0  0  0  0  0  0  0  0
  150.9118  143.1194  157.5499 H   0  0  0  0  0  0  0  0  0  0  0  0
  153.5307  138.1338  155.8200 H   0  0  0  0  0  0  0  0  0  0  0  0
  1  2  1  0  0  0  0
  1 22  1  0  0  0  0
  1 23  1  0  0  0  0
  1 24  1  0  0  0  0
  2  3  1  0  0  0  0
  3  4  1  0  0  0  0
  3  5  1  0  0  0  0
  3 25  1  0  0  0  0
  4 26  1  0  0  0  0
  4 27  1  0  0  0  0
  4 28  1  0  0  0  0
  5  6  2  0  0  0  0
  5  7  1  0  0  0  0
  7  8  1  0  0  0  0
  7 29  1  0  0  0  0
  8  9  1  0  0  0  0
  8 30  1  0  0  0  0
  8 31  1  0  0  0  0
  9 21  1  0  0  0  0
  9 10  2  0  0  0  0
 10 11  1  0  0  0  0
 10 32  1  0  0  0  0
 11 12  2  0  0  0  0
 11 33  1  0  0  0  0
 12 13  1  0  0  0  0
 12 20  1  0  0  0  0
 13 19  1  0  0  0  0
 13 14  1  0  0  0  0
 14 15  1  0  0  0  0
 14 34  1  0  0  0  0
 14 35  1  0  0  0  0
 15 16  1  0  0  0  0
 15 36  1  0  0  0  0
 15 37  1  0  0  0  0
 16 17  1  0  0  0  0
 17 18  1  0  0  0  0
 17 19  1  0  0  0  0
 17 38  1  0  0  0  0
 18 39  1  0  0  0  0
 18 40  1  0  0  0  0
 18 41  1  0  0  0  0
 19 42  1  0  0  0  0
 19 43  1  0  0  0  0
 20 21  2  0  0  0  0
 21 44  1  0  0  0  0
M  END
> <s_m_source_file>
AV-unprocessed.smi

> <i_m_source_file_index>
1671

> <i_lp_mmshare_version>
43012

> <i_f3d_flags>
0

> <s_epik_input>
W0NIM11TW0NASF0oW0NIM10pQyg9TylbTkhdW0NIMl1jMVtjSF1bY0hdYyhuW2NIXTEpTjJbQ0gyXVtDSDJdT1tDQEBIXShbQ0gzXSlbQ0gyXTI=

> <s_epik_cmdline>
J2VwaWtfcHl0aG9uJywgJy1waCcsICc3LjAnLCAnLXRuJywgJzgnLCAnLW1hJywgJzIwMCcsICctbWV0YWxfYmluZGluZycsICctaW1hZScsICc8aW5maWxlLm1hZT4nLCAnLW9tYWUnLCAnPG91dGZpbGUubWFlPic=

> <r_lp_tautomer_probability>
1

> <r_epik_Ionization_Penalty>
0.00480033

> <r_epik_Ionization_Penalty_Charging>
0

> <r_epik_Ionization_Penalty_Neutral>
0.00480033

> <r_epik_State_Penalty>
0.00347981

> <r_epik_Charging_Adjusted_Penalty>
0.00347981

> <i_epik_Tot_Q>
0

> <i_epik_Tot_abs_Q>
0

> <r_epik_Metal_State_Penalty>
-0

> <b_epik_Metal_Only>
0

> <s_lp_Force_Field>
OPLS_2005

> <r_lp_Energy>
15.4739

> <b_lp_Chiralities_Consistent>
1

> <s_lp_Variant>
AV-unprocessed.smi:1671-2

> <Gold.Version>
5.8.1

> <Gold.Id.Protein>
6NUR|6NUR_protein|mol2

> <Gold.PLP.Fitness>
46.1141

> <Gold.PLP.PLP>
-42.3070

> <Gold.PLP.part.hbond>
-4.0000

> <Gold.PLP.part.metal>
0.0000

> <Gold.PLP.part.buried>
-4.6723

> <Gold.PLP.part.nonpolar>
-34.7167

> <Gold.PLP.part.repulsive>
0.0831

> <Gold.PLP.ligand.clash>
0.0000

> <Gold.PLP.ligand.torsion>
1.2674

> <Gold.PLP.Chemscore.Hbond>
1.9913

> <Gold.PLP.Chemscore.CHOScore>
0.0000

> <Gold.PLP.Chemscore.Metal>
0.0000

> <Gold.Chemscore.Hbonds>
donor molecule, donor type, donor heavy atom, donor atom, acceptor molecule, acceptor atom, score
      L1  H     7    29       P1  7948  0.55
      P1  H  7997  8009       L1    20  0.91

> <Gold.PLP.Chemscore.Internal.Correction>
0.3682

> <Gold.Rescore>
     Score         DG    S(hbond)    S(metal)    S(lipo)     H(rot)  DE(clash)    DE(int)     intcor
     13.99     -17.32       1.14        0.00     104.36       1.63       0.24       3.09       ----

> <Gold.Chemscore.Fitness>
13.9879

> <Gold.Chemscore.DG>
-17.3172

> <Gold.Chemscore.ZeroCoef>
-5.4800

> <Gold.Chemscore.Hbond>
1.1355

> <Gold.Chemscore.Metal>
0.0000

> <Gold.Chemscore.Lipo>
104.3619

> <Gold.Chemscore.Internal_Hbond>
0.0000

> <Gold.Chemscore.DEClash>
0.2363

> <Gold.Chemscore.DEInternal>
3.0930

> <Gold.Chemscore.Rot>
1.6272

> <Gold.Chemscore.Internal.Correction>
   9.000000E+99

> <Gold.Chemscore.Hbonds>
donor molecule, donor type, donor heavy atom, donor atom, acceptor molecule, acceptor atom, score
      L1  H     7    29       P1  7948  0.03
      P1  H  7997  8009       L1    20  0.23
      P1  H 10752 10763       L1     6  0.02

> <Gold.Chemscore.Hbond.Weighted>
-3.7925

> <Gold.Chemscore.Metal.Weighted>
-0.0000

> <Gold.Chemscore.Lipo.Weighted>
-12.2103

> <Gold.Chemscore.Internal_Hbond.Weighted>
0.0000

> <Gold.Chemscore.DEClash.Weighted>
0.2363

> <Gold.Chemscore.DEInternal.Weighted>
3.0930

> <Gold.Chemscore.Rot.Weighted>
4.1657

> <Gold.Chemscore.Internal.Correction.Weighted>
   9.000000E+99

> <Gold.Protein.RotatedTorsions>
[ 6907 6896 6895 6894 ] final   67.40 input  -60.11 | X-H torsion
[ 7974 7965 7964 7962 ] final -131.16 input  175.53 | X-H torsion
[ 8008 7997 7996 7995 ] final  159.66 input   59.86 | X-H torsion
[ 10167 10162 10161 10158 ] final  -63.96 input  -65.29 | X-H torsion
[ 10718 10713 10712 10709 ] final  161.88 input   66.30 | X-H torsion
[ 10763 10752 10751 10750 ] final  150.98 input  -60.55 | X-H torsion
[ 11005 11000 10999 10996 ] final  172.77 input  -57.11 | X-H torsion

> <Gold.Protein.ActiveResidues>
 VAL166  LYS551  ARG553  GLY616  TRP617  ASP618  TYR619  PRO620  LYS621  CYS622 
 ASP623  PHE694  ASN695  SER759  ASP760  ASP761  ALA762  ILE779  LEU786  VAL792 
 PHE793  MET794  SER795  GLU796  ALA797  LYS798  CYS799  TRP800  GLU811  SER814 

> <Gold.Protein.RotatedAtoms>
  152.4549  134.5314  159.9811 H   0  0  0  0  0  0  0  0  0  0  0  0  # atno 6907 bound_to 6896
  151.5377  133.3432  159.2937 H   0  0  0  0  0  0  0  0  0  0  0  0  # atno 6908 bound_to 6896
  150.8490  134.7839  159.7056 H   0  0  0  0  0  0  0  0  0  0  0  0  # atno 6909 bound_to 6896
  144.9405  140.7233  143.4849 H   0  0  0  0  0  0  0  0  0  0  0  0  # atno 7974 bound_to 7965
  156.2224  140.1825  156.7444 H   0  0  0  0  0  0  0  0  0  0  0  0  # atno 8008 bound_to 7997
  154.5887  140.0654  156.9236 H   0  0  0  0  0  0  0  0  0  0  0  0  # atno 8009 bound_to 7997
  155.2374  140.3319  155.4298 H   0  0  0  0  0  0  0  0  0  0  0  0  # atno 8010 bound_to 7997
  140.5834  143.2330  151.6294 H   0  0  0  0  0  0  0  0  0  0  0  0  # atno 10167 bound_to 10162
  157.1303  131.0515  151.2374 H   0  0  0  0  0  0  0  0  0  0  0  0  # atno 10718 bound_to 10713
  154.0963  135.2849  155.3261 H   0  0  0  0  0  0  0  0  0  0  0  0  # atno 10763 bound_to 10752
  154.6586  135.5343  153.7992 H   0  0  0  0  0  0  0  0  0  0  0  0  # atno 10764 bound_to 10752
  153.0395  135.6528  154.1129 H   0  0  0  0  0  0  0  0  0  0  0  0  # atno 10765 bound_to 10752
  140.3333  134.7339  157.4150 H   0  0  0  0  0  0  0  0  0  0  0  0  # atno 11005 bound_to 11000
  145.2998  139.1854  143.4695 LP  0  0  0  0  0  0  0  0  0  0  0  0  # atno 17320 bound_to 7965
  146.3284  140.2988  142.8619 LP  0  0  0  0  0  0  0  0  0  0  0  0  # atno 17321 bound_to 7965
  139.5183  144.3288  152.0845 LP  0  0  0  0  0  0  0  0  0  0  0  0  # atno 17342 bound_to 10162
  140.2441  144.4238  150.6248 LP  0  0  0  0  0  0  0  0  0  0  0  0  # atno 17343 bound_to 10162
  157.4398  130.7538  149.7060 LP  0  0  0  0  0  0  0  0  0  0  0  0  # atno 17370 bound_to 10713
  155.9809  130.4024  150.3500 LP  0  0  0  0  0  0  0  0  0  0  0  0  # atno 17371 bound_to 10713
  140.0842  134.5689  155.8509 LP  0  0  0  0  0  0  0  0  0  0  0  0  # atno 17394 bound_to 11000
  141.2058  133.6650  156.6201 LP  0  0  0  0  0  0  0  0  0  0  0  0  # atno 17395 bound_to 11000

$$$$
