AV-unprocessed.smi:3018|AV-procd|sdf|11479|dock1
  -GOLD-   2272016413D 1   1.00000     0.00000
 Structure written by MMmdl.
 45 46  0  0  0  0  0  0  0  0  1 V2000
  149.9703  141.4077  156.0202 C   0  0  0  0  0  0  0  0  0  0  0  0
  151.2080  141.6511  156.8923 C   0  0  0  0  0  0  0  0  0  0  0  0
  151.4145  140.5540  157.9528 C   0  0  2  0  0  0  0  0  0  0  0  0
  152.4599  140.9816  158.8246 O   0  0  0  0  0  0  0  0  0  0  0  0
  152.0729  141.7443  159.9654 C   0  0  0  0  0  0  0  0  0  0  0  0
  151.5833  143.1438  159.5402 C   0  0  0  0  0  0  0  0  0  0  0  0
  151.2948  144.0301  160.7633 C   0  0  0  0  0  0  0  0  0  0  0  0
  152.5206  144.1295  161.6857 C   0  0  0  0  0  0  0  0  0  0  0  0
  153.0151  142.7363  162.1053 C   0  0  0  0  0  0  0  0  0  0  0  0
  153.3068  141.8599  160.8768 C   0  0  0  0  0  0  0  0  0  0  0  0
  151.8007  139.2214  157.2937 C   0  0  0  0  0  0  0  0  0  0  0  0
  152.8878  139.1028  156.7279 O   0  0  0  0  0  0  0  0  0  0  0  0
  150.9011  138.2288  157.3813 N   0  0  0  0  0  0  0  0  0  0  0  0
  151.0502  136.8945  156.8060 C   0  0  0  0  0  0  0  0  0  0  0  0
  149.7295  136.0965  156.8351 C   0  0  0  0  0  0  0  0  0  0  0  0
  149.1407  135.9017  158.2230 C   0  0  0  0  0  0  0  0  0  0  0  0
  149.0598  134.8166  158.9095 N   0  0  0  0  0  0  0  0  0  0  0  0
  148.4813  135.2701  160.0495 N   0  0  0  0  0  0  0  0  0  0  0  0
  148.2242  136.5833  160.0544 C   0  0  0  0  0  0  0  0  0  0  0  0
  147.7142  137.2476  160.9535 O   0  0  0  0  0  0  0  0  0  0  0  0
  148.6433  137.0060  158.8684 N   0  0  0  0  0  0  0  0  0  0  0  0
  148.2914  134.6198  160.7986 H   0  0  0  0  0  0  0  0  0  0  0  0
  148.6242  137.9496  158.5104 H   0  0  0  0  0  0  0  0  0  0  0  0
  149.8572  142.1991  155.2791 H   0  0  0  0  0  0  0  0  0  0  0  0
  149.0611  141.3841  156.6216 H   0  0  0  0  0  0  0  0  0  0  0  0
  150.0443  140.4600  155.4864 H   0  0  0  0  0  0  0  0  0  0  0  0
  152.0843  141.7066  156.2443 H   0  0  0  0  0  0  0  0  0  0  0  0
  151.1222  142.6258  157.3748 H   0  0  0  0  0  0  0  0  0  0  0  0
  150.4835  140.4294  158.5076 H   0  0  0  0  0  0  0  0  0  0  0  0
  151.2861  141.2395  160.5271 H   0  0  0  0  0  0  0  0  0  0  0  0
  152.3391  143.6209  158.9149 H   0  0  0  0  0  0  0  0  0  0  0  0
  150.6829  143.0686  158.9313 H   0  0  0  0  0  0  0  0  0  0  0  0
  150.9942  145.0263  160.4377 H   0  0  0  0  0  0  0  0  0  0  0  0
  150.4517  143.6191  161.3202 H   0  0  0  0  0  0  0  0  0  0  0  0
  153.3224  144.6612  161.1719 H   0  0  0  0  0  0  0  0  0  0  0  0
  152.2755  144.7194  162.5693 H   0  0  0  0  0  0  0  0  0  0  0  0
  153.9122  142.8285  162.7180 H   0  0  0  0  0  0  0  0  0  0  0  0
  152.2623  142.2528  162.7291 H   0  0  0  0  0  0  0  0  0  0  0  0
  153.6251  140.8675  161.1968 H   0  0  0  0  0  0  0  0  0  0  0  0
  154.1394  142.2858  160.3155 H   0  0  0  0  0  0  0  0  0  0  0  0
  150.0398  138.4177  157.8736 H   0  0  0  0  0  0  0  0  0  0  0  0
  151.4633  136.9397  155.7967 H   0  0  0  0  0  0  0  0  0  0  0  0
  151.7929  136.3690  157.4066 H   0  0  0  0  0  0  0  0  0  0  0  0
  148.9874  136.6091  156.2223 H   0  0  0  0  0  0  0  0  0  0  0  0
  149.8791  135.1204  156.3715 H   0  0  0  0  0  0  0  0  0  0  0  0
  1  2  1  0  0  0  0
  1 24  1  0  0  0  0
  1 25  1  0  0  0  0
  1 26  1  0  0  0  0
  2  3  1  0  0  0  0
  2 27  1  0  0  0  0
  2 28  1  0  0  0  0
  3  4  1  0  0  0  0
  3 11  1  0  0  0  0
  3 29  1  0  0  0  0
  4  5  1  0  0  0  0
  5 10  1  0  0  0  0
  5  6  1  0  0  0  0
  5 30  1  0  0  0  0
  6  7  1  0  0  0  0
  6 31  1  0  0  0  0
  6 32  1  0  0  0  0
  7  8  1  0  0  0  0
  7 33  1  0  0  0  0
  7 34  1  0  0  0  0
  8  9  1  0  0  0  0
  8 35  1  0  0  0  0
  8 36  1  0  0  0  0
  9 10  1  0  0  0  0
  9 37  1  0  0  0  0
  9 38  1  0  0  0  0
 10 39  1  0  0  0  0
 10 40  1  0  0  0  0
 11 12  2  0  0  0  0
 11 13  1  0  0  0  0
 13 14  1  0  0  0  0
 13 41  1  0  0  0  0
 14 15  1  0  0  0  0
 14 42  1  0  0  0  0
 14 43  1  0  0  0  0
 15 16  1  0  0  0  0
 15 44  1  0  0  0  0
 15 45  1  0  0  0  0
 16 21  1  0  0  0  0
 16 17  2  0  0  0  0
 17 18  1  0  0  0  0
 18 22  1  0  0  0  0
 18 19  1  0  0  0  0
 19 20  2  0  0  0  0
 19 21  1  0  0  0  0
 21 23  1  0  0  0  0
M  END
> <s_m_source_file>
AV-unprocessed.smi

> <i_m_source_file_index>
3018

> <i_lp_mmshare_version>
43012

> <i_f3d_flags>
0

> <s_epik_input>
W0NIMl0xW0NIMl1bQ0gyXVtDSDJdW0NIMl1bQ0hdMU9bQ0BASF0oW0NIMl1bQ0gzXSlDKD1PKVtOSF1bQ0gyXVtDSDJdYzJuW25IXWMoPU8pW25IXTI=

> <s_epik_cmdline>
J2VwaWtfcHl0aG9uJywgJy1waCcsICc3LjAnLCAnLXRuJywgJzgnLCAnLW1hJywgJzIwMCcsICctbWV0YWxfYmluZGluZycsICctaW1hZScsICc8aW5maWxlLm1hZT4nLCAnLW9tYWUnLCAnPG91dGZpbGUubWFlPic=

> <r_lp_tautomer_probability>
1

> <r_epik_Ionization_Penalty>
0.000773817

> <r_epik_Ionization_Penalty_Charging>
0.000773741

> <r_epik_Ionization_Penalty_Neutral>
7.58514e-08

> <r_epik_State_Penalty>
-0

> <r_epik_Charging_Adjusted_Penalty>
0.000773741

> <i_epik_Tot_Q>
0

> <i_epik_Tot_abs_Q>
0

> <r_epik_Metal_State_Penalty>
0.495152

> <b_epik_Metal_Only>
0

> <s_lp_Force_Field>
OPLS_2005

> <r_lp_Energy>
32.5004

> <b_lp_Chiralities_Consistent>
1

> <s_lp_Variant>
AV-unprocessed.smi:3018-1

> <Gold.Version>
5.8.1

> <Gold.Id.Protein>
6NUR|6NUR_protein|mol2

> <Gold.PLP.Fitness>
44.4954

> <Gold.PLP.PLP>
-34.1235

> <Gold.PLP.part.hbond>
-4.0000

> <Gold.PLP.part.metal>
0.0000

> <Gold.PLP.part.buried>
-5.7346

> <Gold.PLP.part.nonpolar>
-25.0486

> <Gold.PLP.part.repulsive>
0.2702

> <Gold.PLP.ligand.clash>
0.0000

> <Gold.PLP.ligand.torsion>
0.7327

> <Gold.PLP.Chemscore.Hbond>
3.7600

> <Gold.PLP.Chemscore.CHOScore>
0.0000

> <Gold.PLP.Chemscore.Metal>
0.0000

> <Gold.Chemscore.Hbonds>
donor molecule, donor type, donor heavy atom, donor atom, acceptor molecule, acceptor atom, score
      P1  H  6896  6908       L1    17  1.00
      P1  H  6931  6943       L1    20  0.85
      P1  H  6934  6947       L1    20  0.88
      P1  H  7997  8009       L1    12  1.00

> <Gold.PLP.Chemscore.Internal.Correction>
0.5573

> <Gold.Rescore>
     Score         DG    S(hbond)    S(metal)    S(lipo)     H(rot)  DE(clash)    DE(int)     intcor
     16.81     -18.01       2.95        0.00      89.18       3.04       0.00       1.19       ----

> <Gold.Chemscore.Fitness>
16.8102

> <Gold.Chemscore.DG>
-18.0065

> <Gold.Chemscore.ZeroCoef>
-5.4800

> <Gold.Chemscore.Hbond>
2.9540

> <Gold.Chemscore.Metal>
0.0000

> <Gold.Chemscore.Lipo>
89.1803

> <Gold.Chemscore.Internal_Hbond>
0.0000

> <Gold.Chemscore.DEClash>
0.0038

> <Gold.Chemscore.DEInternal>
1.1924

> <Gold.Chemscore.Rot>
3.0367

> <Gold.Chemscore.Internal.Correction>
   9.000000E+99

> <Gold.Chemscore.Hbonds>
donor molecule, donor type, donor heavy atom, donor atom, acceptor molecule, acceptor atom, score
      P1  H  6896  6908       L1    17  0.21
      P1  H  6931  6943       L1    20  0.66
      P1  H  6934  6947       L1    20  0.86
      P1  H  7997  8009       L1    12  1.00

> <Gold.Chemscore.Hbond.Weighted>
-9.8663

> <Gold.Chemscore.Metal.Weighted>
-0.0000

> <Gold.Chemscore.Lipo.Weighted>
-10.4341

> <Gold.Chemscore.Internal_Hbond.Weighted>
0.0000

> <Gold.Chemscore.DEClash.Weighted>
0.0038

> <Gold.Chemscore.DEInternal.Weighted>
1.1924

> <Gold.Chemscore.Rot.Weighted>
7.7739

> <Gold.Chemscore.Internal.Correction.Weighted>
   9.000000E+99

> <Gold.Protein.RotatedTorsions>
[ 6907 6896 6895 6894 ] final  157.32 input  -60.11 | X-H torsion
[ 7974 7965 7964 7962 ] final  166.57 input  175.53 | X-H torsion
[ 8008 7997 7996 7995 ] final  178.97 input   59.86 | X-H torsion
[ 10167 10162 10161 10158 ] final -129.14 input  -65.29 | X-H torsion
[ 10718 10713 10712 10709 ] final -179.58 input   66.30 | X-H torsion
[ 10763 10752 10751 10750 ] final  -87.79 input  -60.55 | X-H torsion
[ 11005 11000 10999 10996 ] final  -30.21 input  -57.11 | X-H torsion

> <Gold.Protein.ActiveResidues>
 VAL166  LYS551  ARG553  GLY616  TRP617  ASP618  TYR619  PRO620  LYS621  CYS622 
 ASP623  PHE694  ASN695  SER759  ASP760  ASP761  ALA762  ILE779  LEU786  VAL792 
 PHE793  MET794  SER795  GLU796  ALA797  LYS798  CYS799  TRP800  GLU811  SER814 

> <Gold.Protein.RotatedAtoms>
  152.0167  133.3882  159.4241 H   0  0  0  0  0  0  0  0  0  0  0  0  # atno 6907 bound_to 6896
  150.6894  134.3670  159.4985 H   0  0  0  0  0  0  0  0  0  0  0  0  # atno 6908 bound_to 6896
  152.1439  134.9041  160.0603 H   0  0  0  0  0  0  0  0  0  0  0  0  # atno 6909 bound_to 6896
  144.7457  139.8635  143.6383 H   0  0  0  0  0  0  0  0  0  0  0  0  # atno 7974 bound_to 7965
  156.0486  140.1320  157.0075 H   0  0  0  0  0  0  0  0  0  0  0  0  # atno 8008 bound_to 7997
  154.4424  140.1015  156.6413 H   0  0  0  0  0  0  0  0  0  0  0  0  # atno 8009 bound_to 7997
  155.5558  140.3464  155.4481 H   0  0  0  0  0  0  0  0  0  0  0  0  # atno 8010 bound_to 7997
  139.9429  143.6142  152.2498 H   0  0  0  0  0  0  0  0  0  0  0  0  # atno 10167 bound_to 10162
  156.8613  130.9752  151.3083 H   0  0  0  0  0  0  0  0  0  0  0  0  # atno 10718 bound_to 10713
  154.6374  135.5400  153.7750 H   0  0  0  0  0  0  0  0  0  0  0  0  # atno 10763 bound_to 10752
  153.0316  135.6451  154.1210 H   0  0  0  0  0  0  0  0  0  0  0  0  # atno 10764 bound_to 10752
  154.1137  135.2925  155.3204 H   0  0  0  0  0  0  0  0  0  0  0  0  # atno 10765 bound_to 10752
  140.9363  133.7306  156.1010 H   0  0  0  0  0  0  0  0  0  0  0  0  # atno 11005 bound_to 11000
  146.1331  139.4371  143.0156 LP  0  0  0  0  0  0  0  0  0  0  0  0  # atno 17320 bound_to 7965
  145.7132  141.0099  143.1442 LP  0  0  0  0  0  0  0  0  0  0  0  0  # atno 17321 bound_to 7965
  139.6690  144.7661  151.1819 LP  0  0  0  0  0  0  0  0  0  0  0  0  # atno 17342 bound_to 10162
  140.7605  143.5894  150.8812 LP  0  0  0  0  0  0  0  0  0  0  0  0  # atno 17343 bound_to 10162
  157.6248  130.8683  149.9171 LP  0  0  0  0  0  0  0  0  0  0  0  0  # atno 17370 bound_to 10713
  156.0775  130.3677  150.0647 LP  0  0  0  0  0  0  0  0  0  0  0  0  # atno 17371 bound_to 10713
  140.7794  134.3742  157.5490 LP  0  0  0  0  0  0  0  0  0  0  0  0  # atno 17394 bound_to 11000
  139.8809  134.9072  156.2940 LP  0  0  0  0  0  0  0  0  0  0  0  0  # atno 17395 bound_to 11000

$$$$
