AV-unprocessed.smi:2762|AV-procd|sdf|10636|dock1
  -GOLD-   2272015 83D 1   1.00000     0.00000
 Structure written by MMmdl.
 39 40  0  0  0  0  0  0  0  0  1 V2000
  154.1236  141.6997  162.5112 O   0  0  0  0  0  0  0  0  0  0  0  0
  154.5947  140.6850  161.9965 C   0  0  0  0  0  0  0  0  0  0  0  0
  155.4223  139.8453  162.6357 N   0  0  0  0  0  0  0  0  0  0  0  0
  155.8448  139.9723  164.0272 C   0  0  0  0  0  0  0  0  0  0  0  0
  156.1130  141.4425  164.4057 C   0  0  0  0  0  0  0  0  0  0  0  0
  155.4217  141.9229  165.6021 N   0  0  0  0  0  0  0  0  0  0  0  0
  155.7290  143.3184  165.9086 C   0  0  0  0  0  0  0  0  0  0  0  0
  154.9967  143.7989  167.1732 C   0  0  0  0  0  0  0  0  0  0  0  0
  155.3307  142.9537  168.2696 O   0  0  0  0  0  0  0  0  0  0  0  0
  155.0092  141.5880  168.0267 C   0  0  0  0  0  0  0  0  0  0  0  0
  155.7423  141.1026  166.7643 C   0  0  0  0  0  0  0  0  0  0  0  0
  154.3561  140.2691  160.7403 N   0  0  0  0  0  0  0  0  0  0  0  0
  153.4870  140.8452  159.7757 C   0  0  0  0  0  0  0  0  0  0  0  0
  153.0975  142.1771  160.0419 C   0  0  0  0  0  0  0  0  0  0  0  0
  152.2410  142.8483  159.1416 C   0  0  0  0  0  0  0  0  0  0  0  0
  151.7912  144.2792  159.3919 C   0  0  0  0  0  0  0  0  0  0  0  0
  152.3122  145.0909  158.4714 F   0  0  0  0  0  0  0  0  0  0  0  0
  150.4623  144.3413  159.3168 F   0  0  0  0  0  0  0  0  0  0  0  0
  152.1725  144.7101  160.5950 F   0  0  0  0  0  0  0  0  0  0  0  0
  151.7945  142.1526  158.0006 C   0  0  0  0  0  0  0  0  0  0  0  0
  152.2297  140.8287  157.8111 C   0  0  0  0  0  0  0  0  0  0  0  0
  153.0518  140.1921  158.6700 N   0  0  0  0  0  0  0  0  0  0  0  0
  155.7627  139.0396  162.1321 H   0  0  0  0  0  0  0  0  0  0  0  0
  155.0308  139.5937  164.6455 H   0  0  0  0  0  0  0  0  0  0  0  0
  156.7002  139.3321  164.2451 H   0  0  0  0  0  0  0  0  0  0  0  0
  157.1888  141.5568  164.5454 H   0  0  0  0  0  0  0  0  0  0  0  0
  155.8563  142.0817  163.5596 H   0  0  0  0  0  0  0  0  0  0  0  0
  156.8044  143.4395  166.0460 H   0  0  0  0  0  0  0  0  0  0  0  0
  155.4471  143.9632  165.0776 H   0  0  0  0  0  0  0  0  0  0  0  0
  155.2832  144.8233  167.4116 H   0  0  0  0  0  0  0  0  0  0  0  0
  153.9168  143.7960  167.0174 H   0  0  0  0  0  0  0  0  0  0  0  0
  155.3053  140.9926  168.8904 H   0  0  0  0  0  0  0  0  0  0  0  0
  153.9298  141.4757  167.9137 H   0  0  0  0  0  0  0  0  0  0  0  0
  155.4732  140.0639  166.5700 H   0  0  0  0  0  0  0  0  0  0  0  0
  156.8186  141.1180  166.9431 H   0  0  0  0  0  0  0  0  0  0  0  0
  154.8311  139.4277  160.4493 H   0  0  0  0  0  0  0  0  0  0  0  0
  153.4534  142.6775  160.9307 H   0  0  0  0  0  0  0  0  0  0  0  0
  151.1334  142.6211  157.2866 H   0  0  0  0  0  0  0  0  0  0  0  0
  151.9091  140.2653  156.9473 H   0  0  0  0  0  0  0  0  0  0  0  0
  1  2  2  0  0  0  0
  2  3  1  0  0  0  0
  2 12  1  0  0  0  0
  3  4  1  0  0  0  0
  3 23  1  0  0  0  0
  4  5  1  0  0  0  0
  4 24  1  0  0  0  0
  4 25  1  0  0  0  0
  5  6  1  0  0  0  0
  5 26  1  0  0  0  0
  5 27  1  0  0  0  0
  6 11  1  0  0  0  0
  6  7  1  0  0  0  0
  7  8  1  0  0  0  0
  7 28  1  0  0  0  0
  7 29  1  0  0  0  0
  8  9  1  0  0  0  0
  8 30  1  0  0  0  0
  8 31  1  0  0  0  0
  9 10  1  0  0  0  0
 10 11  1  0  0  0  0
 10 32  1  0  0  0  0
 10 33  1  0  0  0  0
 11 34  1  0  0  0  0
 11 35  1  0  0  0  0
 12 13  1  0  0  0  0
 12 36  1  0  0  0  0
 13 22  1  0  0  0  0
 13 14  2  0  0  0  0
 14 15  1  0  0  0  0
 14 37  1  0  0  0  0
 15 16  1  0  0  0  0
 15 20  2  0  0  0  0
 16 17  1  0  0  0  0
 16 18  1  0  0  0  0
 16 19  1  0  0  0  0
 20 21  1  0  0  0  0
 20 38  1  0  0  0  0
 21 22  2  0  0  0  0
 21 39  1  0  0  0  0
M  END
> <s_m_source_file>
AV-unprocessed.smi

> <i_m_source_file_index>
2762

> <i_lp_mmshare_version>
43012

> <i_f3d_flags>
0

> <s_epik_input>
bjFbY0hdW2NIXWMoQyhGKShGKUYpW2NIXWMxW05IXUMoPU8pW05IXVtDSDJdW0NIMl1OMltDSDJdW0NIMl1PW0NIMl1bQ0gyXTI=

> <s_epik_cmdline>
J2VwaWtfcHl0aG9uJywgJy1waCcsICc3LjAnLCAnLXRuJywgJzgnLCAnLW1hJywgJzIwMCcsICctbWV0YWxfYmluZGluZycsICctaW1hZScsICc8aW5maWxlLm1hZT4nLCAnLW9tYWUnLCAnPG91dGZpbGUubWFlPic=

> <r_epik_Ionization_Penalty>
0.266026

> <r_epik_Ionization_Penalty_Charging>
0

> <r_epik_Ionization_Penalty_Neutral>
0.266026

> <r_epik_State_Penalty>
0.257924

> <r_epik_Charging_Adjusted_Penalty>
0.257924

> <i_epik_Tot_Q>
0

> <i_epik_Tot_abs_Q>
0

> <r_epik_Metal_State_Penalty>
0.257924

> <b_epik_Metal_Only>
0

> <s_lp_Force_Field>
OPLS_2005

> <r_lp_Energy>
26.9092

> <b_lp_Chiralities_Consistent>
1

> <s_lp_Variant>
AV-unprocessed.smi:2762-1

> <Gold.Version>
5.8.1

> <Gold.Id.Protein>
6NUR|6NUR_protein|mol2

> <Gold.PLP.Fitness>
43.2787

> <Gold.PLP.PLP>
-45.0974

> <Gold.PLP.part.hbond>
-1.4885

> <Gold.PLP.part.metal>
0.0000

> <Gold.PLP.part.buried>
-4.9057

> <Gold.PLP.part.nonpolar>
-37.2375

> <Gold.PLP.part.repulsive>
0.1362

> <Gold.PLP.ligand.clash>
1.2180

> <Gold.PLP.ligand.torsion>
0.7451

> <Gold.PLP.Chemscore.Hbond>
0.2332

> <Gold.PLP.Chemscore.CHOScore>
0.0000

> <Gold.PLP.Chemscore.Metal>
0.0000

> <Gold.Chemscore.Hbonds>
donor molecule, donor type, donor heavy atom, donor atom, acceptor molecule, acceptor atom, score
      P1  H  7997  8008       L1    22  0.27

> <Gold.PLP.Chemscore.Internal.Correction>
0.1898

> <Gold.Rescore>
     Score         DG    S(hbond)    S(metal)    S(lipo)     H(rot)  DE(clash)    DE(int)     intcor
      8.09     -11.62       0.00        0.00      88.10       1.63       0.04       3.49       ----

> <Gold.Chemscore.Fitness>
8.0866

> <Gold.Chemscore.DG>
-11.6237

> <Gold.Chemscore.ZeroCoef>
-5.4800

> <Gold.Chemscore.Hbond>
0.0000

> <Gold.Chemscore.Metal>
0.0000

> <Gold.Chemscore.Lipo>
88.0984

> <Gold.Chemscore.Internal_Hbond>
0.0000

> <Gold.Chemscore.DEClash>
0.0427

> <Gold.Chemscore.DEInternal>
3.4944

> <Gold.Chemscore.Rot>
1.6265

> <Gold.Chemscore.Internal.Correction>
   9.000000E+99

> <Gold.Chemscore.Hbonds>
donor molecule, donor type, donor heavy atom, donor atom, acceptor molecule, acceptor atom, score
      P1  H  7997  8008       L1    22  0.02

> <Gold.Chemscore.Hbond.Weighted>
-0.0000

> <Gold.Chemscore.Metal.Weighted>
-0.0000

> <Gold.Chemscore.Lipo.Weighted>
-10.3075

> <Gold.Chemscore.Internal_Hbond.Weighted>
0.0000

> <Gold.Chemscore.DEClash.Weighted>
0.0427

> <Gold.Chemscore.DEInternal.Weighted>
3.4944

> <Gold.Chemscore.Rot.Weighted>
4.1638

> <Gold.Chemscore.Internal.Correction.Weighted>
   9.000000E+99

> <Gold.Protein.RotatedTorsions>
[ 6907 6896 6895 6894 ] final   15.56 input  -60.11 | X-H torsion
[ 7974 7965 7964 7962 ] final   93.07 input  175.53 | X-H torsion
[ 8008 7997 7996 7995 ] final  -95.09 input   59.86 | X-H torsion
[ 10167 10162 10161 10158 ] final  -26.94 input  -65.29 | X-H torsion
[ 10718 10713 10712 10709 ] final  -48.78 input   66.30 | X-H torsion
[ 10763 10752 10751 10750 ] final -174.03 input  -60.55 | X-H torsion
[ 11005 11000 10999 10996 ] final   -0.59 input  -57.11 | X-H torsion

> <Gold.Protein.ActiveResidues>
 VAL166  LYS551  ARG553  GLY616  TRP617  ASP618  TYR619  PRO620  LYS621  CYS622 
 ASP623  PHE694  ASN695  SER759  ASP760  ASP761  ALA762  ILE779  LEU786  VAL792 
 PHE793  MET794  SER795  GLU796  ALA797  LYS798  CYS799  TRP800  GLU811  SER814 

> <Gold.Protein.RotatedAtoms>
  151.8201  135.0654  160.0423 H   0  0  0  0  0  0  0  0  0  0  0  0  # atno 6907 bound_to 6896
  152.2957  133.5601  159.5594 H   0  0  0  0  0  0  0  0  0  0  0  0  # atno 6908 bound_to 6896
  150.7250  134.0280  159.3766 H   0  0  0  0  0  0  0  0  0  0  0  0  # atno 6909 bound_to 6896
  145.4839  139.2278  143.2867 H   0  0  0  0  0  0  0  0  0  0  0  0  # atno 7974 bound_to 7965
  154.7569  140.0483  157.0941 H   0  0  0  0  0  0  0  0  0  0  0  0  # atno 8008 bound_to 7997
  154.9987  140.3122  155.4857 H   0  0  0  0  0  0  0  0  0  0  0  0  # atno 8009 bound_to 7997
  156.2896  140.2205  156.5095 H   0  0  0  0  0  0  0  0  0  0  0  0  # atno 8010 bound_to 7997
  140.7280  143.4135  151.1066 H   0  0  0  0  0  0  0  0  0  0  0  0  # atno 10167 bound_to 10162
  156.1956  130.4154  149.9311 H   0  0  0  0  0  0  0  0  0  0  0  0  # atno 10718 bound_to 10713
  154.6009  135.2854  155.0536 H   0  0  0  0  0  0  0  0  0  0  0  0  # atno 10763 bound_to 10752
  154.1801  135.6458  153.5036 H   0  0  0  0  0  0  0  0  0  0  0  0  # atno 10764 bound_to 10752
  153.0157  135.5421  154.6728 H   0  0  0  0  0  0  0  0  0  0  0  0  # atno 10765 bound_to 10752
  140.6379  133.9516  155.8310 H   0  0  0  0  0  0  0  0  0  0  0  0  # atno 11005 bound_to 11000
  146.2325  140.5628  142.8969 LP  0  0  0  0  0  0  0  0  0  0  0  0  # atno 17320 bound_to 7965
  144.7873  140.5962  143.6565 LP  0  0  0  0  0  0  0  0  0  0  0  0  # atno 17321 bound_to 7965
  139.7772  143.8408  152.3131 LP  0  0  0  0  0  0  0  0  0  0  0  0  # atno 17342 bound_to 10162
  139.8347  144.7238  150.9406 LP  0  0  0  0  0  0  0  0  0  0  0  0  # atno 17343 bound_to 10162
  156.7038  130.8943  151.3602 LP  0  0  0  0  0  0  0  0  0  0  0  0  # atno 17370 bound_to 10713
  157.6955  130.9278  150.0633 LP  0  0  0  0  0  0  0  0  0  0  0  0  # atno 17371 bound_to 10713
  141.0628  134.0321  157.3635 LP  0  0  0  0  0  0  0  0  0  0  0  0  # atno 17394 bound_to 11000
  139.9091  135.0186  156.7615 LP  0  0  0  0  0  0  0  0  0  0  0  0  # atno 17395 bound_to 11000

$$$$
