AV-unprocessed.smi:82|AV-procd|sdf|798|dock5
  -GOLD-   2262017183D 1   1.00000     0.00000
 Structure written by MMmdl.
 58 61  0  0  0  0  0  0  0  0  1 V2000
  152.1847  144.3948  158.5568 C   0  0  0  0  0  0  0  0  0  0  0  0
  151.7482  143.0471  158.5919 O   0  0  0  0  0  0  0  0  0  0  0  0
  150.8503  142.7387  157.5392 C   0  0  0  0  0  0  0  0  0  0  0  0
  150.7975  141.2106  157.3754 C   0  0  0  0  0  0  0  0  0  0  0  0
  150.1067  140.7397  156.1683 N   0  0  0  0  0  0  0  0  0  0  0  0
  148.6648  140.6692  156.4234 C   0  0  0  0  0  0  0  0  0  0  0  0
  147.8612  140.2639  155.1801 C   0  0  0  0  0  0  0  0  0  0  0  0
  148.3395  138.9791  154.6822 N   0  0  0  0  0  0  0  0  0  0  0  0
  147.5330  138.3871  153.7646 C   0  0  0  0  0  0  0  0  0  0  0  0
  147.1774  139.0587  152.6362 N   0  0  0  0  0  0  0  0  0  0  0  0
  146.3796  138.4844  151.7312 C   0  0  0  0  0  0  0  0  0  0  0  0
  145.8322  137.2678  151.7535 N   0  0  0  0  0  0  0  0  0  0  0  0
  146.1877  136.5858  152.8797 C   0  0  0  0  0  0  0  0  0  0  0  0
  147.0306  137.0643  153.9230 C   0  0  0  0  0  0  0  0  0  0  0  0
  147.1909  136.0781  154.8892 N   0  0  0  0  0  0  0  0  0  0  0  0
  146.4808  135.0774  154.4453 C   0  0  0  0  0  0  0  0  0  0  0  0
  145.8192  135.3065  153.2598 N   0  0  0  0  0  0  0  0  0  0  0  0
  145.0100  134.3705  152.5344 C   0  0  0  0  0  0  0  0  0  0  0  0
  145.4382  132.9076  152.3833 C   0  0  0  0  0  0  0  0  0  0  0  0
  144.8717  132.8755  150.9459 C   0  0  0  0  0  0  0  0  0  0  0  0
  145.8076  132.2311  149.9114 C   0  0  0  0  0  0  0  0  0  0  0  0
  147.1519  132.6149  150.1196 O   0  0  0  0  0  0  0  0  0  0  0  0
  143.4826  132.2220  150.7724 C   0  0  0  0  0  0  0  0  0  0  0  0
  143.0034  132.2709  149.4438 O   0  0  0  0  0  0  0  0  0  0  0  0
  144.9225  134.4183  151.0056 C   0  0  0  0  0  0  0  0  0  0  0  0
  149.7822  138.9645  154.4438 C   0  0  0  0  0  0  0  0  0  0  0  0
  150.5588  139.4086  155.7054 C   0  0  1  0  0  0  0  0  0  0  0  0
  152.0628  139.2961  155.4011 C   0  0  0  0  0  0  0  0  0  0  0  0
  152.8698  144.5798  159.3839 H   0  0  0  0  0  0  0  0  0  0  0  0
  151.3449  145.0841  158.6546 H   0  0  0  0  0  0  0  0  0  0  0  0
  152.7118  144.6145  157.6275 H   0  0  0  0  0  0  0  0  0  0  0  0
  149.8553  143.1153  157.7818 H   0  0  0  0  0  0  0  0  0  0  0  0
  151.1720  143.2423  156.6303 H   0  0  0  0  0  0  0  0  0  0  0  0
  151.8010  140.7859  157.4264 H   0  0  0  0  0  0  0  0  0  0  0  0
  150.2821  140.8341  158.2602 H   0  0  0  0  0  0  0  0  0  0  0  0
  148.4639  139.9663  157.2338 H   0  0  0  0  0  0  0  0  0  0  0  0
  148.3025  141.6411  156.7605 H   0  0  0  0  0  0  0  0  0  0  0  0
  146.8023  140.2263  155.4327 H   0  0  0  0  0  0  0  0  0  0  0  0
  147.9739  141.0160  154.3980 H   0  0  0  0  0  0  0  0  0  0  0  0
  146.1439  139.0873  150.8667 H   0  0  0  0  0  0  0  0  0  0  0  0
  146.4175  134.1399  154.9785 H   0  0  0  0  0  0  0  0  0  0  0  0
  144.0155  134.4351  152.9773 H   0  0  0  0  0  0  0  0  0  0  0  0
  146.5226  132.7908  152.4176 H   0  0  0  0  0  0  0  0  0  0  0  0
  144.9545  132.2255  153.0834 H   0  0  0  0  0  0  0  0  0  0  0  0
  145.7615  131.1431  149.9695 H   0  0  0  0  0  0  0  0  0  0  0  0
  145.5165  132.4977  148.8947 H   0  0  0  0  0  0  0  0  0  0  0  0
  147.7020  131.8545  150.0076 H   0  0  0  0  0  0  0  0  0  0  0  0
  143.5044  131.1735  151.0701 H   0  0  0  0  0  0  0  0  0  0  0  0
  142.7437  132.7112  151.4082 H   0  0  0  0  0  0  0  0  0  0  0  0
  142.5858  133.1074  149.3060 H   0  0  0  0  0  0  0  0  0  0  0  0
  144.0335  134.9199  150.6217 H   0  0  0  0  0  0  0  0  0  0  0  0
  145.8262  134.8259  150.5492 H   0  0  0  0  0  0  0  0  0  0  0  0
  150.0892  137.9567  154.1607 H   0  0  0  0  0  0  0  0  0  0  0  0
  150.0197  139.6227  153.6064 H   0  0  0  0  0  0  0  0  0  0  0  0
  150.3419  138.6810  156.4896 H   0  0  0  0  0  0  0  0  0  0  0  0
  152.3002  138.3318  154.9506 H   0  0  0  0  0  0  0  0  0  0  0  0
  152.6614  139.3643  156.3089 H   0  0  0  0  0  0  0  0  0  0  0  0
  152.3894  140.0715  154.7074 H   0  0  0  0  0  0  0  0  0  0  0  0
  1  2  1  0  0  0  0
  1 29  1  0  0  0  0
  1 30  1  0  0  0  0
  1 31  1  0  0  0  0
  2  3  1  0  0  0  0
  3  4  1  0  0  0  0
  3 32  1  0  0  0  0
  3 33  1  0  0  0  0
  4  5  1  0  0  0  0
  4 34  1  0  0  0  0
  4 35  1  0  0  0  0
  5 27  1  0  0  0  0
  5  6  1  0  0  0  0
  6  7  1  0  0  0  0
  6 36  1  0  0  0  0
  6 37  1  0  0  0  0
  7  8  1  0  0  0  0
  7 38  1  0  0  0  0
  7 39  1  0  0  0  0
  8  9  1  0  0  0  0
  8 26  1  0  0  0  0
  9 14  1  0  0  0  0
  9 10  2  0  0  0  0
 10 11  1  0  0  0  0
 11 12  2  0  0  0  0
 11 40  1  0  0  0  0
 12 13  1  0  0  0  0
 13 17  1  0  0  0  0
 13 14  2  0  0  0  0
 14 15  1  0  0  0  0
 15 16  2  0  0  0  0
 16 17  1  0  0  0  0
 16 41  1  0  0  0  0
 17 18  1  0  0  0  0
 18 25  1  0  0  0  0
 18 19  1  0  0  0  0
 18 42  1  0  0  0  0
 19 20  1  0  0  0  0
 19 43  1  0  0  0  0
 19 44  1  0  0  0  0
 20 21  1  0  0  0  0
 20 23  1  0  0  0  0
 20 25  1  0  0  0  0
 21 22  1  0  0  0  0
 21 45  1  0  0  0  0
 21 46  1  0  0  0  0
 22 47  1  0  0  0  0
 23 24  1  0  0  0  0
 23 48  1  0  0  0  0
 23 49  1  0  0  0  0
 24 50  1  0  0  0  0
 25 51  1  0  0  0  0
 25 52  1  0  0  0  0
 26 27  1  0  0  0  0
 26 53  1  0  0  0  0
 26 54  1  0  0  0  0
 27 28  1  0  0  0  0
 27 55  1  0  0  0  0
 28 56  1  0  0  0  0
 28 57  1  0  0  0  0
 28 58  1  0  0  0  0
M  END
> <s_m_source_file>
AV-unprocessed.smi

> <i_m_source_file_index>
82

> <i_lp_mmshare_version>
43012

> <i_f3d_flags>
0

> <s_epik_input>
W0NIM11PW0NIMl1bQ0gyXU4xW0NIMl1bQ0gyXU4oW0NIMl1bQ0BIXTFbQ0gzXSljKG5bY0hdbjIpYyhjMjMpbltjSF1uM1tDSF0oW0NIMl00KVtDSDJdQzQoW0NIMl1bT0hdKVtDSDJdW09IXQ==

> <s_epik_cmdline>
J2VwaWtfcHl0aG9uJywgJy1waCcsICc3LjAnLCAnLXRuJywgJzgnLCAnLW1hJywgJzIwMCcsICctbWV0YWxfYmluZGluZycsICctaW1hZScsICc8aW5maWxlLm1hZT4nLCAnLW9tYWUnLCAnPG91dGZpbGUubWFlPic=

> <r_lp_tautomer_probability>
1

> <r_epik_Ionization_Penalty>
0.549054

> <r_epik_Ionization_Penalty_Charging>
0

> <r_epik_Ionization_Penalty_Neutral>
0.549054

> <r_epik_State_Penalty>
0.552556

> <r_epik_Charging_Adjusted_Penalty>
0.552556

> <i_epik_Tot_Q>
0

> <i_epik_Tot_abs_Q>
0

> <r_epik_Metal_State_Penalty>
0.545162

> <b_epik_Metal_Only>
0

> <s_lp_Force_Field>
OPLS_2005

> <r_lp_Energy>
72.4409

> <b_lp_Chiralities_Consistent>
1

> <s_lp_Variant>
AV-unprocessed.smi:82-5

> <Gold.Version>
5.8.1

> <Gold.Id.Protein>
6NUR|6NUR_protein|mol2

> <Gold.PLP.Fitness>
48.0175

> <Gold.PLP.PLP>
-40.7339

> <Gold.PLP.part.hbond>
-3.9707

> <Gold.PLP.part.metal>
0.0000

> <Gold.PLP.part.buried>
-3.1373

> <Gold.PLP.part.nonpolar>
-37.5467

> <Gold.PLP.part.repulsive>
2.6600

> <Gold.PLP.ligand.clash>
0.0000

> <Gold.PLP.ligand.torsion>
1.4997

> <Gold.PLP.Chemscore.Hbond>
2.4062

> <Gold.PLP.Chemscore.CHOScore>
0.7158

> <Gold.PLP.Chemscore.Metal>
0.0000

> <Gold.Chemscore.Hbonds>
donor molecule, donor type, donor heavy atom, donor atom, acceptor molecule, acceptor atom, score
      L1  H    22    47       P1 10747  1.00
      L1  H    24    50       P1 10186  0.93
      P1  H 10785 10796       L1    24  0.46
      L1  C    11    40       P1 10171  0.71

> <Gold.PLP.Chemscore.Internal.Correction>
0.9168

> <Gold.Rescore>
     Score         DG    S(hbond)    S(metal)    S(lipo)     H(rot)  DE(clash)    DE(int)     intcor
     12.13     -14.22       2.34        0.00      91.90       3.84       0.07       2.02       ----

> <Gold.Chemscore.Fitness>
12.1254

> <Gold.Chemscore.DG>
-14.2227

> <Gold.Chemscore.ZeroCoef>
-5.4800

> <Gold.Chemscore.Hbond>
2.3443

> <Gold.Chemscore.Metal>
0.0000

> <Gold.Chemscore.Lipo>
91.8957

> <Gold.Chemscore.Internal_Hbond>
0.0000

> <Gold.Chemscore.DEClash>
0.0737

> <Gold.Chemscore.DEInternal>
2.0235

> <Gold.Chemscore.Rot>
3.8434

> <Gold.Chemscore.Internal.Correction>
   9.000000E+99

> <Gold.Chemscore.Hbonds>
donor molecule, donor type, donor heavy atom, donor atom, acceptor molecule, acceptor atom, score
      L1  H    22    47       P1 10747  0.99
      L1  H    24    50       P1 10186  0.85
      P1  H 10785 10796       L1    24  0.20

> <Gold.Chemscore.Hbond.Weighted>
-7.8299

> <Gold.Chemscore.Metal.Weighted>
-0.0000

> <Gold.Chemscore.Lipo.Weighted>
-10.7518

> <Gold.Chemscore.Internal_Hbond.Weighted>
0.0000

> <Gold.Chemscore.DEClash.Weighted>
0.0737

> <Gold.Chemscore.DEInternal.Weighted>
2.0235

> <Gold.Chemscore.Rot.Weighted>
9.8391

> <Gold.Chemscore.Internal.Correction.Weighted>
   9.000000E+99

> <Gold.Protein.RotatedTorsions>
[ 6907 6896 6895 6894 ] final  169.39 input  -60.11 | X-H torsion
[ 7974 7965 7964 7962 ] final  160.41 input  175.53 | X-H torsion
[ 8008 7997 7996 7995 ] final   -6.17 input   59.86 | X-H torsion
[ 10167 10162 10161 10158 ] final -172.13 input  -65.29 | X-H torsion
[ 10718 10713 10712 10709 ] final    8.56 input   66.30 | X-H torsion
[ 10763 10752 10751 10750 ] final -171.20 input  -60.55 | X-H torsion
[ 11005 11000 10999 10996 ] final  -52.91 input  -57.11 | X-H torsion

> <Gold.Protein.ActiveResidues>
 VAL166  LYS551  ARG553  GLY616  TRP617  ASP618  TYR619  PRO620  LYS621  CYS622 
 ASP623  PHE694  ASN695  SER759  ASP760  ASP761  ALA762  ILE779  LEU786  VAL792 
 PHE793  MET794  SER795  GLU796  ALA797  LYS798  CYS799  TRP800  GLU811  SER814 

> <Gold.Protein.RotatedAtoms>
  151.8327  133.3411  159.3618 H   0  0  0  0  0  0  0  0  0  0  0  0  # atno 6907 bound_to 6896
  150.7259  134.5467  159.5784 H   0  0  0  0  0  0  0  0  0  0  0  0  # atno 6908 bound_to 6896
  152.2924  134.7707  160.0426 H   0  0  0  0  0  0  0  0  0  0  0  0  # atno 6909 bound_to 6896
  144.7738  139.7753  143.6286 H   0  0  0  0  0  0  0  0  0  0  0  0  # atno 7974 bound_to 7965
  154.5964  140.2439  155.7851 H   0  0  0  0  0  0  0  0  0  0  0  0  # atno 8008 bound_to 7997
  156.2282  140.2975  156.0074 H   0  0  0  0  0  0  0  0  0  0  0  0  # atno 8009 bound_to 7997
  155.2285  140.0403  157.2949 H   0  0  0  0  0  0  0  0  0  0  0  0  # atno 8010 bound_to 7997
  139.5762  144.1527  152.1453 H   0  0  0  0  0  0  0  0  0  0  0  0  # atno 10167 bound_to 10162
  156.9535  130.5906  149.5658 H   0  0  0  0  0  0  0  0  0  0  0  0  # atno 10718 bound_to 10713
  154.6332  135.2889  155.0192 H   0  0  0  0  0  0  0  0  0  0  0  0  # atno 10763 bound_to 10752
  154.1346  135.6528  153.4933 H   0  0  0  0  0  0  0  0  0  0  0  0  # atno 10764 bound_to 10752
  153.0289  135.5318  154.7167 H   0  0  0  0  0  0  0  0  0  0  0  0  # atno 10765 bound_to 10752
  141.0949  133.6626  156.4095 H   0  0  0  0  0  0  0  0  0  0  0  0  # atno 11005 bound_to 11000
  146.1904  139.5142  142.9809 LP  0  0  0  0  0  0  0  0  0  0  0  0  # atno 17320 bound_to 7965
  145.6244  141.0316  143.1897 LP  0  0  0  0  0  0  0  0  0  0  0  0  # atno 17321 bound_to 7965
  140.1070  144.5490  150.6950 LP  0  0  0  0  0  0  0  0  0  0  0  0  # atno 17342 bound_to 10162
  140.7044  143.2457  151.4769 LP  0  0  0  0  0  0  0  0  0  0  0  0  # atno 17343 bound_to 10162
  156.0353  130.5441  150.8637 LP  0  0  0  0  0  0  0  0  0  0  0  0  # atno 17370 bound_to 10713
  157.5706  131.0946  150.9423 LP  0  0  0  0  0  0  0  0  0  0  0  0  # atno 17371 bound_to 10713
  140.5164  134.6346  157.5303 LP  0  0  0  0  0  0  0  0  0  0  0  0  # atno 17394 bound_to 11000
  139.9783  134.7179  155.9907 LP  0  0  0  0  0  0  0  0  0  0  0  0  # atno 17395 bound_to 11000

$$$$
