#       Name:                AV-unprocessed.smi:189
#       Creating user name   scv26
#       Creation time:       Thu Mar 26 19:29:41 2020


#       File generated by GOLD software.
#

@<TRIPOS>MOLECULE
AV-unprocessed.smi:189
    61    65     1
SMALL
NO_CHARGES


@<TRIPOS>ATOM
      1 ****        -1.6994   0.1184  -1.9631 C.3            1 S1                 0.0000
      2 ****        -2.5522   0.0960  -0.6782 C.3            1 S1                 0.0000
      3 ****        -3.4472   1.3382  -0.4986 C.3            1 S1                 0.0000
      4 ****        -3.2688   1.7437   0.9697 C.3            1 S1                 0.0000
      5 ****        -4.5041   2.3279   1.6846 C.3            1 S1                 0.0000
      6 ****        -5.5190   1.2584   2.1131 C.3            1 S1                 0.0000
      7 ****        -4.8367   0.1565   2.9338 C.3            1 S1                 0.0000
      8 ****        -3.7367  -0.5170   2.1052 C.3            1 S1                 0.0000
      9 ****        -2.6643   0.4916   1.6319 C.3            1 S1                 0.0000
     10 ****        -1.8283  -0.0943   0.5873 N.3            1 S1                 0.0000
     11 ****        -0.5004   0.1818   0.6190 C.ar           1 S1                 0.0000
     12 ****        -0.0556   1.4301   0.9225 N.ar           1 S1                 0.0000
     13 ****         1.2549   1.6916   0.9323 C.ar           1 S1                 0.0000
     14 ****         2.2725   0.8681   0.6719 N.ar           1 S1                 0.0000
     15 ****         1.8289  -0.3856   0.3682 C.ar           1 S1                 0.0000
     16 ****         0.4719  -0.8102   0.3225 C.ar           1 S1                 0.0000
     17 ****         0.4042  -2.1554  -0.0166 N.2            1 S1                 0.0000
     18 ****         1.6524  -2.5061  -0.1676 C.2            1 S1                 0.0000
     19 ****         2.5741  -1.5029   0.0340 N.pl3          1 S1                 0.0000
     20 ****         4.0213  -1.6134  -0.0686 C.3            1 S1                 0.0000
     21 ****         4.5574  -1.5543  -1.5217 C.3            1 S1                 0.0000
     22 ****         4.0533  -2.6607  -2.2474 O.3            1 S1                 0.0000
     23 ****         4.2081  -0.2649  -2.2660 C.3            1 S1                 0.0000
     24 ****         5.4485   0.5893  -2.0533 C.3            1 S1                 0.0000
     25 ****         6.4942  -0.3554  -2.2006 O.3            1 S1                 0.0000
     26 ****         6.0997  -1.5623  -1.5564 C.3            1 S1                 0.0000
     27 ****        -2.3358   0.2227  -2.8420 H              1 S1                 0.0000
     28 ****        -1.1331  -0.8052  -2.0830 H              1 S1                 0.0000
     29 ****        -0.9968   0.9525  -1.9702 H              1 S1                 0.0000
     30 ****        -3.2087  -0.7698  -0.7679 H              1 S1                 0.0000
     31 ****        -3.1583   2.1556  -1.1604 H              1 S1                 0.0000
     32 ****        -4.4836   1.0858  -0.7240 H              1 S1                 0.0000
     33 ****        -2.5070   2.5240   0.9781 H              1 S1                 0.0000
     34 ****        -4.1689   2.8586   2.5766 H              1 S1                 0.0000
     35 ****        -4.9857   3.0747   1.0527 H              1 S1                 0.0000
     36 ****        -6.3149   1.7193   2.6988 H              1 S1                 0.0000
     37 ****        -5.9954   0.8228   1.2341 H              1 S1                 0.0000
     38 ****        -4.4134   0.5760   3.8473 H              1 S1                 0.0000
     39 ****        -5.5737  -0.5855   3.2428 H              1 S1                 0.0000
     40 ****        -3.2628  -1.3067   2.6887 H              1 S1                 0.0000
     41 ****        -4.2062  -1.0122   1.2550 H              1 S1                 0.0000
     42 ****        -2.0698   0.7883   2.4976 H              1 S1                 0.0000
     43 ****         1.5266   2.7065   1.1825 H              1 S1                 0.0000
     44 ****         1.9377  -3.5127  -0.4368 H              1 S1                 0.0000
     45 ****         4.4663  -0.8152   0.5269 H              1 S1                 0.0000
     46 ****         4.3231  -2.5487   0.4049 H              1 S1                 0.0000
     47 ****         4.4042  -2.6273  -3.1244 H              1 S1                 0.0000
     48 ****         4.0969  -0.4548  -3.3349 H              1 S1                 0.0000
     49 ****         3.2950   0.2233  -1.9290 H              1 S1                 0.0000
     50 ****         5.5331   1.4007  -2.7762 H              1 S1                 0.0000
     51 ****         5.4672   1.0138  -1.0482 H              1 S1                 0.0000
     52 ****         6.5217  -1.5783  -0.5505 H              1 S1                 0.0000
     53 ****         6.5110  -2.4174  -2.0946 H              1 S1                 0.0000
     54 ****        -1.7135  -1.0742   0.7503 LP             1 S1                 0.0000
     55 ****        -0.7104   2.1542   1.1388 LP             1 S1                 0.0000
     56 ****         3.2358   1.1356   0.6963 LP             1 S1                 0.0000
     57 ****        -0.4119  -2.7237  -0.1210 LP             1 S1                 0.0000
     58 ****         3.0549  -2.6158  -2.2812 LP             1 S1                 0.0000
     59 ****         4.3339  -3.5118  -1.8036 LP             1 S1                 0.0000
     60 ****         7.3296  -0.0039  -1.7780 LP             1 S1                 0.0000
     61 ****         6.6593  -0.5286  -3.1716 LP             1 S1                 0.0000
@<TRIPOS>BOND
    1    1    2 1     
    2    1   27 1     
    3    1   28 1     
    4    1   29 1     
    5    2   10 1     
    6    2    3 1     
    7    2   30 1     
    8    3    4 1     
    9    3   31 1     
   10    3   32 1     
   11    4    9 1     
   12    4    5 1     
   13    4   33 1     
   14    5    6 1     
   15    5   34 1     
   16    5   35 1     
   17    6    7 1     
   18    6   36 1     
   19    6   37 1     
   20    7    8 1     
   21    7   38 1     
   22    7   39 1     
   23    8    9 1     
   24    8   40 1     
   25    8   41 1     
   26    9   10 1     
   27    9   42 1     
   28   10   11 1     
   29   11   16 ar    
   30   11   12 ar    
   31   12   13 ar    
   32   13   14 ar    
   33   13   43 1     
   34   14   15 ar    
   35   15   19 1     
   36   15   16 ar    
   37   16   17 1     
   38   17   18 2     
   39   18   19 1     
   40   18   44 1     
   41   19   20 1     
   42   20   21 1     
   43   20   45 1     
   44   20   46 1     
   45   21   26 1     
   46   21   22 1     
   47   21   23 1     
   48   22   47 1     
   49   23   24 1     
   50   23   48 1     
   51   23   49 1     
   52   24   25 1     
   53   24   50 1     
   54   24   51 1     
   55   25   26 1     
   56   26   52 1     
   57   26   53 1     
   58   10   54 1     
   59   12   55 1     
   60   14   56 1     
   61   17   57 1     
   62   22   58 1     
   63   22   59 1     
   64   25   60 1     
   65   25   61 1     
@<TRIPOS>SUBSTRUCTURE
      1 S1             1
@<TRIPOS>SET
LONE_PAIRS      STATIC     ATOMS    <user>   **** ""
8 54 55 56 57 58 59 60 61
DONOR_HYDROGENS      STATIC     ATOMS    <user>   **** ""
1 47
ATOM$BLUE        STATIC     ATOMS    COLORGROUP SYSTEM
8 54 55 56 57 58 59 60 61
ATOM$RED        STATIC     ATOMS    COLORGROUP SYSTEM
1 47
