AV-unprocessed.smi:2886|AV-procd|sdf|11087|dock8
  -GOLD-   2272015563D 1   1.00000     0.00000
 Structure written by MMmdl.
 28 30  0  0  0  0  0  0  0  0  1 V2000
  147.2994  139.4384  153.0488 O   0  0  0  0  0  0  0  0  0  0  0  0
  148.3430  139.6099  153.6759 C   0  0  0  0  0  0  0  0  0  0  0  0
  149.3479  138.7035  153.6367 N   0  0  0  0  0  0  0  0  0  0  0  0
  150.5487  138.7840  154.2987 N   0  0  0  0  0  0  0  0  0  0  0  0
  150.7754  139.8176  155.0351 C   0  0  0  0  0  0  0  0  0  0  0  0
  149.8155  140.9058  155.1893 C   0  0  0  0  0  0  0  0  0  0  0  0
  150.0599  142.0193  155.9835 N   0  0  0  0  0  0  0  0  0  0  0  0
  151.2367  142.3327  156.7820 C   0  0  2  0  0  0  0  0  0  0  0  0
  151.5058  141.2852  157.8654 C   0  0  0  0  0  0  0  0  0  0  0  0
  151.5150  142.1444  159.1362 C   0  0  1  0  0  0  0  0  0  0  0  0
  152.7336  143.0757  159.2011 C   0  0  0  0  0  0  0  0  0  0  0  0
  152.3781  144.1303  158.1531 C   0  0  0  0  0  0  0  0  0  0  0  0
  151.0377  143.6063  157.6203 C   0  0  2  0  0  0  0  0  0  0  0  0
  150.4931  143.0721  158.8164 O   0  0  0  0  0  0  0  0  0  0  0  0
  148.6353  140.7756  154.5216 C   0  0  0  0  0  0  0  0  0  0  0  0
  147.4180  142.0019  154.6411 Cl  0  0  0  0  0  0  0  0  0  0  0  0
  149.2374  137.8688  153.0792 H   0  0  0  0  0  0  0  0  0  0  0  0
  151.7097  139.9176  155.5864 H   0  0  0  0  0  0  0  0  0  0  0  0
  149.3935  142.7756  155.9129 H   0  0  0  0  0  0  0  0  0  0  0  0
  152.1032  142.4652  156.1350 H   0  0  0  0  0  0  0  0  0  0  0  0
  150.7055  140.5451  157.9153 H   0  0  0  0  0  0  0  0  0  0  0  0
  152.4468  140.7556  157.7129 H   0  0  0  0  0  0  0  0  0  0  0  0
  151.3390  141.5803  160.0524 H   0  0  0  0  0  0  0  0  0  0  0  0
  152.8236  143.5324  160.1872 H   0  0  0  0  0  0  0  0  0  0  0  0
  153.6651  142.5538  158.9790 H   0  0  0  0  0  0  0  0  0  0  0  0
  152.2516  145.1066  158.6223 H   0  0  0  0  0  0  0  0  0  0  0  0
  153.1317  144.2234  157.3706 H   0  0  0  0  0  0  0  0  0  0  0  0
  150.4270  144.3734  157.1430 H   0  0  0  0  0  0  0  0  0  0  0  0
  1  2  2  0  0  0  0
  2 15  1  0  0  0  0
  2  3  1  0  0  0  0
  3 17  1  0  0  0  0
  3  4  1  0  0  0  0
  4  5  2  0  0  0  0
  5  6  1  0  0  0  0
  5 18  1  0  0  0  0
  6  7  1  0  0  0  0
  6 15  2  0  0  0  0
  7  8  1  0  0  0  0
  7 19  1  0  0  0  0
  8 13  1  0  0  0  0
  8  9  1  0  0  0  0
  8 20  1  0  0  0  0
  9 10  1  0  0  0  0
  9 21  1  0  0  0  0
  9 22  1  0  0  0  0
 10 14  1  0  0  0  0
 10 11  1  0  0  0  0
 10 23  1  0  0  0  0
 11 12  1  0  0  0  0
 11 24  1  0  0  0  0
 11 25  1  0  0  0  0
 12 13  1  0  0  0  0
 12 26  1  0  0  0  0
 12 27  1  0  0  0  0
 13 14  1  0  0  0  0
 13 28  1  0  0  0  0
 15 16  1  0  0  0  0
M  END
> <s_m_source_file>
AV-unprocessed.smi

> <i_m_source_file_index>
2886

> <i_lp_mmshare_version>
43012

> <i_f3d_flags>
0

> <s_epik_input>
Tz1jMVtuSF1uW2NIXWMoYzFDbClbTkhdW0NASF0oW0NIMl1bQ0BASF0yMylbQ0BASF0oTzMpW0NIMl1bQ0gyXTI=

> <s_epik_cmdline>
J2VwaWtfcHl0aG9uJywgJy1waCcsICc3LjAnLCAnLXRuJywgJzgnLCAnLW1hJywgJzIwMCcsICctbWV0YWxfYmluZGluZycsICctaW1hZScsICc8aW5maWxlLm1hZT4nLCAnLW9tYWUnLCAnPG91dGZpbGUubWFlPic=

> <r_lp_tautomer_probability>
0.986175

> <r_epik_Ionization_Penalty>
0.000975594

> <r_epik_Ionization_Penalty_Charging>
0.000940184

> <r_epik_Ionization_Penalty_Neutral>
3.54099e-05

> <r_epik_State_Penalty>
0.00620319

> <r_epik_Charging_Adjusted_Penalty>
0.00714337

> <i_epik_Tot_Q>
0

> <i_epik_Tot_abs_Q>
0

> <r_epik_Metal_State_Penalty>
0.287699

> <b_epik_Metal_Only>
0

> <s_lp_Force_Field>
OPLS_2005

> <r_lp_Energy>
54.6963

> <b_lp_Chiralities_Consistent>
1

> <s_lp_Variant>
AV-unprocessed.smi:2886-1

> <Gold.Version>
5.8.1

> <Gold.Id.Protein>
6NUR|6NUR_protein|mol2

> <Gold.PLP.Fitness>
37.1390

> <Gold.PLP.PLP>
-31.1515

> <Gold.PLP.part.hbond>
-2.9779

> <Gold.PLP.part.metal>
0.0000

> <Gold.PLP.part.buried>
-0.3954

> <Gold.PLP.part.nonpolar>
-28.7357

> <Gold.PLP.part.repulsive>
1.2225

> <Gold.PLP.ligand.clash>
0.0000

> <Gold.PLP.ligand.torsion>
0.0160

> <Gold.PLP.Chemscore.Hbond>
2.0000

> <Gold.PLP.Chemscore.CHOScore>
0.0000

> <Gold.PLP.Chemscore.Metal>
0.0000

> <Gold.Chemscore.Hbonds>
donor molecule, donor type, donor heavy atom, donor atom, acceptor molecule, acceptor atom, score
      L1  H     3    17       P1  7948  1.00
      L1  H     7    19       P1  8028  1.00

> <Gold.PLP.Chemscore.Internal.Correction>
0.0196

> <Gold.Rescore>
     Score         DG    S(hbond)    S(metal)    S(lipo)     H(rot)  DE(clash)    DE(int)     intcor
     18.88     -19.04       1.71        0.00      88.97       1.00       0.15       0.01       ----

> <Gold.Chemscore.Fitness>
18.8824

> <Gold.Chemscore.DG>
-19.0425

> <Gold.Chemscore.ZeroCoef>
-5.4800

> <Gold.Chemscore.Hbond>
1.7104

> <Gold.Chemscore.Metal>
0.0000

> <Gold.Chemscore.Lipo>
88.9715

> <Gold.Chemscore.Internal_Hbond>
0.0000

> <Gold.Chemscore.DEClash>
0.1477

> <Gold.Chemscore.DEInternal>
0.0124

> <Gold.Chemscore.Rot>
1.0000

> <Gold.Chemscore.Internal.Correction>
   9.000000E+99

> <Gold.Chemscore.Hbonds>
donor molecule, donor type, donor heavy atom, donor atom, acceptor molecule, acceptor atom, score
      L1  H     3    17       P1  7948  0.92
      L1  H     7    19       P1  8028  0.91

> <Gold.Chemscore.Hbond.Weighted>
-5.7128

> <Gold.Chemscore.Metal.Weighted>
-0.0000

> <Gold.Chemscore.Lipo.Weighted>
-10.4097

> <Gold.Chemscore.Internal_Hbond.Weighted>
0.0000

> <Gold.Chemscore.DEClash.Weighted>
0.1477

> <Gold.Chemscore.DEInternal.Weighted>
0.0124

> <Gold.Chemscore.Rot.Weighted>
2.5600

> <Gold.Chemscore.Internal.Correction.Weighted>
   9.000000E+99

> <Gold.Protein.RotatedTorsions>
[ 6907 6896 6895 6894 ] final  -99.82 input  -60.11 | X-H torsion
[ 7974 7965 7964 7962 ] final  -10.05 input  175.53 | X-H torsion
[ 8008 7997 7996 7995 ] final  166.45 input   59.86 | X-H torsion
[ 10167 10162 10161 10158 ] final -152.84 input  -65.29 | X-H torsion
[ 10718 10713 10712 10709 ] final  -81.55 input   66.30 | X-H torsion
[ 10763 10752 10751 10750 ] final   42.65 input  -60.55 | X-H torsion
[ 11005 11000 10999 10996 ] final   77.12 input  -57.11 | X-H torsion

> <Gold.Protein.ActiveResidues>
 VAL166  LYS551  ARG553  GLY616  TRP617  ASP618  TYR619  PRO620  LYS621  CYS622 
 ASP623  PHE694  ASN695  SER759  ASP760  ASP761  ALA762  ILE779  LEU786  VAL792 
 PHE793  MET794  SER795  GLU796  ALA797  LYS798  CYS799  TRP800  GLU811  SER814 

> <Gold.Protein.RotatedAtoms>
  150.7093  134.0982  159.3955 H   0  0  0  0  0  0  0  0  0  0  0  0  # atno 6907 bound_to 6896
  151.8968  135.0392  160.0512 H   0  0  0  0  0  0  0  0  0  0  0  0  # atno 6908 bound_to 6896
  152.2447  133.5129  159.5327 H   0  0  0  0  0  0  0  0  0  0  0  0  # atno 6909 bound_to 6896
  146.2233  140.2707  142.8356 H   0  0  0  0  0  0  0  0  0  0  0  0  # atno 7974 bound_to 7965
  156.1717  140.1643  156.8435 H   0  0  0  0  0  0  0  0  0  0  0  0  # atno 8008 bound_to 7997
  154.5264  140.0766  156.8300 H   0  0  0  0  0  0  0  0  0  0  0  0  # atno 8009 bound_to 7997
  155.3498  140.3389  155.4241 H   0  0  0  0  0  0  0  0  0  0  0  0  # atno 8010 bound_to 7997
  139.7147  143.9052  152.2481 H   0  0  0  0  0  0  0  0  0  0  0  0  # atno 10167 bound_to 10162
  156.0048  130.4607  150.3970 H   0  0  0  0  0  0  0  0  0  0  0  0  # atno 10718 bound_to 10713
  152.9878  135.6125  154.2983 H   0  0  0  0  0  0  0  0  0  0  0  0  # atno 10763 bound_to 10752
  154.2705  135.2779  155.2742 H   0  0  0  0  0  0  0  0  0  0  0  0  # atno 10764 bound_to 10752
  154.5126  135.5836  153.6674 H   0  0  0  0  0  0  0  0  0  0  0  0  # atno 10765 bound_to 10752
  139.9268  134.7657  156.1482 H   0  0  0  0  0  0  0  0  0  0  0  0  # atno 11005 bound_to 11000
  144.9270  140.7932  143.5713 LP  0  0  0  0  0  0  0  0  0  0  0  0  # atno 17320 bound_to 7965
  145.2648  139.1978  143.4873 LP  0  0  0  0  0  0  0  0  0  0  0  0  # atno 17321 bound_to 7965
  139.8931  144.6954  150.8748 LP  0  0  0  0  0  0  0  0  0  0  0  0  # atno 17342 bound_to 10162
  140.7741  143.3571  151.1900 LP  0  0  0  0  0  0  0  0  0  0  0  0  # atno 17343 bound_to 10162
  157.2041  131.0445  151.2634 LP  0  0  0  0  0  0  0  0  0  0  0  0  # atno 17370 bound_to 10713
  157.3949  130.7302  149.6724 LP  0  0  0  0  0  0  0  0  0  0  0  0  # atno 17371 bound_to 10713
  141.0831  133.6746  156.2378 LP  0  0  0  0  0  0  0  0  0  0  0  0  # atno 17394 bound_to 11000
  140.6313  134.5261  157.5560 LP  0  0  0  0  0  0  0  0  0  0  0  0  # atno 17395 bound_to 11000

$$$$
