#       Name:                AV-unprocessed.smi:564
#       Creating user name   scv26
#       Creation time:       Thu Mar 26 23:44:49 2020


#       File generated by GOLD software.
#

@<TRIPOS>MOLECULE
AV-unprocessed.smi:564
    53    54     1
SMALL
NO_CHARGES


@<TRIPOS>ATOM
      1 ****        -3.8992   2.8596   3.5515 C.3            1 S1                 0.0000
      2 ****        -3.7485   3.0547   2.0698 C.2            1 S1                 0.0000
      3 ****        -4.0273   4.2328   1.5372 N.2            1 S1                 0.0000
      4 ****        -3.7907   4.0791   0.2190 N.pl3          1 S1                 0.0000
      5 ****        -4.0024   5.2002  -0.6762 C.3            1 S1                 0.0000
      6 ****        -3.3631   2.8004  -0.0820 C.2            1 S1                 0.0000
      7 ****        -3.0325   2.3785  -1.4772 C.3            1 S1                 0.0000
      8 ****        -3.3261   2.1028   1.0960 C.2            1 S1                 0.0000
      9 ****        -2.9354   0.6654   1.3320 C.3            1 S1                 0.0000
     10 ****        -1.4131   0.5357   1.4308 C.2            1 S1                 0.0000
     11 ****        -0.7767   1.2476   2.2083 O.2            1 S1                 0.0000
     12 ****        -0.8387  -0.3815   0.6389 N.am           1 S1                 0.0000
     13 ****         0.5921  -0.6490   0.5903 C.3            1 S1                 0.0000
     14 ****         0.8649  -1.9762  -0.1375 C.3            1 S1                 0.0000
     15 ****         2.3042  -2.3541  -0.1574 N.4            1 S1                 1.0000
     16 ****         2.5014  -3.7751  -0.5537 C.3            1 S1                 0.0000
     17 ****         3.9605  -4.2161  -0.3575 C.3            1 S1                 0.0000
     18 ****         4.9204  -3.2989  -1.1222 C.3            1 S1                 0.0000
     19 ****         4.6855  -1.8396  -0.7093 C.3            1 S1                 0.0000
     20 ****         3.2126  -1.4122  -0.8859 C.3            1 S1                 0.0000
     21 ****         2.8387  -1.2139  -2.3708 C.3            1 S1                 0.0000
     22 ****        -2.9898   2.4406   3.9826 H              1 S1                 0.0000
     23 ****        -4.7175   2.1742   3.7718 H              1 S1                 0.0000
     24 ****        -4.1050   3.7991   4.0658 H              1 S1                 0.0000
     25 ****        -4.8492   4.9908  -1.3297 H              1 S1                 0.0000
     26 ****        -3.1121   5.3592  -1.2847 H              1 S1                 0.0000
     27 ****        -4.2076   6.1106  -0.1114 H              1 S1                 0.0000
     28 ****        -2.6679   1.3519  -1.5041 H              1 S1                 0.0000
     29 ****        -2.2580   3.0171  -1.9023 H              1 S1                 0.0000
     30 ****        -3.9119   2.4390  -2.1186 H              1 S1                 0.0000
     31 ****        -3.3689   0.2840   2.2568 H              1 S1                 0.0000
     32 ****        -3.3144   0.0220   0.5369 H              1 S1                 0.0000
     33 ****        -1.4334  -0.9248   0.0297 H              1 S1                 0.0000
     34 ****         1.0681   0.1878   0.0796 H              1 S1                 0.0000
     35 ****         1.0000  -0.6902   1.6017 H              1 S1                 0.0000
     36 ****         0.3135  -2.7602   0.3838 H              1 S1                 0.0000
     37 ****         0.4626  -1.9535  -1.1505 H              1 S1                 0.0000
     38 ****         1.8591  -4.4161   0.0513 H              1 S1                 0.0000
     39 ****         2.1955  -3.9216  -1.5900 H              1 S1                 0.0000
     40 ****         4.2078  -4.2008   0.7048 H              1 S1                 0.0000
     41 ****         4.0865  -5.2472  -0.6892 H              1 S1                 0.0000
     42 ****         5.9532  -3.5847  -0.9201 H              1 S1                 0.0000
     43 ****         4.7718  -3.4155  -2.1962 H              1 S1                 0.0000
     44 ****         4.9700  -1.7183   0.3369 H              1 S1                 0.0000
     45 ****         5.3431  -1.1803  -1.2772 H              1 S1                 0.0000
     46 ****         3.1327  -0.4368  -0.4076 H              1 S1                 0.0000
     47 ****         3.5476  -0.5450  -2.8595 H              1 S1                 0.0000
     48 ****         1.8547  -0.7598  -2.4841 H              1 S1                 0.0000
     49 ****         2.8413  -2.1495  -2.9292 H              1 S1                 0.0000
     50 ****         2.6002  -2.3120   0.8077 H              1 S1                 0.0000
     51 ****        -4.3438   5.0560   2.0085 LP             1 S1                 0.0000
     52 ****        -1.2540   1.9151   2.7797 LP             1 S1                 0.0000
     53 ****         0.2175   1.1582   2.2683 LP             1 S1                 0.0000
@<TRIPOS>BOND
    1    1    2 1     
    2    1   22 1     
    3    1   23 1     
    4    1   24 1     
    5    2    8 1     
    6    2    3 2     
    7    3    4 1     
    8    4    5 1     
    9    4    6 1     
   10    5   25 1     
   11    5   26 1     
   12    5   27 1     
   13    6    7 1     
   14    6    8 2     
   15    7   28 1     
   16    7   29 1     
   17    7   30 1     
   18    8    9 1     
   19    9   10 1     
   20    9   31 1     
   21    9   32 1     
   22   10   11 2     
   23   10   12 am    
   24   12   13 1     
   25   12   33 1     
   26   13   14 1     
   27   13   34 1     
   28   13   35 1     
   29   14   15 1     
   30   14   36 1     
   31   14   37 1     
   32   15   20 1     
   33   15   16 1     
   34   15   50 1     
   35   16   17 1     
   36   16   38 1     
   37   16   39 1     
   38   17   18 1     
   39   17   40 1     
   40   17   41 1     
   41   18   19 1     
   42   18   42 1     
   43   18   43 1     
   44   19   20 1     
   45   19   44 1     
   46   19   45 1     
   47   20   21 1     
   48   20   46 1     
   49   21   47 1     
   50   21   48 1     
   51   21   49 1     
   52    3   51 1     
   53   11   52 1     
   54   11   53 1     
@<TRIPOS>SUBSTRUCTURE
      1 S1             1
@<TRIPOS>SET
LONE_PAIRS      STATIC     ATOMS    <user>   **** ""
3 51 52 53
DONOR_HYDROGENS      STATIC     ATOMS    <user>   **** ""
2 33 50
ATOM$BLUE        STATIC     ATOMS    COLORGROUP SYSTEM
3 51 52 53
ATOM$RED        STATIC     ATOMS    COLORGROUP SYSTEM
2 33 50
