#       Name:                AV-unprocessed.smi:249
#       Creating user name   scv26
#       Creation time:       Thu Mar 26 20:57:26 2020


#       File generated by GOLD software.
#

@<TRIPOS>MOLECULE
AV-unprocessed.smi:249
    72    75     1
SMALL
NO_CHARGES


@<TRIPOS>ATOM
      1 ****        -2.9115  -2.3206   5.5983 C.3            1 S1                 0.0000
      2 ****        -3.4765  -1.0289   4.9851 C.3            1 S1                 0.0000
      3 ****        -3.4196  -0.9993   3.4945 N.4            1 S1                 1.0000
      4 ****        -2.0154  -1.0464   2.9935 C.3            1 S1                 0.0000
      5 ****        -1.9442  -1.0929   1.4586 C.3            1 S1                 0.0000
      6 ****        -2.6558   0.1179   0.8220 C.3            1 S1                 0.0000
      7 ****        -1.9847   1.4019   1.0839 N.3            1 S1                 0.0000
      8 ****        -2.6376   2.6106   0.5898 C.3            1 S1                 0.0000
      9 ****        -0.6662   1.4249   0.7852 C.ar           1 S1                 0.0000
     10 ****         0.2022   1.5960   1.8118 N.ar           1 S1                 0.0000
     11 ****         1.5174   1.6216   1.5740 C.ar           1 S1                 0.0000
     12 ****         2.1582   1.5003   0.4091 N.ar           1 S1                 0.0000
     13 ****         1.2844   1.3333  -0.6248 C.ar           1 S1                 0.0000
     14 ****        -0.1341   1.2828  -0.5271 C.ar           1 S1                 0.0000
     15 ****        -0.6925   1.1008  -1.7863 N.2            1 S1                 0.0000
     16 ****         0.3384   1.0512  -2.5855 C.2            1 S1                 0.0000
     17 ****         1.5638   1.1764  -1.9711 N.pl3          1 S1                 0.0000
     18 ****         2.8626   1.1591  -2.6216 C.3            1 S1                 0.0000
     19 ****         3.2781  -0.2476  -3.1187 C.3            1 S1                 0.0000
     20 ****         3.2056  -1.3202  -2.0045 C.3            1 S1                 0.0000
     21 ****         4.1190  -1.0450  -0.9622 O.3            1 S1                 0.0000
     22 ****         4.6607  -0.2220  -3.8188 C.3            1 S1                 0.0000
     23 ****         4.7533   0.7067  -5.0168 C.3            1 S1                 0.0000
     24 ****         5.9908   0.1796  -5.7328 C.3            1 S1                 0.0000
     25 ****         5.9841  -1.2257  -5.5131 O.3            1 S1                 0.0000
     26 ****         5.0804  -1.5497  -4.4603 C.3            1 S1                 0.0000
     27 ****        -4.1053   0.0929   1.3417 C.3            1 S1                 0.0000
     28 ****        -4.1916   0.1332   2.8853 C.3            1 S1                 0.0000
     29 ****        -5.6800   0.1392   3.2922 C.3            1 S1                 0.0000
     30 ****        -3.1277  -2.3589   6.6664 H              1 S1                 0.0000
     31 ****        -1.8290  -2.3902   5.4955 H              1 S1                 0.0000
     32 ****        -3.3576  -3.2045   5.1416 H              1 S1                 0.0000
     33 ****        -4.5078  -0.9675   5.3245 H              1 S1                 0.0000
     34 ****        -2.9619  -0.1583   5.3941 H              1 S1                 0.0000
     35 ****        -1.4648  -0.1847   3.3733 H              1 S1                 0.0000
     36 ****        -1.5061  -1.9321   3.3693 H              1 S1                 0.0000
     37 ****        -0.9065  -1.1655   1.1322 H              1 S1                 0.0000
     38 ****        -2.4191  -2.0111   1.1103 H              1 S1                 0.0000
     39 ****        -2.6819  -0.0252  -0.2588 H              1 S1                 0.0000
     40 ****        -1.9574   3.4641   0.5683 H              1 S1                 0.0000
     41 ****        -3.4716   2.8797   1.2380 H              1 S1                 0.0000
     42 ****        -3.0230   2.4582  -0.4191 H              1 S1                 0.0000
     43 ****         2.1474   1.7604   2.4402 H              1 S1                 0.0000
     44 ****         0.2340   0.9189  -3.6527 H              1 S1                 0.0000
     45 ****         2.8180   1.8620  -3.4536 H              1 S1                 0.0000
     46 ****         3.6079   1.5513  -1.9288 H              1 S1                 0.0000
     47 ****         2.5457  -0.5415  -3.8721 H              1 S1                 0.0000
     48 ****         2.2021  -1.3821  -1.5834 H              1 S1                 0.0000
     49 ****         3.4231  -2.3101  -2.4049 H              1 S1                 0.0000
     50 ****         4.0407  -1.7208  -0.3065 H              1 S1                 0.0000
     51 ****         5.4284   0.0735  -3.1016 H              1 S1                 0.0000
     52 ****         3.8758   0.5971  -5.6556 H              1 S1                 0.0000
     53 ****         4.8495   1.7575  -4.7422 H              1 S1                 0.0000
     54 ****         5.9945   0.4198  -6.7961 H              1 S1                 0.0000
     55 ****         6.8943   0.5970  -5.2868 H              1 S1                 0.0000
     56 ****         5.5441  -2.2281  -3.7436 H              1 S1                 0.0000
     57 ****         4.2206  -2.0590  -4.8977 H              1 S1                 0.0000
     58 ****        -4.6797   0.9109   0.9065 H              1 S1                 0.0000
     59 ****        -4.5908  -0.8163   0.9835 H              1 S1                 0.0000
     60 ****        -3.7466   1.0676   3.2315 H              1 S1                 0.0000
     61 ****        -6.2386   0.8744   2.7120 H              1 S1                 0.0000
     62 ****        -5.8260   0.4114   4.3368 H              1 S1                 0.0000
     63 ****        -6.1448  -0.8325   3.1214 H              1 S1                 0.0000
     64 ****        -3.8672  -1.8464   3.1747 H              1 S1                 0.0000
     65 ****        -2.0820   1.4386   2.0785 LP             1 S1                 0.0000
     66 ****        -0.1404   1.7029   2.7452 LP             1 S1                 0.0000
     67 ****         3.1526   1.5283   0.3075 LP             1 S1                 0.0000
     68 ****        -1.6606   1.0253  -2.0251 LP             1 S1                 0.0000
     69 ****         3.9088  -0.1556  -0.5561 LP             1 S1                 0.0000
     70 ****         5.0508  -1.0339  -1.3250 LP             1 S1                 0.0000
     71 ****         6.9046  -1.5263  -5.2637 LP             1 S1                 0.0000
     72 ****         5.6971  -1.6905  -6.3507 LP             1 S1                 0.0000
@<TRIPOS>BOND
    1    1    2 1     
    2    1   30 1     
    3    1   31 1     
    4    1   32 1     
    5    2    3 1     
    6    2   33 1     
    7    2   34 1     
    8    3   28 1     
    9    3    4 1     
   10    3   64 1     
   11    4    5 1     
   12    4   35 1     
   13    4   36 1     
   14    5    6 1     
   15    5   37 1     
   16    5   38 1     
   17    6    7 1     
   18    6   27 1     
   19    6   39 1     
   20    7    8 1     
   21    7    9 1     
   22    8   40 1     
   23    8   41 1     
   24    8   42 1     
   25    9   14 ar    
   26    9   10 ar    
   27   10   11 ar    
   28   11   12 ar    
   29   11   43 1     
   30   12   13 ar    
   31   13   17 1     
   32   13   14 ar    
   33   14   15 1     
   34   15   16 2     
   35   16   17 1     
   36   16   44 1     
   37   17   18 1     
   38   18   19 1     
   39   18   45 1     
   40   18   46 1     
   41   19   20 1     
   42   19   22 1     
   43   19   47 1     
   44   20   21 1     
   45   20   48 1     
   46   20   49 1     
   47   21   50 1     
   48   22   26 1     
   49   22   23 1     
   50   22   51 1     
   51   23   24 1     
   52   23   52 1     
   53   23   53 1     
   54   24   25 1     
   55   24   54 1     
   56   24   55 1     
   57   25   26 1     
   58   26   56 1     
   59   26   57 1     
   60   27   28 1     
   61   27   58 1     
   62   27   59 1     
   63   28   29 1     
   64   28   60 1     
   65   29   61 1     
   66   29   62 1     
   67   29   63 1     
   68    7   65 1     
   69   10   66 1     
   70   12   67 1     
   71   15   68 1     
   72   21   69 1     
   73   21   70 1     
   74   25   71 1     
   75   25   72 1     
@<TRIPOS>SUBSTRUCTURE
      1 S1             1
@<TRIPOS>SET
LONE_PAIRS      STATIC     ATOMS    <user>   **** ""
8 65 66 67 68 69 70 71 72
DONOR_HYDROGENS      STATIC     ATOMS    <user>   **** ""
2 64 50
ATOM$BLUE        STATIC     ATOMS    COLORGROUP SYSTEM
8 65 66 67 68 69 70 71 72
ATOM$RED        STATIC     ATOMS    COLORGROUP SYSTEM
2 64 50
