AV-unprocessed.smi:3280|AV-procd|sdf|12552|dock2
  -GOLD-   2272018473D 1   1.00000     0.00000
 Structure written by MMmdl.
 39 40  0  0  0  0  0  0  0  0  2 V2000
  143.6879  143.7582  163.0994 C   0  0  0  0  0  0  0  0  0  0  0  0
  143.5014  143.7730  161.5746 C   0  0  0  0  0  0  0  0  0  0  0  0
  142.3046  142.9303  161.1097 C   0  0  0  0  0  0  0  0  0  0  0  0
  144.7591  143.3908  160.8557 C   0  0  0  0  0  0  0  0  0  0  0  0
  145.8628  143.0707  161.5221 N   0  0  0  0  0  0  0  0  0  0  0  0
  146.7928  142.8085  160.5066 O   0  0  0  0  0  0  0  0  0  0  0  0
  146.1268  142.9882  159.3415 C   0  0  0  0  0  0  0  0  0  0  0  0
  146.8681  142.8302  158.0566 C   0  0  0  0  0  0  0  0  0  0  0  0
  148.3374  142.4480  158.2751 C   0  0  0  0  0  0  0  0  0  0  0  0
  149.2307  143.5894  157.9830 N   0  3  0  0  0  0  0  0  0  0  0  0
  150.6808  143.3083  158.0846 C   0  0  2  0  0  0  0  0  0  0  0  0
  150.9264  142.3431  159.2615 C   0  0  0  0  0  0  0  0  0  0  0  0
  152.3976  141.9169  159.3935 C   0  0  0  0  0  0  0  0  0  0  0  0
  153.3317  143.1074  159.6468 C   0  0  0  0  0  0  0  0  0  0  0  0
  153.2805  144.2792  158.2656 S   0  0  0  0  0  0  0  0  0  0  0  0
  151.4969  144.6080  158.2494 C   0  0  0  0  0  0  0  0  0  0  0  0
  144.8635  143.3733  159.4966 N   0  0  0  0  0  0  0  0  0  0  0  0
  144.5006  144.4194  163.4023 H   0  0  0  0  0  0  0  0  0  0  0  0
  143.9202  142.7563  163.4618 H   0  0  0  0  0  0  0  0  0  0  0  0
  142.7832  144.0929  163.6076 H   0  0  0  0  0  0  0  0  0  0  0  0
  143.2744  144.8059  161.3045 H   0  0  0  0  0  0  0  0  0  0  0  0
  142.1554  143.0221  160.0333 H   0  0  0  0  0  0  0  0  0  0  0  0
  141.3849  143.2518  161.5988 H   0  0  0  0  0  0  0  0  0  0  0  0
  142.4498  141.8740  161.3379 H   0  0  0  0  0  0  0  0  0  0  0  0
  146.3654  142.0695  157.4577 H   0  0  0  0  0  0  0  0  0  0  0  0
  146.7999  143.7654  157.4989 H   0  0  0  0  0  0  0  0  0  0  0  0
  148.4831  142.1282  159.3080 H   0  0  0  0  0  0  0  0  0  0  0  0
  148.5939  141.6038  157.6350 H   0  0  0  0  0  0  0  0  0  0  0  0
  149.0286  143.9433  157.0587 H   0  0  0  0  0  0  0  0  0  0  0  0
  150.9890  142.8071  157.1656 H   0  0  0  0  0  0  0  0  0  0  0  0
  150.5971  142.8033  160.1943 H   0  0  0  0  0  0  0  0  0  0  0  0
  150.3149  141.4492  159.1317 H   0  0  0  0  0  0  0  0  0  0  0  0
  152.4927  141.2067  160.2154 H   0  0  0  0  0  0  0  0  0  0  0  0
  152.7124  141.3859  158.4943 H   0  0  0  0  0  0  0  0  0  0  0  0
  153.0513  143.6249  160.5649 H   0  0  0  0  0  0  0  0  0  0  0  0
  154.3580  142.7624  159.7746 H   0  0  0  0  0  0  0  0  0  0  0  0
  151.3057  145.3020  157.4318 H   0  0  0  0  0  0  0  0  0  0  0  0
  151.2230  145.1197  159.1727 H   0  0  0  0  0  0  0  0  0  0  0  0
  149.0179  144.3129  158.6550 H   0  0  0  0  0  0  0  0  0  0  0  0
  1  2  1  0  0  0  0
  1 18  1  0  0  0  0
  1 19  1  0  0  0  0
  1 20  1  0  0  0  0
  2  3  1  0  0  0  0
  2  4  1  0  0  0  0
  2 21  1  0  0  0  0
  3 22  1  0  0  0  0
  3 23  1  0  0  0  0
  3 24  1  0  0  0  0
  4 17  1  0  0  0  0
  4  5  2  0  0  0  0
  5  6  1  0  0  0  0
  6  7  1  0  0  0  0
  7  8  1  0  0  0  0
  7 17  2  0  0  0  0
  8  9  1  0  0  0  0
  8 25  1  0  0  0  0
  8 26  1  0  0  0  0
  9 10  1  0  0  0  0
  9 27  1  0  0  0  0
  9 28  1  0  0  0  0
 10 11  1  0  0  0  0
 10 29  1  0  0  0  0
 10 39  1  0  0  0  0
 11 16  1  0  0  0  0
 11 12  1  0  0  0  0
 11 30  1  0  0  0  0
 12 13  1  0  0  0  0
 12 31  1  0  0  0  0
 12 32  1  0  0  0  0
 13 14  1  0  0  0  0
 13 33  1  0  0  0  0
 13 34  1  0  0  0  0
 14 15  1  0  0  0  0
 14 35  1  0  0  0  0
 14 36  1  0  0  0  0
 15 16  1  0  0  0  0
 16 37  1  0  0  0  0
 16 38  1  0  0  0  0
M  CHG  1  10   1
M  END
> <s_m_source_file>
AV-unprocessed.smi

> <i_m_source_file_index>
3280

> <i_lp_mmshare_version>
43012

> <i_f3d_flags>
0

> <s_epik_input>
W0NIM11bQ0hdKFtDSDNdKWMxbm9jKG4xKVtDSDJdW0NIMl1bTkhdW0NAQEhdMltDSDJdW0NIMl1bQ0gyXVNbQ0gyXTI=

> <s_epik_cmdline>
J2VwaWtfcHl0aG9uJywgJy1waCcsICc3LjAnLCAnLXRuJywgJzgnLCAnLW1hJywgJzIwMCcsICctbWV0YWxfYmluZGluZycsICctaW1hZScsICc8aW5maWxlLm1hZT4nLCAnLW9tYWUnLCAnPG91dGZpbGUubWFlPic=

> <r_lp_tautomer_probability>
1

> <r_epik_Ionization_Penalty>
0.0103043

> <r_epik_Ionization_Penalty_Charging>
0.0103043

> <r_epik_Ionization_Penalty_Neutral>
2.61801e-13

> <r_epik_State_Penalty>
0.0078728

> <r_epik_Charging_Adjusted_Penalty>
0.0181771

> <i_epik_Tot_Q>
1

> <i_epik_Tot_abs_Q>
1

> <r_epik_Metal_State_Penalty>
0.0078728

> <b_epik_Metal_Only>
0

> <s_lp_Force_Field>
OPLS_2005

> <r_lp_Energy>
0.790669

> <b_lp_Chiralities_Consistent>
1

> <s_lp_Variant>
AV-unprocessed.smi:3280-1

> <Gold.Version>
5.8.1

> <Gold.Id.Protein>
6NUR|6NUR_protein|mol2

> <Gold.PLP.Fitness>
39.2470

> <Gold.PLP.PLP>
-28.7999

> <Gold.PLP.part.hbond>
-4.0000

> <Gold.PLP.part.metal>
0.0000

> <Gold.PLP.part.buried>
-2.3756

> <Gold.PLP.part.nonpolar>
-23.2060

> <Gold.PLP.part.repulsive>
0.1025

> <Gold.PLP.ligand.clash>
0.0000

> <Gold.PLP.ligand.torsion>
0.5903

> <Gold.PLP.Chemscore.Hbond>
3.8323

> <Gold.PLP.Chemscore.CHOScore>
0.0000

> <Gold.PLP.Chemscore.Metal>
0.0000

> <Gold.Chemscore.Hbonds>
donor molecule, donor type, donor heavy atom, donor atom, acceptor molecule, acceptor atom, score
      L1  H    10    29       P1  8028  1.90
      P1  H  6933  6944       L1     6  0.88
      P1  H  6934  6946       L1     6  0.88

> <Gold.PLP.Chemscore.Internal.Correction>
0.1307

> <Gold.Rescore>
     Score         DG    S(hbond)    S(metal)    S(lipo)     H(rot)  DE(clash)    DE(int)     intcor
     15.51     -17.61       1.81        0.00      90.56       1.76       1.23       0.87       ----

> <Gold.Chemscore.Fitness>
15.5084

> <Gold.Chemscore.DG>
-17.6076

> <Gold.Chemscore.ZeroCoef>
-5.4800

> <Gold.Chemscore.Hbond>
1.8054

> <Gold.Chemscore.Metal>
0.0000

> <Gold.Chemscore.Lipo>
90.5629

> <Gold.Chemscore.Internal_Hbond>
0.0000

> <Gold.Chemscore.DEClash>
1.2333

> <Gold.Chemscore.DEInternal>
0.8659

> <Gold.Chemscore.Rot>
1.7572

> <Gold.Chemscore.Internal.Correction>
   9.000000E+99

> <Gold.Chemscore.Hbonds>
donor molecule, donor type, donor heavy atom, donor atom, acceptor molecule, acceptor atom, score
      L1  H    10    29       P1  8028  0.21
      P1  H  6933  6944       L1     6  0.42
      P1  H  6934  6946       L1     6  0.10

> <Gold.Chemscore.Hbond.Weighted>
-6.0301

> <Gold.Chemscore.Metal.Weighted>
-0.0000

> <Gold.Chemscore.Lipo.Weighted>
-10.5959

> <Gold.Chemscore.Internal_Hbond.Weighted>
0.0000

> <Gold.Chemscore.DEClash.Weighted>
1.2333

> <Gold.Chemscore.DEInternal.Weighted>
0.8659

> <Gold.Chemscore.Rot.Weighted>
4.4984

> <Gold.Chemscore.Internal.Correction.Weighted>
   9.000000E+99

> <Gold.Protein.RotatedTorsions>
[ 6907 6896 6895 6894 ] final  124.47 input  -60.11 | X-H torsion
[ 7974 7965 7964 7962 ] final -172.02 input  175.53 | X-H torsion
[ 8008 7997 7996 7995 ] final  -45.11 input   59.86 | X-H torsion
[ 10167 10162 10161 10158 ] final   30.15 input  -65.29 | X-H torsion
[ 10718 10713 10712 10709 ] final   92.80 input   66.30 | X-H torsion
[ 10763 10752 10751 10750 ] final -147.12 input  -60.55 | X-H torsion
[ 11005 11000 10999 10996 ] final  -42.63 input  -57.11 | X-H torsion

> <Gold.Protein.ActiveResidues>
 VAL166  LYS551  ARG553  GLY616  TRP617  ASP618  TYR619  PRO620  LYS621  CYS622 
 ASP623  PHE694  ASN695  SER759  ASP760  ASP761  ALA762  ILE779  LEU786  VAL792 
 PHE793  MET794  SER795  GLU796  ALA797  LYS798  CYS799  TRP800  GLU811  SER814 

> <Gold.Protein.RotatedAtoms>
  152.4075  133.6912  159.6368 H   0  0  0  0  0  0  0  0  0  0  0  0  # atno 6907 bound_to 6896
  150.7959  133.8682  159.3260 H   0  0  0  0  0  0  0  0  0  0  0  0  # atno 6908 bound_to 6896
  151.6433  135.1012  160.0197 H   0  0  0  0  0  0  0  0  0  0  0  0  # atno 6909 bound_to 6896
  144.7150  140.1835  143.6356 H   0  0  0  0  0  0  0  0  0  0  0  0  # atno 7974 bound_to 7965
  154.3999  140.1405  156.3793 H   0  0  0  0  0  0  0  0  0  0  0  0  # atno 8008 bound_to 7997
  155.8018  140.3475  155.5387 H   0  0  0  0  0  0  0  0  0  0  0  0  # atno 8009 bound_to 7997
  155.8475  140.0936  157.1686 H   0  0  0  0  0  0  0  0  0  0  0  0  # atno 8010 bound_to 7997
  140.4703  144.0772  150.6235 H   0  0  0  0  0  0  0  0  0  0  0  0  # atno 10167 bound_to 10162
  157.6957  131.0456  150.3937 H   0  0  0  0  0  0  0  0  0  0  0  0  # atno 10718 bound_to 10713
  154.8302  135.3368  154.6769 H   0  0  0  0  0  0  0  0  0  0  0  0  # atno 10763 bound_to 10752
  153.7390  135.6947  153.4976 H   0  0  0  0  0  0  0  0  0  0  0  0  # atno 10764 bound_to 10752
  153.2258  135.4433  155.0491 H   0  0  0  0  0  0  0  0  0  0  0  0  # atno 10765 bound_to 10752
  141.0329  133.6812  156.2622 H   0  0  0  0  0  0  0  0  0  0  0  0  # atno 11005 bound_to 11000
  145.8834  139.2335  143.1592 LP  0  0  0  0  0  0  0  0  0  0  0  0  # atno 17320 bound_to 7965
  145.9973  140.8551  143.0036 LP  0  0  0  0  0  0  0  0  0  0  0  0  # atno 17321 bound_to 7965
  140.3985  143.2716  151.9976 LP  0  0  0  0  0  0  0  0  0  0  0  0  # atno 17342 bound_to 10162
  139.4817  144.6018  151.7592 LP  0  0  0  0  0  0  0  0  0  0  0  0  # atno 17343 bound_to 10162
  156.4338  130.3977  149.6743 LP  0  0  0  0  0  0  0  0  0  0  0  0  # atno 17370 bound_to 10713
  156.3951  130.7646  151.2650 LP  0  0  0  0  0  0  0  0  0  0  0  0  # atno 17371 bound_to 10713
  140.6374  134.5201  157.5566 LP  0  0  0  0  0  0  0  0  0  0  0  0  # atno 17394 bound_to 11000
  139.9220  134.8129  156.1182 LP  0  0  0  0  0  0  0  0  0  0  0  0  # atno 17395 bound_to 11000

$$$$
