AV-unprocessed.smi:3287|AV-procd|sdf|12595|dock4
  -GOLD-   2272018523D 1   1.00000     0.00000
 Structure written by MMmdl.
 43 44  0  0  0  0  0  0  0  0  2 V2000
  149.3107  137.8857  156.8224 C   0  0  0  0  0  0  0  0  0  0  0  0
  148.9957  138.5370  155.4605 C   0  0  1  0  0  0  0  0  0  0  0  0
  148.0267  139.7282  155.6089 C   0  0  0  0  0  0  0  0  0  0  0  0
  148.7067  140.9615  156.2276 C   0  0  0  0  0  0  0  0  0  0  0  0
  149.9470  141.3872  155.4221 C   0  0  1  0  0  0  0  0  0  0  0  0
  150.5815  142.5612  156.0620 N   0  3  0  0  0  0  0  0  0  0  0  0
  150.9154  142.3990  157.4940 C   0  0  0  0  0  0  0  0  0  0  0  0
  151.5950  143.6570  158.0619 C   0  0  1  0  0  0  0  0  0  0  0  0
  150.6827  144.7362  158.0001 O   0  0  0  0  0  0  0  0  0  0  0  0
  152.0914  143.4168  159.4793 C   0  0  0  0  0  0  0  0  0  0  0  0
  151.7395  144.2859  160.5351 C   0  0  0  0  0  0  0  0  0  0  0  0
  152.2232  144.0055  161.8286 C   0  0  0  0  0  0  0  0  0  0  0  0
  153.0059  142.9431  162.1129 N   0  0  0  0  0  0  0  0  0  0  0  0
  153.3373  142.1138  161.1006 C   0  0  0  0  0  0  0  0  0  0  0  0
  152.9074  142.3039  159.7719 C   0  0  0  0  0  0  0  0  0  0  0  0
  150.9307  140.2055  155.2822 C   0  0  0  0  0  0  0  0  0  0  0  0
  150.2498  138.9698  154.6587 C   0  0  1  0  0  0  0  0  0  0  0  0
  151.2488  137.8245  154.4248 C   0  0  0  0  0  0  0  0  0  0  0  0
  149.8922  138.5415  157.4693 H   0  0  0  0  0  0  0  0  0  0  0  0
  149.8704  136.9586  156.7015 H   0  0  0  0  0  0  0  0  0  0  0  0
  148.3925  137.6323  157.3529 H   0  0  0  0  0  0  0  0  0  0  0  0
  148.4771  137.7786  154.8724 H   0  0  0  0  0  0  0  0  0  0  0  0
  147.6353  139.9954  154.6265 H   0  0  0  0  0  0  0  0  0  0  0  0
  147.1617  139.4398  156.2072 H   0  0  0  0  0  0  0  0  0  0  0  0
  147.9918  141.7841  156.2706 H   0  0  0  0  0  0  0  0  0  0  0  0
  148.9868  140.7482  157.2599 H   0  0  0  0  0  0  0  0  0  0  0  0
  149.6119  141.6873  154.4279 H   0  0  0  0  0  0  0  0  0  0  0  0
  151.4445  142.7466  155.5712 H   0  0  0  0  0  0  0  0  0  0  0  0
  150.0156  142.1707  158.0657 H   0  0  0  0  0  0  0  0  0  0  0  0
  151.5873  141.5460  157.6005 H   0  0  0  0  0  0  0  0  0  0  0  0
  152.4506  143.9181  157.4372 H   0  0  0  0  0  0  0  0  0  0  0  0
  150.2961  144.7523  157.1371 H   0  0  0  0  0  0  0  0  0  0  0  0
  151.1125  145.1489  160.3639 H   0  0  0  0  0  0  0  0  0  0  0  0
  151.9718  144.6506  162.6575 H   0  0  0  0  0  0  0  0  0  0  0  0
  153.9623  141.2714  161.3573 H   0  0  0  0  0  0  0  0  0  0  0  0
  153.2003  141.6074  159.0000 H   0  0  0  0  0  0  0  0  0  0  0  0
  151.7740  140.4924  154.6543 H   0  0  0  0  0  0  0  0  0  0  0  0
  151.3502  139.9512  156.2564 H   0  0  0  0  0  0  0  0  0  0  0  0
  149.8987  139.2696  153.6698 H   0  0  0  0  0  0  0  0  0  0  0  0
  151.7264  137.5077  155.3520 H   0  0  0  0  0  0  0  0  0  0  0  0
  152.0396  138.1319  153.7402 H   0  0  0  0  0  0  0  0  0  0  0  0
  150.7563  136.9562  153.9862 H   0  0  0  0  0  0  0  0  0  0  0  0
  149.9770  143.3636  155.9553 H   0  0  0  0  0  0  0  0  0  0  0  0
  1  2  1  0  0  0  0
  1 19  1  0  0  0  0
  1 20  1  0  0  0  0
  1 21  1  0  0  0  0
  2 17  1  0  0  0  0
  2  3  1  0  0  0  0
  2 22  1  0  0  0  0
  3  4  1  0  0  0  0
  3 23  1  0  0  0  0
  3 24  1  0  0  0  0
  4  5  1  0  0  0  0
  4 25  1  0  0  0  0
  4 26  1  0  0  0  0
  5  6  1  0  0  0  0
  5 16  1  0  0  0  0
  5 27  1  0  0  0  0
  6  7  1  0  0  0  0
  6 28  1  0  0  0  0
  6 43  1  0  0  0  0
  7  8  1  0  0  0  0
  7 29  1  0  0  0  0
  7 30  1  0  0  0  0
  8  9  1  0  0  0  0
  8 10  1  0  0  0  0
  8 31  1  0  0  0  0
  9 32  1  0  0  0  0
 10 15  1  0  0  0  0
 10 11  2  0  0  0  0
 11 12  1  0  0  0  0
 11 33  1  0  0  0  0
 12 13  2  0  0  0  0
 12 34  1  0  0  0  0
 13 14  1  0  0  0  0
 14 15  2  0  0  0  0
 14 35  1  0  0  0  0
 15 36  1  0  0  0  0
 16 17  1  0  0  0  0
 16 37  1  0  0  0  0
 16 38  1  0  0  0  0
 17 18  1  0  0  0  0
 17 39  1  0  0  0  0
 18 40  1  0  0  0  0
 18 41  1  0  0  0  0
 18 42  1  0  0  0  0
M  CHG  1   6   1
M  END
> <s_m_source_file>
AV-unprocessed.smi

> <i_m_source_file_index>
3287

> <i_lp_mmshare_version>
43012

> <i_f3d_flags>
0

> <s_epik_input>
W0NIM11bQ0BASF0xW0NIMl1bQ0gyXVtDQEhdKFtDSDJdW0NASF0xW0NIM10pW05IXVtDSDJdW0NASF0oW09IXSljMltjSF1bY0hdbltjSF1bY0hdMg==

> <s_epik_cmdline>
J2VwaWtfcHl0aG9uJywgJy1waCcsICc3LjAnLCAnLXRuJywgJzgnLCAnLW1hJywgJzIwMCcsICctbWV0YWxfYmluZGluZycsICctaW1hZScsICc8aW5maWxlLm1hZT4nLCAnLW9tYWUnLCAnPG91dGZpbGUubWFlPic=

> <r_lp_tautomer_probability>
1

> <r_epik_Ionization_Penalty>
0.00537262

> <r_epik_Ionization_Penalty_Charging>
0.00321624

> <r_epik_Ionization_Penalty_Neutral>
0.00215638

> <r_epik_State_Penalty>
-0

> <r_epik_Charging_Adjusted_Penalty>
0.00321624

> <i_epik_Tot_Q>
1

> <i_epik_Tot_abs_Q>
1

> <r_epik_Metal_State_Penalty>
-0

> <b_epik_Metal_Only>
0

> <s_lp_Force_Field>
OPLS_2005

> <r_lp_Energy>
17.7653

> <b_lp_Chiralities_Consistent>
1

> <s_lp_Variant>
AV-unprocessed.smi:3287-6

> <Gold.Version>
5.8.1

> <Gold.Id.Protein>
6NUR|6NUR_protein|mol2

> <Gold.PLP.Fitness>
49.4131

> <Gold.PLP.PLP>
-40.6710

> <Gold.PLP.part.hbond>
-2.6564

> <Gold.PLP.part.metal>
0.0000

> <Gold.PLP.part.buried>
-2.9535

> <Gold.PLP.part.nonpolar>
-35.7287

> <Gold.PLP.part.repulsive>
0.2100

> <Gold.PLP.ligand.clash>
0.0000

> <Gold.PLP.ligand.torsion>
0.1393

> <Gold.PLP.Chemscore.Hbond>
3.0000

> <Gold.PLP.Chemscore.CHOScore>
0.0000

> <Gold.PLP.Chemscore.Metal>
0.0000

> <Gold.Chemscore.Hbonds>
donor molecule, donor type, donor heavy atom, donor atom, acceptor molecule, acceptor atom, score
      L1  H     6    43       P1  8028  2.00
      L1  H     9    32       P1  8028  1.00

> <Gold.PLP.Chemscore.Internal.Correction>
0.0206

> <Gold.Rescore>
     Score         DG    S(hbond)    S(metal)    S(lipo)     H(rot)  DE(clash)    DE(int)     intcor
     19.64     -19.93       1.73        0.00     115.78       1.90       0.19       0.10       ----

> <Gold.Chemscore.Fitness>
19.6442

> <Gold.Chemscore.DG>
-19.9281

> <Gold.Chemscore.ZeroCoef>
-5.4800

> <Gold.Chemscore.Hbond>
1.7290

> <Gold.Chemscore.Metal>
0.0000

> <Gold.Chemscore.Lipo>
115.7774

> <Gold.Chemscore.Internal_Hbond>
0.0000

> <Gold.Chemscore.DEClash>
0.1873

> <Gold.Chemscore.DEInternal>
0.0966

> <Gold.Chemscore.Rot>
1.9035

> <Gold.Chemscore.Internal.Correction>
   9.000000E+99

> <Gold.Chemscore.Hbonds>
donor molecule, donor type, donor heavy atom, donor atom, acceptor molecule, acceptor atom, score
      L1  H     6    43       P1  8028  1.00
      L1  H     9    32       P1  8028  0.38

> <Gold.Chemscore.Hbond.Weighted>
-5.7750

> <Gold.Chemscore.Metal.Weighted>
-0.0000

> <Gold.Chemscore.Lipo.Weighted>
-13.5460

> <Gold.Chemscore.Internal_Hbond.Weighted>
0.0000

> <Gold.Chemscore.DEClash.Weighted>
0.1873

> <Gold.Chemscore.DEInternal.Weighted>
0.0966

> <Gold.Chemscore.Rot.Weighted>
4.8729

> <Gold.Chemscore.Internal.Correction.Weighted>
   9.000000E+99

> <Gold.Protein.RotatedTorsions>
[ 6907 6896 6895 6894 ] final  -89.33 input  -60.11 | X-H torsion
[ 7974 7965 7964 7962 ] final  172.28 input  175.53 | X-H torsion
[ 8008 7997 7996 7995 ] final  -37.63 input   59.86 | X-H torsion
[ 10167 10162 10161 10158 ] final   12.42 input  -65.29 | X-H torsion
[ 10718 10713 10712 10709 ] final  155.52 input   66.30 | X-H torsion
[ 10763 10752 10751 10750 ] final  142.43 input  -60.55 | X-H torsion
[ 11005 11000 10999 10996 ] final -137.27 input  -57.11 | X-H torsion

> <Gold.Protein.ActiveResidues>
 VAL166  LYS551  ARG553  GLY616  TRP617  ASP618  TYR619  PRO620  LYS621  CYS622 
 ASP623  PHE694  ASN695  SER759  ASP760  ASP761  ALA762  ILE779  LEU786  VAL792 
 PHE793  MET794  SER795  GLU796  ALA797  LYS798  CYS799  TRP800  GLU811  SER814 

> <Gold.Protein.RotatedAtoms>
  150.6873  134.2604  159.4546 H   0  0  0  0  0  0  0  0  0  0  0  0  # atno 6907 bound_to 6896
  152.0534  134.9637  160.0584 H   0  0  0  0  0  0  0  0  0  0  0  0  # atno 6908 bound_to 6896
  152.1092  133.4257  159.4660 H   0  0  0  0  0  0  0  0  0  0  0  0  # atno 6909 bound_to 6896
  144.7272  139.9475  143.6431 H   0  0  0  0  0  0  0  0  0  0  0  0  # atno 7974 bound_to 7965
  154.4050  140.1599  156.2569 H   0  0  0  0  0  0  0  0  0  0  0  0  # atno 8008 bound_to 7997
  155.9071  140.3429  155.6047 H   0  0  0  0  0  0  0  0  0  0  0  0  # atno 8009 bound_to 7997
  155.7380  140.0789  157.2249 H   0  0  0  0  0  0  0  0  0  0  0  0  # atno 8010 bound_to 7997
  140.6069  143.8490  150.7023 H   0  0  0  0  0  0  0  0  0  0  0  0  # atno 10167 bound_to 10162
  157.2172  131.0710  151.1934 H   0  0  0  0  0  0  0  0  0  0  0  0  # atno 10718 bound_to 10713
  153.9557  135.2965  155.3436 H   0  0  0  0  0  0  0  0  0  0  0  0  # atno 10763 bound_to 10752
  154.7402  135.5028  153.9113 H   0  0  0  0  0  0  0  0  0  0  0  0  # atno 10764 bound_to 10752
  153.0972  135.6724  153.9850 H   0  0  0  0  0  0  0  0  0  0  0  0  # atno 10765 bound_to 10752
  140.8726  134.2031  157.4641 H   0  0  0  0  0  0  0  0  0  0  0  0  # atno 11005 bound_to 11000
  146.0737  139.3726  143.0507 LP  0  0  0  0  0  0  0  0  0  0  0  0  # atno 17320 bound_to 7965
  145.7933  140.9804  143.1037 LP  0  0  0  0  0  0  0  0  0  0  0  0  # atno 17321 bound_to 7965
  140.2049  143.3930  152.1763 LP  0  0  0  0  0  0  0  0  0  0  0  0  # atno 17342 bound_to 10162
  139.5331  144.7181  151.4985 LP  0  0  0  0  0  0  0  0  0  0  0  0  # atno 17343 bound_to 10162
  157.3612  130.7132  149.6503 LP  0  0  0  0  0  0  0  0  0  0  0  0  # atno 17370 bound_to 10713
  155.9685  130.4225  150.4518 LP  0  0  0  0  0  0  0  0  0  0  0  0  # atno 17371 bound_to 10713
  139.8713  134.9781  156.4985 LP  0  0  0  0  0  0  0  0  0  0  0  0  # atno 17394 bound_to 11000
  140.8555  133.8099  155.9211 LP  0  0  0  0  0  0  0  0  0  0  0  0  # atno 17395 bound_to 11000

$$$$
