#       Name:                AV-unprocessed.smi:2063
#       Creating user name   scv26
#       Creation time:       Fri Mar 27 11:10:34 2020


#       File generated by GOLD software.
#

@<TRIPOS>MOLECULE
AV-unprocessed.smi:2063
    45    46     1
SMALL
NO_CHARGES


@<TRIPOS>ATOM
      1 ****        -6.0446   2.9975   0.7067 C.3            1 S1                 0.0000
      2 ****        -5.4296   1.7826  -0.0031 C.3            1 S1                 0.0000
      3 ****        -6.3495   0.5533  -0.0007 C.3            1 S1                 0.0000
      4 ****        -4.0602   1.4627   0.5097 C.2            1 S1                 0.0000
      5 ****        -3.8228   1.0733   1.7663 N.2            1 S1                 0.0000
      6 ****        -2.4758   0.8347   1.9961 N.2            1 S1                 0.0000
      7 ****        -1.7139   1.0362   0.9122 C.2            1 S1                 0.0000
      8 ****        -0.3819   0.8631   0.9260 N.pl3          1 S1                -1.0000
      9 ****         0.1564  -0.2833   0.4512 C.2            1 S1                 0.0000
     10 ****        -0.4624  -1.2413  -0.0181 O.2            1 S1                 0.0000
     11 ****         1.4948  -0.3208   0.5255 N.am           1 S1                 0.0000
     12 ****         2.3560  -1.4152   0.0825 C.3            1 S1                 0.0000
     13 ****         2.4233  -2.4976   1.1751 C.3            1 S1                 0.0000
     14 ****         3.7474  -0.8503  -0.2624 C.3            1 S1                 0.0000
     15 ****         4.7376  -1.8743  -0.8217 C.3            1 S1                 0.0000
     16 ****         5.6826  -1.0416  -1.6753 C.3            1 S1                 0.0000
     17 ****         4.9826   0.3142  -1.7951 C.3            1 S1                 0.0000
     18 ****         3.6621   0.0844  -1.3279 O.3            1 S1                 0.0000
     19 ****        -2.6265   1.5694  -0.4991 S.3            1 S1                 0.0000
     20 ****        -5.4013   3.8729   0.6126 H              1 S1                 0.0000
     21 ****        -6.1907   2.8039   1.7699 H              1 S1                 0.0000
     22 ****        -7.0145   3.2525   0.2793 H              1 S1                 0.0000
     23 ****        -5.3064   2.0700  -1.0481 H              1 S1                 0.0000
     24 ****        -5.9179  -0.2600  -0.5848 H              1 S1                 0.0000
     25 ****        -7.3225   0.7900  -0.4319 H              1 S1                 0.0000
     26 ****        -6.5156   0.1845   1.0119 H              1 S1                 0.0000
     27 ****         1.9561   0.4890   0.9127 H              1 S1                 0.0000
     28 ****         1.9336  -1.8564  -0.8221 H              1 S1                 0.0000
     29 ****         3.0261  -3.3477   0.8562 H              1 S1                 0.0000
     30 ****         1.4306  -2.8795   1.4153 H              1 S1                 0.0000
     31 ****         2.8594  -2.1053   2.0945 H              1 S1                 0.0000
     32 ****         4.1825  -0.3527   0.6068 H              1 S1                 0.0000
     33 ****         5.2553  -2.4267  -0.0372 H              1 S1                 0.0000
     34 ****         4.2185  -2.5961  -1.4539 H              1 S1                 0.0000
     35 ****         6.6612  -0.9322  -1.2067 H              1 S1                 0.0000
     36 ****         5.8270  -1.5044  -2.6520 H              1 S1                 0.0000
     37 ****         5.4650   1.0534  -1.1541 H              1 S1                 0.0000
     38 ****         4.9798   0.6979  -2.8154 H              1 S1                 0.0000
     39 ****        -4.5344   0.9663   2.4607 LP             1 S1                 0.0000
     40 ****        -2.1107   0.5423   2.8799 LP             1 S1                 0.0000
     41 ****         0.2118   1.5820   1.2874 LP             1 S1                 0.0000
     42 ****        -1.4605  -1.2132  -0.0733 LP             1 S1                 0.0000
     43 ****         0.0339  -2.0462  -0.3434 LP             1 S1                 0.0000
     44 ****         3.2610   0.9402  -1.0011 LP             1 S1                 0.0000
     45 ****         3.0982  -0.2877  -2.0652 LP             1 S1                 0.0000
@<TRIPOS>BOND
    1    1    2 1     
    2    1   20 1     
    3    1   21 1     
    4    1   22 1     
    5    2    3 1     
    6    2    4 1     
    7    2   23 1     
    8    3   24 1     
    9    3   25 1     
   10    3   26 1     
   11    4   19 1     
   12    4    5 2     
   13    5    6 1     
   14    6    7 2     
   15    7    8 1     
   16    7   19 1     
   17    8    9 1     
   18    9   10 2     
   19    9   11 am    
   20   11   12 1     
   21   11   27 1     
   22   12   13 1     
   23   12   14 1     
   24   12   28 1     
   25   13   29 1     
   26   13   30 1     
   27   13   31 1     
   28   14   18 1     
   29   14   15 1     
   30   14   32 1     
   31   15   16 1     
   32   15   33 1     
   33   15   34 1     
   34   16   17 1     
   35   16   35 1     
   36   16   36 1     
   37   17   18 1     
   38   17   37 1     
   39   17   38 1     
   40    5   39 1     
   41    6   40 1     
   42    8   41 1     
   43   10   42 1     
   44   10   43 1     
   45   18   44 1     
   46   18   45 1     
@<TRIPOS>SUBSTRUCTURE
      1 S1             1
@<TRIPOS>SET
LONE_PAIRS      STATIC     ATOMS    <user>   **** ""
7 39 40 41 42 43 44 45
DONOR_HYDROGENS      STATIC     ATOMS    <user>   **** ""
1 27
ATOM$BLUE        STATIC     ATOMS    COLORGROUP SYSTEM
7 39 40 41 42 43 44 45
ATOM$RED        STATIC     ATOMS    COLORGROUP SYSTEM
1 27
