#       Name:                AV-unprocessed.smi:240
#       Creating user name   scv26
#       Creation time:       Thu Mar 26 20:42:12 2020


#       File generated by GOLD software.
#

@<TRIPOS>MOLECULE
AV-unprocessed.smi:240
    67    71     1
SMALL
NO_CHARGES


@<TRIPOS>ATOM
      1 ****        -2.5644  -1.3200   2.0007 O.3            1 S1                 0.0000
      2 ****        -2.8331  -1.9152   0.7479 C.3            1 S1                 0.0000
      3 ****        -2.2732  -3.3369   0.6713 C.3            1 S1                 0.0000
      4 ****        -2.0782  -3.6100  -0.8262 C.3            1 S1                 0.0000
      5 ****        -2.0897  -2.2409  -1.5258 C.3            1 S1                 0.0000
      6 ****        -2.1234  -1.1903  -0.4025 C.3            1 S1                 0.0000
      7 ****        -2.6923   0.2103  -0.7865 C.3            1 S1                 0.0000
      8 ****        -4.1901   0.1898  -1.1852 C.3            1 S1                 0.0000
      9 ****        -4.6359   1.5050  -1.4962 O.3            1 S1                 0.0000
     10 ****        -3.9337   2.0551  -2.6024 C.3            1 S1                 0.0000
     11 ****        -2.4468   2.1679  -2.2420 C.3            1 S1                 0.0000
     12 ****        -1.9191   0.8659  -1.8512 N.3            1 S1                 0.0000
     13 ****        -0.5777   0.9231  -1.6900 C.ar           1 S1                 0.0000
     14 ****         0.1842   0.4492  -2.7061 N.ar           1 S1                 0.0000
     15 ****         1.5164   0.4586  -2.6026 C.ar           1 S1                 0.0000
     16 ****         2.2724   0.8912  -1.5910 N.ar           1 S1                 0.0000
     17 ****         1.5079   1.3791  -0.5721 C.ar           1 S1                 0.0000
     18 ****         0.0864   1.4394  -0.5409 C.ar           1 S1                 0.0000
     19 ****        -0.3373   2.0079   0.6541 N.2            1 S1                 0.0000
     20 ****         0.7699   2.2607   1.2966 C.2            1 S1                 0.0000
     21 ****         1.9254   1.9055   0.6379 N.pl3          1 S1                 0.0000
     22 ****         3.2874   2.0637   1.1239 C.3            1 S1                 0.0000
     23 ****         3.7362   0.9227   2.0663 C.3            1 S1                 0.0000
     24 ****         2.9460   0.9596   3.2425 O.3            1 S1                 0.0000
     25 ****         3.6297  -0.4716   1.4548 C.3            1 S1                 0.0000
     26 ****         4.7755  -1.2219   2.1190 C.3            1 S1                 0.0000
     27 ****         5.8027  -0.2459   2.1538 O.3            1 S1                 0.0000
     28 ****         5.2201   1.0135   2.4751 C.3            1 S1                 0.0000
     29 ****        -1.6283  -1.2965   2.1285 H              1 S1                 0.0000
     30 ****        -3.9102  -1.9543   0.5881 H              1 S1                 0.0000
     31 ****        -1.3040  -3.3848   1.1707 H              1 S1                 0.0000
     32 ****        -2.9250  -4.0688   1.1495 H              1 S1                 0.0000
     33 ****        -1.1438  -4.1432  -1.0047 H              1 S1                 0.0000
     34 ****        -2.8866  -4.2322  -1.2117 H              1 S1                 0.0000
     35 ****        -1.2218  -2.1094  -2.1727 H              1 S1                 0.0000
     36 ****        -2.9728  -2.1747  -2.1595 H              1 S1                 0.0000
     37 ****        -1.0913  -1.0625  -0.0723 H              1 S1                 0.0000
     38 ****        -2.6218   0.8418   0.0993 H              1 S1                 0.0000
     39 ****        -4.3769  -0.4624  -2.0382 H              1 S1                 0.0000
     40 ****        -4.8069  -0.1735  -0.3647 H              1 S1                 0.0000
     41 ****        -4.0769   1.4359  -3.4895 H              1 S1                 0.0000
     42 ****        -4.3417   3.0400  -2.8295 H              1 S1                 0.0000
     43 ****        -1.8900   2.5572  -3.0958 H              1 S1                 0.0000
     44 ****        -2.3172   2.8765  -1.4225 H              1 S1                 0.0000
     45 ****         2.0535   0.0592  -3.4503 H              1 S1                 0.0000
     46 ****         0.7747   2.7097   2.2793 H              1 S1                 0.0000
     47 ****         3.9527   2.1204   0.2614 H              1 S1                 0.0000
     48 ****         3.3623   3.0266   1.6309 H              1 S1                 0.0000
     49 ****         3.2410   0.2742   3.8226 H              1 S1                 0.0000
     50 ****         2.6585  -0.9465   1.6014 H              1 S1                 0.0000
     51 ****         3.8194  -0.4283   0.3817 H              1 S1                 0.0000
     52 ****         4.5146  -1.5217   3.1352 H              1 S1                 0.0000
     53 ****         5.0797  -2.1082   1.5618 H              1 S1                 0.0000
     54 ****         5.7523   1.7988   1.9373 H              1 S1                 0.0000
     55 ****         5.3417   1.2105   3.5416 H              1 S1                 0.0000
     56 ****        -2.9904  -1.8584   2.7278 LP             1 S1                 0.0000
     57 ****        -2.9302  -0.3894   2.0170 LP             1 S1                 0.0000
     58 ****        -4.4936   2.0916  -0.6989 LP             1 S1                 0.0000
     59 ****        -5.6109   1.4723  -1.7161 LP             1 S1                 0.0000
     60 ****        -2.0557   0.2243  -2.6060 LP             1 S1                 0.0000
     61 ****        -0.2507   0.0926  -3.5330 LP             1 S1                 0.0000
     62 ****         3.2719   0.8614  -1.5814 LP             1 S1                 0.0000
     63 ****        -1.2754   2.1831   0.9530 LP             1 S1                 0.0000
     64 ****         1.9849   0.8131   3.0082 LP             1 S1                 0.0000
     65 ****         3.0483   1.8480   3.6901 LP             1 S1                 0.0000
     66 ****         6.2481  -0.1931   1.2600 LP             1 S1                 0.0000
     67 ****         6.4782  -0.4920   2.8488 LP             1 S1                 0.0000
@<TRIPOS>BOND
    1    1    2 1     
    2    1   29 1     
    3    2    6 1     
    4    2    3 1     
    5    2   30 1     
    6    3    4 1     
    7    3   31 1     
    8    3   32 1     
    9    4    5 1     
   10    4   33 1     
   11    4   34 1     
   12    5    6 1     
   13    5   35 1     
   14    5   36 1     
   15    6    7 1     
   16    6   37 1     
   17    7   12 1     
   18    7    8 1     
   19    7   38 1     
   20    8    9 1     
   21    8   39 1     
   22    8   40 1     
   23    9   10 1     
   24   10   11 1     
   25   10   41 1     
   26   10   42 1     
   27   11   12 1     
   28   11   43 1     
   29   11   44 1     
   30   12   13 1     
   31   13   18 ar    
   32   13   14 ar    
   33   14   15 ar    
   34   15   16 ar    
   35   15   45 1     
   36   16   17 ar    
   37   17   21 1     
   38   17   18 ar    
   39   18   19 1     
   40   19   20 2     
   41   20   21 1     
   42   20   46 1     
   43   21   22 1     
   44   22   23 1     
   45   22   47 1     
   46   22   48 1     
   47   23   28 1     
   48   23   24 1     
   49   23   25 1     
   50   24   49 1     
   51   25   26 1     
   52   25   50 1     
   53   25   51 1     
   54   26   27 1     
   55   26   52 1     
   56   26   53 1     
   57   27   28 1     
   58   28   54 1     
   59   28   55 1     
   60    1   56 1     
   61    1   57 1     
   62    9   58 1     
   63    9   59 1     
   64   12   60 1     
   65   14   61 1     
   66   16   62 1     
   67   19   63 1     
   68   24   64 1     
   69   24   65 1     
   70   27   66 1     
   71   27   67 1     
@<TRIPOS>SUBSTRUCTURE
      1 S1             1
@<TRIPOS>SET
LONE_PAIRS      STATIC     ATOMS    <user>   **** ""
12 56 57 58 59 60 61 62 63 64 65 66 67
DONOR_HYDROGENS      STATIC     ATOMS    <user>   **** ""
2 29 49
ATOM$BLUE        STATIC     ATOMS    COLORGROUP SYSTEM
12 56 57 58 59 60 61 62 63 64 65 66 67
ATOM$RED        STATIC     ATOMS    COLORGROUP SYSTEM
2 29 49
