AV-unprocessed.smi:697|AV-procd|sdf|3391|dock3
  -GOLD-   22720 0373D 1   1.00000     0.00000
 Structure written by MMmdl.
 44 45  0  0  0  0  0  0  0  0  1 V2000
  147.7322  135.3938  160.9212 C   0  0  0  0  0  0  0  0  0  0  0  0
  147.3179  136.1997  159.8250 O   0  0  0  0  0  0  0  0  0  0  0  0
  148.3040  136.5199  158.8339 C   0  0  1  0  0  0  0  0  0  0  0  0
  149.5496  137.1292  159.4902 C   0  0  0  0  0  0  0  0  0  0  0  0
  148.4660  135.3473  157.8476 C   0  0  0  0  0  0  0  0  0  0  0  0
  147.2508  135.9001  157.1056 C   0  0  2  0  0  0  0  0  0  0  0  0
  147.3710  135.7733  155.6571 N   0  0  0  0  0  0  0  0  0  0  0  0
  146.3503  135.5007  154.8335 C   0  0  0  0  0  0  0  0  0  0  0  0
  145.2003  135.3098  155.2281 O   0  0  0  0  0  0  0  0  0  0  0  0
  146.7646  135.4636  153.5535 N   0  0  0  0  0  0  0  0  0  0  0  0
  146.0230  135.2542  152.3783 C   0  0  0  0  0  0  0  0  0  0  0  0
  145.7071  134.0380  151.8606 C   0  0  0  0  0  0  0  0  0  0  0  0
  144.9255  133.8967  150.6433 C   0  0  0  0  0  0  0  0  0  0  0  0
  144.6504  132.5331  150.0288 C   0  0  0  0  0  0  0  0  0  0  0  0
  143.8326  132.6299  148.9800 F   0  0  0  0  0  0  0  0  0  0  0  0
  145.7815  131.9539  149.6254 F   0  0  0  0  0  0  0  0  0  0  0  0
  144.0768  131.7378  150.9306 F   0  0  0  0  0  0  0  0  0  0  0  0
  144.5330  135.0369  150.0460 C   0  0  0  0  0  0  0  0  0  0  0  0
  144.8333  136.2901  150.5838 N   0  0  0  0  0  0  0  0  0  0  0  0
  145.5520  136.4804  151.7128 C   0  0  0  0  0  0  0  0  0  0  0  0
  145.7738  137.6195  152.1223 O   0  0  0  0  0  0  0  0  0  0  0  0
  147.6032  137.2996  157.6733 C   0  0  0  0  0  0  0  0  0  0  0  0
  146.4138  138.1846  158.0625 C   0  0  0  0  0  0  0  0  0  0  0  0
  148.5187  138.1878  156.8089 C   0  0  0  0  0  0  0  0  0  0  0  0
  144.4870  137.0981  150.0866 H   0  0  0  0  0  0  0  0  0  0  0  0
  146.8551  135.1000  161.4972 H   0  0  0  0  0  0  0  0  0  0  0  0
  148.3902  135.9415  161.5954 H   0  0  0  0  0  0  0  0  0  0  0  0
  148.2377  134.4834  160.6012 H   0  0  0  0  0  0  0  0  0  0  0  0
  150.2707  137.4738  158.7499 H   0  0  0  0  0  0  0  0  0  0  0  0
  150.0785  136.4073  160.1121 H   0  0  0  0  0  0  0  0  0  0  0  0
  149.2891  137.9838  160.1148 H   0  0  0  0  0  0  0  0  0  0  0  0
  149.3918  135.4026  157.2722 H   0  0  0  0  0  0  0  0  0  0  0  0
  148.3222  134.3489  158.2593 H   0  0  0  0  0  0  0  0  0  0  0  0
  146.3172  135.4997  157.5083 H   0  0  0  0  0  0  0  0  0  0  0  0
  148.2880  135.9106  155.2581 H   0  0  0  0  0  0  0  0  0  0  0  0
  147.7560  135.5832  153.4035 H   0  0  0  0  0  0  0  0  0  0  0  0
  146.0116  133.1271  152.3486 H   0  0  0  0  0  0  0  0  0  0  0  0
  143.9738  135.0792  149.1229 H   0  0  0  0  0  0  0  0  0  0  0  0
  145.9435  138.6337  157.1872 H   0  0  0  0  0  0  0  0  0  0  0  0
  146.7201  138.9946  158.7250 H   0  0  0  0  0  0  0  0  0  0  0  0
  145.6361  137.6204  158.5775 H   0  0  0  0  0  0  0  0  0  0  0  0
  148.0016  138.5587  155.9232 H   0  0  0  0  0  0  0  0  0  0  0  0
  149.4020  137.6530  156.4601 H   0  0  0  0  0  0  0  0  0  0  0  0
  148.8688  139.0589  157.3636 H   0  0  0  0  0  0  0  0  0  0  0  0
  1  2  1  0  0  0  0
  1 26  1  0  0  0  0
  1 27  1  0  0  0  0
  1 28  1  0  0  0  0
  2  3  1  0  0  0  0
  3 22  1  0  0  0  0
  3  4  1  0  0  0  0
  3  5  1  0  0  0  0
  4 29  1  0  0  0  0
  4 30  1  0  0  0  0
  4 31  1  0  0  0  0
  5  6  1  0  0  0  0
  5 32  1  0  0  0  0
  5 33  1  0  0  0  0
  6  7  1  0  0  0  0
  6 22  1  0  0  0  0
  6 34  1  0  0  0  0
  7  8  1  0  0  0  0
  7 35  1  0  0  0  0
  8  9  2  0  0  0  0
  8 10  1  0  0  0  0
 10 11  1  0  0  0  0
 10 36  1  0  0  0  0
 11 20  1  0  0  0  0
 11 12  2  0  0  0  0
 12 13  1  0  0  0  0
 12 37  1  0  0  0  0
 13 14  1  0  0  0  0
 13 18  2  0  0  0  0
 14 15  1  0  0  0  0
 14 16  1  0  0  0  0
 14 17  1  0  0  0  0
 18 19  1  0  0  0  0
 18 38  1  0  0  0  0
 19 25  1  0  0  0  0
 19 20  1  0  0  0  0
 20 21  2  0  0  0  0
 22 23  1  0  0  0  0
 22 24  1  0  0  0  0
 23 39  1  0  0  0  0
 23 40  1  0  0  0  0
 23 41  1  0  0  0  0
 24 42  1  0  0  0  0
 24 43  1  0  0  0  0
 24 44  1  0  0  0  0
M  END
> <s_m_source_file>
AV-unprocessed.smi

> <i_m_source_file_index>
697

> <i_lp_mmshare_version>
43012

> <i_f3d_flags>
0

> <s_epik_input>
W0NIM11PW0NAQF0xKFtDSDNdKVtDSDJdW0NASF0oQzEoW0NIM10pW0NIM10pW05IXUMoPU8pW05IXWMyW2NIXWMoQyhGKShGKUYpW2NIXVtuSF1jMj1P

> <s_epik_cmdline>
J2VwaWtfcHl0aG9uJywgJy1waCcsICc3LjAnLCAnLXRuJywgJzgnLCAnLW1hJywgJzIwMCcsICctbWV0YWxfYmluZGluZycsICctaW1hZScsICc8aW5maWxlLm1hZT4nLCAnLW9tYWUnLCAnPG91dGZpbGUubWFlPic=

> <r_lp_tautomer_probability>
1

> <r_epik_Ionization_Penalty>
0.0036482

> <r_epik_Ionization_Penalty_Charging>
0.00362828

> <r_epik_Ionization_Penalty_Neutral>
1.99208e-05

> <r_epik_State_Penalty>
-0

> <r_epik_Charging_Adjusted_Penalty>
0.00362828

> <i_epik_Tot_Q>
0

> <i_epik_Tot_abs_Q>
0

> <r_epik_Metal_State_Penalty>
0.369362

> <b_epik_Metal_Only>
0

> <s_lp_Force_Field>
OPLS_2005

> <r_lp_Energy>
34.6264

> <b_lp_Chiralities_Consistent>
1

> <s_lp_Variant>
AV-unprocessed.smi:697-3

> <Gold.Version>
5.8.1

> <Gold.Id.Protein>
6NUR|6NUR_protein|mol2

> <Gold.PLP.Fitness>
36.2427

> <Gold.PLP.PLP>
-33.2258

> <Gold.PLP.part.hbond>
-2.0000

> <Gold.PLP.part.metal>
0.0000

> <Gold.PLP.part.buried>
-2.9499

> <Gold.PLP.part.nonpolar>
-28.1843

> <Gold.PLP.part.repulsive>
0.3939

> <Gold.PLP.ligand.clash>
0.9387

> <Gold.PLP.ligand.torsion>
1.1852

> <Gold.PLP.Chemscore.Hbond>
1.7137

> <Gold.PLP.Chemscore.CHOScore>
0.2380

> <Gold.PLP.Chemscore.Metal>
0.0000

> <Gold.Chemscore.Hbonds>
donor molecule, donor type, donor heavy atom, donor atom, acceptor molecule, acceptor atom, score
      L1  H    10    36       P1  7948  0.69
      L1  H    19    25       P1 10171  1.00
      L1  C    18    38       P1  7921  0.21

> <Gold.PLP.Chemscore.Internal.Correction>
0.4708

> <Gold.Rescore>
     Score         DG    S(hbond)    S(metal)    S(lipo)     H(rot)  DE(clash)    DE(int)     intcor
     11.58     -13.96       1.76        0.00      50.89       1.31       1.12       1.26       ----

> <Gold.Chemscore.Fitness>
11.5799

> <Gold.Chemscore.DG>
-13.9601

> <Gold.Chemscore.ZeroCoef>
-5.4800

> <Gold.Chemscore.Hbond>
1.7576

> <Gold.Chemscore.Metal>
0.0000

> <Gold.Chemscore.Lipo>
50.8859

> <Gold.Chemscore.Internal_Hbond>
0.0000

> <Gold.Chemscore.DEClash>
1.1223

> <Gold.Chemscore.DEInternal>
1.2579

> <Gold.Chemscore.Rot>
1.3062

> <Gold.Chemscore.Internal.Correction>
   9.000000E+99

> <Gold.Chemscore.Hbonds>
donor molecule, donor type, donor heavy atom, donor atom, acceptor molecule, acceptor atom, score
      L1  H    10    36       P1  7948  0.66
      L1  H    19    25       P1 10171  0.99

> <Gold.Chemscore.Hbond.Weighted>
-5.8704

> <Gold.Chemscore.Metal.Weighted>
-0.0000

> <Gold.Chemscore.Lipo.Weighted>
-5.9537

> <Gold.Chemscore.Internal_Hbond.Weighted>
0.0000

> <Gold.Chemscore.DEClash.Weighted>
1.1223

> <Gold.Chemscore.DEInternal.Weighted>
1.2579

> <Gold.Chemscore.Rot.Weighted>
3.3440

> <Gold.Chemscore.Internal.Correction.Weighted>
   9.000000E+99

> <Gold.Protein.RotatedTorsions>
[ 6907 6896 6895 6894 ] final   30.25 input  -60.11 | X-H torsion
[ 7974 7965 7964 7962 ] final  -70.00 input  175.53 | X-H torsion
[ 8008 7997 7996 7995 ] final   -8.30 input   59.86 | X-H torsion
[ 10167 10162 10161 10158 ] final -131.38 input  -65.29 | X-H torsion
[ 10718 10713 10712 10709 ] final  164.58 input   66.30 | X-H torsion
[ 10763 10752 10751 10750 ] final  -30.77 input  -60.55 | X-H torsion
[ 11005 11000 10999 10996 ] final  -76.05 input  -57.11 | X-H torsion

> <Gold.Protein.ActiveResidues>
 VAL166  LYS551  ARG553  GLY616  TRP617  ASP618  TYR619  PRO620  LYS621  CYS622 
 ASP623  PHE694  ASN695  SER759  ASP760  ASP761  ALA762  ILE779  LEU786  VAL792 
 PHE793  MET794  SER795  GLU796  ALA797  LYS798  CYS799  TRP800  GLU811  SER814 

> <Gold.Protein.RotatedAtoms>
  152.0432  134.9699  160.0573 H   0  0  0  0  0  0  0  0  0  0  0  0  # atno 6907 bound_to 6896
  152.1129  133.4306  159.4647 H   0  0  0  0  0  0  0  0  0  0  0  0  # atno 6908 bound_to 6896
  150.6844  134.2545  159.4567 H   0  0  0  0  0  0  0  0  0  0  0  0  # atno 6909 bound_to 6896
  145.6965  140.9133  143.0753 H   0  0  0  0  0  0  0  0  0  0  0  0  # atno 7974 bound_to 7965
  154.5755  140.2385  155.8129 H   0  0  0  0  0  0  0  0  0  0  0  0  # atno 8008 bound_to 7997
  156.2139  140.3018  155.9753 H   0  0  0  0  0  0  0  0  0  0  0  0  # atno 8009 bound_to 7997
  155.2635  140.0415  157.2990 H   0  0  0  0  0  0  0  0  0  0  0  0  # atno 8010 bound_to 7997
  139.9196  143.6398  152.2557 H   0  0  0  0  0  0  0  0  0  0  0  0  # atno 10167 bound_to 10162
  157.0924  131.0421  151.2532 H   0  0  0  0  0  0  0  0  0  0  0  0  # atno 10718 bound_to 10713
  153.7865  135.6901  153.4879 H   0  0  0  0  0  0  0  0  0  0  0  0  # atno 10763 bound_to 10752
  153.1777  135.4518  154.9986 H   0  0  0  0  0  0  0  0  0  0  0  0  # atno 10764 bound_to 10752
  154.8061  135.3357  154.7364 H   0  0  0  0  0  0  0  0  0  0  0  0  # atno 10765 bound_to 10752
  141.1651  133.6969  156.7610 H   0  0  0  0  0  0  0  0  0  0  0  0  # atno 11005 bound_to 11000
  144.6981  139.8891  143.7452 LP  0  0  0  0  0  0  0  0  0  0  0  0  # atno 17320 bound_to 7965
  146.0835  139.3823  143.0449 LP  0  0  0  0  0  0  0  0  0  0  0  0  # atno 17321 bound_to 7965
  139.6873  144.7650  151.1501 LP  0  0  0  0  0  0  0  0  0  0  0  0  # atno 17342 bound_to 10162
  140.7665  143.5639  150.9069 LP  0  0  0  0  0  0  0  0  0  0  0  0  # atno 17343 bound_to 10162
  157.4710  130.7709  149.7323 LP  0  0  0  0  0  0  0  0  0  0  0  0  # atno 17370 bound_to 10713
  155.9894  130.3951  150.3072 LP  0  0  0  0  0  0  0  0  0  0  0  0  # atno 17371 bound_to 10713
  140.2534  134.8523  157.3689 LP  0  0  0  0  0  0  0  0  0  0  0  0  # atno 17394 bound_to 11000
  140.1681  134.4644  155.7850 LP  0  0  0  0  0  0  0  0  0  0  0  0  # atno 17395 bound_to 11000

$$$$
