AV-unprocessed.smi:179|AV-procd|sdf|1450|dock3
  -GOLD-   2262019243D 1   1.00000     0.00000
 Structure written by MMmdl.
 45 48  0  0  0  0  0  0  0  0  2 V2000
  151.8220  139.7444  154.2931 O   0  0  0  0  0  0  0  0  0  0  0  0
  151.4938  140.3533  155.5264 C   0  0  0  0  0  0  0  0  0  0  0  0
  149.9772  140.5748  155.6896 C   0  0  0  0  0  0  0  0  0  0  0  0
  149.7809  141.5253  156.8857 C   0  0  0  0  0  0  0  0  0  0  0  0
  150.4452  142.7568  156.6878 O   0  0  0  0  0  0  0  0  0  0  0  0
  149.1754  140.9362  154.4164 C   0  0  0  0  0  0  0  0  0  0  0  0
  148.0535  139.9987  154.8684 C   0  0  0  0  0  0  0  0  0  0  0  0
  147.2678  139.2656  153.9141 N   0  0  0  0  0  0  0  0  0  0  0  0
  147.1504  139.5203  152.5946 C   0  0  0  0  0  0  0  0  0  0  0  0
  146.3704  138.7112  151.8807 N   0  0  0  0  0  0  0  0  0  0  0  0
  145.9302  137.8246  152.8489 C   0  0  0  0  0  0  0  0  0  0  0  0
  145.0685  136.7040  152.7795 C   0  0  0  0  0  0  0  0  0  0  0  0
  144.4658  136.2929  151.5581 N   0  0  0  0  0  0  0  0  0  0  0  0
  145.3873  135.9140  150.4911 C   0  0  0  0  0  0  0  0  0  0  0  0
  144.7785  134.5080  150.5085 C   0  0  0  0  0  0  0  0  0  0  0  0
  144.1548  134.1337  149.2964 O   0  0  0  0  0  0  0  0  0  0  0  0
  145.7084  133.3252  150.8067 C   0  0  0  0  0  0  0  0  0  0  0  0
  146.4379  133.5391  151.9003 F   0  0  0  0  0  0  0  0  0  0  0  0
  145.0007  132.2087  150.9832 F   0  0  0  0  0  0  0  0  0  0  0  0
  143.8297  134.9816  151.6136 C   0  0  0  0  0  0  0  0  0  0  0  0
  144.8393  136.0414  153.9508 N   0  3  0  0  0  0  0  0  0  0  0  0
  145.3989  136.4172  155.1147 C   0  0  0  0  0  0  0  0  0  0  0  0
  146.2266  137.4582  155.2715 N   0  0  0  0  0  0  0  0  0  0  0  0
  146.4709  138.1426  154.1216 C   0  0  0  0  0  0  0  0  0  0  0  0
  149.0976  139.3037  155.7477 C   0  0  0  0  0  0  0  0  0  0  0  0
  152.7082  139.4198  154.3450 H   0  0  0  0  0  0  0  0  0  0  0  0
  151.8821  139.7209  156.3255 H   0  0  0  0  0  0  0  0  0  0  0  0
  152.0364  141.2975  155.5796 H   0  0  0  0  0  0  0  0  0  0  0  0
  148.7248  141.7401  157.0499 H   0  0  0  0  0  0  0  0  0  0  0  0
  150.1471  141.0745  157.8088 H   0  0  0  0  0  0  0  0  0  0  0  0
  149.7986  143.4454  156.6522 H   0  0  0  0  0  0  0  0  0  0  0  0
  148.8779  141.9825  154.3412 H   0  0  0  0  0  0  0  0  0  0  0  0
  149.6535  140.6078  153.4930 H   0  0  0  0  0  0  0  0  0  0  0  0
  147.3489  140.5459  155.4976 H   0  0  0  0  0  0  0  0  0  0  0  0
  147.6654  140.3466  152.1257 H   0  0  0  0  0  0  0  0  0  0  0  0
  145.1915  136.4636  149.5698 H   0  0  0  0  0  0  0  0  0  0  0  0
  146.4438  135.9491  150.7601 H   0  0  0  0  0  0  0  0  0  0  0  0
  144.8158  134.1594  148.6214 H   0  0  0  0  0  0  0  0  0  0  0  0
  146.4134  133.1397  149.9947 H   0  0  0  0  0  0  0  0  0  0  0  0
  143.9566  134.4556  152.5610 H   0  0  0  0  0  0  0  0  0  0  0  0
  142.7833  135.0191  151.3088 H   0  0  0  0  0  0  0  0  0  0  0  0
  145.1446  135.8174  155.9762 H   0  0  0  0  0  0  0  0  0  0  0  0
  149.5475  138.4349  155.2670 H   0  0  0  0  0  0  0  0  0  0  0  0
  148.7392  139.0440  156.7442 H   0  0  0  0  0  0  0  0  0  0  0  0
  144.2181  135.2316  153.9368 H   0  0  0  0  0  0  0  0  0  0  0  0
  1  2  1  0  0  0  0
  1 26  1  0  0  0  0
  2  3  1  0  0  0  0
  2 27  1  0  0  0  0
  2 28  1  0  0  0  0
  3 25  1  0  0  0  0
  3  4  1  0  0  0  0
  3  6  1  0  0  0  0
  4  5  1  0  0  0  0
  4 29  1  0  0  0  0
  4 30  1  0  0  0  0
  5 31  1  0  0  0  0
  6  7  1  0  0  0  0
  6 32  1  0  0  0  0
  6 33  1  0  0  0  0
  7  8  1  0  0  0  0
  7 25  1  0  0  0  0
  7 34  1  0  0  0  0
  8 24  1  0  0  0  0
  8  9  1  0  0  0  0
  9 10  2  0  0  0  0
  9 35  1  0  0  0  0
 10 11  1  0  0  0  0
 11 24  2  0  0  0  0
 11 12  1  0  0  0  0
 12 13  1  0  0  0  0
 12 21  2  0  0  0  0
 13 20  1  0  0  0  0
 13 14  1  0  0  0  0
 14 15  1  0  0  0  0
 14 36  1  0  0  0  0
 14 37  1  0  0  0  0
 15 16  1  0  0  0  0
 15 17  1  0  0  0  0
 15 20  1  0  0  0  0
 16 38  1  0  0  0  0
 17 18  1  0  0  0  0
 17 19  1  0  0  0  0
 17 39  1  0  0  0  0
 20 40  1  0  0  0  0
 20 41  1  0  0  0  0
 21 22  1  0  0  0  0
 21 45  1  0  0  0  0
 22 23  2  0  0  0  0
 22 42  1  0  0  0  0
 23 24  1  0  0  0  0
 25 43  1  0  0  0  0
 25 44  1  0  0  0  0
M  CHG  1  21   1
M  END
> <s_m_source_file>
AV-unprocessed.smi

> <i_m_source_file_index>
179

> <i_lp_mmshare_version>
43012

> <i_f3d_flags>
0

> <s_epik_input>
W09IXVtDSDJdQzEoW0NIMl1bT0hdKVtDSDJdW0NIXShbQ0gyXTEpbihbY0hdbjIpYyhjMjMpbltjSF1uYzNOKFtDSDJdNClbQ0gyXUM0KFtPSF0pW0NIXShGKUY=

> <s_epik_cmdline>
J2VwaWtfcHl0aG9uJywgJy1waCcsICc3LjAnLCAnLXRuJywgJzgnLCAnLW1hJywgJzIwMCcsICctbWV0YWxfYmluZGluZycsICctaW1hZScsICc8aW5maWxlLm1hZT4nLCAnLW9tYWUnLCAnPG91dGZpbGUubWFlPic=

> <r_lp_tautomer_probability>
0.978912

> <r_epik_Ionization_Penalty>
2.53898

> <r_epik_Ionization_Penalty_Charging>
2.53898

> <r_epik_Ionization_Penalty_Neutral>
7.40332e-06

> <r_epik_State_Penalty>
2.7067

> <r_epik_Charging_Adjusted_Penalty>
5.24568

> <i_epik_Tot_Q>
1

> <i_epik_Tot_abs_Q>
1

> <r_epik_Metal_State_Penalty>
2.71482

> <b_epik_Metal_Only>
0

> <s_lp_Force_Field>
OPLS_2005

> <r_lp_Energy>
57.9721

> <b_lp_Chiralities_Consistent>
1

> <s_lp_Variant>
AV-unprocessed.smi:179-2

> <Gold.Version>
5.8.1

> <Gold.Id.Protein>
6NUR|6NUR_protein|mol2

> <Gold.PLP.Fitness>
45.6676

> <Gold.PLP.PLP>
-34.3812

> <Gold.PLP.part.hbond>
-3.5845

> <Gold.PLP.part.metal>
0.0000

> <Gold.PLP.part.buried>
-6.8239

> <Gold.PLP.part.nonpolar>
-25.8907

> <Gold.PLP.part.repulsive>
0.9808

> <Gold.PLP.ligand.clash>
0.0000

> <Gold.PLP.ligand.torsion>
0.7240

> <Gold.PLP.Chemscore.Hbond>
3.0000

> <Gold.PLP.Chemscore.CHOScore>
1.0000

> <Gold.PLP.Chemscore.Metal>
0.0000

> <Gold.Chemscore.Hbonds>
donor molecule, donor type, donor heavy atom, donor atom, acceptor molecule, acceptor atom, score
      L1  H     5    31       P1  8028  0.99
      L1  H    16    38       P1  7921  1.00
      P1  H  7989  7998       L1     1  0.54
      L1  C     9    35       P1  7957  0.82

> <Gold.PLP.Chemscore.Internal.Correction>
0.7345

> <Gold.Rescore>
     Score         DG    S(hbond)    S(metal)    S(lipo)     H(rot)  DE(clash)    DE(int)     intcor
      9.46     -10.93       2.88        0.00      57.71       4.27       0.11       1.36       ----

> <Gold.Chemscore.Fitness>
9.4563

> <Gold.Chemscore.DG>
-10.9264

> <Gold.Chemscore.ZeroCoef>
-5.4800

> <Gold.Chemscore.Hbond>
2.8795

> <Gold.Chemscore.Metal>
0.0000

> <Gold.Chemscore.Lipo>
57.7092

> <Gold.Chemscore.Internal_Hbond>
0.0000

> <Gold.Chemscore.DEClash>
0.1058

> <Gold.Chemscore.DEInternal>
1.3643

> <Gold.Chemscore.Rot>
4.2669

> <Gold.Chemscore.Internal.Correction>
   9.000000E+99

> <Gold.Chemscore.Hbonds>
donor molecule, donor type, donor heavy atom, donor atom, acceptor molecule, acceptor atom, score
      L1  H     5    31       P1  8028  0.93
      L1  H    16    38       P1  7921  0.99
      P1  H  7989  7998       L1     1  0.09

> <Gold.Chemscore.Hbond.Weighted>
-9.6176

> <Gold.Chemscore.Metal.Weighted>
-0.0000

> <Gold.Chemscore.Lipo.Weighted>
-6.7520

> <Gold.Chemscore.Internal_Hbond.Weighted>
0.0000

> <Gold.Chemscore.DEClash.Weighted>
0.1058

> <Gold.Chemscore.DEInternal.Weighted>
1.3643

> <Gold.Chemscore.Rot.Weighted>
10.9232

> <Gold.Chemscore.Internal.Correction.Weighted>
   9.000000E+99

> <Gold.Protein.RotatedTorsions>
[ 6907 6896 6895 6894 ] final  -23.33 input  -60.11 | X-H torsion
[ 7974 7965 7964 7962 ] final   90.52 input  175.53 | X-H torsion
[ 8008 7997 7996 7995 ] final  -86.96 input   59.86 | X-H torsion
[ 10167 10162 10161 10158 ] final  -87.18 input  -65.29 | X-H torsion
[ 10718 10713 10712 10709 ] final    5.15 input   66.30 | X-H torsion
[ 10763 10752 10751 10750 ] final   72.15 input  -60.55 | X-H torsion
[ 11005 11000 10999 10996 ] final -161.87 input  -57.11 | X-H torsion

> <Gold.Protein.ActiveResidues>
 VAL166  LYS551  ARG553  GLY616  TRP617  ASP618  TYR619  PRO620  LYS621  CYS622 
 ASP623  PHE694  ASN695  SER759  ASP760  ASP761  ALA762  ILE779  LEU786  VAL792 
 PHE793  MET794  SER795  GLU796  ALA797  LYS798  CYS799  TRP800  GLU811  SER814 

> <Gold.Protein.RotatedAtoms>
  151.2056  135.0460  159.8889 H   0  0  0  0  0  0  0  0  0  0  0  0  # atno 6907 bound_to 6896
  152.5429  134.0801  159.8242 H   0  0  0  0  0  0  0  0  0  0  0  0  # atno 6908 bound_to 6896
  151.0948  133.5241  159.2645 H   0  0  0  0  0  0  0  0  0  0  0  0  # atno 6909 bound_to 6896
  145.5179  139.2278  143.2688 H   0  0  0  0  0  0  0  0  0  0  0  0  # atno 7974 bound_to 7965
  154.6578  140.0572  157.0028 H   0  0  0  0  0  0  0  0  0  0  0  0  # atno 8008 bound_to 7997
  155.1273  140.3253  155.4464 H   0  0  0  0  0  0  0  0  0  0  0  0  # atno 8009 bound_to 7997
  156.2605  140.1987  156.6394 H   0  0  0  0  0  0  0  0  0  0  0  0  # atno 8010 bound_to 7997
  140.3870  143.2722  151.9313 H   0  0  0  0  0  0  0  0  0  0  0  0  # atno 10167 bound_to 10162
  156.9031  130.5729  149.5648 H   0  0  0  0  0  0  0  0  0  0  0  0  # atno 10718 bound_to 10713
  153.0441  135.5110  154.7700 H   0  0  0  0  0  0  0  0  0  0  0  0  # atno 10763 bound_to 10752
  154.6614  135.2939  154.9863 H   0  0  0  0  0  0  0  0  0  0  0  0  # atno 10764 bound_to 10752
  154.0713  135.6677  153.4877 H   0  0  0  0  0  0  0  0  0  0  0  0  # atno 10765 bound_to 10752
  140.6155  134.4804  157.5219 H   0  0  0  0  0  0  0  0  0  0  0  0  # atno 11005 bound_to 11000
  146.2125  140.5990  142.9053 LP  0  0  0  0  0  0  0  0  0  0  0  0  # atno 17320 bound_to 7965
  144.7692  140.5599  143.6682 LP  0  0  0  0  0  0  0  0  0  0  0  0  # atno 17321 bound_to 7965
  139.4791  144.5764  151.8004 LP  0  0  0  0  0  0  0  0  0  0  0  0  # atno 17342 bound_to 10162
  140.4879  144.1353  150.5944 LP  0  0  0  0  0  0  0  0  0  0  0  0  # atno 17343 bound_to 10162
  156.0572  130.5631  150.9117 LP  0  0  0  0  0  0  0  0  0  0  0  0  # atno 17370 bound_to 10713
  157.6014  131.0941  150.8954 LP  0  0  0  0  0  0  0  0  0  0  0  0  # atno 17371 bound_to 10713
  139.9174  134.8217  156.1320 LP  0  0  0  0  0  0  0  0  0  0  0  0  # atno 17394 bound_to 11000
  141.0778  133.6767  156.2273 LP  0  0  0  0  0  0  0  0  0  0  0  0  # atno 17395 bound_to 11000

$$$$
