AV-unprocessed.smi:48|AV-procd|sdf|460|dock5
  -GOLD-   2262016333D 1   1.00000     0.00000
 Structure written by MMmdl.
 30 32  0  0  0  0  0  0  0  0  1 V2000
  148.3519  138.9425  152.6943 O   0  0  0  0  0  0  0  0  0  0  0  0
  149.2770  139.9295  153.0971 C   0  0  0  0  0  0  0  0  0  0  0  0
  149.7858  139.6296  154.5151 C   0  0  2  0  0  0  0  0  0  0  0  0
  150.8590  140.5140  154.8374 O   0  0  0  0  0  0  0  0  0  0  0  0
  151.7671  139.8951  155.7013 C   0  0  1  0  0  0  0  0  0  0  0  0
  151.8247  140.6592  156.9909 N   0  0  0  0  0  0  0  0  0  0  0  0
  151.1102  141.7576  157.3100 C   0  0  0  0  0  0  0  0  0  0  0  0
  151.3086  142.2944  158.5127 N   0  0  0  0  0  0  0  0  0  0  0  0
  152.2629  141.4410  159.0409 C   0  0  0  0  0  0  0  0  0  0  0  0
  152.9369  141.4113  160.2862 C   0  0  0  0  0  0  0  0  0  0  0  0
  152.6224  142.6013  161.4957 Cl  0  0  0  0  0  0  0  0  0  0  0  0
  153.8387  140.4261  160.5087 N   0  0  0  0  0  0  0  0  0  0  0  0
  154.0639  139.5163  159.5530 C   0  0  0  0  0  0  0  0  0  0  0  0
  153.5088  139.4181  158.3402 N   0  0  0  0  0  0  0  0  0  0  0  0
  152.5996  140.4118  158.1153 C   0  0  0  0  0  0  0  0  0  0  0  0
  151.3261  138.4280  155.8749 C   0  0  1  0  0  0  0  0  0  0  0  0
  150.6490  138.1734  157.0962 O   0  0  0  0  0  0  0  0  0  0  0  0
  150.4322  138.2503  154.6548 C   0  0  1  0  0  0  0  0  0  0  0  0
  149.4912  137.2033  154.7998 O   0  0  0  0  0  0  0  0  0  0  0  0
  148.9855  139.7316  155.2494 H   0  0  0  0  0  0  0  0  0  0  0  0
  152.7689  139.9875  155.2800 H   0  0  0  0  0  0  0  0  0  0  0  0
  152.1998  137.7770  155.8288 H   0  0  0  0  0  0  0  0  0  0  0  0
  151.0557  138.0479  153.7824 H   0  0  0  0  0  0  0  0  0  0  0  0
  148.8149  138.1277  152.5732 H   0  0  0  0  0  0  0  0  0  0  0  0
  150.1057  139.9078  152.3888 H   0  0  0  0  0  0  0  0  0  0  0  0
  148.8262  140.9206  153.0381 H   0  0  0  0  0  0  0  0  0  0  0  0
  150.4038  142.1911  156.6169 H   0  0  0  0  0  0  0  0  0  0  0  0
  154.7941  138.7581  159.7936 H   0  0  0  0  0  0  0  0  0  0  0  0
  151.2909  137.9810  157.7623 H   0  0  0  0  0  0  0  0  0  0  0  0
  149.2065  136.9345  153.9399 H   0  0  0  0  0  0  0  0  0  0  0  0
  1  2  1  0  0  0  0
  1 24  1  0  0  0  0
  2  3  1  0  0  0  0
  2 25  1  0  0  0  0
  2 26  1  0  0  0  0
  3 20  1  0  0  0  0
  3 18  1  0  0  0  0
  3  4  1  0  0  0  0
  4  5  1  0  0  0  0
  5 21  1  0  0  0  0
  5  6  1  0  0  0  0
  5 16  1  0  0  0  0
  6 15  1  0  0  0  0
  6  7  1  0  0  0  0
  7  8  2  0  0  0  0
  7 27  1  0  0  0  0
  8  9  1  0  0  0  0
  9 15  2  0  0  0  0
  9 10  1  0  0  0  0
 10 11  1  0  0  0  0
 10 12  2  0  0  0  0
 12 13  1  0  0  0  0
 13 14  2  0  0  0  0
 13 28  1  0  0  0  0
 14 15  1  0  0  0  0
 16 22  1  0  0  0  0
 16 17  1  0  0  0  0
 16 18  1  0  0  0  0
 17 29  1  0  0  0  0
 18 23  1  0  0  0  0
 18 19  1  0  0  0  0
 19 30  1  0  0  0  0
M  END
> <s_m_source_file>
AV-unprocessed.smi

> <i_m_source_file_index>
48

> <i_lp_mmshare_version>
43012

> <i_f3d_flags>
0

> <s_epik_input>
W09IXVtDSDJdW0NASF0xT1tDQEhdKFtDQEhdKFtPSF0pW0NAQEhdMVtPSF0pbihbY0hdbjIpYyhjMjMpbltjSF1uYzNDbA==

> <s_epik_cmdline>
J2VwaWtfcHl0aG9uJywgJy1waCcsICc3LjAnLCAnLXRuJywgJzgnLCAnLW1hJywgJzIwMCcsICctbWV0YWxfYmluZGluZycsICctaW1hZScsICc8aW5maWxlLm1hZT4nLCAnLW9tYWUnLCAnPG91dGZpbGUubWFlPic=

> <r_lp_tautomer_probability>
1

> <r_epik_Ionization_Penalty>
3.45505e-06

> <r_epik_Ionization_Penalty_Charging>
0

> <r_epik_Ionization_Penalty_Neutral>
3.45505e-06

> <r_epik_State_Penalty>
-0

> <r_epik_Charging_Adjusted_Penalty>
0

> <i_epik_Tot_Q>
0

> <i_epik_Tot_abs_Q>
0

> <r_epik_Metal_State_Penalty>
-0

> <b_epik_Metal_Only>
0

> <s_epik_Chemistry_Notes>
This compound contains an acetal/aminal-like group ( X-CH(R)-Y where X, Y are N, S, or O) that may be acid/base labile, releasing an aldehyde.

> <s_lp_Force_Field>
OPLS_2005

> <r_lp_Energy>
44.1755

> <b_lp_Chiralities_Consistent>
1

> <s_lp_Variant>
AV-unprocessed.smi:48-14

> <Gold.Version>
5.8.1

> <Gold.Id.Protein>
6NUR|6NUR_protein|mol2

> <Gold.PLP.Fitness>
39.8663

> <Gold.PLP.PLP>
-28.8671

> <Gold.PLP.part.hbond>
-4.6806

> <Gold.PLP.part.metal>
0.0000

> <Gold.PLP.part.buried>
3.8368

> <Gold.PLP.part.nonpolar>
-25.8509

> <Gold.PLP.part.repulsive>
0.1184

> <Gold.PLP.ligand.clash>
0.0000

> <Gold.PLP.ligand.torsion>
0.0209

> <Gold.PLP.Chemscore.Hbond>
3.6775

> <Gold.PLP.Chemscore.CHOScore>
0.0000

> <Gold.PLP.Chemscore.Metal>
0.0000

> <Gold.Chemscore.Hbonds>
donor molecule, donor type, donor heavy atom, donor atom, acceptor molecule, acceptor atom, score
      L1  H     1    24       P1  7948  1.00
      L1  H    19    30       P1  7948  0.60
      P1  H  7989  7998       L1     4  1.00
      P1  H  7997  8009       L1    14  0.50

> <Gold.PLP.Chemscore.Internal.Correction>
0.0086

> <Gold.Rescore>
     Score         DG    S(hbond)    S(metal)    S(lipo)     H(rot)  DE(clash)    DE(int)     intcor
      8.02     -10.27       2.35        0.00      57.17       3.80       2.23       0.01       ----

> <Gold.Chemscore.Fitness>
8.0218

> <Gold.Chemscore.DG>
-10.2711

> <Gold.Chemscore.ZeroCoef>
-5.4800

> <Gold.Chemscore.Hbond>
2.3456

> <Gold.Chemscore.Metal>
0.0000

> <Gold.Chemscore.Lipo>
57.1724

> <Gold.Chemscore.Internal_Hbond>
0.0000

> <Gold.Chemscore.DEClash>
2.2347

> <Gold.Chemscore.DEInternal>
0.0146

> <Gold.Chemscore.Rot>
3.8017

> <Gold.Chemscore.Internal.Correction>
   9.000000E+99

> <Gold.Chemscore.Hbonds>
donor molecule, donor type, donor heavy atom, donor atom, acceptor molecule, acceptor atom, score
      L1  H     1    24       P1  7948  0.94
      L1  H    19    30       P1  7948  0.60
      P1  H  7989  7998       L1     4  0.43
      P1  H  7997  8009       L1    14  0.02

> <Gold.Chemscore.Hbond.Weighted>
-7.8343

> <Gold.Chemscore.Metal.Weighted>
-0.0000

> <Gold.Chemscore.Lipo.Weighted>
-6.6892

> <Gold.Chemscore.Internal_Hbond.Weighted>
0.0000

> <Gold.Chemscore.DEClash.Weighted>
2.2347

> <Gold.Chemscore.DEInternal.Weighted>
0.0146

> <Gold.Chemscore.Rot.Weighted>
9.7324

> <Gold.Chemscore.Internal.Correction.Weighted>
   9.000000E+99

> <Gold.Protein.RotatedTorsions>
[ 6907 6896 6895 6894 ] final  134.84 input  -60.11 | X-H torsion
[ 7974 7965 7964 7962 ] final   25.43 input  175.53 | X-H torsion
[ 8008 7997 7996 7995 ] final  162.13 input   59.86 | X-H torsion
[ 10167 10162 10161 10158 ] final   34.34 input  -65.29 | X-H torsion
[ 10718 10713 10712 10709 ] final -107.59 input   66.30 | X-H torsion
[ 10763 10752 10751 10750 ] final  108.77 input  -60.55 | X-H torsion
[ 11005 11000 10999 10996 ] final    1.03 input  -57.11 | X-H torsion

> <Gold.Protein.ActiveResidues>
 VAL166  LYS551  ARG553  GLY616  TRP617  ASP618  TYR619  PRO620  LYS621  CYS622 
 ASP623  PHE694  ASN695  SER759  ASP760  ASP761  ALA762  ILE779  LEU786  VAL792 
 PHE793  MET794  SER795  GLU796  ALA797  LYS798  CYS799  TRP800  GLU811  SER814 

> <Gold.Protein.RotatedAtoms>
  152.3069  133.5713  159.5655 H   0  0  0  0  0  0  0  0  0  0  0  0  # atno 6907 bound_to 6896
  150.7304  134.0209  159.3710 H   0  0  0  0  0  0  0  0  0  0  0  0  # atno 6908 bound_to 6896
  151.8104  135.0683  160.0463 H   0  0  0  0  0  0  0  0  0  0  0  0  # atno 6909 bound_to 6896
  146.1889  139.7467  142.8846 H   0  0  0  0  0  0  0  0  0  0  0  0  # atno 7974 bound_to 7965
  156.2054  140.1759  156.7811 H   0  0  0  0  0  0  0  0  0  0  0  0  # atno 8008 bound_to 7997
  154.5647  140.0693  156.8904 H   0  0  0  0  0  0  0  0  0  0  0  0  # atno 8009 bound_to 7997
  155.2782  140.3347  155.4262 H   0  0  0  0  0  0  0  0  0  0  0  0  # atno 8010 bound_to 7997
  140.4324  144.1305  150.6161 H   0  0  0  0  0  0  0  0  0  0  0  0  # atno 10167 bound_to 10162
  156.0444  130.5670  150.7843 H   0  0  0  0  0  0  0  0  0  0  0  0  # atno 10718 bound_to 10713
  153.4253  135.3801  155.2137 H   0  0  0  0  0  0  0  0  0  0  0  0  # atno 10763 bound_to 10752
  154.8747  135.3827  154.4333 H   0  0  0  0  0  0  0  0  0  0  0  0  # atno 10764 bound_to 10752
  153.4859  135.7088  153.5974 H   0  0  0  0  0  0  0  0  0  0  0  0  # atno 10765 bound_to 10752
  140.6199  133.9670  155.8220 H   0  0  0  0  0  0  0  0  0  0  0  0  # atno 11005 bound_to 11000
  145.3855  141.0364  143.3153 LP  0  0  0  0  0  0  0  0  0  0  0  0  # atno 17320 bound_to 7965
  144.8448  139.5414  143.6883 LP  0  0  0  0  0  0  0  0  0  0  0  0  # atno 17321 bound_to 7965
  140.4412  143.2526  151.9471 LP  0  0  0  0  0  0  0  0  0  0  0  0  # atno 17342 bound_to 10162
  139.4785  144.5653  151.8175 LP  0  0  0  0  0  0  0  0  0  0  0  0  # atno 17343 bound_to 10162
  157.5302  131.0936  150.9965 LP  0  0  0  0  0  0  0  0  0  0  0  0  # atno 17370 bound_to 10713
  157.0273  130.5697  149.5339 LP  0  0  0  0  0  0  0  0  0  0  0  0  # atno 17371 bound_to 10713
  141.0749  134.0149  157.3472 LP  0  0  0  0  0  0  0  0  0  0  0  0  # atno 17394 bound_to 11000
  139.9157  135.0196  156.7873 LP  0  0  0  0  0  0  0  0  0  0  0  0  # atno 17395 bound_to 11000

$$$$
