AV-unprocessed.smi:1056|AV-procd|sdf|4640|dock7
  -GOLD-   22720 3143D 1   1.00000     0.00000
 Structure written by MMmdl.
 45 47  0  0  0  0  0  0  0  0  2 V2000
  151.9651  143.5956  161.1281 C   0  0  0  0  0  0  0  0  0  0  0  0
  151.4735  143.0096  159.8154 C   0  0  0  0  0  0  0  0  0  0  0  0
  151.5620  141.6117  159.6266 C   0  0  0  0  0  0  0  0  0  0  0  0
  151.1078  141.1057  158.4146 C   0  0  0  0  0  0  0  0  0  0  0  0
  151.0587  139.7969  157.9294 N   0  3  0  0  0  0  0  0  0  0  0  0
  150.5279  139.7970  156.6752 C   0  0  0  0  0  0  0  0  0  0  0  0
  150.2383  141.0868  156.3533 N   0  0  0  0  0  0  0  0  0  0  0  0
  149.6544  141.6457  155.1266 C   0  0  0  0  0  0  0  0  0  0  0  0
  148.4493  140.8340  154.6078 C   0  0  2  0  0  0  0  0  0  0  0  0
  148.9433  139.7188  153.8894 O   0  0  0  0  0  0  0  0  0  0  0  0
  147.5376  141.6748  153.6850 C   0  0  0  0  0  0  0  0  0  0  0  0
  146.4071  142.3331  154.3481 N   0  0  0  0  0  0  0  0  0  0  0  0
  145.6504  141.4422  155.2286 C   0  0  0  0  0  0  0  0  0  0  0  0
  144.5556  142.1950  156.0005 C   0  0  0  0  0  0  0  0  0  0  0  0
  143.7818  143.0778  155.1340 N   0  0  0  0  0  0  0  0  0  0  0  0
  144.1912  143.5155  153.9323 C   0  0  0  0  0  0  0  0  0  0  0  0
  143.5211  144.3035  153.2688 O   0  0  0  0  0  0  0  0  0  0  0  0
  145.5224  142.9831  153.3681 C   0  0  0  0  0  0  0  0  0  0  0  0
  150.5811  141.9382  157.4083 C   0  0  0  0  0  0  0  0  0  0  0  0
  150.4845  143.3169  157.5780 C   0  0  0  0  0  0  0  0  0  0  0  0
  150.9395  143.8512  158.8049 C   0  0  0  0  0  0  0  0  0  0  0  0
  150.8471  145.3523  159.0202 C   0  0  0  0  0  0  0  0  0  0  0  0
  152.3526  142.8211  161.7907 H   0  0  0  0  0  0  0  0  0  0  0  0
  151.1532  144.1037  161.6488 H   0  0  0  0  0  0  0  0  0  0  0  0
  152.7665  144.3133  160.9505 H   0  0  0  0  0  0  0  0  0  0  0  0
  151.9660  140.9647  160.3915 H   0  0  0  0  0  0  0  0  0  0  0  0
  150.3639  138.9312  156.0499 H   0  0  0  0  0  0  0  0  0  0  0  0
  149.3747  142.6815  155.3232 H   0  0  0  0  0  0  0  0  0  0  0  0
  150.4431  141.6756  154.3734 H   0  0  0  0  0  0  0  0  0  0  0  0
  147.8756  140.4715  155.4618 H   0  0  0  0  0  0  0  0  0  0  0  0
  148.9685  139.9412  152.9713 H   0  0  0  0  0  0  0  0  0  0  0  0
  148.1567  142.4580  153.2442 H   0  0  0  0  0  0  0  0  0  0  0  0
  147.1925  141.0792  152.8375 H   0  0  0  0  0  0  0  0  0  0  0  0
  145.2015  140.6386  154.6416 H   0  0  0  0  0  0  0  0  0  0  0  0
  146.3066  140.9654  155.9555 H   0  0  0  0  0  0  0  0  0  0  0  0
  143.8848  141.4918  156.4941 H   0  0  0  0  0  0  0  0  0  0  0  0
  145.0078  142.8054  156.7829 H   0  0  0  0  0  0  0  0  0  0  0  0
  142.8971  143.4126  155.4871 H   0  0  0  0  0  0  0  0  0  0  0  0
  146.0499  143.8071  152.8855 H   0  0  0  0  0  0  0  0  0  0  0  0
  145.2648  142.2756  152.5781 H   0  0  0  0  0  0  0  0  0  0  0  0
  150.0786  143.9559  156.8076 H   0  0  0  0  0  0  0  0  0  0  0  0
  150.3696  145.8484  158.1745 H   0  0  0  0  0  0  0  0  0  0  0  0
  151.8416  145.7827  159.1414 H   0  0  0  0  0  0  0  0  0  0  0  0
  150.2601  145.5783  159.9106 H   0  0  0  0  0  0  0  0  0  0  0  0
  151.3634  138.9634  158.4154 H   0  0  0  0  0  0  0  0  0  0  0  0
  1  2  1  0  0  0  0
  1 23  1  0  0  0  0
  1 24  1  0  0  0  0
  1 25  1  0  0  0  0
  2 21  1  0  0  0  0
  2  3  2  0  0  0  0
  3  4  1  0  0  0  0
  3 26  1  0  0  0  0
  4 19  2  0  0  0  0
  4  5  1  0  0  0  0
  5  6  2  0  0  0  0
  5 45  1  0  0  0  0
  6  7  1  0  0  0  0
  6 27  1  0  0  0  0
  7  8  1  0  0  0  0
  7 19  1  0  0  0  0
  8  9  1  0  0  0  0
  8 28  1  0  0  0  0
  8 29  1  0  0  0  0
  9 10  1  0  0  0  0
  9 11  1  0  0  0  0
  9 30  1  0  0  0  0
 10 31  1  0  0  0  0
 11 12  1  0  0  0  0
 11 32  1  0  0  0  0
 11 33  1  0  0  0  0
 12 18  1  0  0  0  0
 12 13  1  0  0  0  0
 13 14  1  0  0  0  0
 13 34  1  0  0  0  0
 13 35  1  0  0  0  0
 14 15  1  0  0  0  0
 14 36  1  0  0  0  0
 14 37  1  0  0  0  0
 15 16  1  0  0  0  0
 15 38  1  0  0  0  0
 16 17  2  0  0  0  0
 16 18  1  0  0  0  0
 18 39  1  0  0  0  0
 18 40  1  0  0  0  0
 19 20  1  0  0  0  0
 20 21  2  0  0  0  0
 20 41  1  0  0  0  0
 21 22  1  0  0  0  0
 22 42  1  0  0  0  0
 22 43  1  0  0  0  0
 22 44  1  0  0  0  0
M  CHG  1   5   1
M  END
> <s_m_source_file>
AV-unprocessed.smi

> <i_m_source_file_index>
1056

> <i_lp_mmshare_version>
43012

> <i_f3d_flags>
0

> <s_epik_input>
W0NIM11jKFtjSF0xKWMoW0NIM10pW2NIXWMoYzEyKW4oW2NIXW4yKVtDSDJdW0NASF0oW09IXSlbQ0gyXU4zW0NIMl1bQ0gyXVtOSF1DKD1PKVtDSDJdMw==

> <s_epik_cmdline>
J2VwaWtfcHl0aG9uJywgJy1waCcsICc3LjAnLCAnLXRuJywgJzgnLCAnLW1hJywgJzIwMCcsICctbWV0YWxfYmluZGluZycsICctaW1hZScsICc8aW5maWxlLm1hZT4nLCAnLW9tYWUnLCAnPG91dGZpbGUubWFlPic=

> <r_epik_Ionization_Penalty>
2.47196

> <r_epik_Ionization_Penalty_Charging>
1.21809

> <r_epik_Ionization_Penalty_Neutral>
1.25387

> <r_epik_State_Penalty>
2.6255

> <r_epik_Charging_Adjusted_Penalty>
3.84359

> <i_epik_Tot_Q>
1

> <i_epik_Tot_abs_Q>
1

> <r_epik_Metal_State_Penalty>
2.76698

> <b_epik_Metal_Only>
0

> <s_lp_Force_Field>
OPLS_2005

> <r_lp_Energy>
35.3562

> <b_lp_Chiralities_Consistent>
1

> <s_lp_Variant>
AV-unprocessed.smi:1056-11

> <Gold.Version>
5.8.1

> <Gold.Id.Protein>
6NUR|6NUR_protein|mol2

> <Gold.PLP.Fitness>
47.5451

> <Gold.PLP.PLP>
-46.3198

> <Gold.PLP.part.hbond>
-1.0000

> <Gold.PLP.part.metal>
0.0000

> <Gold.PLP.part.buried>
-7.2728

> <Gold.PLP.part.nonpolar>
-38.0646

> <Gold.PLP.part.repulsive>
0.3268

> <Gold.PLP.ligand.clash>
0.0000

> <Gold.PLP.ligand.torsion>
0.9010

> <Gold.PLP.Chemscore.Hbond>
1.0000

> <Gold.PLP.Chemscore.CHOScore>
0.0000

> <Gold.PLP.Chemscore.Metal>
0.0000

> <Gold.Chemscore.Hbonds>
donor molecule, donor type, donor heavy atom, donor atom, acceptor molecule, acceptor atom, score
      L1  H    10    31       P1  7957  1.00

> <Gold.PLP.Chemscore.Internal.Correction>
0.0274

> <Gold.Rescore>
     Score         DG    S(hbond)    S(metal)    S(lipo)     H(rot)  DE(clash)    DE(int)     intcor
     13.44     -16.01       0.95        0.00     114.69       2.37       1.51       1.05       ----

> <Gold.Chemscore.Fitness>
13.4450

> <Gold.Chemscore.DG>
-16.0085

> <Gold.Chemscore.ZeroCoef>
-5.4800

> <Gold.Chemscore.Hbond>
0.9530

> <Gold.Chemscore.Metal>
0.0000

> <Gold.Chemscore.Lipo>
114.6900

> <Gold.Chemscore.Internal_Hbond>
0.0000

> <Gold.Chemscore.DEClash>
1.5132

> <Gold.Chemscore.DEInternal>
1.0504

> <Gold.Chemscore.Rot>
2.3724

> <Gold.Chemscore.Internal.Correction>
   9.000000E+99

> <Gold.Chemscore.Hbonds>
donor molecule, donor type, donor heavy atom, donor atom, acceptor molecule, acceptor atom, score
      L1  H    10    31       P1  7957  0.99

> <Gold.Chemscore.Hbond.Weighted>
-3.1832

> <Gold.Chemscore.Metal.Weighted>
-0.0000

> <Gold.Chemscore.Lipo.Weighted>
-13.4187

> <Gold.Chemscore.Internal_Hbond.Weighted>
0.0000

> <Gold.Chemscore.DEClash.Weighted>
1.5132

> <Gold.Chemscore.DEInternal.Weighted>
1.0504

> <Gold.Chemscore.Rot.Weighted>
6.0734

> <Gold.Chemscore.Internal.Correction.Weighted>
   9.000000E+99

> <Gold.Protein.RotatedTorsions>
[ 6907 6896 6895 6894 ] final   44.46 input  -60.11 | X-H torsion
[ 7974 7965 7964 7962 ] final -100.23 input  175.53 | X-H torsion
[ 8008 7997 7996 7995 ] final  -94.40 input   59.86 | X-H torsion
[ 10167 10162 10161 10158 ] final   -1.33 input  -65.29 | X-H torsion
[ 10718 10713 10712 10709 ] final -101.15 input   66.30 | X-H torsion
[ 10763 10752 10751 10750 ] final   52.75 input  -60.55 | X-H torsion
[ 11005 11000 10999 10996 ] final   75.02 input  -57.11 | X-H torsion

> <Gold.Protein.ActiveResidues>
 VAL166  LYS551  ARG553  GLY616  TRP617  ASP618  TYR619  PRO620  LYS621  CYS622 
 ASP623  PHE694  ASN695  SER759  ASP760  ASP761  ALA762  ILE779  LEU786  VAL792 
 PHE793  MET794  SER795  GLU796  ALA797  LYS798  CYS799  TRP800  GLU811  SER814 

> <Gold.Protein.RotatedAtoms>
  152.2328  134.8305  160.0471 H   0  0  0  0  0  0  0  0  0  0  0  0  # atno 6907 bound_to 6896
  151.9048  133.3541  159.3851 H   0  0  0  0  0  0  0  0  0  0  0  0  # atno 6908 bound_to 6896
  150.7030  134.4718  159.5473 H   0  0  0  0  0  0  0  0  0  0  0  0  # atno 6909 bound_to 6896
  145.2973  140.9368  143.2844 H   0  0  0  0  0  0  0  0  0  0  0  0  # atno 7974 bound_to 7965
  154.7479  140.0489  157.0868 H   0  0  0  0  0  0  0  0  0  0  0  0  # atno 8008 bound_to 7997
  155.0094  140.3134  155.4816 H   0  0  0  0  0  0  0  0  0  0  0  0  # atno 8009 bound_to 7997
  156.2879  140.2187  156.5208 H   0  0  0  0  0  0  0  0  0  0  0  0  # atno 8010 bound_to 7997
  140.6806  143.6787  150.8123 H   0  0  0  0  0  0  0  0  0  0  0  0  # atno 10167 bound_to 10162
  156.0185  130.5360  150.6920 H   0  0  0  0  0  0  0  0  0  0  0  0  # atno 10718 bound_to 10713
  152.9790  135.5802  154.4630 H   0  0  0  0  0  0  0  0  0  0  0  0  # atno 10763 bound_to 10752
  154.4203  135.2771  155.1981 H   0  0  0  0  0  0  0  0  0  0  0  0  # atno 10764 bound_to 10752
  154.3733  135.6163  153.5805 H   0  0  0  0  0  0  0  0  0  0  0  0  # atno 10765 bound_to 10752
  139.9363  134.7482  156.1219 H   0  0  0  0  0  0  0  0  0  0  0  0  # atno 11005 bound_to 11000
  144.9123  139.4513  143.6581 LP  0  0  0  0  0  0  0  0  0  0  0  0  # atno 17320 bound_to 7965
  146.3164  139.7938  142.8980 LP  0  0  0  0  0  0  0  0  0  0  0  0  # atno 17321 bound_to 7965
  140.0487  143.5272  152.2684 LP  0  0  0  0  0  0  0  0  0  0  0  0  # atno 17342 bound_to 10162
  139.6126  144.7612  151.2919 LP  0  0  0  0  0  0  0  0  0  0  0  0  # atno 17343 bound_to 10162
  157.4600  131.0882  151.0756 LP  0  0  0  0  0  0  0  0  0  0  0  0  # atno 17370 bound_to 10713
  157.1247  130.6076  149.5514 LP  0  0  0  0  0  0  0  0  0  0  0  0  # atno 17371 bound_to 10713
  141.0978  133.6688  156.2686 LP  0  0  0  0  0  0  0  0  0  0  0  0  # atno 17394 bound_to 11000
  140.6066  134.5500  157.5527 LP  0  0  0  0  0  0  0  0  0  0  0  0  # atno 17395 bound_to 11000

$$$$
