AV-unprocessed.smi:3335|AV-procd|sdf|12837|dock6
  -GOLD-   2272019223D 1   1.00000     0.00000
 Structure written by MMmdl.
 47 48  0  0  0  0  0  0  0  0  2 V2000
  145.8181  141.4412  154.9242 C   0  0  0  0  0  0  0  0  0  0  0  0
  147.2592  141.1131  154.6606 C   0  0  0  0  0  0  0  0  0  0  0  0
  148.2839  141.9847  154.1957 C   0  0  0  0  0  0  0  0  0  0  0  0
  149.4495  141.3758  154.0543 N   0  0  0  0  0  0  0  0  0  0  0  0
  149.2192  140.1000  154.4400 N   0  0  0  0  0  0  0  0  0  0  0  0
  150.2766  139.0966  154.3704 C   0  0  2  0  0  0  0  0  0  0  0  0
  149.7549  137.6814  154.6989 C   0  0  0  0  0  0  0  0  0  0  0  0
  151.5049  139.5337  155.2076 C   0  0  2  0  0  0  0  0  0  0  0  0
  152.7644  138.7091  154.8870 C   0  0  0  0  0  0  0  0  0  0  0  0
  151.2013  139.4985  156.6602 N   0  3  0  0  0  0  0  0  0  0  0  0
  151.8092  140.5743  157.4783 C   0  0  2  0  0  0  0  0  0  0  0  0
  152.2361  140.0036  158.8395 C   0  0  0  0  0  0  0  0  0  0  0  0
  150.8252  141.7436  157.6879 C   0  0  0  0  0  0  0  0  0  0  0  0
  149.6807  141.6431  157.2435 O   0  0  0  0  0  0  0  0  0  0  0  0
  151.2330  142.8404  158.3613 N   0  0  0  0  0  0  0  0  0  0  0  0
  152.5586  143.0602  158.9396 C   0  0  0  0  0  0  0  0  0  0  0  0
  152.4405  144.3317  159.7799 C   0  0  0  0  0  0  0  0  0  0  0  0
  151.2881  145.0938  159.1420 C   0  0  0  0  0  0  0  0  0  0  0  0
  150.3714  143.9971  158.6010 C   0  0  0  0  0  0  0  0  0  0  0  0
  147.9001  139.9147  154.7982 C   0  0  0  0  0  0  0  0  0  0  0  0
  145.6485  142.5173  154.9664 H   0  0  0  0  0  0  0  0  0  0  0  0
  145.4771  141.0255  155.8725 H   0  0  0  0  0  0  0  0  0  0  0  0
  145.1675  141.0436  154.1451 H   0  0  0  0  0  0  0  0  0  0  0  0
  148.2131  143.0340  153.9496 H   0  0  0  0  0  0  0  0  0  0  0  0
  150.5930  139.0717  153.3264 H   0  0  0  0  0  0  0  0  0  0  0  0
  150.5101  136.9215  154.4996 H   0  0  0  0  0  0  0  0  0  0  0  0
  148.8875  137.4369  154.0847 H   0  0  0  0  0  0  0  0  0  0  0  0
  149.4564  137.5854  155.7432 H   0  0  0  0  0  0  0  0  0  0  0  0
  151.7176  140.5662  154.9263 H   0  0  0  0  0  0  0  0  0  0  0  0
  152.9612  138.6965  153.8146 H   0  0  0  0  0  0  0  0  0  0  0  0
  152.6668  137.6757  155.2196 H   0  0  0  0  0  0  0  0  0  0  0  0
  153.6484  139.1251  155.3699 H   0  0  0  0  0  0  0  0  0  0  0  0
  150.1990  139.5727  156.7708 H   0  0  0  0  0  0  0  0  0  0  0  0
  152.7053  140.9123  156.9605 H   0  0  0  0  0  0  0  0  0  0  0  0
  152.7078  140.7650  159.4618 H   0  0  0  0  0  0  0  0  0  0  0  0
  152.9562  139.1945  158.7150 H   0  0  0  0  0  0  0  0  0  0  0  0
  151.3843  139.6054  159.3926 H   0  0  0  0  0  0  0  0  0  0  0  0
  152.8918  142.2197  159.5494 H   0  0  0  0  0  0  0  0  0  0  0  0
  153.2787  143.2066  158.1331 H   0  0  0  0  0  0  0  0  0  0  0  0
  152.1799  144.0700  160.8063 H   0  0  0  0  0  0  0  0  0  0  0  0
  153.3657  144.9081  159.8072 H   0  0  0  0  0  0  0  0  0  0  0  0
  150.7824  145.7609  159.8407 H   0  0  0  0  0  0  0  0  0  0  0  0
  151.6633  145.6978  158.3147 H   0  0  0  0  0  0  0  0  0  0  0  0
  149.8563  144.3228  157.6959 H   0  0  0  0  0  0  0  0  0  0  0  0
  149.6171  143.7292  159.3426 H   0  0  0  0  0  0  0  0  0  0  0  0
  147.5272  138.9518  155.1154 H   0  0  0  0  0  0  0  0  0  0  0  0
  151.4951  138.6017  157.0194 H   0  0  0  0  0  0  0  0  0  0  0  0
  1  2  1  0  0  0  0
  1 21  1  0  0  0  0
  1 22  1  0  0  0  0
  1 23  1  0  0  0  0
  2 20  2  0  0  0  0
  2  3  1  0  0  0  0
  3  4  2  0  0  0  0
  3 24  1  0  0  0  0
  4  5  1  0  0  0  0
  5  6  1  0  0  0  0
  5 20  1  0  0  0  0
  6  7  1  0  0  0  0
  6  8  1  0  0  0  0
  6 25  1  0  0  0  0
  7 26  1  0  0  0  0
  7 27  1  0  0  0  0
  7 28  1  0  0  0  0
  8  9  1  0  0  0  0
  8 10  1  0  0  0  0
  8 29  1  0  0  0  0
  9 30  1  0  0  0  0
  9 31  1  0  0  0  0
  9 32  1  0  0  0  0
 10 11  1  0  0  0  0
 10 33  1  0  0  0  0
 10 47  1  0  0  0  0
 11 12  1  0  0  0  0
 11 13  1  0  0  0  0
 11 34  1  0  0  0  0
 12 35  1  0  0  0  0
 12 36  1  0  0  0  0
 12 37  1  0  0  0  0
 13 14  2  0  0  0  0
 13 15  1  0  0  0  0
 15 19  1  0  0  0  0
 15 16  1  0  0  0  0
 16 17  1  0  0  0  0
 16 38  1  0  0  0  0
 16 39  1  0  0  0  0
 17 18  1  0  0  0  0
 17 40  1  0  0  0  0
 17 41  1  0  0  0  0
 18 19  1  0  0  0  0
 18 42  1  0  0  0  0
 18 43  1  0  0  0  0
 19 44  1  0  0  0  0
 19 45  1  0  0  0  0
 20 46  1  0  0  0  0
M  CHG  1  10   1
M  END
> <s_m_source_file>
AV-unprocessed.smi

> <i_m_source_file_index>
3335

> <i_lp_mmshare_version>
43012

> <i_f3d_flags>
0

> <s_epik_input>
W0NIM11jMVtjSF1ubihbY0hdMSlbQ0BIXShbQ0gzXSlbQ0BIXShbQ0gzXSlbTkhdW0NASF0oW0NIM10pQyg9TylOMltDSDJdW0NIMl1bQ0gyXVtDSDJdMg==

> <s_epik_cmdline>
J2VwaWtfcHl0aG9uJywgJy1waCcsICc3LjAnLCAnLXRuJywgJzgnLCAnLW1hJywgJzIwMCcsICctbWV0YWxfYmluZGluZycsICctaW1hZScsICc8aW5maWxlLm1hZT4nLCAnLW9tYWUnLCAnPG91dGZpbGUubWFlPic=

> <r_lp_tautomer_probability>
1

> <r_epik_Ionization_Penalty>
0.14175

> <r_epik_Ionization_Penalty_Charging>
0.141731

> <r_epik_Ionization_Penalty_Neutral>
1.91261e-05

> <r_epik_State_Penalty>
0.131043

> <r_epik_Charging_Adjusted_Penalty>
0.272773

> <i_epik_Tot_Q>
1

> <i_epik_Tot_abs_Q>
1

> <r_epik_Metal_State_Penalty>
0.131408

> <b_epik_Metal_Only>
0

> <s_lp_Force_Field>
OPLS_2005

> <r_lp_Energy>
36.483

> <b_lp_Chiralities_Consistent>
1

> <s_lp_Variant>
AV-unprocessed.smi:3335-1

> <Gold.Version>
5.8.1

> <Gold.Id.Protein>
6NUR|6NUR_protein|mol2

> <Gold.PLP.Fitness>
44.3844

> <Gold.PLP.PLP>
-42.4859

> <Gold.PLP.part.hbond>
-2.0000

> <Gold.PLP.part.metal>
0.0000

> <Gold.PLP.part.buried>
-2.2261

> <Gold.PLP.part.nonpolar>
-38.0854

> <Gold.PLP.part.repulsive>
0.3593

> <Gold.PLP.ligand.clash>
0.0000

> <Gold.PLP.ligand.torsion>
1.1029

> <Gold.PLP.Chemscore.Hbond>
0.4939

> <Gold.PLP.Chemscore.CHOScore>
0.8046

> <Gold.PLP.Chemscore.Metal>
0.0000

> <Gold.Chemscore.Hbonds>
donor molecule, donor type, donor heavy atom, donor atom, acceptor molecule, acceptor atom, score
      P1  H  7989  7998       L1     4  0.07
      P1  H  8011  8017       L1     4  0.35
      L1  C     3    24       P1  8028  0.81

> <Gold.PLP.Chemscore.Internal.Correction>
0.2089

> <Gold.Rescore>
     Score         DG    S(hbond)    S(metal)    S(lipo)     H(rot)  DE(clash)    DE(int)     intcor
     13.14     -14.50       0.16        0.00     109.30       1.68       0.22       1.15       ----

> <Gold.Chemscore.Fitness>
13.1361

> <Gold.Chemscore.DG>
-14.5015

> <Gold.Chemscore.ZeroCoef>
-5.4800

> <Gold.Chemscore.Hbond>
0.1584

> <Gold.Chemscore.Metal>
0.0000

> <Gold.Chemscore.Lipo>
109.2968

> <Gold.Chemscore.Internal_Hbond>
0.0000

> <Gold.Chemscore.DEClash>
0.2152

> <Gold.Chemscore.DEInternal>
1.1502

> <Gold.Chemscore.Rot>
1.6778

> <Gold.Chemscore.Internal.Correction>
   9.000000E+99

> <Gold.Chemscore.Hbonds>
donor molecule, donor type, donor heavy atom, donor atom, acceptor molecule, acceptor atom, score
      P1  H  7989  7998       L1     4  0.01
      P1  H  8011  8017       L1     4  0.01

> <Gold.Chemscore.Hbond.Weighted>
-0.5289

> <Gold.Chemscore.Metal.Weighted>
-0.0000

> <Gold.Chemscore.Lipo.Weighted>
-12.7877

> <Gold.Chemscore.Internal_Hbond.Weighted>
0.0000

> <Gold.Chemscore.DEClash.Weighted>
0.2152

> <Gold.Chemscore.DEInternal.Weighted>
1.1502

> <Gold.Chemscore.Rot.Weighted>
4.2952

> <Gold.Chemscore.Internal.Correction.Weighted>
   9.000000E+99

> <Gold.Protein.RotatedTorsions>
[ 6907 6896 6895 6894 ] final -168.80 input  -60.11 | X-H torsion
[ 7974 7965 7964 7962 ] final  164.65 input  175.53 | X-H torsion
[ 8008 7997 7996 7995 ] final  150.54 input   59.86 | X-H torsion
[ 10167 10162 10161 10158 ] final  114.95 input  -65.29 | X-H torsion
[ 10718 10713 10712 10709 ] final  -36.84 input   66.30 | X-H torsion
[ 10763 10752 10751 10750 ] final  -11.00 input  -60.55 | X-H torsion
[ 11005 11000 10999 10996 ] final  -28.27 input  -57.11 | X-H torsion

> <Gold.Protein.ActiveResidues>
 VAL166  LYS551  ARG553  GLY616  TRP617  ASP618  TYR619  PRO620  LYS621  CYS622 
 ASP623  PHE694  ASN695  SER759  ASP760  ASP761  ALA762  ILE779  LEU786  VAL792 
 PHE793  MET794  SER795  GLU796  ALA797  LYS798  CYS799  TRP800  GLU811  SER814 

> <Gold.Protein.RotatedAtoms>
  151.4814  133.3545  159.2838 H   0  0  0  0  0  0  0  0  0  0  0  0  # atno 6907 bound_to 6896
  150.8894  134.8298  159.7293 H   0  0  0  0  0  0  0  0  0  0  0  0  # atno 6908 bound_to 6896
  152.4814  134.4722  159.9691 H   0  0  0  0  0  0  0  0  0  0  0  0  # atno 6909 bound_to 6896
  144.7536  139.8357  143.6358 H   0  0  0  0  0  0  0  0  0  0  0  0  # atno 7974 bound_to 7965
  156.2711  140.2072  156.6033 H   0  0  0  0  0  0  0  0  0  0  0  0  # atno 8008 bound_to 7997
  154.6889  140.0532  157.0366 H   0  0  0  0  0  0  0  0  0  0  0  0  # atno 8009 bound_to 7997
  155.0895  140.3195  155.4581 H   0  0  0  0  0  0  0  0  0  0  0  0  # atno 8010 bound_to 7997
  139.6351  144.7119  151.2350 H   0  0  0  0  0  0  0  0  0  0  0  0  # atno 10167 bound_to 10162
  156.3221  130.4267  149.7950 H   0  0  0  0  0  0  0  0  0  0  0  0  # atno 10718 bound_to 10713
  153.4774  135.7017  153.5958 H   0  0  0  0  0  0  0  0  0  0  0  0  # atno 10763 bound_to 10752
  153.4186  135.3831  155.2097 H   0  0  0  0  0  0  0  0  0  0  0  0  # atno 10764 bound_to 10752
  154.8723  135.3922  154.4219 H   0  0  0  0  0  0  0  0  0  0  0  0  # atno 10765 bound_to 10752
  140.9193  133.7409  156.0779 H   0  0  0  0  0  0  0  0  0  0  0  0  # atno 11005 bound_to 11000
  146.1518  139.4603  143.0044 LP  0  0  0  0  0  0  0  0  0  0  0  0  # atno 17320 bound_to 7965
  145.6858  141.0178  143.1582 LP  0  0  0  0  0  0  0  0  0  0  0  0  # atno 17321 bound_to 7965
  140.7461  143.6410  150.8335 LP  0  0  0  0  0  0  0  0  0  0  0  0  # atno 17342 bound_to 10162
  140.0040  143.5714  152.2865 LP  0  0  0  0  0  0  0  0  0  0  0  0  # atno 17343 bound_to 10162
  156.5254  130.8234  151.3218 LP  0  0  0  0  0  0  0  0  0  0  0  0  # atno 17370 bound_to 10713
  157.7414  130.9869  150.2442 LP  0  0  0  0  0  0  0  0  0  0  0  0  # atno 17371 bound_to 10713
  140.8008  134.3510  157.5440 LP  0  0  0  0  0  0  0  0  0  0  0  0  # atno 17394 bound_to 11000
  139.8772  134.9197  156.3232 LP  0  0  0  0  0  0  0  0  0  0  0  0  # atno 17395 bound_to 11000

$$$$
