AV-unprocessed.smi:2673|AV-procd|sdf|10356|dock10
  -GOLD-   2272014383D 1   1.00000     0.00000
 Structure written by MMmdl.
 32 33  0  0  0  0  0  0  0  0  1 V2000
  144.6145  135.5143  152.6602 O   0  0  0  0  0  0  0  0  0  0  0  0
  144.1069  134.5008  153.1380 C   0  0  0  0  0  0  0  0  0  0  0  0
  142.8667  134.4296  153.6528 N   0  0  0  0  0  0  0  0  0  0  0  0
  141.8876  135.4547  153.7395 C   0  0  0  0  0  0  0  0  0  0  0  0
  140.6226  135.2460  154.1369 N   0  0  0  0  0  0  0  0  0  0  0  0
  139.8771  136.4179  154.1344 N   0  0  0  0  0  0  0  0  0  0  0  0
  140.6079  137.4627  153.7355 C   0  0  0  0  0  0  0  0  0  0  0  0
  142.2784  137.1171  153.3226 S   0  0  0  0  0  0  0  0  0  0  0  0
  144.7240  133.3101  153.2186 N   0  0  0  0  0  0  0  0  0  0  0  0
  146.0702  132.9190  152.7649 C   0  0  0  0  0  0  0  0  0  0  0  0
  147.1302  133.3424  153.8228 C   0  0  0  0  0  0  0  0  0  0  0  0
  147.0853  134.6597  154.0274 F   0  0  0  0  0  0  0  0  0  0  0  0
  146.8920  132.7335  154.9859 F   0  0  0  0  0  0  0  0  0  0  0  0
  148.3688  133.0372  153.4374 F   0  0  0  0  0  0  0  0  0  0  0  0
  146.1685  131.3959  152.4601 C   0  0  0  0  0  0  0  0  0  0  0  0
  145.2286  130.9448  151.3272 C   0  0  0  0  0  0  0  0  0  0  0  0
  145.4947  131.7387  150.0403 C   0  0  0  0  0  0  0  0  0  0  0  0
  145.3990  133.2500  150.2921 C   0  0  0  0  0  0  0  0  0  0  0  0
  146.3301  133.6869  151.4402 C   0  0  0  0  0  0  0  0  0  0  0  0
  142.5842  133.5317  154.0168 H   0  0  0  0  0  0  0  0  0  0  0  0
  140.1601  138.4439  153.6843 H   0  0  0  0  0  0  0  0  0  0  0  0
  144.1894  132.5630  153.6364 H   0  0  0  0  0  0  0  0  0  0  0  0
  147.1921  131.1557  152.1709 H   0  0  0  0  0  0  0  0  0  0  0  0
  145.9796  130.7993  153.3517 H   0  0  0  0  0  0  0  0  0  0  0  0
  145.3654  129.8799  151.1371 H   0  0  0  0  0  0  0  0  0  0  0  0
  144.1886  131.0692  151.6308 H   0  0  0  0  0  0  0  0  0  0  0  0
  146.4880  131.4951  149.6613 H   0  0  0  0  0  0  0  0  0  0  0  0
  144.7868  131.4430  149.2656 H   0  0  0  0  0  0  0  0  0  0  0  0
  145.6591  133.7908  149.3818 H   0  0  0  0  0  0  0  0  0  0  0  0
  144.3674  133.5196  150.5211 H   0  0  0  0  0  0  0  0  0  0  0  0
  146.2271  134.7610  151.5997 H   0  0  0  0  0  0  0  0  0  0  0  0
  147.3611  133.5320  151.1204 H   0  0  0  0  0  0  0  0  0  0  0  0
  1  2  2  0  0  0  0
  2  3  1  0  0  0  0
  2  9  1  0  0  0  0
  3  4  1  0  0  0  0
  3 20  1  0  0  0  0
  4  8  1  0  0  0  0
  4  5  2  0  0  0  0
  5  6  1  0  0  0  0
  6  7  2  0  0  0  0
  7  8  1  0  0  0  0
  7 21  1  0  0  0  0
  9 10  1  0  0  0  0
  9 22  1  0  0  0  0
 10 19  1  0  0  0  0
 10 11  1  0  0  0  0
 10 15  1  0  0  0  0
 11 12  1  0  0  0  0
 11 13  1  0  0  0  0
 11 14  1  0  0  0  0
 15 16  1  0  0  0  0
 15 23  1  0  0  0  0
 15 24  1  0  0  0  0
 16 17  1  0  0  0  0
 16 25  1  0  0  0  0
 16 26  1  0  0  0  0
 17 18  1  0  0  0  0
 17 27  1  0  0  0  0
 17 28  1  0  0  0  0
 18 19  1  0  0  0  0
 18 29  1  0  0  0  0
 18 30  1  0  0  0  0
 19 31  1  0  0  0  0
 19 32  1  0  0  0  0
M  END
> <s_m_source_file>
AV-unprocessed.smi

> <i_m_source_file_index>
2673

> <i_lp_mmshare_version>
43012

> <i_f3d_flags>
0

> <s_epik_input>
czFbY0hdbm5jMVtOSF1DKD1PKVtOSF1DMihDKEYpKEYpRilbQ0gyXVtDSDJdW0NIMl1bQ0gyXVtDSDJdMg==

> <s_epik_cmdline>
J2VwaWtfcHl0aG9uJywgJy1waCcsICc3LjAnLCAnLXRuJywgJzgnLCAnLW1hJywgJzIwMCcsICctbWV0YWxfYmluZGluZycsICctaW1hZScsICc8aW5maWxlLm1hZT4nLCAnLW9tYWUnLCAnPG91dGZpbGUubWFlPic=

> <r_lp_tautomer_probability>
1

> <r_epik_Ionization_Penalty>
1.40881

> <r_epik_Ionization_Penalty_Charging>
0

> <r_epik_Ionization_Penalty_Neutral>
1.40881

> <r_epik_State_Penalty>
1.51827

> <r_epik_Charging_Adjusted_Penalty>
1.51827

> <i_epik_Tot_Q>
0

> <i_epik_Tot_abs_Q>
0

> <r_epik_Metal_State_Penalty>
1.5692

> <b_epik_Metal_Only>
0

> <s_lp_Force_Field>
OPLS_2005

> <r_lp_Energy>
12.8136

> <b_lp_Chiralities_Consistent>
1

> <s_lp_Variant>
AV-unprocessed.smi:2673-2

> <Gold.Version>
5.8.1

> <Gold.Id.Protein>
6NUR|6NUR_protein|mol2

> <Gold.PLP.Fitness>
40.1042

> <Gold.PLP.PLP>
-32.1539

> <Gold.PLP.part.hbond>
-3.8723

> <Gold.PLP.part.metal>
0.0000

> <Gold.PLP.part.buried>
-6.6712

> <Gold.PLP.part.nonpolar>
-22.4025

> <Gold.PLP.part.repulsive>
0.4001

> <Gold.PLP.ligand.clash>
0.0000

> <Gold.PLP.ligand.torsion>
0.5258

> <Gold.PLP.Chemscore.Hbond>
2.9913

> <Gold.PLP.Chemscore.CHOScore>
0.0000

> <Gold.PLP.Chemscore.Metal>
0.0000

> <Gold.Chemscore.Hbonds>
donor molecule, donor type, donor heavy atom, donor atom, acceptor molecule, acceptor atom, score
      L1  H     3    20       P1 10957  1.00
      L1  H     9    22       P1 10957  0.94
      P1  H 11000 11005       L1     5  1.00

> <Gold.PLP.Chemscore.Internal.Correction>
0.0282

> <Gold.Rescore>
     Score         DG    S(hbond)    S(metal)    S(lipo)     H(rot)  DE(clash)    DE(int)     intcor
     13.95     -17.32       2.24        0.00      59.24       1.00       0.02       3.35       ----

> <Gold.Chemscore.Fitness>
13.9521

> <Gold.Chemscore.DG>
-17.3216

> <Gold.Chemscore.ZeroCoef>
-5.4800

> <Gold.Chemscore.Hbond>
2.2367

> <Gold.Chemscore.Metal>
0.0000

> <Gold.Chemscore.Lipo>
59.2396

> <Gold.Chemscore.Internal_Hbond>
0.0000

> <Gold.Chemscore.DEClash>
0.0163

> <Gold.Chemscore.DEInternal>
3.3532

> <Gold.Chemscore.Rot>
1.0000

> <Gold.Chemscore.Internal.Correction>
   9.000000E+99

> <Gold.Chemscore.Hbonds>
donor molecule, donor type, donor heavy atom, donor atom, acceptor molecule, acceptor atom, score
      L1  H     3    20       P1 10957  0.99
      L1  H     9    22       P1 10957  0.40
      P1  H 11000 11005       L1     5  0.24

> <Gold.Chemscore.Hbond.Weighted>
-7.4706

> <Gold.Chemscore.Metal.Weighted>
-0.0000

> <Gold.Chemscore.Lipo.Weighted>
-6.9310

> <Gold.Chemscore.Internal_Hbond.Weighted>
0.0000

> <Gold.Chemscore.DEClash.Weighted>
0.0163

> <Gold.Chemscore.DEInternal.Weighted>
3.3532

> <Gold.Chemscore.Rot.Weighted>
2.5600

> <Gold.Chemscore.Internal.Correction.Weighted>
   9.000000E+99

> <Gold.Protein.RotatedTorsions>
[ 6907 6896 6895 6894 ] final -109.45 input  -60.11 | X-H torsion
[ 7974 7965 7964 7962 ] final  133.70 input  175.53 | X-H torsion
[ 8008 7997 7996 7995 ] final   -7.89 input   59.86 | X-H torsion
[ 10167 10162 10161 10158 ] final  -89.07 input  -65.29 | X-H torsion
[ 10718 10713 10712 10709 ] final  111.88 input   66.30 | X-H torsion
[ 10763 10752 10751 10750 ] final  -98.59 input  -60.55 | X-H torsion
[ 11005 11000 10999 10996 ] final   52.04 input  -57.11 | X-H torsion

> <Gold.Protein.ActiveResidues>
 VAL166  LYS551  ARG553  GLY616  TRP617  ASP618  TYR619  PRO620  LYS621  CYS622 
 ASP623  PHE694  ASN695  SER759  ASP760  ASP761  ALA762  ILE779  LEU786  VAL792 
 PHE793  MET794  SER795  GLU796  ALA797  LYS798  CYS799  TRP800  GLU811  SER814 

> <Gold.Protein.RotatedAtoms>
  150.7563  133.9527  159.3490 H   0  0  0  0  0  0  0  0  0  0  0  0  # atno 6907 bound_to 6896
  151.7446  135.0844  160.0330 H   0  0  0  0  0  0  0  0  0  0  0  0  # atno 6908 bound_to 6896
  152.3506  133.6138  159.5978 H   0  0  0  0  0  0  0  0  0  0  0  0  # atno 6909 bound_to 6896
  144.9839  139.4476  143.5373 H   0  0  0  0  0  0  0  0  0  0  0  0  # atno 7974 bound_to 7965
  154.5794  140.2395  155.8075 H   0  0  0  0  0  0  0  0  0  0  0  0  # atno 8008 bound_to 7997
  156.2168  140.3010  155.9814 H   0  0  0  0  0  0  0  0  0  0  0  0  # atno 8009 bound_to 7997
  155.2568  140.0413  157.2983 H   0  0  0  0  0  0  0  0  0  0  0  0  # atno 8010 bound_to 7997
  140.3685  143.2806  151.9529 H   0  0  0  0  0  0  0  0  0  0  0  0  # atno 10167 bound_to 10162
  157.6422  131.0958  150.6813 H   0  0  0  0  0  0  0  0  0  0  0  0  # atno 10718 bound_to 10713
  154.7427  135.5003  153.9150 H   0  0  0  0  0  0  0  0  0  0  0  0  # atno 10763 bound_to 10752
  153.1060  135.6697  153.9594 H   0  0  0  0  0  0  0  0  0  0  0  0  # atno 10764 bound_to 10752
  153.9367  135.3072  155.3423 H   0  0  0  0  0  0  0  0  0  0  0  0  # atno 10765 bound_to 10752
  140.0883  134.5244  155.8877 H   0  0  0  0  0  0  0  0  0  0  0  0  # atno 11005 bound_to 11000
  146.3415  139.9129  142.8778 LP  0  0  0  0  0  0  0  0  0  0  0  0  # atno 17320 bound_to 7965
  145.2382  140.9999  143.3951 LP  0  0  0  0  0  0  0  0  0  0  0  0  # atno 17321 bound_to 7965
  139.4806  144.5928  151.7741 LP  0  0  0  0  0  0  0  0  0  0  0  0  # atno 17342 bound_to 10162
  140.5057  144.1102  150.5982 LP  0  0  0  0  0  0  0  0  0  0  0  0  # atno 17343 bound_to 10162
  156.7136  130.4659  149.5541 LP  0  0  0  0  0  0  0  0  0  0  0  0  # atno 17370 bound_to 10713
  156.1713  130.6439  151.0841 LP  0  0  0  0  0  0  0  0  0  0  0  0  # atno 17371 bound_to 10713
  141.2069  133.6660  156.6275 LP  0  0  0  0  0  0  0  0  0  0  0  0  # atno 17394 bound_to 11000
  140.3389  134.7866  157.4383 LP  0  0  0  0  0  0  0  0  0  0  0  0  # atno 17395 bound_to 11000

$$$$
