AV-unprocessed.smi:713|AV-procd|sdf|3474|dock5
  -GOLD-   22720 0463D 1   1.00000     0.00000
 Structure written by MMmdl.
 41 42  0  0  0  0  0  0  0  0  1 V2000
  145.8781  131.7183  150.5412 C   0  0  0  0  0  0  0  0  0  0  0  0
  146.4104  132.9620  151.2821 C   0  0  2  0  0  0  0  0  0  0  0  0
  147.1313  132.6195  152.5982 C   0  0  0  0  0  0  0  0  0  0  0  0
  146.9643  131.5280  153.1442 O   0  0  0  0  0  0  0  0  0  0  0  0
  147.9475  133.5651  153.0919 N   0  0  0  0  0  0  0  0  0  0  0  0
  148.7186  133.4542  154.3253 C   0  0  2  0  0  0  0  0  0  0  0  0
  149.8196  134.5296  154.3415 C   0  0  0  0  0  0  0  0  0  0  0  0
  150.6921  134.4294  155.6026 C   0  0  0  0  0  0  0  0  0  0  0  0
  151.2772  133.0159  155.7777 C   0  0  0  0  0  0  0  0  0  0  0  0
  150.2191  131.8910  155.7043 C   0  0  1  0  0  0  0  0  0  0  0  0
  149.1786  131.7450  157.2403 S   0  0  0  0  0  0  0  0  0  0  0  0
  149.7188  130.1277  157.9336 C   0  0  0  0  0  0  0  0  0  0  0  0
  149.5548  132.7889  158.2048 O   0  0  0  0  0  0  0  0  0  0  0  0
  147.7727  131.6192  156.8279 O   0  0  0  0  0  0  0  0  0  0  0  0
  149.3380  132.0468  154.4489 C   0  0  0  0  0  0  0  0  0  0  0  0
  145.3586  133.9481  151.5072 N   0  0  0  0  0  0  0  0  0  0  0  0
  144.2371  133.8260  152.3025 C   0  0  0  0  0  0  0  0  0  0  0  0
  143.5208  134.9822  152.1829 C   0  0  0  0  0  0  0  0  0  0  0  0
  144.2884  135.7627  151.2744 C   0  0  0  0  0  0  0  0  0  0  0  0
  145.3826  135.1409  150.8675 N   0  0  0  0  0  0  0  0  0  0  0  0
  146.6857  131.0251  150.3039 H   0  0  0  0  0  0  0  0  0  0  0  0
  145.4047  132.0001  149.6005 H   0  0  0  0  0  0  0  0  0  0  0  0
  145.1393  131.1759  151.1328 H   0  0  0  0  0  0  0  0  0  0  0  0
  147.1536  133.4288  150.6339 H   0  0  0  0  0  0  0  0  0  0  0  0
  148.0296  134.4322  152.5812 H   0  0  0  0  0  0  0  0  0  0  0  0
  148.0509  133.6360  155.1683 H   0  0  0  0  0  0  0  0  0  0  0  0
  150.4516  134.4237  153.4583 H   0  0  0  0  0  0  0  0  0  0  0  0
  149.3734  135.5232  154.2840 H   0  0  0  0  0  0  0  0  0  0  0  0
  151.5044  135.1542  155.5417 H   0  0  0  0  0  0  0  0  0  0  0  0
  150.1100  134.7153  156.4766 H   0  0  0  0  0  0  0  0  0  0  0  0
  152.0066  132.8503  154.9838 H   0  0  0  0  0  0  0  0  0  0  0  0
  151.8404  132.9586  156.7080 H   0  0  0  0  0  0  0  0  0  0  0  0
  150.7424  130.9379  155.6239 H   0  0  0  0  0  0  0  0  0  0  0  0
  149.0917  129.8779  158.7892 H   0  0  0  0  0  0  0  0  0  0  0  0
  150.7559  130.1885  158.2612 H   0  0  0  0  0  0  0  0  0  0  0  0
  149.6172  129.3519  157.1752 H   0  0  0  0  0  0  0  0  0  0  0  0
  148.5559  131.2869  154.4493 H   0  0  0  0  0  0  0  0  0  0  0  0
  149.9475  131.8472  153.5664 H   0  0  0  0  0  0  0  0  0  0  0  0
  144.0437  132.9349  152.8814 H   0  0  0  0  0  0  0  0  0  0  0  0
  142.5891  135.2316  152.6684 H   0  0  0  0  0  0  0  0  0  0  0  0
  144.0833  136.7543  150.8987 H   0  0  0  0  0  0  0  0  0  0  0  0
  1  2  1  0  0  0  0
  1 21  1  0  0  0  0
  1 22  1  0  0  0  0
  1 23  1  0  0  0  0
  2  3  1  0  0  0  0
  2 16  1  0  0  0  0
  2 24  1  0  0  0  0
  3  4  2  0  0  0  0
  3  5  1  0  0  0  0
  5  6  1  0  0  0  0
  5 25  1  0  0  0  0
  6 15  1  0  0  0  0
  6  7  1  0  0  0  0
  6 26  1  0  0  0  0
  7  8  1  0  0  0  0
  7 27  1  0  0  0  0
  7 28  1  0  0  0  0
  8  9  1  0  0  0  0
  8 29  1  0  0  0  0
  8 30  1  0  0  0  0
  9 10  1  0  0  0  0
  9 31  1  0  0  0  0
  9 32  1  0  0  0  0
 10 11  1  0  0  0  0
 10 15  1  0  0  0  0
 10 33  1  0  0  0  0
 11 12  1  0  0  0  0
 11 13  2  0  0  0  0
 11 14  2  0  0  0  0
 12 34  1  0  0  0  0
 12 35  1  0  0  0  0
 12 36  1  0  0  0  0
 15 37  1  0  0  0  0
 15 38  1  0  0  0  0
 16 20  1  0  0  0  0
 16 17  1  0  0  0  0
 17 18  2  0  0  0  0
 17 39  1  0  0  0  0
 18 19  1  0  0  0  0
 18 40  1  0  0  0  0
 19 20  2  0  0  0  0
 19 41  1  0  0  0  0
M  END
> <s_m_source_file>
AV-unprocessed.smi

> <i_m_source_file_index>
713

> <i_lp_mmshare_version>
43012

> <i_f3d_flags>
0

> <s_epik_input>
bjFbY0hdW2NIXVtjSF1uMVtDQEhdKFtDSDNdKUMoPU8pW05IXVtDQEBIXTJbQ0gyXVtDSDJdW0NIMl1bQ0BIXShbQ0gyXTIpUyg9TykoPU8pW0NIM10=

> <s_epik_cmdline>
J2VwaWtfcHl0aG9uJywgJy1waCcsICc3LjAnLCAnLXRuJywgJzgnLCAnLW1hJywgJzIwMCcsICctbWV0YWxfYmluZGluZycsICctaW1hZScsICc8aW5maWxlLm1hZT4nLCAnLW9tYWUnLCAnPG91dGZpbGUubWFlPic=

> <r_lp_tautomer_probability>
1

> <r_epik_Ionization_Penalty>
4.07816e-05

> <r_epik_Ionization_Penalty_Charging>
0

> <r_epik_Ionization_Penalty_Neutral>
4.07816e-05

> <r_epik_State_Penalty>
-0

> <r_epik_Charging_Adjusted_Penalty>
0

> <i_epik_Tot_Q>
0

> <i_epik_Tot_abs_Q>
0

> <r_epik_Metal_State_Penalty>
-0

> <b_epik_Metal_Only>
0

> <s_lp_Force_Field>
OPLS_2005

> <r_lp_Energy>
4.10812

> <b_lp_Chiralities_Consistent>
1

> <s_lp_Variant>
AV-unprocessed.smi:713-1

> <Gold.Version>
5.8.1

> <Gold.Id.Protein>
6NUR|6NUR_protein|mol2

> <Gold.PLP.Fitness>
37.8641

> <Gold.PLP.PLP>
-28.2091

> <Gold.PLP.part.hbond>
-1.9344

> <Gold.PLP.part.metal>
0.0000

> <Gold.PLP.part.buried>
-2.7276

> <Gold.PLP.part.nonpolar>
-23.1354

> <Gold.PLP.part.repulsive>
0.3471

> <Gold.PLP.ligand.clash>
0.0000

> <Gold.PLP.ligand.torsion>
0.8250

> <Gold.PLP.Chemscore.Hbond>
1.8288

> <Gold.PLP.Chemscore.CHOScore>
1.8431

> <Gold.PLP.Chemscore.Metal>
0.0000

> <Gold.Chemscore.Hbonds>
donor molecule, donor type, donor heavy atom, donor atom, acceptor molecule, acceptor atom, score
      L1  H     5    25       P1  7948  0.83
      P1  H  6896  6908       L1    13  1.00
      L1  C    17    39       P1 10957  0.80
      L1  C    19    41       P1 10171  1.00

> <Gold.PLP.Chemscore.Internal.Correction>
0.2894

> <Gold.Rescore>
     Score         DG    S(hbond)    S(metal)    S(lipo)     H(rot)  DE(clash)    DE(int)     intcor
     12.28     -14.49       1.87        0.00      61.41       1.72       0.04       2.17       ----

> <Gold.Chemscore.Fitness>
12.2779

> <Gold.Chemscore.DG>
-14.4866

> <Gold.Chemscore.ZeroCoef>
-5.4800

> <Gold.Chemscore.Hbond>
1.8675

> <Gold.Chemscore.Metal>
0.0000

> <Gold.Chemscore.Lipo>
61.4103

> <Gold.Chemscore.Internal_Hbond>
0.0000

> <Gold.Chemscore.DEClash>
0.0375

> <Gold.Chemscore.DEInternal>
2.1713

> <Gold.Chemscore.Rot>
1.7249

> <Gold.Chemscore.Internal.Correction>
   9.000000E+99

> <Gold.Chemscore.Hbonds>
donor molecule, donor type, donor heavy atom, donor atom, acceptor molecule, acceptor atom, score
      L1  H     5    25       P1  7948  0.32
      P1  H  6896  6908       L1    13  1.00

> <Gold.Chemscore.Hbond.Weighted>
-6.2374

> <Gold.Chemscore.Metal.Weighted>
-0.0000

> <Gold.Chemscore.Lipo.Weighted>
-7.1850

> <Gold.Chemscore.Internal_Hbond.Weighted>
0.0000

> <Gold.Chemscore.DEClash.Weighted>
0.0375

> <Gold.Chemscore.DEInternal.Weighted>
2.1713

> <Gold.Chemscore.Rot.Weighted>
4.4157

> <Gold.Chemscore.Internal.Correction.Weighted>
   9.000000E+99

> <Gold.Protein.RotatedTorsions>
[ 6907 6896 6895 6894 ] final  114.12 input  -60.11 | X-H torsion
[ 7974 7965 7964 7962 ] final -103.87 input  175.53 | X-H torsion
[ 8008 7997 7996 7995 ] final  153.43 input   59.86 | X-H torsion
[ 10167 10162 10161 10158 ] final   16.14 input  -65.29 | X-H torsion
[ 10718 10713 10712 10709 ] final   63.99 input   66.30 | X-H torsion
[ 10763 10752 10751 10750 ] final  178.16 input  -60.55 | X-H torsion
[ 11005 11000 10999 10996 ] final   94.20 input  -57.11 | X-H torsion

> <Gold.Protein.ActiveResidues>
 VAL166  LYS551  ARG553  GLY616  TRP617  ASP618  TYR619  PRO620  LYS621  CYS622 
 ASP623  PHE694  ASN695  SER759  ASP760  ASP761  ALA762  ILE779  LEU786  VAL792 
 PHE793  MET794  SER795  GLU796  ALA797  LYS798  CYS799  TRP800  GLU811  SER814 

> <Gold.Protein.RotatedAtoms>
  152.4821  133.8280  159.7088 H   0  0  0  0  0  0  0  0  0  0  0  0  # atno 6907 bound_to 6896
  150.8879  133.7274  159.2919 H   0  0  0  0  0  0  0  0  0  0  0  0  # atno 6908 bound_to 6896
  151.4756  135.1052  159.9816 H   0  0  0  0  0  0  0  0  0  0  0  0  # atno 6909 bound_to 6896
  145.2503  140.9236  143.3099 H   0  0  0  0  0  0  0  0  0  0  0  0  # atno 7974 bound_to 7965
  156.2582  140.1994  156.6488 H   0  0  0  0  0  0  0  0  0  0  0  0  # atno 8008 bound_to 7997
  154.6552  140.0567  157.0026 H   0  0  0  0  0  0  0  0  0  0  0  0  # atno 8009 bound_to 7997
  155.1358  140.3238  155.4466 H   0  0  0  0  0  0  0  0  0  0  0  0  # atno 8010 bound_to 7997
  140.5818  143.8965  150.6796 H   0  0  0  0  0  0  0  0  0  0  0  0  # atno 10167 bound_to 10162
  157.6009  130.9135  149.9787 H   0  0  0  0  0  0  0  0  0  0  0  0  # atno 10718 bound_to 10713
  154.5040  135.2785  155.1397 H   0  0  0  0  0  0  0  0  0  0  0  0  # atno 10763 bound_to 10752
  154.3019  135.6246  153.5432 H   0  0  0  0  0  0  0  0  0  0  0  0  # atno 10764 bound_to 10752
  152.9907  135.5699  154.5490 H   0  0  0  0  0  0  0  0  0  0  0  0  # atno 10765 bound_to 10752
  139.8801  134.8832  156.3829 H   0  0  0  0  0  0  0  0  0  0  0  0  # atno 11005 bound_to 11000
  144.9509  139.4084  143.6403 LP  0  0  0  0  0  0  0  0  0  0  0  0  # atno 17320 bound_to 7965
  146.3304  139.8515  142.8872 LP  0  0  0  0  0  0  0  0  0  0  0  0  # atno 17321 bound_to 7965
  140.2467  143.3623  152.1441 LP  0  0  0  0  0  0  0  0  0  0  0  0  # atno 17342 bound_to 10162
  139.5174  144.6992  151.5544 LP  0  0  0  0  0  0  0  0  0  0  0  0  # atno 17343 bound_to 10162
  156.1082  130.3651  150.0096 LP  0  0  0  0  0  0  0  0  0  0  0  0  # atno 17370 bound_to 10713
  156.8199  130.9355  151.3641 LP  0  0  0  0  0  0  0  0  0  0  0  0  # atno 17371 bound_to 10713
  140.9386  133.7530  156.0117 LP  0  0  0  0  0  0  0  0  0  0  0  0  # atno 17394 bound_to 11000
  140.8246  134.3250  157.5370 LP  0  0  0  0  0  0  0  0  0  0  0  0  # atno 17395 bound_to 11000

$$$$
