AV-unprocessed.smi:527|AV-procd|sdf|2821|dock7
  -GOLD-   2262023303D 1   1.00000     0.00000
 Structure written by MMmdl.
 42 43  0  0  0  0  0  0  0  0  1 V2000
  151.9123  144.5437  161.1311 C   0  0  0  0  0  0  0  0  0  0  0  0
  151.7694  143.2956  160.2444 C   0  0  2  0  0  0  0  0  0  0  0  0
  153.0954  142.5155  160.1346 C   0  0  0  0  0  0  0  0  0  0  0  0
  152.9197  141.2168  159.3320 C   0  0  0  0  0  0  0  0  0  0  0  0
  152.3050  141.4838  157.9496 C   0  0  0  0  0  0  0  0  0  0  0  0
  150.9792  142.2605  158.0677 C   0  0  2  0  0  0  0  0  0  0  0  0
  150.4076  142.4684  156.7390 N   0  0  0  0  0  0  0  0  0  0  0  0
  150.1505  141.5036  155.8432 C   0  0  0  0  0  0  0  0  0  0  0  0
  150.6562  140.3803  155.8915 O   0  0  0  0  0  0  0  0  0  0  0  0
  149.2753  141.9327  154.9146 N   0  0  0  0  0  0  0  0  0  0  0  0
  148.6358  141.1970  153.9816 C   0  0  0  0  0  0  0  0  0  0  0  0
  148.7725  139.9834  153.8174 O   0  0  0  0  0  0  0  0  0  0  0  0
  147.6782  141.9694  153.0706 C   0  0  0  0  0  0  0  0  0  0  0  0
  146.5885  142.5636  153.8244 N   0  0  0  0  0  0  0  0  0  0  0  0
  146.2606  142.3269  155.1537 C   0  0  0  0  0  0  0  0  0  0  0  0
  145.1559  143.1007  155.4297 C   0  0  0  0  0  0  0  0  0  0  0  0
  144.7903  143.8182  154.2932 N   0  0  0  0  0  0  0  0  0  0  0  0
  145.6841  143.4504  153.3846 C   0  0  0  0  0  0  0  0  0  0  0  0
  151.1635  143.5925  158.8465 C   0  0  2  0  0  0  0  0  0  0  0  0
  151.9453  144.6615  158.0481 C   0  0  0  0  0  0  0  0  0  0  0  0
  152.6812  145.2208  160.7589 H   0  0  0  0  0  0  0  0  0  0  0  0
  152.1909  144.2664  162.1482 H   0  0  0  0  0  0  0  0  0  0  0  0
  150.9745  145.0967  161.1880 H   0  0  0  0  0  0  0  0  0  0  0  0
  151.0616  142.6433  160.7585 H   0  0  0  0  0  0  0  0  0  0  0  0
  153.8607  143.1366  159.6682 H   0  0  0  0  0  0  0  0  0  0  0  0
  153.4668  142.2742  161.1312 H   0  0  0  0  0  0  0  0  0  0  0  0
  153.8813  140.7151  159.2209 H   0  0  0  0  0  0  0  0  0  0  0  0
  152.2777  140.5318  159.8872 H   0  0  0  0  0  0  0  0  0  0  0  0
  153.0149  142.0369  157.3337 H   0  0  0  0  0  0  0  0  0  0  0  0
  152.1358  140.5341  157.4404 H   0  0  0  0  0  0  0  0  0  0  0  0
  150.2883  141.6301  158.6312 H   0  0  0  0  0  0  0  0  0  0  0  0
  150.1766  143.4193  156.4914 H   0  0  0  0  0  0  0  0  0  0  0  0
  149.0594  142.9186  154.9258 H   0  0  0  0  0  0  0  0  0  0  0  0
  148.2231  142.7555  152.5465 H   0  0  0  0  0  0  0  0  0  0  0  0
  147.2593  141.3057  152.3127 H   0  0  0  0  0  0  0  0  0  0  0  0
  146.8223  141.6453  155.7753 H   0  0  0  0  0  0  0  0  0  0  0  0
  144.6003  143.1947  156.3511 H   0  0  0  0  0  0  0  0  0  0  0  0
  145.6783  143.8307  152.3735 H   0  0  0  0  0  0  0  0  0  0  0  0
  150.1685  144.0072  159.0153 H   0  0  0  0  0  0  0  0  0  0  0  0
  152.9704  144.3540  157.8452 H   0  0  0  0  0  0  0  0  0  0  0  0
  151.9860  145.6092  158.5838 H   0  0  0  0  0  0  0  0  0  0  0  0
  151.4709  144.8731  157.0899 H   0  0  0  0  0  0  0  0  0  0  0  0
  1  2  1  0  0  0  0
  1 21  1  0  0  0  0
  1 22  1  0  0  0  0
  1 23  1  0  0  0  0
  2 19  1  0  0  0  0
  2  3  1  0  0  0  0
  2 24  1  0  0  0  0
  3  4  1  0  0  0  0
  3 25  1  0  0  0  0
  3 26  1  0  0  0  0
  4  5  1  0  0  0  0
  4 27  1  0  0  0  0
  4 28  1  0  0  0  0
  5  6  1  0  0  0  0
  5 29  1  0  0  0  0
  5 30  1  0  0  0  0
  6  7  1  0  0  0  0
  6 19  1  0  0  0  0
  6 31  1  0  0  0  0
  7  8  1  0  0  0  0
  7 32  1  0  0  0  0
  8  9  2  0  0  0  0
  8 10  1  0  0  0  0
 10 11  1  0  0  0  0
 10 33  1  0  0  0  0
 11 12  2  0  0  0  0
 11 13  1  0  0  0  0
 13 14  1  0  0  0  0
 13 34  1  0  0  0  0
 13 35  1  0  0  0  0
 14 18  1  0  0  0  0
 14 15  1  0  0  0  0
 15 16  2  0  0  0  0
 15 36  1  0  0  0  0
 16 17  1  0  0  0  0
 16 37  1  0  0  0  0
 17 18  2  0  0  0  0
 18 38  1  0  0  0  0
 19 20  1  0  0  0  0
 19 39  1  0  0  0  0
 20 40  1  0  0  0  0
 20 41  1  0  0  0  0
 20 42  1  0  0  0  0
M  END
> <s_m_source_file>
AV-unprocessed.smi

> <i_m_source_file_index>
527

> <i_lp_mmshare_version>
43012

> <i_f3d_flags>
0

> <s_epik_input>
W0NIM11bQ0BASF0xW0NIMl1bQ0gyXVtDSDJdW0NASF0oW0NASF0xW0NIM10pW05IXUMoPU8pW05IXUMoPU8pW0NIMl1uMltjSF1bY0hdbltjSF0y

> <s_epik_cmdline>
J2VwaWtfcHl0aG9uJywgJy1waCcsICc3LjAnLCAnLXRuJywgJzgnLCAnLW1hJywgJzIwMCcsICctbWV0YWxfYmluZGluZycsICctaW1hZScsICc8aW5maWxlLm1hZT4nLCAnLW9tYWUnLCAnPG91dGZpbGUubWFlPic=

> <r_lp_tautomer_probability>
1

> <r_epik_Ionization_Penalty>
0.172132

> <r_epik_Ionization_Penalty_Charging>
0.172105

> <r_epik_Ionization_Penalty_Neutral>
2.71747e-05

> <r_epik_State_Penalty>
0.161503

> <r_epik_Charging_Adjusted_Penalty>
0.333607

> <i_epik_Tot_Q>
0

> <i_epik_Tot_abs_Q>
0

> <r_epik_Metal_State_Penalty>
0.124763

> <b_epik_Metal_Only>
0

> <s_lp_Force_Field>
OPLS_2005

> <r_lp_Energy>
16.867

> <b_lp_Chiralities_Consistent>
1

> <s_lp_Variant>
AV-unprocessed.smi:527-7

> <Gold.Version>
5.8.1

> <Gold.Id.Protein>
6NUR|6NUR_protein|mol2

> <Gold.PLP.Fitness>
49.6699

> <Gold.PLP.PLP>
-44.2063

> <Gold.PLP.part.hbond>
-2.0000

> <Gold.PLP.part.metal>
0.0000

> <Gold.PLP.part.buried>
-8.0070

> <Gold.PLP.part.nonpolar>
-33.5975

> <Gold.PLP.part.repulsive>
0.5467

> <Gold.PLP.ligand.clash>
0.0000

> <Gold.PLP.ligand.torsion>
0.2216

> <Gold.PLP.Chemscore.Hbond>
1.9600

> <Gold.PLP.Chemscore.CHOScore>
0.0000

> <Gold.PLP.Chemscore.Metal>
0.0000

> <Gold.Chemscore.Hbonds>
donor molecule, donor type, donor heavy atom, donor atom, acceptor molecule, acceptor atom, score
      L1  H     7    32       P1  8028  0.99
      L1  H    10    33       P1  8028  1.00

> <Gold.PLP.Chemscore.Internal.Correction>
0.0267

> <Gold.Rescore>
     Score         DG    S(hbond)    S(metal)    S(lipo)     H(rot)  DE(clash)    DE(int)     intcor
     15.78     -19.02       1.93        0.00      97.12       1.66       0.50       2.74       ----

> <Gold.Chemscore.Fitness>
15.7847

> <Gold.Chemscore.DG>
-19.0226

> <Gold.Chemscore.ZeroCoef>
-5.4800

> <Gold.Chemscore.Hbond>
1.9273

> <Gold.Chemscore.Metal>
0.0000

> <Gold.Chemscore.Lipo>
97.1152

> <Gold.Chemscore.Internal_Hbond>
0.0000

> <Gold.Chemscore.DEClash>
0.5017

> <Gold.Chemscore.DEInternal>
2.7363

> <Gold.Chemscore.Rot>
1.6629

> <Gold.Chemscore.Internal.Correction>
   9.000000E+99

> <Gold.Chemscore.Hbonds>
donor molecule, donor type, donor heavy atom, donor atom, acceptor molecule, acceptor atom, score
      L1  H     7    32       P1  8028  0.90
      L1  H    10    33       P1  8028  0.99

> <Gold.Chemscore.Hbond.Weighted>
-6.4371

> <Gold.Chemscore.Metal.Weighted>
-0.0000

> <Gold.Chemscore.Lipo.Weighted>
-11.3625

> <Gold.Chemscore.Internal_Hbond.Weighted>
0.0000

> <Gold.Chemscore.DEClash.Weighted>
0.5017

> <Gold.Chemscore.DEInternal.Weighted>
2.7363

> <Gold.Chemscore.Rot.Weighted>
4.2569

> <Gold.Chemscore.Internal.Correction.Weighted>
   9.000000E+99

> <Gold.Protein.RotatedTorsions>
[ 6907 6896 6895 6894 ] final   34.33 input  -60.11 | X-H torsion
[ 7974 7965 7964 7962 ] final   68.81 input  175.53 | X-H torsion
[ 8008 7997 7996 7995 ] final   44.62 input   59.86 | X-H torsion
[ 10167 10162 10161 10158 ] final -161.28 input  -65.29 | X-H torsion
[ 10718 10713 10712 10709 ] final   51.76 input   66.30 | X-H torsion
[ 10763 10752 10751 10750 ] final  -63.48 input  -60.55 | X-H torsion
[ 11005 11000 10999 10996 ] final   57.72 input  -57.11 | X-H torsion

> <Gold.Protein.ActiveResidues>
 VAL166  LYS551  ARG553  GLY616  TRP617  ASP618  TYR619  PRO620  LYS621  CYS622 
 ASP623  PHE694  ASN695  SER759  ASP760  ASP761  ALA762  ILE779  LEU786  VAL792 
 PHE793  MET794  SER795  GLU796  ALA797  LYS798  CYS799  TRP800  GLU811  SER814 

> <Gold.Protein.RotatedAtoms>
  152.1009  134.9342  160.0569 H   0  0  0  0  0  0  0  0  0  0  0  0  # atno 6907 bound_to 6896
  152.0557  133.4034  159.4404 H   0  0  0  0  0  0  0  0  0  0  0  0  # atno 6908 bound_to 6896
  150.6839  134.3178  159.4817 H   0  0  0  0  0  0  0  0  0  0  0  0  # atno 6909 bound_to 6896
  145.7980  139.2968  143.1171 H   0  0  0  0  0  0  0  0  0  0  0  0  # atno 7974 bound_to 7965
  155.3223  140.3397  155.4241 H   0  0  0  0  0  0  0  0  0  0  0  0  # atno 8008 bound_to 7997
  156.1903  140.1695  156.8142 H   0  0  0  0  0  0  0  0  0  0  0  0  # atno 8009 bound_to 7997
  154.5434  140.0720  156.8532 H   0  0  0  0  0  0  0  0  0  0  0  0  # atno 8010 bound_to 7997
  139.6477  144.0142  152.2139 H   0  0  0  0  0  0  0  0  0  0  0  0  # atno 10167 bound_to 10162
  157.5011  130.8438  149.8318 H   0  0  0  0  0  0  0  0  0  0  0  0  # atno 10718 bound_to 10713
  154.3157  135.6206  153.5485 H   0  0  0  0  0  0  0  0  0  0  0  0  # atno 10763 bound_to 10752
  152.9825  135.5712  154.5126 H   0  0  0  0  0  0  0  0  0  0  0  0  # atno 10764 bound_to 10752
  154.4785  135.2862  155.1565 H   0  0  0  0  0  0  0  0  0  0  0  0  # atno 10765 bound_to 10752
  140.0431  134.5844  155.9356 H   0  0  0  0  0  0  0  0  0  0  0  0  # atno 11005 bound_to 11000
  145.9907  140.8605  143.0068 LP  0  0  0  0  0  0  0  0  0  0  0  0  # atno 17320 bound_to 7965
  144.6772  140.2212  143.7366 LP  0  0  0  0  0  0  0  0  0  0  0  0  # atno 17321 bound_to 7965
  139.9848  144.6403  150.7867 LP  0  0  0  0  0  0  0  0  0  0  0  0  # atno 17342 bound_to 10162
  140.7522  143.2987  151.3138 LP  0  0  0  0  0  0  0  0  0  0  0  0  # atno 17343 bound_to 10162
  156.0230  130.3789  150.1906 LP  0  0  0  0  0  0  0  0  0  0  0  0  # atno 17370 bound_to 10713
  157.0096  130.9947  151.3369 LP  0  0  0  0  0  0  0  0  0  0  0  0  # atno 17371 bound_to 10713
  141.1893  133.6565  156.5363 LP  0  0  0  0  0  0  0  0  0  0  0  0  # atno 17394 bound_to 11000
  140.4037  134.7334  157.4795 LP  0  0  0  0  0  0  0  0  0  0  0  0  # atno 17395 bound_to 11000

$$$$
