AV-unprocessed.smi:1982|AV-procd|sdf|8025|dock6
  -GOLD-   2272010223D 1   1.00000     0.00000
 Structure written by MMmdl.
 36 37  0  0  0  0  0  0  0  0  1 V2000
  151.7118  145.5095  160.2325 C   0  0  0  0  0  0  0  0  0  0  0  0
  152.3595  144.1732  159.8245 C   0  0  1  0  0  0  0  0  0  0  0  0
  152.3858  143.2232  161.0384 C   0  0  0  0  0  0  0  0  0  0  0  0
  153.0581  141.8881  160.7022 C   0  0  0  0  0  0  0  0  0  0  0  0
  152.3498  141.2101  159.5257 C   0  0  0  0  0  0  0  0  0  0  0  0
  152.3111  142.1246  158.2882 C   0  0  1  0  0  0  0  0  0  0  0  0
  151.5767  141.4323  157.2284 N   0  0  0  0  0  0  0  0  0  0  0  0
  151.8177  140.1896  156.7812 C   0  0  0  0  0  0  0  0  0  0  0  0
  152.7211  139.4752  157.2188 O   0  0  0  0  0  0  0  0  0  0  0  0
  150.8869  139.6976  155.6662 C   0  0  0  0  0  0  0  0  0  0  0  0
  150.9444  138.2584  155.4762 N   0  0  0  0  0  0  0  0  0  0  0  0
  151.2505  137.5263  154.4028 C   0  0  0  0  0  0  0  0  0  0  0  0
  151.1850  136.2290  154.6610 N   0  0  0  0  0  0  0  0  0  0  0  0
  150.8100  136.1921  155.9936 N   0  0  0  0  0  0  0  0  0  0  0  0
  150.6648  137.3932  156.4824 N   0  0  0  0  0  0  0  0  0  0  0  0
  151.6670  143.5032  158.6031 C   0  0  2  0  0  0  0  0  0  0  0  0
  151.6792  144.4184  157.3590 C   0  0  0  0  0  0  0  0  0  0  0  0
  150.6467  145.3893  160.4328 H   0  0  0  0  0  0  0  0  0  0  0  0
  151.8273  146.2708  159.4618 H   0  0  0  0  0  0  0  0  0  0  0  0
  152.1749  145.9083  161.1356 H   0  0  0  0  0  0  0  0  0  0  0  0
  153.3947  144.3834  159.5511 H   0  0  0  0  0  0  0  0  0  0  0  0
  152.9154  143.6919  161.8685 H   0  0  0  0  0  0  0  0  0  0  0  0
  151.3684  143.0407  161.3875 H   0  0  0  0  0  0  0  0  0  0  0  0
  154.1081  142.0535  160.4569 H   0  0  0  0  0  0  0  0  0  0  0  0
  153.0412  141.2330  161.5737 H   0  0  0  0  0  0  0  0  0  0  0  0
  152.8586  140.2764  159.2835 H   0  0  0  0  0  0  0  0  0  0  0  0
  151.3348  140.9409  159.8220 H   0  0  0  0  0  0  0  0  0  0  0  0
  153.3428  142.3009  157.9780 H   0  0  0  0  0  0  0  0  0  0  0  0
  150.8144  141.9417  156.8055 H   0  0  0  0  0  0  0  0  0  0  0  0
  149.8602  139.9876  155.8952 H   0  0  0  0  0  0  0  0  0  0  0  0
  151.1577  140.1797  154.7260 H   0  0  0  0  0  0  0  0  0  0  0  0
  151.5203  137.9403  153.4426 H   0  0  0  0  0  0  0  0  0  0  0  0
  150.6233  143.3293  158.8703 H   0  0  0  0  0  0  0  0  0  0  0  0
  152.6988  144.6631  157.0604 H   0  0  0  0  0  0  0  0  0  0  0  0
  151.1480  145.3525  157.5349 H   0  0  0  0  0  0  0  0  0  0  0  0
  151.1903  143.9502  156.5050 H   0  0  0  0  0  0  0  0  0  0  0  0
  1  2  1  0  0  0  0
  1 18  1  0  0  0  0
  1 19  1  0  0  0  0
  1 20  1  0  0  0  0
  2 16  1  0  0  0  0
  2  3  1  0  0  0  0
  2 21  1  0  0  0  0
  3  4  1  0  0  0  0
  3 22  1  0  0  0  0
  3 23  1  0  0  0  0
  4  5  1  0  0  0  0
  4 24  1  0  0  0  0
  4 25  1  0  0  0  0
  5  6  1  0  0  0  0
  5 26  1  0  0  0  0
  5 27  1  0  0  0  0
  6  7  1  0  0  0  0
  6 16  1  0  0  0  0
  6 28  1  0  0  0  0
  7  8  1  0  0  0  0
  7 29  1  0  0  0  0
  8  9  2  0  0  0  0
  8 10  1  0  0  0  0
 10 11  1  0  0  0  0
 10 30  1  0  0  0  0
 10 31  1  0  0  0  0
 11 15  1  0  0  0  0
 11 12  1  0  0  0  0
 12 13  2  0  0  0  0
 12 32  1  0  0  0  0
 13 14  1  0  0  0  0
 14 15  2  0  0  0  0
 16 17  1  0  0  0  0
 16 33  1  0  0  0  0
 17 34  1  0  0  0  0
 17 35  1  0  0  0  0
 17 36  1  0  0  0  0
M  END
> <s_m_source_file>
AV-unprocessed.smi

> <i_m_source_file_index>
1982

> <i_lp_mmshare_version>
43012

> <i_f3d_flags>
0

> <s_epik_input>
W0NIM11bQ0BASF0xW0NIMl1bQ0gyXVtDSDJdW0NASF0oW0NASF0xW0NIM10pW05IXUMoPU8pW0NIMl1uMltjSF1ubm4y

> <s_epik_cmdline>
J2VwaWtfcHl0aG9uJywgJy1waCcsICc3LjAnLCAnLXRuJywgJzgnLCAnLW1hJywgJzIwMCcsICctbWV0YWxfYmluZGluZycsICctaW1hZScsICc8aW5maWxlLm1hZT4nLCAnLW9tYWUnLCAnPG91dGZpbGUubWFlPic=

> <r_lp_tautomer_probability>
1

> <r_epik_Ionization_Penalty>
5.03816e-07

> <r_epik_Ionization_Penalty_Charging>
0

> <r_epik_Ionization_Penalty_Neutral>
5.03816e-07

> <r_epik_State_Penalty>
-0

> <r_epik_Charging_Adjusted_Penalty>
0

> <i_epik_Tot_Q>
0

> <i_epik_Tot_abs_Q>
0

> <r_epik_Metal_State_Penalty>
-0

> <b_epik_Metal_Only>
0

> <s_lp_Force_Field>
OPLS_2005

> <r_lp_Energy>
14.7566

> <b_lp_Chiralities_Consistent>
1

> <s_lp_Variant>
AV-unprocessed.smi:1982-6

> <Gold.Version>
5.8.1

> <Gold.Id.Protein>
6NUR|6NUR_protein|mol2

> <Gold.PLP.Fitness>
42.9653

> <Gold.PLP.PLP>
-36.8188

> <Gold.PLP.part.hbond>
-2.0000

> <Gold.PLP.part.metal>
0.0000

> <Gold.PLP.part.buried>
-4.1066

> <Gold.PLP.part.nonpolar>
-31.3061

> <Gold.PLP.part.repulsive>
0.3002

> <Gold.PLP.ligand.clash>
0.0000

> <Gold.PLP.ligand.torsion>
0.2470

> <Gold.PLP.Chemscore.Hbond>
2.0000

> <Gold.PLP.Chemscore.CHOScore>
0.2114

> <Gold.PLP.Chemscore.Metal>
0.0000

> <Gold.Chemscore.Hbonds>
donor molecule, donor type, donor heavy atom, donor atom, acceptor molecule, acceptor atom, score
      P1  H  7997  8010       L1     9  1.00
      P1  H 10752 10763       L1    13  1.00
      L1  C    12    32       P1  7949  0.22

> <Gold.PLP.Chemscore.Internal.Correction>
0.0064

> <Gold.Rescore>
     Score         DG    S(hbond)    S(metal)    S(lipo)     H(rot)  DE(clash)    DE(int)     intcor
     16.24     -18.24       1.88        0.00      97.19       1.91       0.46       1.54       ----

> <Gold.Chemscore.Fitness>
16.2356

> <Gold.Chemscore.DG>
-18.2398

> <Gold.Chemscore.ZeroCoef>
-5.4800

> <Gold.Chemscore.Hbond>
1.8766

> <Gold.Chemscore.Metal>
0.0000

> <Gold.Chemscore.Lipo>
97.1858

> <Gold.Chemscore.Internal_Hbond>
0.0000

> <Gold.Chemscore.DEClash>
0.4636

> <Gold.Chemscore.DEInternal>
1.5406

> <Gold.Chemscore.Rot>
1.9058

> <Gold.Chemscore.Internal.Correction>
   9.000000E+99

> <Gold.Chemscore.Hbonds>
donor molecule, donor type, donor heavy atom, donor atom, acceptor molecule, acceptor atom, score
      P1  H  7997  8010       L1     9  0.94
      P1  H 10752 10763       L1    13  0.22

> <Gold.Chemscore.Hbond.Weighted>
-6.2679

> <Gold.Chemscore.Metal.Weighted>
-0.0000

> <Gold.Chemscore.Lipo.Weighted>
-11.3707

> <Gold.Chemscore.Internal_Hbond.Weighted>
0.0000

> <Gold.Chemscore.DEClash.Weighted>
0.4636

> <Gold.Chemscore.DEInternal.Weighted>
1.5406

> <Gold.Chemscore.Rot.Weighted>
4.8788

> <Gold.Chemscore.Internal.Correction.Weighted>
   9.000000E+99

> <Gold.Protein.RotatedTorsions>
[ 6907 6896 6895 6894 ] final  -53.65 input  -60.11 | X-H torsion
[ 7974 7965 7964 7962 ] final   61.56 input  175.53 | X-H torsion
[ 8008 7997 7996 7995 ] final   39.98 input   59.86 | X-H torsion
[ 10167 10162 10161 10158 ] final  172.19 input  -65.29 | X-H torsion
[ 10718 10713 10712 10709 ] final -147.74 input   66.30 | X-H torsion
[ 10763 10752 10751 10750 ] final   70.23 input  -60.55 | X-H torsion
[ 11005 11000 10999 10996 ] final   96.82 input  -57.11 | X-H torsion

> <Gold.Protein.ActiveResidues>
 VAL166  LYS551  ARG553  GLY616  TRP617  ASP618  TYR619  PRO620  LYS621  CYS622 
 ASP623  PHE694  ASN695  SER759  ASP760  ASP761  ALA762  ILE779  LEU786  VAL792 
 PHE793  MET794  SER795  GLU796  ALA797  LYS798  CYS799  TRP800  GLU811  SER814 

> <Gold.Protein.RotatedAtoms>
  150.8408  134.7699  159.6930 H   0  0  0  0  0  0  0  0  0  0  0  0  # atno 6907 bound_to 6896
  152.4495  134.5420  159.9851 H   0  0  0  0  0  0  0  0  0  0  0  0  # atno 6908 bound_to 6896
  151.5560  133.3372  159.2998 H   0  0  0  0  0  0  0  0  0  0  0  0  # atno 6909 bound_to 6896
  145.8834  139.3459  143.0692 H   0  0  0  0  0  0  0  0  0  0  0  0  # atno 7974 bound_to 7965
  155.2455  140.3348  155.4287 H   0  0  0  0  0  0  0  0  0  0  0  0  # atno 8008 bound_to 7997
  156.2238  140.1820  156.7458 H   0  0  0  0  0  0  0  0  0  0  0  0  # atno 8009 bound_to 7997
  154.5866  140.0645  156.9165 H   0  0  0  0  0  0  0  0  0  0  0  0  # atno 8010 bound_to 7997
  139.5069  144.3401  152.0026 H   0  0  0  0  0  0  0  0  0  0  0  0  # atno 10167 bound_to 10162
  156.4113  130.7983  151.2201 H   0  0  0  0  0  0  0  0  0  0  0  0  # atno 10718 bound_to 10713
  153.0330  135.5181  154.7409 H   0  0  0  0  0  0  0  0  0  0  0  0  # atno 10763 bound_to 10752
  154.6409  135.2912  155.0107 H   0  0  0  0  0  0  0  0  0  0  0  0  # atno 10764 bound_to 10752
  154.1025  135.6634  153.4923 H   0  0  0  0  0  0  0  0  0  0  0  0  # atno 10765 bound_to 10752
  139.8779  134.8970  156.4215 H   0  0  0  0  0  0  0  0  0  0  0  0  # atno 11005 bound_to 11000
  145.8996  140.9251  143.0510 LP  0  0  0  0  0  0  0  0  0  0  0  0  # atno 17320 bound_to 7965
  144.6728  140.1015  143.7460 LP  0  0  0  0  0  0  0  0  0  0  0  0  # atno 17321 bound_to 7965
  140.2839  144.3829  150.6110 LP  0  0  0  0  0  0  0  0  0  0  0  0  # atno 17342 bound_to 10162
  140.5997  143.2167  151.7095 LP  0  0  0  0  0  0  0  0  0  0  0  0  # atno 17343 bound_to 10162
  157.7507  131.0256  150.3928 LP  0  0  0  0  0  0  0  0  0  0  0  0  # atno 17370 bound_to 10713
  156.4227  130.3956  149.6814 LP  0  0  0  0  0  0  0  0  0  0  0  0  # atno 17371 bound_to 10713
  140.9130  133.7698  155.9814 LP  0  0  0  0  0  0  0  0  0  0  0  0  # atno 17394 bound_to 11000
  140.8525  134.2937  157.5269 LP  0  0  0  0  0  0  0  0  0  0  0  0  # atno 17395 bound_to 11000

$$$$
