AV-unprocessed.smi:101|AV-procd|sdf|939|dock2
  -GOLD-   2262017453D 1   1.00000     0.00000
 Structure written by MMmdl.
 43 45  0  0  0  0  0  0  0  0  2 V2000
  151.8705  143.6909  159.1940 C   0  0  0  0  0  0  0  0  0  0  0  0
  151.8903  142.2535  158.7045 C   0  0  0  0  0  0  0  0  0  0  0  0
  150.8571  141.7088  158.0245 C   0  0  0  0  0  0  0  0  0  0  0  0
  150.8825  140.3986  157.5800 N   0  0  0  0  0  0  0  0  0  0  0  0
  149.7081  139.8136  156.8256 C   0  0  2  0  0  0  0  0  0  0  0  0
  149.3903  138.5764  157.3780 O   0  0  0  0  0  0  0  0  0  0  0  0
  148.7891  137.7812  156.3721 C   0  0  2  0  0  0  0  0  0  0  0  0
  148.8717  136.3041  156.7758 C   0  0  0  0  0  0  0  0  0  0  0  0
  148.4334  136.1507  158.1159 O   0  0  0  0  0  0  0  0  0  0  0  0
  148.5761  134.9654  158.7396 C   0  0  0  0  0  0  0  0  0  0  0  0
  149.0706  133.9696  158.2068 O   0  0  0  0  0  0  0  0  0  0  0  0
  148.0769  134.9840  160.1451 C   0  0  0  0  0  0  0  0  0  0  0  0
  147.8753  136.2258  160.7918 C   0  0  0  0  0  0  0  0  0  0  0  0
  147.4015  136.2762  162.1172 C   0  0  0  0  0  0  0  0  0  0  0  0
  147.1243  135.0850  162.8127 C   0  0  0  0  0  0  0  0  0  0  0  0
  147.3222  133.8431  162.1813 C   0  0  0  0  0  0  0  0  0  0  0  0
  147.7959  133.7907  160.8556 C   0  0  0  0  0  0  0  0  0  0  0  0
  149.5758  138.1357  155.1043 C   0  0  1  0  0  0  0  0  0  0  0  0
  148.7439  138.0168  153.9666 O   0  0  0  0  0  0  0  0  0  0  0  0
  149.9872  139.5921  155.3210 C   0  0  2  0  0  0  0  0  0  0  0  0
  151.3396  139.7848  154.9466 O   0  0  0  0  0  0  0  0  0  0  0  0
  152.0044  139.5796  157.8664 C   0  0  0  0  0  0  0  0  0  0  0  0
  151.9721  138.4058  157.4962 O   0  0  0  0  0  0  0  0  0  0  0  0
  153.0551  140.1221  158.5454 N   0  5  0  0  0  0  0  0  0  0  0  0
  153.0656  141.4165  158.9768 C   0  0  0  0  0  0  0  0  0  0  0  0
  154.0228  141.8952  159.5842 O   0  0  0  0  0  0  0  0  0  0  0  0
  150.9387  144.1886  158.9244 H   0  0  0  0  0  0  0  0  0  0  0  0
  152.6938  144.2537  158.7529 H   0  0  0  0  0  0  0  0  0  0  0  0
  151.9707  143.7256  160.2792 H   0  0  0  0  0  0  0  0  0  0  0  0
  149.9854  142.3162  157.8308 H   0  0  0  0  0  0  0  0  0  0  0  0
  148.8605  140.4776  157.0048 H   0  0  0  0  0  0  0  0  0  0  0  0
  147.7476  138.0985  156.2866 H   0  0  0  0  0  0  0  0  0  0  0  0
  148.2716  135.6923  156.1004 H   0  0  0  0  0  0  0  0  0  0  0  0
  149.9029  135.9573  156.7010 H   0  0  0  0  0  0  0  0  0  0  0  0
  148.0807  137.1538  160.2779 H   0  0  0  0  0  0  0  0  0  0  0  0
  147.2506  137.2306  162.6000 H   0  0  0  0  0  0  0  0  0  0  0  0
  146.7605  135.1238  163.8291 H   0  0  0  0  0  0  0  0  0  0  0  0
  147.1103  132.9282  162.7144 H   0  0  0  0  0  0  0  0  0  0  0  0
  147.9378  132.8211  160.4010 H   0  0  0  0  0  0  0  0  0  0  0  0
  150.4506  137.4904  155.0069 H   0  0  0  0  0  0  0  0  0  0  0  0
  149.1249  137.3791  153.3826 H   0  0  0  0  0  0  0  0  0  0  0  0
  149.3594  140.2871  154.7617 H   0  0  0  0  0  0  0  0  0  0  0  0
  151.8516  139.0798  155.3138 H   0  0  0  0  0  0  0  0  0  0  0  0
  1  2  1  0  0  0  0
  1 27  1  0  0  0  0
  1 28  1  0  0  0  0
  1 29  1  0  0  0  0
  2 25  1  0  0  0  0
  2  3  2  0  0  0  0
  3  4  1  0  0  0  0
  3 30  1  0  0  0  0
  4  5  1  0  0  0  0
  4 22  1  0  0  0  0
  5 20  1  0  0  0  0
  5  6  1  0  0  0  0
  5 31  1  0  0  0  0
  6  7  1  0  0  0  0
  7  8  1  0  0  0  0
  7 18  1  0  0  0  0
  7 32  1  0  0  0  0
  8  9  1  0  0  0  0
  8 33  1  0  0  0  0
  8 34  1  0  0  0  0
  9 10  1  0  0  0  0
 10 11  2  0  0  0  0
 10 12  1  0  0  0  0
 12 17  1  0  0  0  0
 12 13  2  0  0  0  0
 13 14  1  0  0  0  0
 13 35  1  0  0  0  0
 14 15  2  0  0  0  0
 14 36  1  0  0  0  0
 15 16  1  0  0  0  0
 15 37  1  0  0  0  0
 16 17  2  0  0  0  0
 16 38  1  0  0  0  0
 17 39  1  0  0  0  0
 18 19  1  0  0  0  0
 18 20  1  0  0  0  0
 18 40  1  0  0  0  0
 19 41  1  0  0  0  0
 20 21  1  0  0  0  0
 20 42  1  0  0  0  0
 21 43  1  0  0  0  0
 22 23  2  0  0  0  0
 22 24  1  0  0  0  0
 24 25  1  0  0  0  0
 25 26  2  0  0  0  0
M  CHG  1  24  -1
M  END
> <s_m_source_file>
AV-unprocessed.smi

> <i_m_source_file_index>
101

> <i_lp_mmshare_version>
43012

> <i_f3d_flags>
0

> <s_epik_input>
Tz1jMVtuSF1jKD1PKW4oW2NIXWMxW0NIM10pW0NAQEhdMk9bQ0BIXShbQ0BASF0oW09IXSlbQ0BIXTJbT0hdKVtDSDJdT0MoPU8pYzNbY0hdW2NIXVtjSF1bY0hdW2NIXTM=

> <s_epik_cmdline>
J2VwaWtfcHl0aG9uJywgJy1waCcsICc3LjAnLCAnLXRuJywgJzgnLCAnLW1hJywgJzIwMCcsICctbWV0YWxfYmluZGluZycsICctaW1hZScsICc8aW5maWxlLm1hZT4nLCAnLW9tYWUnLCAnPG91dGZpbGUubWFlPic=

> <r_lp_tautomer_probability>
0.999537

> <r_epik_Ionization_Penalty>
3.21006

> <r_epik_Ionization_Penalty_Charging>
5.75142e-08

> <r_epik_Ionization_Penalty_Neutral>
3.21006

> <r_epik_State_Penalty>
3.20925

> <r_epik_Charging_Adjusted_Penalty>
3.20925

> <i_epik_Tot_Q>
-1

> <i_epik_Tot_abs_Q>
1

> <r_epik_Metal_State_Penalty>
0.119957

> <b_epik_Metal_Only>
1

> <s_epik_Chemistry_Notes>
This compound has an ester and may undergo hydrolysis at high or low pH. This compound contains an acetal/aminal-like group ( X-CH(R)-Y where X, Y are N, S, or O) that may be acid/base labile, releasing an aldehyde.

> <s_lp_Force_Field>
OPLS_2005

> <r_lp_Energy>
44.2535

> <b_lp_Chiralities_Consistent>
1

> <s_lp_Variant>
AV-unprocessed.smi:101-27

> <Gold.Version>
5.8.1

> <Gold.Id.Protein>
6NUR|6NUR_protein|mol2

> <Gold.PLP.Fitness>
51.7205

> <Gold.PLP.PLP>
-39.1100

> <Gold.PLP.part.hbond>
-4.0000

> <Gold.PLP.part.metal>
0.0000

> <Gold.PLP.part.buried>
-4.2973

> <Gold.PLP.part.nonpolar>
-30.7114

> <Gold.PLP.part.repulsive>
0.0000

> <Gold.PLP.ligand.clash>
0.0000

> <Gold.PLP.ligand.torsion>
0.5343

> <Gold.PLP.Chemscore.Hbond>
4.4420

> <Gold.PLP.Chemscore.CHOScore>
0.0000

> <Gold.PLP.Chemscore.Metal>
0.0000

> <Gold.Chemscore.Hbonds>
donor molecule, donor type, donor heavy atom, donor atom, acceptor molecule, acceptor atom, score
      L1  H    19    41       P1  7948  1.00
      P1  H  6896  6908       L1    11  0.75
      P1  H  7989  7998       L1    21  1.00
      P1  H  7997  8008       L1    24  1.37

> <Gold.PLP.Chemscore.Internal.Correction>
0.3532

> <Gold.Rescore>
     Score         DG    S(hbond)    S(metal)    S(lipo)     H(rot)  DE(clash)    DE(int)     intcor
     14.20     -16.77       2.91        0.00      84.93       3.27       0.04       2.53       ----

> <Gold.Chemscore.Fitness>
14.2010

> <Gold.Chemscore.DG>
-16.7679

> <Gold.Chemscore.ZeroCoef>
-5.4800

> <Gold.Chemscore.Hbond>
2.9076

> <Gold.Chemscore.Metal>
0.0000

> <Gold.Chemscore.Lipo>
84.9262

> <Gold.Chemscore.Internal_Hbond>
0.0000

> <Gold.Chemscore.DEClash>
0.0354

> <Gold.Chemscore.DEInternal>
2.5315

> <Gold.Chemscore.Rot>
3.2656

> <Gold.Chemscore.Internal.Correction>
   9.000000E+99

> <Gold.Chemscore.Hbonds>
donor molecule, donor type, donor heavy atom, donor atom, acceptor molecule, acceptor atom, score
      L1  H    19    41       P1  7948  0.94
      P1  H  6896  6908       L1    11  0.09
      P1  H  7989  7998       L1    21  0.94
      P1  H  7997  8008       L1    24  0.09

> <Gold.Chemscore.Hbond.Weighted>
-9.7114

> <Gold.Chemscore.Metal.Weighted>
-0.0000

> <Gold.Chemscore.Lipo.Weighted>
-9.9364

> <Gold.Chemscore.Internal_Hbond.Weighted>
0.0000

> <Gold.Chemscore.DEClash.Weighted>
0.0354

> <Gold.Chemscore.DEInternal.Weighted>
2.5315

> <Gold.Chemscore.Rot.Weighted>
8.3598

> <Gold.Chemscore.Internal.Correction.Weighted>
   9.000000E+99

> <Gold.Protein.RotatedTorsions>
[ 6907 6896 6895 6894 ] final  132.24 input  -60.11 | X-H torsion
[ 7974 7965 7964 7962 ] final  -39.45 input  175.53 | X-H torsion
[ 8008 7997 7996 7995 ] final  -86.51 input   59.86 | X-H torsion
[ 10167 10162 10161 10158 ] final -141.01 input  -65.29 | X-H torsion
[ 10718 10713 10712 10709 ] final  -69.79 input   66.30 | X-H torsion
[ 10763 10752 10751 10750 ] final -128.08 input  -60.55 | X-H torsion
[ 11005 11000 10999 10996 ] final  -92.92 input  -57.11 | X-H torsion

> <Gold.Protein.ActiveResidues>
 VAL166  LYS551  ARG553  GLY616  TRP617  ASP618  TYR619  PRO620  LYS621  CYS622 
 ASP623  PHE694  ASN695  SER759  ASP760  ASP761  ALA762  ILE779  LEU786  VAL792 
 PHE793  MET794  SER795  GLU796  ALA797  LYS798  CYS799  TRP800  GLU811  SER814 

> <Gold.Protein.RotatedAtoms>
  152.3344  133.5994  159.5831 H   0  0  0  0  0  0  0  0  0  0  0  0  # atno 6907 bound_to 6896
  150.7441  133.9819  159.3588 H   0  0  0  0  0  0  0  0  0  0  0  0  # atno 6908 bound_to 6896
  151.7690  135.0792  160.0408 H   0  0  0  0  0  0  0  0  0  0  0  0  # atno 6909 bound_to 6896
  146.0395  140.6627  142.9094 H   0  0  0  0  0  0  0  0  0  0  0  0  # atno 7974 bound_to 7965
  154.6527  140.0577  156.9974 H   0  0  0  0  0  0  0  0  0  0  0  0  # atno 8008 bound_to 7997
  155.1347  140.3260  155.4447 H   0  0  0  0  0  0  0  0  0  0  0  0  # atno 8009 bound_to 7997
  156.2583  140.1974  156.6465 H   0  0  0  0  0  0  0  0  0  0  0  0  # atno 8010 bound_to 7997
  139.8226  143.7553  152.2666 H   0  0  0  0  0  0  0  0  0  0  0  0  # atno 10167 bound_to 10162
  156.0438  130.4319  150.2200 H   0  0  0  0  0  0  0  0  0  0  0  0  # atno 10718 bound_to 10713
  154.8755  135.3940  154.3699 H   0  0  0  0  0  0  0  0  0  0  0  0  # atno 10763 bound_to 10752
  153.4460  135.7027  153.6144 H   0  0  0  0  0  0  0  0  0  0  0  0  # atno 10764 bound_to 10752
  153.4704  135.3791  155.2357 H   0  0  0  0  0  0  0  0  0  0  0  0  # atno 10765 bound_to 10752
  141.1510  133.7853  157.0087 H   0  0  0  0  0  0  0  0  0  0  0  0  # atno 11005 bound_to 11000
  144.7068  140.3882  143.7112 LP  0  0  0  0  0  0  0  0  0  0  0  0  # atno 17320 bound_to 7965
  145.6908  139.1638  143.2648 LP  0  0  0  0  0  0  0  0  0  0  0  0  # atno 17321 bound_to 7965
  139.7736  144.7468  151.0189 LP  0  0  0  0  0  0  0  0  0  0  0  0  # atno 17342 bound_to 10162
  140.7812  143.4618  151.0267 LP  0  0  0  0  0  0  0  0  0  0  0  0  # atno 17343 bound_to 10162
  157.0292  131.0002  151.3317 LP  0  0  0  0  0  0  0  0  0  0  0  0  # atno 17370 bound_to 10713
  157.5289  130.8046  149.7894 LP  0  0  0  0  0  0  0  0  0  0  0  0  # atno 17371 bound_to 10713
  140.0892  134.9602  157.1749 LP  0  0  0  0  0  0  0  0  0  0  0  0  # atno 17394 bound_to 11000
  140.3469  134.2641  155.7204 LP  0  0  0  0  0  0  0  0  0  0  0  0  # atno 17395 bound_to 11000

$$$$
