AV-unprocessed.smi:2481|AV-procd|sdf|9774|dock6
  -GOLD-   2272013413D 1   1.00000     0.00000
 Structure written by MMmdl.
 37 38  0  0  0  0  0  0  0  0  1 V2000
  150.7046  135.4421  155.0312 C   0  0  0  0  0  0  0  0  0  0  0  0
  150.4166  134.0226  155.1007 N   0  0  0  0  0  0  0  0  0  0  0  0
  151.0706  133.2206  155.9735 N   0  0  0  0  0  0  0  0  0  0  0  0
  150.5310  132.0251  155.7345 C   0  0  0  0  0  0  0  0  0  0  0  0
  149.5682  131.9851  154.7664 N   0  0  0  0  0  0  0  0  0  0  0  0
  149.5507  133.2679  154.4179 C   0  0  0  0  0  0  0  0  0  0  0  0
  148.7218  133.8554  153.4251 N   0  0  0  0  0  0  0  0  0  0  0  0
  147.6731  133.3016  152.7935 C   0  0  0  0  0  0  0  0  0  0  0  0
  147.2452  132.1639  152.9900 O   0  0  0  0  0  0  0  0  0  0  0  0
  147.1372  134.1539  151.9080 N   0  0  0  0  0  0  0  0  0  0  0  0
  145.9874  133.8752  151.0492 C   0  0  1  0  0  0  0  0  0  0  0  0
  146.2104  132.5313  150.3236 C   0  0  0  0  0  0  0  0  0  0  0  0
  145.0054  132.1434  149.4564 C   0  0  0  0  0  0  0  0  0  0  0  0
  143.7209  132.1053  150.2929 C   0  0  0  0  0  0  0  0  0  0  0  0
  143.4825  133.4504  150.9940 C   0  0  0  0  0  0  0  0  0  0  0  0
  144.6783  133.8649  151.8820 C   0  0  2  0  0  0  0  0  0  0  0  0
  144.4140  135.2238  152.5689 C   0  0  0  0  0  0  0  0  0  0  0  0
  144.3582  136.2667  151.6178 O   0  0  0  0  0  0  0  0  0  0  0  0
  150.9267  135.7224  154.0010 H   0  0  0  0  0  0  0  0  0  0  0  0
  151.5631  135.6904  155.6568 H   0  0  0  0  0  0  0  0  0  0  0  0
  149.8386  136.0075  155.3763 H   0  0  0  0  0  0  0  0  0  0  0  0
  150.8436  131.1467  156.2798 H   0  0  0  0  0  0  0  0  0  0  0  0
  148.9558  134.8025  153.1670 H   0  0  0  0  0  0  0  0  0  0  0  0
  147.5553  135.0683  151.8176 H   0  0  0  0  0  0  0  0  0  0  0  0
  145.8997  134.6633  150.2984 H   0  0  0  0  0  0  0  0  0  0  0  0
  147.1029  132.5856  149.6992 H   0  0  0  0  0  0  0  0  0  0  0  0
  146.3947  131.7433  151.0553 H   0  0  0  0  0  0  0  0  0  0  0  0
  144.8930  132.8601  148.6418 H   0  0  0  0  0  0  0  0  0  0  0  0
  145.1774  131.1713  148.9933 H   0  0  0  0  0  0  0  0  0  0  0  0
  142.8699  131.8619  149.6562 H   0  0  0  0  0  0  0  0  0  0  0  0
  143.7890  131.3104  151.0367 H   0  0  0  0  0  0  0  0  0  0  0  0
  143.2976  134.2205  150.2438 H   0  0  0  0  0  0  0  0  0  0  0  0
  142.5732  133.3817  151.5920 H   0  0  0  0  0  0  0  0  0  0  0  0
  144.7904  133.1113  152.6638 H   0  0  0  0  0  0  0  0  0  0  0  0
  143.4638  135.2205  153.1026 H   0  0  0  0  0  0  0  0  0  0  0  0
  145.1902  135.4445  153.3024 H   0  0  0  0  0  0  0  0  0  0  0  0
  143.4591  136.3816  151.3500 H   0  0  0  0  0  0  0  0  0  0  0  0
  1  2  1  0  0  0  0
  1 19  1  0  0  0  0
  1 20  1  0  0  0  0
  1 21  1  0  0  0  0
  2  6  1  0  0  0  0
  2  3  1  0  0  0  0
  3  4  2  0  0  0  0
  4  5  1  0  0  0  0
  4 22  1  0  0  0  0
  5  6  2  0  0  0  0
  6  7  1  0  0  0  0
  7  8  1  0  0  0  0
  7 23  1  0  0  0  0
  8  9  2  0  0  0  0
  8 10  1  0  0  0  0
 10 11  1  0  0  0  0
 10 24  1  0  0  0  0
 11 16  1  0  0  0  0
 11 12  1  0  0  0  0
 11 25  1  0  0  0  0
 12 13  1  0  0  0  0
 12 26  1  0  0  0  0
 12 27  1  0  0  0  0
 13 14  1  0  0  0  0
 13 28  1  0  0  0  0
 13 29  1  0  0  0  0
 14 15  1  0  0  0  0
 14 30  1  0  0  0  0
 14 31  1  0  0  0  0
 15 16  1  0  0  0  0
 15 32  1  0  0  0  0
 15 33  1  0  0  0  0
 16 17  1  0  0  0  0
 16 34  1  0  0  0  0
 17 18  1  0  0  0  0
 17 35  1  0  0  0  0
 17 36  1  0  0  0  0
 18 37  1  0  0  0  0
M  END
> <s_m_source_file>
AV-unprocessed.smi

> <i_m_source_file_index>
2481

> <i_lp_mmshare_version>
43012

> <i_f3d_flags>
0

> <s_epik_input>
W0NIM11uMW5bY0hdbmMxW05IXUMoPU8pW05IXVtDQEBIXTJbQ0gyXVtDSDJdW0NIMl1bQ0gyXVtDQEhdMltDSDJdW09IXQ==

> <s_epik_cmdline>
J2VwaWtfcHl0aG9uJywgJy1waCcsICc3LjAnLCAnLXRuJywgJzgnLCAnLW1hJywgJzIwMCcsICctbWV0YWxfYmluZGluZycsICctaW1hZScsICc8aW5maWxlLm1hZT4nLCAnLW9tYWUnLCAnPG91dGZpbGUubWFlPic=

> <r_lp_tautomer_probability>
1

> <r_epik_Ionization_Penalty>
2.32704e-05

> <r_epik_Ionization_Penalty_Charging>
0

> <r_epik_Ionization_Penalty_Neutral>
2.32704e-05

> <r_epik_State_Penalty>
-0

> <r_epik_Charging_Adjusted_Penalty>
0

> <i_epik_Tot_Q>
0

> <i_epik_Tot_abs_Q>
0

> <r_epik_Metal_State_Penalty>
-0

> <b_epik_Metal_Only>
0

> <s_lp_Force_Field>
OPLS_2005

> <r_lp_Energy>
12.9645

> <b_lp_Chiralities_Consistent>
1

> <s_lp_Variant>
AV-unprocessed.smi:2481-4

> <Gold.Version>
5.8.1

> <Gold.Id.Protein>
6NUR|6NUR_protein|mol2

> <Gold.PLP.Fitness>
37.1078

> <Gold.PLP.PLP>
-31.5822

> <Gold.PLP.part.hbond>
-3.0000

> <Gold.PLP.part.metal>
0.0000

> <Gold.PLP.part.buried>
-2.9704

> <Gold.PLP.part.nonpolar>
-25.3392

> <Gold.PLP.part.repulsive>
0.1574

> <Gold.PLP.ligand.clash>
0.0000

> <Gold.PLP.ligand.torsion>
0.1592

> <Gold.PLP.Chemscore.Hbond>
1.9440

> <Gold.PLP.Chemscore.CHOScore>
0.0000

> <Gold.PLP.Chemscore.Metal>
0.0000

> <Gold.Chemscore.Hbonds>
donor molecule, donor type, donor heavy atom, donor atom, acceptor molecule, acceptor atom, score
      L1  H     7    23       P1  7948  0.78
      L1  H    10    24       P1  7948  1.00

> <Gold.PLP.Chemscore.Internal.Correction>
0.0120

> <Gold.Rescore>
     Score         DG    S(hbond)    S(metal)    S(lipo)     H(rot)  DE(clash)    DE(int)     intcor
     10.51     -12.76       1.62        0.00      59.62       1.99       0.16       2.09       ----

> <Gold.Chemscore.Fitness>
10.5119

> <Gold.Chemscore.DG>
-12.7635

> <Gold.Chemscore.ZeroCoef>
-5.4800

> <Gold.Chemscore.Hbond>
1.6156

> <Gold.Chemscore.Metal>
0.0000

> <Gold.Chemscore.Lipo>
59.6223

> <Gold.Chemscore.Internal_Hbond>
0.0000

> <Gold.Chemscore.DEClash>
0.1580

> <Gold.Chemscore.DEInternal>
2.0936

> <Gold.Chemscore.Rot>
1.9877

> <Gold.Chemscore.Internal.Correction>
   9.000000E+99

> <Gold.Chemscore.Hbonds>
donor molecule, donor type, donor heavy atom, donor atom, acceptor molecule, acceptor atom, score
      L1  H     7    23       P1  7948  0.11
      L1  H    10    24       P1  7948  0.80

> <Gold.Chemscore.Hbond.Weighted>
-5.3962

> <Gold.Chemscore.Metal.Weighted>
-0.0000

> <Gold.Chemscore.Lipo.Weighted>
-6.9758

> <Gold.Chemscore.Internal_Hbond.Weighted>
0.0000

> <Gold.Chemscore.DEClash.Weighted>
0.1580

> <Gold.Chemscore.DEInternal.Weighted>
2.0936

> <Gold.Chemscore.Rot.Weighted>
5.0885

> <Gold.Chemscore.Internal.Correction.Weighted>
   9.000000E+99

> <Gold.Protein.RotatedTorsions>
[ 6907 6896 6895 6894 ] final  -19.26 input  -60.11 | X-H torsion
[ 7974 7965 7964 7962 ] final  -15.05 input  175.53 | X-H torsion
[ 8008 7997 7996 7995 ] final  -81.89 input   59.86 | X-H torsion
[ 10167 10162 10161 10158 ] final  143.31 input  -65.29 | X-H torsion
[ 10718 10713 10712 10709 ] final   14.08 input   66.30 | X-H torsion
[ 10763 10752 10751 10750 ] final  174.63 input  -60.55 | X-H torsion
[ 11005 11000 10999 10996 ] final    2.43 input  -57.11 | X-H torsion

> <Gold.Protein.ActiveResidues>
 VAL166  LYS551  ARG553  GLY616  TRP617  ASP618  TYR619  PRO620  LYS621  CYS622 
 ASP623  PHE694  ASN695  SER759  ASP760  ASP761  ALA762  ILE779  LEU786  VAL792 
 PHE793  MET794  SER795  GLU796  ALA797  LYS798  CYS799  TRP800  GLU811  SER814 

> <Gold.Protein.RotatedAtoms>
  151.2658  135.0668  159.9114 H   0  0  0  0  0  0  0  0  0  0  0  0  # atno 6907 bound_to 6896
  152.5359  134.0183  159.7980 H   0  0  0  0  0  0  0  0  0  0  0  0  # atno 6908 bound_to 6896
  151.0413  133.5653  159.2682 H   0  0  0  0  0  0  0  0  0  0  0  0  # atno 6909 bound_to 6896
  146.2048  140.3437  142.8410 H   0  0  0  0  0  0  0  0  0  0  0  0  # atno 7974 bound_to 7965
  154.6030  140.0641  156.9393 H   0  0  0  0  0  0  0  0  0  0  0  0  # atno 8008 bound_to 7997
  155.2101  140.3322  155.4312 H   0  0  0  0  0  0  0  0  0  0  0  0  # atno 8009 bound_to 7997
  156.2330  140.1849  156.7177 H   0  0  0  0  0  0  0  0  0  0  0  0  # atno 8010 bound_to 7997
  139.4972  144.6049  151.6401 H   0  0  0  0  0  0  0  0  0  0  0  0  # atno 10167 bound_to 10162
  157.0340  130.6204  149.5740 H   0  0  0  0  0  0  0  0  0  0  0  0  # atno 10718 bound_to 10713
  154.4566  135.2766  155.1743 H   0  0  0  0  0  0  0  0  0  0  0  0  # atno 10763 bound_to 10752
  154.3548  135.6142  153.5664 H   0  0  0  0  0  0  0  0  0  0  0  0  # atno 10764 bound_to 10752
  152.9851  135.5820  154.4920 H   0  0  0  0  0  0  0  0  0  0  0  0  # atno 10765 bound_to 10752
  140.6043  133.9806  155.8147 H   0  0  0  0  0  0  0  0  0  0  0  0  # atno 11005 bound_to 11000
  144.8767  140.7346  143.6012 LP  0  0  0  0  0  0  0  0  0  0  0  0  # atno 17320 bound_to 7965
  145.3357  139.1746  143.4513 LP  0  0  0  0  0  0  0  0  0  0  0  0  # atno 17321 bound_to 7965
  140.5708  144.0113  150.6215 LP  0  0  0  0  0  0  0  0  0  0  0  0  # atno 17342 bound_to 10162
  140.3229  143.3125  152.0765 LP  0  0  0  0  0  0  0  0  0  0  0  0  # atno 17343 bound_to 10162
  156.0060  130.5146  150.7831 LP  0  0  0  0  0  0  0  0  0  0  0  0  # atno 17370 bound_to 10713
  157.5156  131.0928  151.0144 LP  0  0  0  0  0  0  0  0  0  0  0  0  # atno 17371 bound_to 10713
  141.0851  134.0003  157.3326 LP  0  0  0  0  0  0  0  0  0  0  0  0  # atno 17394 bound_to 11000
  139.9219  135.0200  156.8094 LP  0  0  0  0  0  0  0  0  0  0  0  0  # atno 17395 bound_to 11000

$$$$
