AV-unprocessed.smi:1308|AV-procd|sdf|5442|dock6
  -GOLD-   22720 5 13D 1   1.00000     0.00000
 Structure written by MMmdl.
 44 44  0  0  0  0  0  0  0  0  2 V2000
  152.3643  141.7202  158.2914 C   0  0  0  0  0  0  0  0  0  0  0  0
  151.8814  140.6786  157.3047 C   0  0  0  0  0  0  0  0  0  0  0  0
  150.8102  140.8954  156.6413 N   0  0  0  0  0  0  0  0  0  0  0  0
  150.3549  139.9297  155.7279 C   0  0  0  0  0  0  0  0  0  0  0  0
  149.0694  140.2652  154.9920 C   0  0  0  0  0  0  0  0  0  0  0  0
  151.0377  138.7656  155.5331 C   0  0  0  0  0  0  0  0  0  0  0  0
  150.5760  137.6766  154.5627 C   0  0  0  0  0  0  0  0  0  0  0  0
  150.3530  136.2899  155.1714 C   0  0  0  0  0  0  0  0  0  0  0  0
  150.6974  136.0675  156.3319 O   0  0  0  0  0  0  0  0  0  0  0  0
  149.7656  135.3761  154.3820 N   0  0  0  0  0  0  0  0  0  0  0  0
  149.4710  133.9893  154.7325 C   0  0  2  0  0  0  0  0  0  0  0  0
  150.7304  133.3515  155.3345 C   0  0  0  0  0  0  0  0  0  0  0  0
  148.9736  133.2110  153.4988 C   0  0  0  0  0  0  0  0  0  0  0  0
  147.5251  133.5484  153.0958 C   0  0  0  0  0  0  0  0  0  0  0  0
  146.8980  132.5504  152.1015 C   0  0  0  0  0  0  0  0  0  0  0  0
  145.5264  133.0187  151.5865 C   0  0  0  0  0  0  0  0  0  0  0  0
  146.7850  131.1553  152.7344 C   0  0  0  0  0  0  0  0  0  0  0  0
  152.2665  138.5533  156.3190 C   0  0  0  0  0  0  0  0  0  0  0  0
  152.9093  137.5115  156.1957 O   0  0  0  0  0  0  0  0  0  0  0  0
  152.6436  139.5386  157.1823 N   0  5  0  0  0  0  0  0  0  0  0  0
  151.6243  142.5109  158.4220 H   0  0  0  0  0  0  0  0  0  0  0  0
  153.2913  142.1728  157.9381 H   0  0  0  0  0  0  0  0  0  0  0  0
  152.5501  141.2642  159.2645 H   0  0  0  0  0  0  0  0  0  0  0  0
  149.2560  140.3570  153.9220 H   0  0  0  0  0  0  0  0  0  0  0  0
  148.6490  141.2091  155.3414 H   0  0  0  0  0  0  0  0  0  0  0  0
  148.3214  139.4882  155.1496 H   0  0  0  0  0  0  0  0  0  0  0  0
  149.6430  137.9993  154.0999 H   0  0  0  0  0  0  0  0  0  0  0  0
  151.2744  137.5773  153.7315 H   0  0  0  0  0  0  0  0  0  0  0  0
  149.5133  135.6666  153.4477 H   0  0  0  0  0  0  0  0  0  0  0  0
  148.6923  133.9520  155.4962 H   0  0  0  0  0  0  0  0  0  0  0  0
  150.5445  132.3196  155.6329 H   0  0  0  0  0  0  0  0  0  0  0  0
  151.0595  133.8960  156.2203 H   0  0  0  0  0  0  0  0  0  0  0  0
  151.5549  133.3489  154.6204 H   0  0  0  0  0  0  0  0  0  0  0  0
  149.6458  133.4017  152.6618 H   0  0  0  0  0  0  0  0  0  0  0  0
  149.0416  132.1427  153.7066 H   0  0  0  0  0  0  0  0  0  0  0  0
  146.9162  133.5726  154.0006 H   0  0  0  0  0  0  0  0  0  0  0  0
  147.4789  134.5536  152.6754 H   0  0  0  0  0  0  0  0  0  0  0  0
  147.5659  132.4620  151.2436 H   0  0  0  0  0  0  0  0  0  0  0  0
  144.8259  133.1717  152.4080 H   0  0  0  0  0  0  0  0  0  0  0  0
  145.0897  132.2817  150.9121 H   0  0  0  0  0  0  0  0  0  0  0  0
  145.6013  133.9539  151.0325 H   0  0  0  0  0  0  0  0  0  0  0  0
  146.1307  131.1687  153.6068 H   0  0  0  0  0  0  0  0  0  0  0  0
  147.7599  130.7874  153.0557 H   0  0  0  0  0  0  0  0  0  0  0  0
  146.3806  130.4324  152.0255 H   0  0  0  0  0  0  0  0  0  0  0  0
  1  2  1  0  0  0  0
  1 21  1  0  0  0  0
  1 22  1  0  0  0  0
  1 23  1  0  0  0  0
  2 20  1  0  0  0  0
  2  3  2  0  0  0  0
  3  4  1  0  0  0  0
  4  5  1  0  0  0  0
  4  6  2  0  0  0  0
  5 24  1  0  0  0  0
  5 25  1  0  0  0  0
  5 26  1  0  0  0  0
  6  7  1  0  0  0  0
  6 18  1  0  0  0  0
  7  8  1  0  0  0  0
  7 27  1  0  0  0  0
  7 28  1  0  0  0  0
  8  9  2  0  0  0  0
  8 10  1  0  0  0  0
 10 11  1  0  0  0  0
 10 29  1  0  0  0  0
 11 12  1  0  0  0  0
 11 13  1  0  0  0  0
 11 30  1  0  0  0  0
 12 31  1  0  0  0  0
 12 32  1  0  0  0  0
 12 33  1  0  0  0  0
 13 14  1  0  0  0  0
 13 34  1  0  0  0  0
 13 35  1  0  0  0  0
 14 15  1  0  0  0  0
 14 36  1  0  0  0  0
 14 37  1  0  0  0  0
 15 16  1  0  0  0  0
 15 17  1  0  0  0  0
 15 38  1  0  0  0  0
 16 39  1  0  0  0  0
 16 40  1  0  0  0  0
 16 41  1  0  0  0  0
 17 42  1  0  0  0  0
 17 43  1  0  0  0  0
 17 44  1  0  0  0  0
 18 19  2  0  0  0  0
 18 20  1  0  0  0  0
M  CHG  1  20  -1
M  END
> <s_m_source_file>
AV-unprocessed.smi

> <i_m_source_file_index>
1308

> <i_lp_mmshare_version>
43012

> <i_f3d_flags>
0

> <s_epik_input>
W0NIM11jMW5jKFtDSDNdKWMoYyg9TylbbkhdMSlbQ0gyXUMoPU8pW05IXVtDQEhdKFtDSDNdKVtDSDJdW0NIMl1bQ0hdKFtDSDNdKVtDSDNd

> <s_epik_cmdline>
J2VwaWtfcHl0aG9uJywgJy1waCcsICc3LjAnLCAnLXRuJywgJzgnLCAnLW1hJywgJzIwMCcsICctbWV0YWxfYmluZGluZycsICctaW1hZScsICc8aW5maWxlLm1hZT4nLCAnLW9tYWUnLCAnPG91dGZpbGUubWFlPic=

> <r_lp_tautomer_probability>
0.839158

> <r_epik_Ionization_Penalty>
6.61719

> <r_epik_Ionization_Penalty_Charging>
7.20681e-08

> <r_epik_Ionization_Penalty_Neutral>
6.61719

> <r_epik_State_Penalty>
4.43758

> <r_epik_Charging_Adjusted_Penalty>
4.43758

> <i_epik_Tot_Q>
-1

> <i_epik_Tot_abs_Q>
1

> <r_epik_Metal_State_Penalty>
0.801586

> <b_epik_Metal_Only>
1

> <s_lp_Force_Field>
OPLS_2005

> <r_lp_Energy>
8.43775

> <b_lp_Chiralities_Consistent>
1

> <s_lp_Variant>
AV-unprocessed.smi:1308-5

> <Gold.Version>
5.8.1

> <Gold.Id.Protein>
6NUR|6NUR_protein|mol2

> <Gold.PLP.Fitness>
39.3756

> <Gold.PLP.PLP>
-31.1466

> <Gold.PLP.part.hbond>
-2.7054

> <Gold.PLP.part.metal>
0.0000

> <Gold.PLP.part.buried>
-4.0795

> <Gold.PLP.part.nonpolar>
-25.2708

> <Gold.PLP.part.repulsive>
0.0851

> <Gold.PLP.ligand.clash>
0.0000

> <Gold.PLP.ligand.torsion>
0.3548

> <Gold.PLP.Chemscore.Hbond>
2.9500

> <Gold.PLP.Chemscore.CHOScore>
0.0000

> <Gold.PLP.Chemscore.Metal>
0.0000

> <Gold.Chemscore.Hbonds>
donor molecule, donor type, donor heavy atom, donor atom, acceptor molecule, acceptor atom, score
      L1  H    10    29       P1  7948  0.90
      P1  H  7997  8010       L1    20  2.00

> <Gold.PLP.Chemscore.Internal.Correction>
0.0887

> <Gold.Rescore>
     Score         DG    S(hbond)    S(metal)    S(lipo)     H(rot)  DE(clash)    DE(int)     intcor
     12.37     -14.15       1.83        0.00      63.74       1.91       0.06       1.72       ----

> <Gold.Chemscore.Fitness>
12.3738

> <Gold.Chemscore.DG>
-14.1499

> <Gold.Chemscore.ZeroCoef>
-5.4800

> <Gold.Chemscore.Hbond>
1.8282

> <Gold.Chemscore.Metal>
0.0000

> <Gold.Chemscore.Lipo>
63.7446

> <Gold.Chemscore.Internal_Hbond>
0.0000

> <Gold.Chemscore.DEClash>
0.0563

> <Gold.Chemscore.DEInternal>
1.7198

> <Gold.Chemscore.Rot>
1.9118

> <Gold.Chemscore.Internal.Correction>
   9.000000E+99

> <Gold.Chemscore.Hbonds>
donor molecule, donor type, donor heavy atom, donor atom, acceptor molecule, acceptor atom, score
      L1  H    10    29       P1  7948  0.18
      P1  H  7997  8010       L1    20  0.43

> <Gold.Chemscore.Hbond.Weighted>
-6.1061

> <Gold.Chemscore.Metal.Weighted>
-0.0000

> <Gold.Chemscore.Lipo.Weighted>
-7.4581

> <Gold.Chemscore.Internal_Hbond.Weighted>
0.0000

> <Gold.Chemscore.DEClash.Weighted>
0.0563

> <Gold.Chemscore.DEInternal.Weighted>
1.7198

> <Gold.Chemscore.Rot.Weighted>
4.8943

> <Gold.Chemscore.Internal.Correction.Weighted>
   9.000000E+99

> <Gold.Protein.RotatedTorsions>
[ 6907 6896 6895 6894 ] final   89.60 input  -60.11 | X-H torsion
[ 7974 7965 7964 7962 ] final -100.94 input  175.53 | X-H torsion
[ 8008 7997 7996 7995 ] final   53.39 input   59.86 | X-H torsion
[ 10167 10162 10161 10158 ] final  130.02 input  -65.29 | X-H torsion
[ 10718 10713 10712 10709 ] final  134.95 input   66.30 | X-H torsion
[ 10763 10752 10751 10750 ] final   49.57 input  -60.55 | X-H torsion
[ 11005 11000 10999 10996 ] final   41.52 input  -57.11 | X-H torsion

> <Gold.Protein.ActiveResidues>
 VAL166  LYS551  ARG553  GLY616  TRP617  ASP618  TYR619  PRO620  LYS621  CYS622 
 ASP623  PHE694  ASN695  SER759  ASP760  ASP761  ALA762  ILE779  LEU786  VAL792 
 PHE793  MET794  SER795  GLU796  ALA797  LYS798  CYS799  TRP800  GLU811  SER814 

> <Gold.Protein.RotatedAtoms>
  152.5437  134.1941  159.8685 H   0  0  0  0  0  0  0  0  0  0  0  0  # atno 6907 bound_to 6896
  151.1934  133.4647  159.2602 H   0  0  0  0  0  0  0  0  0  0  0  0  # atno 6908 bound_to 6896
  151.1060  135.0012  159.8527 H   0  0  0  0  0  0  0  0  0  0  0  0  # atno 6909 bound_to 6896
  145.2881  140.9345  143.2894 H   0  0  0  0  0  0  0  0  0  0  0  0  # atno 7974 bound_to 7965
  155.4674  140.3464  155.4321 H   0  0  0  0  0  0  0  0  0  0  0  0  # atno 8008 bound_to 7997
  156.1122  140.1464  156.9351 H   0  0  0  0  0  0  0  0  0  0  0  0  # atno 8009 bound_to 7997
  154.4764  140.0883  156.7251 H   0  0  0  0  0  0  0  0  0  0  0  0  # atno 8010 bound_to 7997
  139.5450  144.6765  151.4503 H   0  0  0  0  0  0  0  0  0  0  0  0  # atno 10167 bound_to 10162
  157.4621  131.1074  150.9907 H   0  0  0  0  0  0  0  0  0  0  0  0  # atno 10718 bound_to 10713
  152.9786  135.5907  154.4111 H   0  0  0  0  0  0  0  0  0  0  0  0  # atno 10763 bound_to 10752
  154.3746  135.2767  155.2248 H   0  0  0  0  0  0  0  0  0  0  0  0  # atno 10764 bound_to 10752
  154.4189  135.6064  153.6052 H   0  0  0  0  0  0  0  0  0  0  0  0  # atno 10765 bound_to 10752
  140.1827  134.4084  155.8191 H   0  0  0  0  0  0  0  0  0  0  0  0  # atno 11005 bound_to 11000
  144.9196  139.4428  143.6547 LP  0  0  0  0  0  0  0  0  0  0  0  0  # atno 17320 bound_to 7965
  146.3194  139.8049  142.8957 LP  0  0  0  0  0  0  0  0  0  0  0  0  # atno 17321 bound_to 7965
  140.6694  143.8326  150.6981 LP  0  0  0  0  0  0  0  0  0  0  0  0  # atno 17342 bound_to 10162
  140.1746  143.4166  152.1977 LP  0  0  0  0  0  0  0  0  0  0  0  0  # atno 17343 bound_to 10162
  157.0701  130.5860  149.5401 LP  0  0  0  0  0  0  0  0  0  0  0  0  # atno 17370 bound_to 10713
  156.0033  130.5116  150.7742 LP  0  0  0  0  0  0  0  0  0  0  0  0  # atno 17371 bound_to 10713
  141.2223  133.7008  156.7958 LP  0  0  0  0  0  0  0  0  0  0  0  0  # atno 17394 bound_to 11000
  140.2249  134.8729  157.3416 LP  0  0  0  0  0  0  0  0  0  0  0  0  # atno 17395 bound_to 11000

$$$$
