#       Name:                AV-unprocessed.smi:2928
#       Creating user name   scv26
#       Creation time:       Fri Mar 27 16:12:47 2020


#       File generated by GOLD software.
#

@<TRIPOS>MOLECULE
AV-unprocessed.smi:2928
    59    62     1
SMALL
NO_CHARGES


@<TRIPOS>ATOM
      1 ****        -4.8989  -2.7173  -0.5308 C.3            1 S1                 0.0000
      2 ****        -3.7530  -1.8365  -0.2010 N.4            1 S1                 1.0000
      3 ****        -3.6773  -1.4179   1.2200 C.3            1 S1                 0.0000
      4 ****        -4.8110  -0.4227   1.5758 C.3            1 S1                 0.0000
      5 ****        -4.9135   0.7797   0.6179 C.3            1 S1                 0.0000
      6 ****        -4.7255   0.3761  -0.8569 C.3            1 S1                 0.0000
      7 ****        -3.5951  -0.6587  -1.0886 C.3            1 S1                 0.0000
      8 ****        -2.1623  -0.0999  -0.9277 C.3            1 S1                 0.0000
      9 ****        -1.7450   0.1862   0.5381 C.3            1 S1                 0.0000
     10 ****        -0.2907   0.2832   0.6431 N.am           1 S1                 0.0000
     11 ****         0.4436   1.3426   0.2733 C.2            1 S1                 0.0000
     12 ****        -0.0345   2.3554  -0.2371 O.2            1 S1                 0.0000
     13 ****         1.7484   1.1365   0.5178 N.am           1 S1                 0.0000
     14 ****         2.8472   2.0050   0.2594 C.ar           1 S1                 0.0000
     15 ****         2.7077   3.4148   0.2821 C.ar           1 S1                 0.0000
     16 ****         3.8406   4.2237   0.0882 C.ar           1 S1                 0.0000
     17 ****         5.0812   3.5945  -0.1059 C.ar           1 S1                 0.0000
     18 ****         5.2340   2.2554  -0.1163 N.ar           1 S1                 0.0000
     19 ****         4.1481   1.4619   0.0552 C.ar           1 S1                 0.0000
     20 ****         4.3636   0.0654   0.0197 N.3            1 S1                 0.0000
     21 ****         3.6340  -0.7074  -0.9817 C.3            1 S1                 0.0000
     22 ****         4.5740  -1.8309  -1.4341 C.3            1 S1                 0.0000
     23 ****         5.5968  -1.9272  -0.3060 C.3            1 S1                 0.0000
     24 ****         5.7116  -0.4764   0.1514 C.3            1 S1                 0.0000
     25 ****        -2.2483  -0.9049   1.5136 C.3            1 S1                 0.0000
     26 ****        -5.8580  -2.2181  -0.3975 H              1 S1                 0.0000
     27 ****        -4.8898  -3.6045   0.1030 H              1 S1                 0.0000
     28 ****        -4.8344  -3.0524  -1.5664 H              1 S1                 0.0000
     29 ****        -3.8202  -2.3061   1.8372 H              1 S1                 0.0000
     30 ****        -5.7625  -0.9548   1.5623 H              1 S1                 0.0000
     31 ****        -4.6929  -0.0693   2.6007 H              1 S1                 0.0000
     32 ****        -5.8843   1.2607   0.7418 H              1 S1                 0.0000
     33 ****        -4.1956   1.5471   0.8946 H              1 S1                 0.0000
     34 ****        -5.6641  -0.0419  -1.2215 H              1 S1                 0.0000
     35 ****        -4.5513   1.2656  -1.4633 H              1 S1                 0.0000
     36 ****        -3.6783  -1.0044  -2.1201 H              1 S1                 0.0000
     37 ****        -1.4742  -0.8363  -1.3468 H              1 S1                 0.0000
     38 ****        -2.0397   0.7968  -1.5365 H              1 S1                 0.0000
     39 ****        -2.1503   1.1455   0.8509 H              1 S1                 0.0000
     40 ****         0.1907  -0.5064   1.0481 H              1 S1                 0.0000
     41 ****         1.9991   0.2181   0.8537 H              1 S1                 0.0000
     42 ****         1.7576   3.8913   0.4686 H              1 S1                 0.0000
     43 ****         3.7621   5.3007   0.1018 H              1 S1                 0.0000
     44 ****         5.9763   4.1812  -0.2506 H              1 S1                 0.0000
     45 ****         2.7427  -1.1326  -0.5202 H              1 S1                 0.0000
     46 ****         3.3172  -0.0907  -1.8243 H              1 S1                 0.0000
     47 ****         4.0535  -2.7710  -1.6178 H              1 S1                 0.0000
     48 ****         5.0762  -1.5389  -2.3574 H              1 S1                 0.0000
     49 ****         5.2037  -2.5447   0.5027 H              1 S1                 0.0000
     50 ****         6.5497  -2.3498  -0.6255 H              1 S1                 0.0000
     51 ****         6.4080   0.0537  -0.4995 H              1 S1                 0.0000
     52 ****         6.0737  -0.4005   1.1770 H              1 S1                 0.0000
     53 ****        -2.1784  -0.5482   2.5419 H              1 S1                 0.0000
     54 ****        -1.5761  -1.7627   1.4526 H              1 S1                 0.0000
     55 ****        -2.9370  -2.4101  -0.3609 H              1 S1                 0.0000
     56 ****        -1.0198   2.4180  -0.3956 LP             1 S1                 0.0000
     57 ****         0.5624   3.1158  -0.4932 LP             1 S1                 0.0000
     58 ****         6.1390   1.8513  -0.2491 LP             1 S1                 0.0000
     59 ****         3.9373  -0.0715   0.9139 LP             1 S1                 0.0000
@<TRIPOS>BOND
    1    1    2 1     
    2    1   26 1     
    3    1   27 1     
    4    1   28 1     
    5    2    7 1     
    6    2    3 1     
    7    2   55 1     
    8    3   25 1     
    9    3    4 1     
   10    3   29 1     
   11    4    5 1     
   12    4   30 1     
   13    4   31 1     
   14    5    6 1     
   15    5   32 1     
   16    5   33 1     
   17    6    7 1     
   18    6   34 1     
   19    6   35 1     
   20    7    8 1     
   21    7   36 1     
   22    8    9 1     
   23    8   37 1     
   24    8   38 1     
   25    9   10 1     
   26    9   25 1     
   27    9   39 1     
   28   10   11 am    
   29   10   40 1     
   30   11   12 2     
   31   11   13 am    
   32   13   14 1     
   33   13   41 1     
   34   14   19 ar    
   35   14   15 ar    
   36   15   16 ar    
   37   15   42 1     
   38   16   17 ar    
   39   16   43 1     
   40   17   18 ar    
   41   17   44 1     
   42   18   19 ar    
   43   19   20 1     
   44   20   24 1     
   45   20   21 1     
   46   21   22 1     
   47   21   45 1     
   48   21   46 1     
   49   22   23 1     
   50   22   47 1     
   51   22   48 1     
   52   23   24 1     
   53   23   49 1     
   54   23   50 1     
   55   24   51 1     
   56   24   52 1     
   57   25   53 1     
   58   25   54 1     
   59   12   56 1     
   60   12   57 1     
   61   18   58 1     
   62   20   59 1     
@<TRIPOS>SUBSTRUCTURE
      1 S1             1
@<TRIPOS>SET
LONE_PAIRS      STATIC     ATOMS    <user>   **** ""
4 56 57 58 59
DONOR_HYDROGENS      STATIC     ATOMS    <user>   **** ""
3 55 40 41
ATOM$BLUE        STATIC     ATOMS    COLORGROUP SYSTEM
4 56 57 58 59
ATOM$RED        STATIC     ATOMS    COLORGROUP SYSTEM
3 55 40 41
