AV-unprocessed.smi:1381|AV-procd|sdf|5612|dock8
  -GOLD-   22720 5223D 1   1.00000     0.00000
 Structure written by MMmdl.
 42 43  0  0  0  0  0  0  0  0  3 V2000
  146.5025  134.5296  162.8789 C   0  0  0  0  0  0  0  0  0  0  0  0
  146.9246  135.5665  161.8948 C   0  0  0  0  0  0  0  0  0  0  0  0
  147.3029  135.5004  160.5840 C   0  0  0  0  0  0  0  0  0  0  0  0
  147.5697  136.8570  160.2536 C   0  0  0  0  0  0  0  0  0  0  0  0
  147.9924  137.3082  159.0624 N   0  5  0  0  0  0  0  0  0  0  0  0
  149.1858  137.9360  158.9569 C   0  0  0  0  0  0  0  0  0  0  0  0
  150.0740  137.9724  159.8116 O   0  0  0  0  0  0  0  0  0  0  0  0
  149.3595  138.5666  157.7880 N   0  0  0  0  0  0  0  0  0  0  0  0
  150.5382  139.3366  157.4145 C   0  0  0  0  0  0  0  0  0  0  0  0
  150.2813  140.8366  157.6280 C   0  0  0  0  0  0  0  0  0  0  0  0
  151.4723  141.5524  158.1498 N   0  3  1  0  0  0  0  0  0  0  0  0
  151.2575  143.0173  158.2207 C   0  0  0  0  0  0  0  0  0  0  0  0
  152.5299  143.7315  158.7143 C   0  0  1  0  0  0  0  0  0  0  0  0
  152.3174  145.2403  158.8809 C   0  0  0  0  0  0  0  0  0  0  0  0
  152.9030  143.1959  159.9790 O   0  0  0  0  0  0  0  0  0  0  0  0
  153.2044  141.8064  159.9161 C   0  0  1  0  0  0  0  0  0  0  0  0
  153.6825  141.3577  161.3015 C   0  0  0  0  0  0  0  0  0  0  0  0
  151.9501  141.0388  159.4578 C   0  0  0  0  0  0  0  0  0  0  0  0
  147.3843  137.6729  161.2779 N   0  0  0  0  0  0  0  0  0  0  0  0
  146.9642  136.8539  162.3329 O   0  0  0  0  0  0  0  0  0  0  0  0
  147.3169  133.8325  163.0759 H   0  0  0  0  0  0  0  0  0  0  0  0
  145.6549  133.9600  162.4983 H   0  0  0  0  0  0  0  0  0  0  0  0
  146.2079  134.9814  163.8263 H   0  0  0  0  0  0  0  0  0  0  0  0
  147.3751  134.6225  159.9597 H   0  0  0  0  0  0  0  0  0  0  0  0
  148.6105  138.5092  157.1133 H   0  0  0  0  0  0  0  0  0  0  0  0
  151.3844  139.0004  158.0139 H   0  0  0  0  0  0  0  0  0  0  0  0
  150.7787  139.1358  156.3696 H   0  0  0  0  0  0  0  0  0  0  0  0
  149.9984  141.2723  156.6682 H   0  0  0  0  0  0  0  0  0  0  0  0
  149.4348  140.9910  158.2991 H   0  0  0  0  0  0  0  0  0  0  0  0
  150.9830  143.3969  157.2354 H   0  0  0  0  0  0  0  0  0  0  0  0
  150.4219  143.2290  158.8903 H   0  0  0  0  0  0  0  0  0  0  0  0
  153.3419  143.5716  158.0025 H   0  0  0  0  0  0  0  0  0  0  0  0
  152.0434  145.7060  157.9340 H   0  0  0  0  0  0  0  0  0  0  0  0
  153.2265  145.7251  159.2382 H   0  0  0  0  0  0  0  0  0  0  0  0
  151.5246  145.4506  159.5996 H   0  0  0  0  0  0  0  0  0  0  0  0
  154.0147  141.6465  159.2026 H   0  0  0  0  0  0  0  0  0  0  0  0
  153.9356  140.2971  161.3048 H   0  0  0  0  0  0  0  0  0  0  0  0
  152.9138  141.5208  162.0573 H   0  0  0  0  0  0  0  0  0  0  0  0
  154.5711  141.9117  161.6052 H   0  0  0  0  0  0  0  0  0  0  0  0
  151.1556  141.1376  160.1995 H   0  0  0  0  0  0  0  0  0  0  0  0
  152.1892  139.9786  159.3861 H   0  0  0  0  0  0  0  0  0  0  0  0
  152.2152  141.4045  157.4815 H   0  0  0  0  0  0  0  0  0  0  0  0
  1  2  1  0  0  0  0
  1 21  1  0  0  0  0
  1 22  1  0  0  0  0
  1 23  1  0  0  0  0
  2 20  1  0  0  0  0
  2  3  2  0  0  0  0
  3  4  1  0  0  0  0
  3 24  1  0  0  0  0
  4  5  1  0  0  0  0
  4 19  2  0  0  0  0
  5  6  1  0  0  0  0
  6  7  2  0  0  0  0
  6  8  1  0  0  0  0
  8  9  1  0  0  0  0
  8 25  1  0  0  0  0
  9 10  1  0  0  0  0
  9 26  1  0  0  0  0
  9 27  1  0  0  0  0
 10 11  1  0  0  0  0
 10 28  1  0  0  0  0
 10 29  1  0  0  0  0
 11 18  1  0  0  0  0
 11 12  1  0  0  0  0
 11 42  1  0  0  0  0
 12 13  1  0  0  0  0
 12 30  1  0  0  0  0
 12 31  1  0  0  0  0
 13 14  1  0  0  0  0
 13 15  1  0  0  0  0
 13 32  1  0  0  0  0
 14 33  1  0  0  0  0
 14 34  1  0  0  0  0
 14 35  1  0  0  0  0
 15 16  1  0  0  0  0
 16 17  1  0  0  0  0
 16 18  1  0  0  0  0
 16 36  1  0  0  0  0
 17 37  1  0  0  0  0
 17 38  1  0  0  0  0
 17 39  1  0  0  0  0
 18 40  1  0  0  0  0
 18 41  1  0  0  0  0
 19 20  1  0  0  0  0
M  CHG  1   5  -1
M  CHG  1  11   1
M  END
> <s_m_source_file>
AV-unprocessed.smi

> <i_m_source_file_index>
1381

> <i_lp_mmshare_version>
43012

> <i_f3d_flags>
0

> <s_epik_input>
W0NIM11jMVtjSF1jKG5vMSlbTkhdQyg9TylbTkhdW0NIMl1bQ0gyXU4yW0NIMl1bQ0BASF0oW0NIM10pT1tDQEBIXShbQ0gzXSlbQ0gyXTI=

> <s_epik_cmdline>
J2VwaWtfcHl0aG9uJywgJy1waCcsICc3LjAnLCAnLXRuJywgJzgnLCAnLW1hJywgJzIwMCcsICctbWV0YWxfYmluZGluZycsICctaW1hZScsICc8aW5maWxlLm1hZT4nLCAnLW9tYWUnLCAnPG91dGZpbGUubWFlPic=

> <r_epik_Ionization_Penalty>
6.73511

> <r_epik_Ionization_Penalty_Charging>
6.73502

> <r_epik_Ionization_Penalty_Neutral>
9.26583e-05

> <r_epik_State_Penalty>
6.93549

> <r_epik_Charging_Adjusted_Penalty>
13.6705

> <i_epik_Tot_Q>
0

> <i_epik_Tot_abs_Q>
2

> <r_epik_Metal_State_Penalty>
2.87211

> <b_epik_Metal_Only>
1

> <s_lp_Force_Field>
OPLS_2005

> <r_lp_Energy>
2.9367

> <b_lp_Chiralities_Consistent>
1

> <s_lp_Variant>
AV-unprocessed.smi:1381-11

> <Gold.Version>
5.8.1

> <Gold.Id.Protein>
6NUR|6NUR_protein|mol2

> <Gold.PLP.Fitness>
43.3138

> <Gold.PLP.PLP>
-40.1240

> <Gold.PLP.part.hbond>
-3.0000

> <Gold.PLP.part.metal>
0.0000

> <Gold.PLP.part.buried>
-6.4584

> <Gold.PLP.part.nonpolar>
-30.3887

> <Gold.PLP.part.repulsive>
0.1340

> <Gold.PLP.ligand.clash>
0.0000

> <Gold.PLP.ligand.torsion>
1.0345

> <Gold.PLP.Chemscore.Hbond>
1.7280

> <Gold.PLP.Chemscore.CHOScore>
0.0000

> <Gold.PLP.Chemscore.Metal>
0.0000

> <Gold.Chemscore.Hbonds>
donor molecule, donor type, donor heavy atom, donor atom, acceptor molecule, acceptor atom, score
      P1  H  6931  6943       L1    19  0.64
      P1  H  6934  6947       L1    19  0.62

> <Gold.PLP.Chemscore.Internal.Correction>
0.0748

> <Gold.Rescore>
     Score         DG    S(hbond)    S(metal)    S(lipo)     H(rot)  DE(clash)    DE(int)     intcor
     15.71     -16.78       1.46        0.00      89.42       1.58       0.07       1.00       ----

> <Gold.Chemscore.Fitness>
15.7107

> <Gold.Chemscore.DG>
-16.7839

> <Gold.Chemscore.ZeroCoef>
-5.4800

> <Gold.Chemscore.Hbond>
1.4625

> <Gold.Chemscore.Metal>
0.0000

> <Gold.Chemscore.Lipo>
89.4189

> <Gold.Chemscore.Internal_Hbond>
0.0000

> <Gold.Chemscore.DEClash>
0.0712

> <Gold.Chemscore.DEInternal>
1.0020

> <Gold.Chemscore.Rot>
1.5792

> <Gold.Chemscore.Internal.Correction>
   9.000000E+99

> <Gold.Chemscore.Hbonds>
donor molecule, donor type, donor heavy atom, donor atom, acceptor molecule, acceptor atom, score
      P1  H  6931  6943       L1    19  0.17
      P1  H  6934  6947       L1    19  0.57

> <Gold.Chemscore.Hbond.Weighted>
-4.8847

> <Gold.Chemscore.Metal.Weighted>
-0.0000

> <Gold.Chemscore.Lipo.Weighted>
-10.4620

> <Gold.Chemscore.Internal_Hbond.Weighted>
0.0000

> <Gold.Chemscore.DEClash.Weighted>
0.0712

> <Gold.Chemscore.DEInternal.Weighted>
1.0020

> <Gold.Chemscore.Rot.Weighted>
4.0428

> <Gold.Chemscore.Internal.Correction.Weighted>
   9.000000E+99

> <Gold.Protein.RotatedTorsions>
[ 6907 6896 6895 6894 ] final  -81.20 input  -60.11 | X-H torsion
[ 7974 7965 7964 7962 ] final -147.60 input  175.53 | X-H torsion
[ 8008 7997 7996 7995 ] final  102.70 input   59.86 | X-H torsion
[ 10167 10162 10161 10158 ] final  -27.42 input  -65.29 | X-H torsion
[ 10718 10713 10712 10709 ] final  -56.15 input   66.30 | X-H torsion
[ 10763 10752 10751 10750 ] final   78.43 input  -60.55 | X-H torsion
[ 11005 11000 10999 10996 ] final  120.68 input  -57.11 | X-H torsion

> <Gold.Protein.ActiveResidues>
 VAL166  LYS551  ARG553  GLY616  TRP617  ASP618  TYR619  PRO620  LYS621  CYS622 
 ASP623  PHE694  ASN695  SER759  ASP760  ASP761  ALA762  ILE779  LEU786  VAL792 
 PHE793  MET794  SER795  GLU796  ALA797  LYS798  CYS799  TRP800  GLU811  SER814 

> <Gold.Protein.RotatedAtoms>
  150.6916  134.3854  159.5052 H   0  0  0  0  0  0  0  0  0  0  0  0  # atno 6907 bound_to 6896
  152.1650  134.8878  160.0548 H   0  0  0  0  0  0  0  0  0  0  0  0  # atno 6908 bound_to 6896
  151.9926  133.3761  159.4187 H   0  0  0  0  0  0  0  0  0  0  0  0  # atno 6909 bound_to 6896
  144.8083  140.5306  143.5660 H   0  0  0  0  0  0  0  0  0  0  0  0  # atno 7974 bound_to 7965
  156.1417  140.3177  155.8505 H   0  0  0  0  0  0  0  0  0  0  0  0  # atno 8008 bound_to 7997
  155.4142  140.0508  157.3047 H   0  0  0  0  0  0  0  0  0  0  0  0  # atno 8009 bound_to 7997
  154.4981  140.2119  155.9415 H   0  0  0  0  0  0  0  0  0  0  0  0  # atno 8010 bound_to 7997
  140.7277  143.4095  151.1129 H   0  0  0  0  0  0  0  0  0  0  0  0  # atno 10167 bound_to 10162
  156.1312  130.4159  150.0266 H   0  0  0  0  0  0  0  0  0  0  0  0  # atno 10718 bound_to 10713
  153.0874  135.4877  154.8623 H   0  0  0  0  0  0  0  0  0  0  0  0  # atno 10763 bound_to 10752
  154.7227  135.3043  154.9023 H   0  0  0  0  0  0  0  0  0  0  0  0  # atno 10764 bound_to 10752
  153.9682  135.6804  153.4799 H   0  0  0  0  0  0  0  0  0  0  0  0  # atno 10765 bound_to 10752
  139.9195  134.9636  156.7844 H   0  0  0  0  0  0  0  0  0  0  0  0  # atno 11005 bound_to 11000
  145.5385  139.1475  143.3460 LP  0  0  0  0  0  0  0  0  0  0  0  0  # atno 17320 bound_to 7965
  146.2378  140.5524  142.8947 LP  0  0  0  0  0  0  0  0  0  0  0  0  # atno 17321 bound_to 7965
  139.7726  143.8471  152.3123 LP  0  0  0  0  0  0  0  0  0  0  0  0  # atno 17342 bound_to 10162
  139.8395  144.7216  150.9349 LP  0  0  0  0  0  0  0  0  0  0  0  0  # atno 17343 bound_to 10162
  156.8178  130.9348  151.3642 LP  0  0  0  0  0  0  0  0  0  0  0  0  # atno 17370 bound_to 10713
  157.6489  130.8868  149.9594 LP  0  0  0  0  0  0  0  0  0  0  0  0  # atno 17371 bound_to 10713
  140.6518  133.9724  155.7759 LP  0  0  0  0  0  0  0  0  0  0  0  0  # atno 17394 bound_to 11000
  141.0703  134.0216  157.3536 LP  0  0  0  0  0  0  0  0  0  0  0  0  # atno 17395 bound_to 11000

$$$$
