AV-unprocessed.smi:2642|AV-procd|sdf|10275|dock8
  -GOLD-   2272014283D 1   1.00000     0.00000
 Structure written by MMmdl.
 31 32  0  0  0  0  0  0  0  0  2 V2000
  150.3120  140.6610  155.9983 O   0  0  0  0  0  0  0  0  0  0  0  0
  149.9241  141.8245  155.8949 C   0  0  0  0  0  0  0  0  0  0  0  0
  149.0275  142.2277  154.9840 N   0  0  0  0  0  0  0  0  0  0  0  0
  148.3927  141.3670  153.9938 C   0  0  0  0  0  0  0  0  0  0  0  0
  146.9712  140.9667  154.4277 C   0  0  0  0  0  0  0  0  0  0  0  0
  146.2798  142.0812  155.0820 N   0  0  0  0  0  0  0  0  0  0  0  0
  145.9021  143.2022  154.4600 C   0  0  0  0  0  0  0  0  0  0  0  0
  146.0611  143.5017  153.2764 O   0  0  0  0  0  0  0  0  0  0  0  0
  145.2138  144.0785  155.4806 C   0  0  0  0  0  0  0  0  0  0  0  0
  145.2788  143.2700  156.6771 N   0  5  0  0  0  0  0  0  0  0  0  0
  145.9102  142.1109  156.3768 C   0  0  0  0  0  0  0  0  0  0  0  0
  146.1362  141.1764  157.1452 O   0  0  0  0  0  0  0  0  0  0  0  0
  150.3452  142.8550  156.6482 N   0  0  0  0  0  0  0  0  0  0  0  0
  151.2756  142.8468  157.7227 C   0  0  0  0  0  0  0  0  0  0  0  0
  151.6614  141.6860  158.4363 C   0  0  0  0  0  0  0  0  0  0  0  0
  152.5797  141.8141  159.4964 C   0  0  0  0  0  0  0  0  0  0  0  0
  153.0736  143.0956  159.8080 C   0  0  0  0  0  0  0  0  0  0  0  0
  152.7045  144.2119  159.1452 N   0  0  0  0  0  0  0  0  0  0  0  0
  151.8225  144.0815  158.1314 C   0  0  0  0  0  0  0  0  0  0  0  0
  148.7719  143.2040  154.9654 H   0  0  0  0  0  0  0  0  0  0  0  0
  148.3748  141.8575  153.0189 H   0  0  0  0  0  0  0  0  0  0  0  0
  149.0132  140.4775  153.8813 H   0  0  0  0  0  0  0  0  0  0  0  0
  146.3952  140.6353  153.5621 H   0  0  0  0  0  0  0  0  0  0  0  0
  147.0120  140.1070  155.0989 H   0  0  0  0  0  0  0  0  0  0  0  0
  145.7435  145.0274  155.5726 H   0  0  0  0  0  0  0  0  0  0  0  0
  144.1937  144.2911  155.1599 H   0  0  0  0  0  0  0  0  0  0  0  0
  149.9961  143.7653  156.3862 H   0  0  0  0  0  0  0  0  0  0  0  0
  151.2653  140.7095  158.2052 H   0  0  0  0  0  0  0  0  0  0  0  0
  152.8952  140.9490  160.0607 H   0  0  0  0  0  0  0  0  0  0  0  0
  153.7793  143.2282  160.6148 H   0  0  0  0  0  0  0  0  0  0  0  0
  151.5477  144.9960  157.6259 H   0  0  0  0  0  0  0  0  0  0  0  0
  1  2  2  0  0  0  0
  2  3  1  0  0  0  0
  2 13  1  0  0  0  0
  3  4  1  0  0  0  0
  3 20  1  0  0  0  0
  4  5  1  0  0  0  0
  4 21  1  0  0  0  0
  4 22  1  0  0  0  0
  5  6  1  0  0  0  0
  5 23  1  0  0  0  0
  5 24  1  0  0  0  0
  6 11  1  0  0  0  0
  6  7  1  0  0  0  0
  7  8  2  0  0  0  0
  7  9  1  0  0  0  0
  9 10  1  0  0  0  0
  9 25  1  0  0  0  0
  9 26  1  0  0  0  0
 10 11  1  0  0  0  0
 11 12  2  0  0  0  0
 13 14  1  0  0  0  0
 13 27  1  0  0  0  0
 14 19  1  0  0  0  0
 14 15  2  0  0  0  0
 15 16  1  0  0  0  0
 15 28  1  0  0  0  0
 16 17  2  0  0  0  0
 16 29  1  0  0  0  0
 17 18  1  0  0  0  0
 17 30  1  0  0  0  0
 18 19  2  0  0  0  0
 19 31  1  0  0  0  0
M  CHG  1  10  -1
M  END
> <s_m_source_file>
AV-unprocessed.smi

> <i_m_source_file_index>
2642

> <i_lp_mmshare_version>
43012

> <i_f3d_flags>
0

> <s_epik_input>
W2NIXTFuW2NIXVtjSF1bY0hdYzFbTkhdQyg9TylbTkhdW0NIMl1bQ0gyXU4yQyg9TylbQ0gyXVtOSF1DMj1P

> <s_epik_cmdline>
J2VwaWtfcHl0aG9uJywgJy1waCcsICc3LjAnLCAnLXRuJywgJzgnLCAnLW1hJywgJzIwMCcsICctbWV0YWxfYmluZGluZycsICctaW1hZScsICc8aW5maWxlLm1hZT4nLCAnLW9tYWUnLCAnPG91dGZpbGUubWFlPic=

> <r_lp_tautomer_probability>
1

> <r_epik_Ionization_Penalty>
5.82623

> <r_epik_Ionization_Penalty_Charging>
5.82164

> <r_epik_Ionization_Penalty_Neutral>
0.00459419

> <r_epik_State_Penalty>
5.8249

> <r_epik_Charging_Adjusted_Penalty>
11.6465

> <i_epik_Tot_Q>
-1

> <i_epik_Tot_abs_Q>
1

> <r_epik_Metal_State_Penalty>
1.79397

> <b_epik_Metal_Only>
1

> <s_lp_Force_Field>
OPLS_2005

> <r_lp_Energy>
16.7854

> <b_lp_Chiralities_Consistent>
1

> <s_lp_Variant>
AV-unprocessed.smi:2642-2

> <Gold.Version>
5.8.1

> <Gold.Id.Protein>
6NUR|6NUR_protein|mol2

> <Gold.PLP.Fitness>
39.4447

> <Gold.PLP.PLP>
-34.1448

> <Gold.PLP.part.hbond>
-2.0000

> <Gold.PLP.part.metal>
0.0000

> <Gold.PLP.part.buried>
-5.1118

> <Gold.PLP.part.nonpolar>
-27.0026

> <Gold.PLP.part.repulsive>
0.6425

> <Gold.PLP.ligand.clash>
0.0000

> <Gold.PLP.ligand.torsion>
0.3555

> <Gold.PLP.Chemscore.Hbond>
2.0000

> <Gold.PLP.Chemscore.CHOScore>
0.0000

> <Gold.PLP.Chemscore.Metal>
0.0000

> <Gold.Chemscore.Hbonds>
donor molecule, donor type, donor heavy atom, donor atom, acceptor molecule, acceptor atom, score
      L1  H     3    20       P1  8028  1.00
      L1  H    13    27       P1  8028  1.00

> <Gold.PLP.Chemscore.Internal.Correction>
0.0108

> <Gold.Rescore>
     Score         DG    S(hbond)    S(metal)    S(lipo)     H(rot)  DE(clash)    DE(int)     intcor
     14.02     -15.56       1.92        0.00      72.95       1.90       0.01       1.53       ----

> <Gold.Chemscore.Fitness>
14.0241

> <Gold.Chemscore.DG>
-15.5591

> <Gold.Chemscore.ZeroCoef>
-5.4800

> <Gold.Chemscore.Hbond>
1.9161

> <Gold.Chemscore.Metal>
0.0000

> <Gold.Chemscore.Lipo>
72.9517

> <Gold.Chemscore.Internal_Hbond>
0.0000

> <Gold.Chemscore.DEClash>
0.0063

> <Gold.Chemscore.DEInternal>
1.5287

> <Gold.Chemscore.Rot>
1.8969

> <Gold.Chemscore.Internal.Correction>
   9.000000E+99

> <Gold.Chemscore.Hbonds>
donor molecule, donor type, donor heavy atom, donor atom, acceptor molecule, acceptor atom, score
      L1  H     3    20       P1  8028  0.94
      L1  H    13    27       P1  8028  0.96

> <Gold.Chemscore.Hbond.Weighted>
-6.3999

> <Gold.Chemscore.Metal.Weighted>
-0.0000

> <Gold.Chemscore.Lipo.Weighted>
-8.5354

> <Gold.Chemscore.Internal_Hbond.Weighted>
0.0000

> <Gold.Chemscore.DEClash.Weighted>
0.0063

> <Gold.Chemscore.DEInternal.Weighted>
1.5287

> <Gold.Chemscore.Rot.Weighted>
4.8561

> <Gold.Chemscore.Internal.Correction.Weighted>
   9.000000E+99

> <Gold.Protein.RotatedTorsions>
[ 6907 6896 6895 6894 ] final  -36.89 input  -60.11 | X-H torsion
[ 7974 7965 7964 7962 ] final -159.81 input  175.53 | X-H torsion
[ 8008 7997 7996 7995 ] final   98.20 input   59.86 | X-H torsion
[ 10167 10162 10161 10158 ] final  -24.23 input  -65.29 | X-H torsion
[ 10718 10713 10712 10709 ] final  -33.29 input   66.30 | X-H torsion
[ 10763 10752 10751 10750 ] final -140.85 input  -60.55 | X-H torsion
[ 11005 11000 10999 10996 ] final   87.55 input  -57.11 | X-H torsion

> <Gold.Protein.ActiveResidues>
 VAL166  LYS551  ARG553  GLY616  TRP617  ASP618  TYR619  PRO620  LYS621  CYS622 
 ASP623  PHE694  ASN695  SER759  ASP760  ASP761  ALA762  ILE779  LEU786  VAL792 
 PHE793  MET794  SER795  GLU796  ALA797  LYS798  CYS799  TRP800  GLU811  SER814 

> <Gold.Protein.RotatedAtoms>
  151.0215  134.9473  159.8061 H   0  0  0  0  0  0  0  0  0  0  0  0  # atno 6907 bound_to 6896
  152.5326  134.2897  159.9048 H   0  0  0  0  0  0  0  0  0  0  0  0  # atno 6908 bound_to 6896
  151.2905  133.4126  159.2667 H   0  0  0  0  0  0  0  0  0  0  0  0  # atno 6909 bound_to 6896
  144.7451  140.3632  143.6091 H   0  0  0  0  0  0  0  0  0  0  0  0  # atno 7974 bound_to 7965
  156.0980  140.3247  155.7903 H   0  0  0  0  0  0  0  0  0  0  0  0  # atno 8008 bound_to 7997
  155.4885  140.0559  157.2974 H   0  0  0  0  0  0  0  0  0  0  0  0  # atno 8009 bound_to 7997
  154.4678  140.1997  156.0087 H   0  0  0  0  0  0  0  0  0  0  0  0  # atno 8010 bound_to 7997
  140.7288  143.4372  151.0712 H   0  0  0  0  0  0  0  0  0  0  0  0  # atno 10167 bound_to 10162
  156.3644  130.4329  149.7597 H   0  0  0  0  0  0  0  0  0  0  0  0  # atno 10718 bound_to 10713
  154.8565  135.3541  154.5774 H   0  0  0  0  0  0  0  0  0  0  0  0  # atno 10763 bound_to 10752
  153.6386  135.6999  153.5254 H   0  0  0  0  0  0  0  0  0  0  0  0  # atno 10764 bound_to 10752
  153.2990  135.4212  155.1194 H   0  0  0  0  0  0  0  0  0  0  0  0  # atno 10765 bound_to 10752
  139.8917  134.8429  156.2875 H   0  0  0  0  0  0  0  0  0  0  0  0  # atno 11005 bound_to 11000
  145.7155  139.1696  143.2514 LP  0  0  0  0  0  0  0  0  0  0  0  0  # atno 17320 bound_to 7965
  146.1315  140.7178  142.9410 LP  0  0  0  0  0  0  0  0  0  0  0  0  # atno 17321 bound_to 7965
  139.8035  143.8051  152.3165 LP  0  0  0  0  0  0  0  0  0  0  0  0  # atno 17342 bound_to 10162
  139.8075  144.7349  150.9741 LP  0  0  0  0  0  0  0  0  0  0  0  0  # atno 17343 bound_to 10162
  156.4748  130.8013  151.3030 LP  0  0  0  0  0  0  0  0  0  0  0  0  # atno 17370 bound_to 10713
  157.7477  131.0024  150.3000 LP  0  0  0  0  0  0  0  0  0  0  0  0  # atno 17371 bound_to 10713
  140.9998  133.7158  156.0942 LP  0  0  0  0  0  0  0  0  0  0  0  0  # atno 17394 bound_to 11000
  140.7513  134.4041  157.5541 LP  0  0  0  0  0  0  0  0  0  0  0  0  # atno 17395 bound_to 11000

$$$$
