AV-unprocessed.smi:3009|AV-procd|sdf|11454|dock7
  -GOLD-   2272016383D 1   1.00000     0.00000
 Structure written by MMmdl.
 43 44  0  0  0  0  0  0  0  0  1 V2000
  152.8745  143.3433  159.6809 C   0  0  0  0  0  0  0  0  0  0  0  0
  152.2642  142.9471  158.3265 C   0  0  0  0  0  0  0  0  0  0  0  0
  152.2040  144.1604  157.3876 C   0  0  0  0  0  0  0  0  0  0  0  0
  150.8612  142.3237  158.4901 C   0  0  0  0  0  0  0  0  0  0  0  0
  150.5511  141.2056  157.5977 N   0  0  0  0  0  0  0  0  0  0  0  0
  151.7428  140.4778  157.1664 C   0  0  0  0  0  0  0  0  0  0  0  0
  151.3946  139.3220  156.2130 C   0  0  0  0  0  0  0  0  0  0  0  0
  150.6677  139.8198  155.0950 O   0  0  0  0  0  0  0  0  0  0  0  0
  149.4737  140.5043  155.4655 C   0  0  2  0  0  0  0  0  0  0  0  0
  148.7247  140.9492  154.1945 C   0  0  0  0  0  0  0  0  0  0  0  0
  148.1002  139.8352  153.4861 N   0  0  0  0  0  0  0  0  0  0  0  0
  146.8895  139.3287  153.7578 C   0  0  0  0  0  0  0  0  0  0  0  0
  146.1496  139.7643  154.6401 O   0  0  0  0  0  0  0  0  0  0  0  0
  146.6002  138.2970  152.9480 N   0  0  0  0  0  0  0  0  0  0  0  0
  145.4153  137.5185  152.9353 C   0  0  0  0  0  0  0  0  0  0  0  0
  145.3497  136.1503  152.5557 C   0  0  0  0  0  0  0  0  0  0  0  0
  144.1120  135.6837  152.6400 N   0  0  0  0  0  0  0  0  0  0  0  0
  143.3869  136.7410  153.0701 N   0  0  0  0  0  0  0  0  0  0  0  0
  144.1385  137.8789  153.2639 C   0  0  0  0  0  0  0  0  0  0  0  0
  149.8289  141.6668  156.4173 C   0  0  0  0  0  0  0  0  0  0  0  0
  142.3910  136.6714  153.2243 H   0  0  0  0  0  0  0  0  0  0  0  0
  152.2512  144.0724  160.1991 H   0  0  0  0  0  0  0  0  0  0  0  0
  153.8640  143.7824  159.5517 H   0  0  0  0  0  0  0  0  0  0  0  0
  152.9867  142.4773  160.3339 H   0  0  0  0  0  0  0  0  0  0  0  0
  152.9286  142.2232  157.8558 H   0  0  0  0  0  0  0  0  0  0  0  0
  151.5614  144.9437  157.7911 H   0  0  0  0  0  0  0  0  0  0  0  0
  151.8130  143.8804  156.4091 H   0  0  0  0  0  0  0  0  0  0  0  0
  153.1948  144.5889  157.2337 H   0  0  0  0  0  0  0  0  0  0  0  0
  150.7675  141.9870  159.5236 H   0  0  0  0  0  0  0  0  0  0  0  0
  150.1054  143.1009  158.3650 H   0  0  0  0  0  0  0  0  0  0  0  0
  152.4347  141.1598  156.6698 H   0  0  0  0  0  0  0  0  0  0  0  0
  152.2699  140.0667  158.0262 H   0  0  0  0  0  0  0  0  0  0  0  0
  152.3036  138.8359  155.8583 H   0  0  0  0  0  0  0  0  0  0  0  0
  150.8051  138.5622  156.7283 H   0  0  0  0  0  0  0  0  0  0  0  0
  148.8330  139.7981  155.9966 H   0  0  0  0  0  0  0  0  0  0  0  0
  147.9858  141.7136  154.4400 H   0  0  0  0  0  0  0  0  0  0  0  0
  149.4286  141.4204  153.5083 H   0  0  0  0  0  0  0  0  0  0  0  0
  148.6356  139.4135  152.7414 H   0  0  0  0  0  0  0  0  0  0  0  0
  147.3001  138.0438  152.2662 H   0  0  0  0  0  0  0  0  0  0  0  0
  146.1424  135.4942  152.2273 H   0  0  0  0  0  0  0  0  0  0  0  0
  143.7050  138.8071  153.6055 H   0  0  0  0  0  0  0  0  0  0  0  0
  148.9121  142.1733  156.7215 H   0  0  0  0  0  0  0  0  0  0  0  0
  150.4322  142.4067  155.8890 H   0  0  0  0  0  0  0  0  0  0  0  0
  1  2  1  0  0  0  0
  1 22  1  0  0  0  0
  1 23  1  0  0  0  0
  1 24  1  0  0  0  0
  2  3  1  0  0  0  0
  2  4  1  0  0  0  0
  2 25  1  0  0  0  0
  3 26  1  0  0  0  0
  3 27  1  0  0  0  0
  3 28  1  0  0  0  0
  4  5  1  0  0  0  0
  4 29  1  0  0  0  0
  4 30  1  0  0  0  0
  5 20  1  0  0  0  0
  5  6  1  0  0  0  0
  6  7  1  0  0  0  0
  6 31  1  0  0  0  0
  6 32  1  0  0  0  0
  7  8  1  0  0  0  0
  7 33  1  0  0  0  0
  7 34  1  0  0  0  0
  8  9  1  0  0  0  0
  9 10  1  0  0  0  0
  9 20  1  0  0  0  0
  9 35  1  0  0  0  0
 10 11  1  0  0  0  0
 10 36  1  0  0  0  0
 10 37  1  0  0  0  0
 11 12  1  0  0  0  0
 11 38  1  0  0  0  0
 12 13  2  0  0  0  0
 12 14  1  0  0  0  0
 14 15  1  0  0  0  0
 14 39  1  0  0  0  0
 15 19  2  0  0  0  0
 15 16  1  0  0  0  0
 16 17  2  0  0  0  0
 16 40  1  0  0  0  0
 17 18  1  0  0  0  0
 18 21  1  0  0  0  0
 18 19  1  0  0  0  0
 19 41  1  0  0  0  0
 20 42  1  0  0  0  0
 20 43  1  0  0  0  0
M  END
> <s_m_source_file>
AV-unprocessed.smi

> <i_m_source_file_index>
3009

> <i_lp_mmshare_version>
43012

> <i_f3d_flags>
0

> <s_epik_input>
W0NIM11bQ0hdKFtDSDNdKVtDSDJdTjFbQ0gyXVtDSDJdT1tDQEhdKFtDSDJdMSlbQ0gyXVtOSF1DKD1PKVtOSF1jMltjSF1uW25IXVtjSF0y

> <s_epik_cmdline>
J2VwaWtfcHl0aG9uJywgJy1waCcsICc3LjAnLCAnLXRuJywgJzgnLCAnLW1hJywgJzIwMCcsICctbWV0YWxfYmluZGluZycsICctaW1hZScsICc8aW5maWxlLm1hZT4nLCAnLW9tYWUnLCAnPG91dGZpbGUubWFlPic=

> <r_lp_tautomer_probability>
0.5

> <r_epik_Ionization_Penalty>
1.11801

> <r_epik_Ionization_Penalty_Charging>
0

> <r_epik_Ionization_Penalty_Neutral>
1.11801

> <r_epik_State_Penalty>
1.17654

> <r_epik_Charging_Adjusted_Penalty>
1.17654

> <i_epik_Tot_Q>
0

> <i_epik_Tot_abs_Q>
0

> <r_epik_Metal_State_Penalty>
1.17654

> <b_epik_Metal_Only>
0

> <s_lp_Force_Field>
OPLS_2005

> <r_lp_Energy>
28.7191

> <b_lp_Chiralities_Consistent>
1

> <s_lp_Variant>
AV-unprocessed.smi:3009-6

> <Gold.Version>
5.8.1

> <Gold.Id.Protein>
6NUR|6NUR_protein|mol2

> <Gold.PLP.Fitness>
43.2369

> <Gold.PLP.PLP>
-34.0578

> <Gold.PLP.part.hbond>
-2.9183

> <Gold.PLP.part.metal>
0.0000

> <Gold.PLP.part.buried>
-2.5722

> <Gold.PLP.part.nonpolar>
-28.3130

> <Gold.PLP.part.repulsive>
0.4892

> <Gold.PLP.ligand.clash>
0.0000

> <Gold.PLP.ligand.torsion>
1.4155

> <Gold.PLP.Chemscore.Hbond>
2.0874

> <Gold.PLP.Chemscore.CHOScore>
1.8928

> <Gold.PLP.Chemscore.Metal>
0.0000

> <Gold.Chemscore.Hbonds>
donor molecule, donor type, donor heavy atom, donor atom, acceptor molecule, acceptor atom, score
      L1  H    11    38       P1  7957  0.74
      P1  H  7989  7998       L1     8  0.73
      L1  C    16    40       P1  7948  0.06
      L1  C    19    41       P1 10175  0.77

> <Gold.PLP.Chemscore.Internal.Correction>
0.0698

> <Gold.Rescore>
     Score         DG    S(hbond)    S(metal)    S(lipo)     H(rot)  DE(clash)    DE(int)     intcor
     16.56     -17.97       1.94        0.00      89.91       1.76       0.12       1.29       ----

> <Gold.Chemscore.Fitness>
16.5634

> <Gold.Chemscore.DG>
-17.9743

> <Gold.Chemscore.ZeroCoef>
-5.4800

> <Gold.Chemscore.Hbond>
1.9378

> <Gold.Chemscore.Metal>
0.0000

> <Gold.Chemscore.Lipo>
89.9112

> <Gold.Chemscore.Internal_Hbond>
0.0000

> <Gold.Chemscore.DEClash>
0.1222

> <Gold.Chemscore.DEInternal>
1.2887

> <Gold.Chemscore.Rot>
1.7568

> <Gold.Chemscore.Internal.Correction>
   9.000000E+99

> <Gold.Chemscore.Hbonds>
donor molecule, donor type, donor heavy atom, donor atom, acceptor molecule, acceptor atom, score
      L1  H    11    38       P1  7957  0.73
      L1  H    14    39       P1  7948  0.03
      P1  H  7989  7998       L1     8  0.54

> <Gold.Chemscore.Hbond.Weighted>
-6.4721

> <Gold.Chemscore.Metal.Weighted>
-0.0000

> <Gold.Chemscore.Lipo.Weighted>
-10.5196

> <Gold.Chemscore.Internal_Hbond.Weighted>
0.0000

> <Gold.Chemscore.DEClash.Weighted>
0.1222

> <Gold.Chemscore.DEInternal.Weighted>
1.2887

> <Gold.Chemscore.Rot.Weighted>
4.4974

> <Gold.Chemscore.Internal.Correction.Weighted>
   9.000000E+99

> <Gold.Protein.RotatedTorsions>
[ 6907 6896 6895 6894 ] final -165.84 input  -60.11 | X-H torsion
[ 7974 7965 7964 7962 ] final  176.58 input  175.53 | X-H torsion
[ 8008 7997 7996 7995 ] final -143.29 input   59.86 | X-H torsion
[ 10167 10162 10161 10158 ] final -139.13 input  -65.29 | X-H torsion
[ 10718 10713 10712 10709 ] final   57.88 input   66.30 | X-H torsion
[ 10763 10752 10751 10750 ] final   76.57 input  -60.55 | X-H torsion
[ 11005 11000 10999 10996 ] final  166.32 input  -57.11 | X-H torsion

> <Gold.Protein.ActiveResidues>
 VAL166  LYS551  ARG553  GLY616  TRP617  ASP618  TYR619  PRO620  LYS621  CYS622 
 ASP623  PHE694  ASN695  SER759  ASP760  ASP761  ALA762  ILE779  LEU786  VAL792 
 PHE793  MET794  SER795  GLU796  ALA797  LYS798  CYS799  TRP800  GLU811  SER814 

> <Gold.Protein.RotatedAtoms>
  151.4341  133.3662  159.2772 H   0  0  0  0  0  0  0  0  0  0  0  0  # atno 6907 bound_to 6896
  150.9204  134.8623  159.7495 H   0  0  0  0  0  0  0  0  0  0  0  0  # atno 6908 bound_to 6896
  152.4979  134.4278  159.9554 H   0  0  0  0  0  0  0  0  0  0  0  0  # atno 6909 bound_to 6896
  144.7182  140.0118  143.6440 H   0  0  0  0  0  0  0  0  0  0  0  0  # atno 7974 bound_to 7965
  155.5082  140.0581  157.2928 H   0  0  0  0  0  0  0  0  0  0  0  0  # atno 8008 bound_to 7997
  154.4561  140.1973  156.0324 H   0  0  0  0  0  0  0  0  0  0  0  0  # atno 8009 bound_to 7997
  156.0802  140.3248  155.7688 H   0  0  0  0  0  0  0  0  0  0  0  0  # atno 8010 bound_to 7997
  139.8410  143.7322  152.2663 H   0  0  0  0  0  0  0  0  0  0  0  0  # atno 10167 bound_to 10162
  157.5551  130.8794  149.9023 H   0  0  0  0  0  0  0  0  0  0  0  0  # atno 10718 bound_to 10713
  153.0735  135.4946  154.8355 H   0  0  0  0  0  0  0  0  0  0  0  0  # atno 10763 bound_to 10752
  154.7055  135.3010  154.9279 H   0  0  0  0  0  0  0  0  0  0  0  0  # atno 10764 bound_to 10752
  153.9989  135.6769  153.4811 H   0  0  0  0  0  0  0  0  0  0  0  0  # atno 10765 bound_to 10752
  140.2653  134.7870  157.3626 H   0  0  0  0  0  0  0  0  0  0  0  0  # atno 11005 bound_to 11000
  146.0252  139.3286  143.0789 LP  0  0  0  0  0  0  0  0  0  0  0  0  # atno 17320 bound_to 7965
  145.8520  140.9523  143.0745 LP  0  0  0  0  0  0  0  0  0  0  0  0  # atno 17321 bound_to 7965
  139.7559  144.7521  151.0436 LP  0  0  0  0  0  0  0  0  0  0  0  0  # atno 17342 bound_to 10162
  140.7798  143.4806  151.0023 LP  0  0  0  0  0  0  0  0  0  0  0  0  # atno 17343 bound_to 10162
  156.0611  130.3700  150.0980 LP  0  0  0  0  0  0  0  0  0  0  0  0  # atno 17370 bound_to 10713
  156.9149  130.9664  151.3557 LP  0  0  0  0  0  0  0  0  0  0  0  0  # atno 17371 bound_to 10713
  140.1425  134.4953  155.8020 LP  0  0  0  0  0  0  0  0  0  0  0  0  # atno 17394 bound_to 11000
  141.2185  133.6831  156.7236 LP  0  0  0  0  0  0  0  0  0  0  0  0  # atno 17395 bound_to 11000

$$$$
