#       Name:                AV-unprocessed.smi:2038
#       Creating user name   scv26
#       Creation time:       Fri Mar 27 10:54:55 2020


#       File generated by GOLD software.
#

@<TRIPOS>MOLECULE
AV-unprocessed.smi:2038
    40    41     1
SMALL
NO_CHARGES


@<TRIPOS>ATOM
      1 ****        -1.6144   1.0257  -0.9373 O.2            1 S1                 0.0000
      2 ****        -1.9323   0.0553  -0.2493 C.2            1 S1                 0.0000
      3 ****        -1.0582  -0.7681   0.3581 N.am           1 S1                 0.0000
      4 ****         0.3610  -0.6986   0.3642 C.ar           1 S1                 0.0000
      5 ****         1.0829  -1.8818   0.6192 C.ar           1 S1                 0.0000
      6 ****         2.4894  -1.8348   0.6507 C.ar           1 S1                 0.0000
      7 ****         3.1324  -0.5996   0.4370 C.ar           1 S1                 0.0000
      8 ****         4.5109  -0.5593   0.4683 O.3            1 S1                 0.0000
      9 ****         5.1594   0.6928   0.2599 C.3            1 S1                 0.0000
     10 ****         6.6779   0.4942   0.3322 C.3            1 S1                 0.0000
     11 ****         7.2850   1.6644   0.1378 F              1 S1                 0.0000
     12 ****         7.0250   0.0264   1.5309 F              1 S1                 0.0000
     13 ****         7.0770  -0.3563  -0.6131 F              1 S1                 0.0000
     14 ****         2.4471   0.5477   0.2076 N.ar           1 S1                 0.0000
     15 ****         1.0982   0.4958   0.1761 C.ar           1 S1                 0.0000
     16 ****        -3.4144  -0.2839  -0.0512 C.3            1 S1                 0.0000
     17 ****        -4.2446  -0.2290  -1.3474 C.3            1 S1                 0.0000
     18 ****        -5.1081   1.0040  -1.1690 C.3            1 S1                 0.0000
     19 ****        -5.2705   1.0525   0.3432 C.3            1 S1                 0.0000
     20 ****        -3.9809   0.6968   0.8166 O.3            1 S1                 0.0000
     21 ****        -1.4570  -1.5729   0.8194 H              1 S1                 0.0000
     22 ****         0.5684  -2.8173   0.7839 H              1 S1                 0.0000
     23 ****         3.0647  -2.7297   0.8367 H              1 S1                 0.0000
     24 ****         4.8897   1.1009  -0.7158 H              1 S1                 0.0000
     25 ****         4.8469   1.4107   1.0203 H              1 S1                 0.0000
     26 ****         0.6137   1.4466   0.0176 H              1 S1                 0.0000
     27 ****        -3.5191  -1.2680   0.4092 H              1 S1                 0.0000
     28 ****        -3.6473  -0.1813  -2.2593 H              1 S1                 0.0000
     29 ****        -4.8735  -1.1174  -1.4175 H              1 S1                 0.0000
     30 ****        -4.5742   1.8898  -1.5159 H              1 S1                 0.0000
     31 ****        -6.0580   0.9438  -1.7006 H              1 S1                 0.0000
     32 ****        -5.5753   2.0348   0.7048 H              1 S1                 0.0000
     33 ****        -6.0006   0.3155   0.6811 H              1 S1                 0.0000
     34 ****        -0.6488   1.2461  -1.0751 LP             1 S1                 0.0000
     35 ****        -2.3219   1.5934  -1.3582 LP             1 S1                 0.0000
     36 ****         4.8406  -1.1840  -0.2394 LP             1 S1                 0.0000
     37 ****         4.7957  -0.8934   1.3668 LP             1 S1                 0.0000
     38 ****         2.9294   1.4120   0.0651 LP             1 S1                 0.0000
     39 ****        -3.3954   1.5073   0.8322 LP             1 S1                 0.0000
     40 ****        -4.0559   0.3220   1.7407 LP             1 S1                 0.0000
@<TRIPOS>BOND
    1    1    2 2     
    2    2    3 am    
    3    2   16 1     
    4    3    4 1     
    5    3   21 1     
    6    4   15 ar    
    7    4    5 ar    
    8    5    6 ar    
    9    5   22 1     
   10    6    7 ar    
   11    6   23 1     
   12    7    8 1     
   13    7   14 ar    
   14    8    9 1     
   15    9   10 1     
   16    9   24 1     
   17    9   25 1     
   18   10   11 1     
   19   10   12 1     
   20   10   13 1     
   21   14   15 ar    
   22   15   26 1     
   23   16   20 1     
   24   16   17 1     
   25   16   27 1     
   26   17   18 1     
   27   17   28 1     
   28   17   29 1     
   29   18   19 1     
   30   18   30 1     
   31   18   31 1     
   32   19   20 1     
   33   19   32 1     
   34   19   33 1     
   35    1   34 1     
   36    1   35 1     
   37    8   36 1     
   38    8   37 1     
   39   14   38 1     
   40   20   39 1     
   41   20   40 1     
@<TRIPOS>SUBSTRUCTURE
      1 S1             1
@<TRIPOS>SET
LONE_PAIRS      STATIC     ATOMS    <user>   **** ""
7 34 35 36 37 38 39 40
DONOR_HYDROGENS      STATIC     ATOMS    <user>   **** ""
1 21
ATOM$BLUE        STATIC     ATOMS    COLORGROUP SYSTEM
7 34 35 36 37 38 39 40
ATOM$RED        STATIC     ATOMS    COLORGROUP SYSTEM
1 21
