#       Name:                AV-unprocessed.smi:1180
#       Creating user name   scv26
#       Creation time:       Fri Mar 27 03:55:22 2020


#       File generated by GOLD software.
#

@<TRIPOS>MOLECULE
AV-unprocessed.smi:1180
    45    46     1
SMALL
NO_CHARGES


@<TRIPOS>ATOM
      1 ****        -5.8228  -0.5474  -1.8602 C.3            1 S1                 0.0000
      2 ****        -4.3228  -0.3427  -1.8405 C.2            1 S1                 0.0000
      3 ****        -3.7375   0.7368  -2.2435 N.2            1 S1                 0.0000
      4 ****        -2.3393   0.8112  -2.1752 C.2            1 S1                 0.0000
      5 ****        -1.7274   2.1132  -2.6619 C.3            1 S1                 0.0000
      6 ****        -1.5898  -0.2261  -1.6992 C.2            1 S1                 0.0000
      7 ****        -0.0648  -0.1774  -1.6061 C.3            1 S1                 0.0000
      8 ****         0.5187   0.4757  -0.3499 C.2            1 S1                 0.0000
      9 ****        -0.2170   0.9959   0.4895 O.2            1 S1                 0.0000
     10 ****         1.8544   0.4371  -0.2347 N.am           1 S1                 0.0000
     11 ****         2.6158   0.9877   0.8810 C.3            1 S1                 0.0000
     12 ****         2.5985   0.0586   2.1103 C.3            1 S1                 0.0000
     13 ****         3.4086   0.5797   3.2916 C.3            1 S1                 0.0000
     14 ****         4.0649  -0.6711   3.8862 C.3            1 S1                 0.0000
     15 ****         3.4954  -1.7686   3.1863 O.3            1 S1                 0.0000
     16 ****         3.2005  -1.3255   1.8732 C.3            1 S1                 0.0000
     17 ****        -2.2685  -1.4533  -1.2401 C.2            1 S1                 0.0000
     18 ****        -1.6918  -2.4408  -0.7865 O.2            1 S1                 0.0000
     19 ****        -3.6165  -1.4363  -1.3421 N.am           1 S1                 0.0000
     20 ****        -4.1275  -2.2526  -1.0392 H              1 S1                 0.0000
     21 ****        -6.3107   0.1990  -1.2329 H              1 S1                 0.0000
     22 ****        -6.0997  -1.5364  -1.4926 H              1 S1                 0.0000
     23 ****        -6.2026  -0.4423  -2.8768 H              1 S1                 0.0000
     24 ****        -1.1139   1.9398  -3.5460 H              1 S1                 0.0000
     25 ****        -1.1034   2.5590  -1.8871 H              1 S1                 0.0000
     26 ****        -2.4978   2.8386  -2.9268 H              1 S1                 0.0000
     27 ****         0.3472  -1.1833  -1.6990 H              1 S1                 0.0000
     28 ****         0.3241   0.3617  -2.4699 H              1 S1                 0.0000
     29 ****         2.3815  -0.0107  -0.9706 H              1 S1                 0.0000
     30 ****         3.6410   1.1430   0.5436 H              1 S1                 0.0000
     31 ****         2.2267   1.9722   1.1461 H              1 S1                 0.0000
     32 ****         1.5697  -0.0775   2.4477 H              1 S1                 0.0000
     33 ****         4.1735   1.2919   2.9793 H              1 S1                 0.0000
     34 ****         2.7638   1.0810   4.0143 H              1 S1                 0.0000
     35 ****         5.1420  -0.6562   3.7138 H              1 S1                 0.0000
     36 ****         3.8939  -0.7629   4.9590 H              1 S1                 0.0000
     37 ****         2.5130  -2.0041   1.3672 H              1 S1                 0.0000
     38 ****         4.1213  -1.2664   1.2903 H              1 S1                 0.0000
     39 ****        -4.2719   1.5044  -2.5973 LP             1 S1                 0.0000
     40 ****        -1.2079   0.9951   0.3551 LP             1 S1                 0.0000
     41 ****         0.1765   1.4191   1.3057 LP             1 S1                 0.0000
     42 ****         2.6573  -2.0675   3.6427 LP             1 S1                 0.0000
     43 ****         4.1456  -2.5276   3.1532 LP             1 S1                 0.0000
     44 ****        -0.6948  -2.4461  -0.7095 LP             1 S1                 0.0000
     45 ****        -2.2201  -3.2382  -0.4947 LP             1 S1                 0.0000
@<TRIPOS>BOND
    1    1    2 1     
    2    1   21 1     
    3    1   22 1     
    4    1   23 1     
    5    2   19 1     
    6    2    3 2     
    7    3    4 1     
    8    4    5 1     
    9    4    6 2     
   10    5   24 1     
   11    5   25 1     
   12    5   26 1     
   13    6    7 1     
   14    6   17 1     
   15    7    8 1     
   16    7   27 1     
   17    7   28 1     
   18    8    9 2     
   19    8   10 am    
   20   10   11 1     
   21   10   29 1     
   22   11   12 1     
   23   11   30 1     
   24   11   31 1     
   25   12   16 1     
   26   12   13 1     
   27   12   32 1     
   28   13   14 1     
   29   13   33 1     
   30   13   34 1     
   31   14   15 1     
   32   14   35 1     
   33   14   36 1     
   34   15   16 1     
   35   16   37 1     
   36   16   38 1     
   37   17   18 2     
   38   17   19 am    
   39   19   20 1     
   40    3   39 1     
   41    9   40 1     
   42    9   41 1     
   43   15   42 1     
   44   15   43 1     
   45   18   44 1     
   46   18   45 1     
@<TRIPOS>SUBSTRUCTURE
      1 S1             1
@<TRIPOS>SET
LONE_PAIRS      STATIC     ATOMS    <user>   **** ""
7 39 40 41 42 43 44 45
DONOR_HYDROGENS      STATIC     ATOMS    <user>   **** ""
2 29 20
ATOM$BLUE        STATIC     ATOMS    COLORGROUP SYSTEM
7 39 40 41 42 43 44 45
ATOM$RED        STATIC     ATOMS    COLORGROUP SYSTEM
2 29 20
