AV-unprocessed.smi:21|AV-procd|sdf|128|dock10
  -GOLD-   2262015313D 1   1.00000     0.00000
 Structure written by MMmdl.
 62 65  0  0  0  0  0  0  0  0  2 V2000
  142.3178  135.9167  153.0629 C   0  0  0  0  0  0  0  0  0  0  0  0
  143.0895  136.4057  151.9773 O   0  0  0  0  0  0  0  0  0  0  0  0
  144.3755  135.8119  151.8819 C   0  0  2  0  0  0  0  0  0  0  0  0
  144.3353  134.2880  151.8773 C   0  0  0  0  0  0  0  0  0  0  0  0
  145.7342  133.8790  152.3649 C   0  0  2  0  0  0  0  0  0  0  0  0
  145.7909  132.4733  153.0202 C   0  0  0  0  0  0  0  0  0  0  0  0
  146.0382  131.3905  152.0659 N   0  0  0  0  0  0  0  0  0  0  0  0
  145.0195  131.1443  151.0489 C   0  0  0  0  0  0  0  0  0  0  0  0
  146.8131  130.3435  152.4619 C   0  0  0  0  0  0  0  0  0  0  0  0
  146.5932  129.1177  151.9143 N   0  0  0  0  0  0  0  0  0  0  0  0
  147.2942  128.0552  152.3183 C   0  0  0  0  0  0  0  0  0  0  0  0
  148.2464  127.9915  153.2489 N   0  0  0  0  0  0  0  0  0  0  0  0
  148.4885  129.2176  153.7921 C   0  0  0  0  0  0  0  0  0  0  0  0
  147.8353  130.4373  153.4524 C   0  0  0  0  0  0  0  0  0  0  0  0
  148.3745  131.4776  154.2017 N   0  0  0  0  0  0  0  0  0  0  0  0
  149.2741  130.9053  154.9531 C   0  0  0  0  0  0  0  0  0  0  0  0
  149.3848  129.5432  154.7947 N   0  0  0  0  0  0  0  0  0  0  0  0
  150.2842  128.6572  155.5110 C   0  0  0  0  0  0  0  0  0  0  0  0
  151.7919  129.0163  155.3826 C   0  0  1  0  0  0  0  0  0  0  0  0
  152.0663  130.3274  156.1595 C   0  0  0  0  0  0  0  0  0  0  0  0
  151.7982  130.1781  157.5388 O   0  0  0  0  0  0  0  0  0  0  0  0
  152.7416  127.8685  155.8446 C   0  0  2  0  0  0  0  0  0  0  0  0
  154.2274  128.1538  155.6771 C   0  0  0  0  0  0  0  0  0  0  0  0
  154.8406  126.7636  155.7576 C   0  0  0  0  0  0  0  0  0  0  0  0
  153.9131  125.9250  155.0883 O   0  0  0  0  0  0  0  0  0  0  0  0
  152.6330  126.5481  155.0610 C   0  0  0  0  0  0  0  0  0  0  0  0
  146.2012  135.0113  153.2210 N   0  3  2  0  0  0  0  0  0  0  0  0
  146.6098  134.7064  154.6126 C   0  0  0  0  0  0  0  0  0  0  0  0
  145.1950  136.0946  153.1373 C   0  0  0  0  0  0  0  0  0  0  0  0
  144.9143  136.1814  151.0072 H   0  0  0  0  0  0  0  0  0  0  0  0
  146.4030  133.8834  151.5031 H   0  0  0  0  0  0  0  0  0  0  0  0
  141.3335  136.3843  153.0484 H   0  0  0  0  0  0  0  0  0  0  0  0
  142.7810  136.1505  154.0220 H   0  0  0  0  0  0  0  0  0  0  0  0
  142.1779  134.8373  152.9944 H   0  0  0  0  0  0  0  0  0  0  0  0
  143.5769  133.9430  152.5819 H   0  0  0  0  0  0  0  0  0  0  0  0
  144.0946  133.8787  150.8959 H   0  0  0  0  0  0  0  0  0  0  0  0
  146.6109  132.4407  153.7377 H   0  0  0  0  0  0  0  0  0  0  0  0
  144.8907  132.2912  153.6016 H   0  0  0  0  0  0  0  0  0  0  0  0
  145.4452  130.6214  150.1914 H   0  0  0  0  0  0  0  0  0  0  0  0
  144.6012  132.0843  150.6885 H   0  0  0  0  0  0  0  0  0  0  0  0
  144.2035  130.5434  151.4520 H   0  0  0  0  0  0  0  0  0  0  0  0
  147.0515  127.1214  151.8328 H   0  0  0  0  0  0  0  0  0  0  0  0
  149.8698  131.4615  155.6626 H   0  0  0  0  0  0  0  0  0  0  0  0
  149.9739  128.6725  156.5561 H   0  0  0  0  0  0  0  0  0  0  0  0
  150.1167  127.6381  155.1600 H   0  0  0  0  0  0  0  0  0  0  0  0
  152.0111  129.2199  154.3338 H   0  0  0  0  0  0  0  0  0  0  0  0
  153.0997  130.6484  156.0254 H   0  0  0  0  0  0  0  0  0  0  0  0
  151.4302  131.1398  155.8113 H   0  0  0  0  0  0  0  0  0  0  0  0
  151.4963  129.2960  157.6936 H   0  0  0  0  0  0  0  0  0  0  0  0
  152.5605  127.6608  156.9006 H   0  0  0  0  0  0  0  0  0  0  0  0
  154.4257  128.5920  154.6977 H   0  0  0  0  0  0  0  0  0  0  0  0
  154.6284  128.8203  156.4410 H   0  0  0  0  0  0  0  0  0  0  0  0
  155.8299  126.7114  155.3028 H   0  0  0  0  0  0  0  0  0  0  0  0
  154.9237  126.4418  156.7965 H   0  0  0  0  0  0  0  0  0  0  0  0
  151.8923  125.8731  155.4865 H   0  0  0  0  0  0  0  0  0  0  0  0
  152.3697  126.7264  154.0180 H   0  0  0  0  0  0  0  0  0  0  0  0
  145.7867  134.2808  155.1882 H   0  0  0  0  0  0  0  0  0  0  0  0
  146.9310  135.6196  155.1146 H   0  0  0  0  0  0  0  0  0  0  0  0
  147.4522  134.0152  154.6347 H   0  0  0  0  0  0  0  0  0  0  0  0
  145.6629  137.0792  153.1193 H   0  0  0  0  0  0  0  0  0  0  0  0
  144.5416  136.0526  154.0110 H   0  0  0  0  0  0  0  0  0  0  0  0
  147.0278  135.3649  152.7604 H   0  0  0  0  0  0  0  0  0  0  0  0
  1  2  1  0  0  0  0
  1 32  1  0  0  0  0
  1 33  1  0  0  0  0
  1 34  1  0  0  0  0
  2  3  1  0  0  0  0
  3 30  1  0  0  0  0
  3 29  1  0  0  0  0
  3  4  1  0  0  0  0
  4  5  1  0  0  0  0
  4 35  1  0  0  0  0
  4 36  1  0  0  0  0
  5 31  1  0  0  0  0
  5  6  1  0  0  0  0
  5 27  1  0  0  0  0
  6  7  1  0  0  0  0
  6 37  1  0  0  0  0
  6 38  1  0  0  0  0
  7  8  1  0  0  0  0
  7  9  1  0  0  0  0
  8 39  1  0  0  0  0
  8 40  1  0  0  0  0
  8 41  1  0  0  0  0
  9 14  1  0  0  0  0
  9 10  2  0  0  0  0
 10 11  1  0  0  0  0
 11 12  2  0  0  0  0
 11 42  1  0  0  0  0
 12 13  1  0  0  0  0
 13 17  1  0  0  0  0
 13 14  2  0  0  0  0
 14 15  1  0  0  0  0
 15 16  2  0  0  0  0
 16 17  1  0  0  0  0
 16 43  1  0  0  0  0
 17 18  1  0  0  0  0
 18 19  1  0  0  0  0
 18 44  1  0  0  0  0
 18 45  1  0  0  0  0
 19 20  1  0  0  0  0
 19 22  1  0  0  0  0
 19 46  1  0  0  0  0
 20 21  1  0  0  0  0
 20 47  1  0  0  0  0
 20 48  1  0  0  0  0
 21 49  1  0  0  0  0
 22 26  1  0  0  0  0
 22 23  1  0  0  0  0
 22 50  1  0  0  0  0
 23 24  1  0  0  0  0
 23 51  1  0  0  0  0
 23 52  1  0  0  0  0
 24 25  1  0  0  0  0
 24 53  1  0  0  0  0
 24 54  1  0  0  0  0
 25 26  1  0  0  0  0
 26 55  1  0  0  0  0
 26 56  1  0  0  0  0
 27 28  1  0  0  0  0
 27 29  1  0  0  0  0
 27 62  1  0  0  0  0
 28 57  1  0  0  0  0
 28 58  1  0  0  0  0
 28 59  1  0  0  0  0
 29 60  1  0  0  0  0
 29 61  1  0  0  0  0
M  CHG  1  27   1
M  END
> <s_m_source_file>
AV-unprocessed.smi

> <i_m_source_file_index>
21

> <i_lp_mmshare_version>
43012

> <i_f3d_flags>
0

> <s_epik_input>
W0NIM11PW0NASF0xW0NIMl1bQ0BIXShOKFtDSDNdKVtDSDJdMSlbQ0gyXU4oW0NIM10pYyhuW2NIXW4yKWMoYzIzKW5bY0hdbjNbQ0gyXVtDQEhdKFtDSDJdW09IXSlbQ0BASF00W0NIMl1bQ0gyXU9bQ0gyXTQ=

> <s_epik_cmdline>
J2VwaWtfcHl0aG9uJywgJy1waCcsICc3LjAnLCAnLXRuJywgJzgnLCAnLW1hJywgJzIwMCcsICctbWV0YWxfYmluZGluZycsICctaW1hZScsICc8aW5maWxlLm1hZT4nLCAnLW9tYWUnLCAnPG91dGZpbGUubWFlPic=

> <r_lp_tautomer_probability>
1

> <r_epik_Ionization_Penalty>
0.0157465

> <r_epik_Ionization_Penalty_Charging>
0.015354

> <r_epik_Ionization_Penalty_Neutral>
0.000392529

> <r_epik_State_Penalty>
0.0120612

> <r_epik_Charging_Adjusted_Penalty>
0.0274152

> <i_epik_Tot_Q>
1

> <i_epik_Tot_abs_Q>
1

> <r_epik_Metal_State_Penalty>
0.0121253

> <b_epik_Metal_Only>
0

> <s_lp_Force_Field>
OPLS_2005

> <r_lp_Energy>
60.6524

> <b_lp_Chiralities_Consistent>
1

> <s_lp_Variant>
AV-unprocessed.smi:21-8

> <Gold.Version>
5.8.1

> <Gold.Id.Protein>
6NUR|6NUR_protein|mol2

> <Gold.PLP.Fitness>
41.7597

> <Gold.PLP.PLP>
-36.6884

> <Gold.PLP.part.hbond>
-1.0000

> <Gold.PLP.part.metal>
0.0000

> <Gold.PLP.part.buried>
-1.9998

> <Gold.PLP.part.nonpolar>
-33.6884

> <Gold.PLP.part.repulsive>
1.5845

> <Gold.PLP.ligand.clash>
0.0000

> <Gold.PLP.ligand.torsion>
0.8284

> <Gold.PLP.Chemscore.Hbond>
2.0000

> <Gold.PLP.Chemscore.CHOScore>
0.0000

> <Gold.PLP.Chemscore.Metal>
0.0000

> <Gold.Chemscore.Hbonds>
donor molecule, donor type, donor heavy atom, donor atom, acceptor molecule, acceptor atom, score
      L1  H    27    62       P1  7948  0.78

> <Gold.PLP.Chemscore.Internal.Correction>
0.7281

> <Gold.Rescore>
     Score         DG    S(hbond)    S(metal)    S(lipo)     H(rot)  DE(clash)    DE(int)     intcor
      7.26      -8.57       1.00        0.00      65.18       3.08       0.41       0.91       ----

> <Gold.Chemscore.Fitness>
7.2617

> <Gold.Chemscore.DG>
-8.5724

> <Gold.Chemscore.ZeroCoef>
-5.4800

> <Gold.Chemscore.Hbond>
1.0000

> <Gold.Chemscore.Metal>
0.0000

> <Gold.Chemscore.Lipo>
65.1841

> <Gold.Chemscore.Internal_Hbond>
0.0000

> <Gold.Chemscore.DEClash>
0.4053

> <Gold.Chemscore.DEInternal>
0.9055

> <Gold.Chemscore.Rot>
3.0758

> <Gold.Chemscore.Internal.Correction>
   9.000000E+99

> <Gold.Chemscore.Hbonds>
donor molecule, donor type, donor heavy atom, donor atom, acceptor molecule, acceptor atom, score
      L1  H    27    62       P1  7948  0.39

> <Gold.Chemscore.Hbond.Weighted>
-3.3400

> <Gold.Chemscore.Metal.Weighted>
-0.0000

> <Gold.Chemscore.Lipo.Weighted>
-7.6265

> <Gold.Chemscore.Internal_Hbond.Weighted>
0.0000

> <Gold.Chemscore.DEClash.Weighted>
0.4053

> <Gold.Chemscore.DEInternal.Weighted>
0.9055

> <Gold.Chemscore.Rot.Weighted>
7.8741

> <Gold.Chemscore.Internal.Correction.Weighted>
   9.000000E+99

> <Gold.Protein.RotatedTorsions>
[ 6907 6896 6895 6894 ] final   60.67 input  -60.11 | X-H torsion
[ 7974 7965 7964 7962 ] final   94.78 input  175.53 | X-H torsion
[ 8008 7997 7996 7995 ] final   39.10 input   59.86 | X-H torsion
[ 10167 10162 10161 10158 ] final    8.89 input  -65.29 | X-H torsion
[ 10718 10713 10712 10709 ] final   -2.54 input   66.30 | X-H torsion
[ 10763 10752 10751 10750 ] final  115.45 input  -60.55 | X-H torsion
[ 11005 11000 10999 10996 ] final   -1.08 input  -57.11 | X-H torsion

> <Gold.Protein.ActiveResidues>
 VAL166  LYS551  ARG553  GLY616  TRP617  ASP618  TYR619  PRO620  LYS621  CYS622 
 ASP623  PHE694  ASN695  SER759  ASP760  ASP761  ALA762  ILE779  LEU786  VAL792 
 PHE793  MET794  SER795  GLU796  ALA797  LYS798  CYS799  TRP800  GLU811  SER814 

> <Gold.Protein.RotatedAtoms>
  152.4023  134.6265  160.0064 H   0  0  0  0  0  0  0  0  0  0  0  0  # atno 6907 bound_to 6896
  151.6467  133.3317  159.3150 H   0  0  0  0  0  0  0  0  0  0  0  0  # atno 6908 bound_to 6896
  150.7922  134.6997  159.6587 H   0  0  0  0  0  0  0  0  0  0  0  0  # atno 6909 bound_to 6896
  145.4609  139.2287  143.2988 H   0  0  0  0  0  0  0  0  0  0  0  0  # atno 7974 bound_to 7965
  155.2310  140.3338  155.4303 H   0  0  0  0  0  0  0  0  0  0  0  0  # atno 8008 bound_to 7997
  156.2295  140.1844  156.7325 H   0  0  0  0  0  0  0  0  0  0  0  0  # atno 8009 bound_to 7997
  154.5954  140.0631  156.9281 H   0  0  0  0  0  0  0  0  0  0  0  0  # atno 8010 bound_to 7997
  140.6287  143.8042  150.7267 H   0  0  0  0  0  0  0  0  0  0  0  0  # atno 10167 bound_to 10162
  156.7892  130.5356  149.5738 H   0  0  0  0  0  0  0  0  0  0  0  0  # atno 10718 bound_to 10713
  153.5224  135.3595  155.2638 H   0  0  0  0  0  0  0  0  0  0  0  0  # atno 10763 bound_to 10752
  154.8734  135.4049  154.3244 H   0  0  0  0  0  0  0  0  0  0  0  0  # atno 10764 bound_to 10752
  153.3917  135.7072  153.6557 H   0  0  0  0  0  0  0  0  0  0  0  0  # atno 10765 bound_to 10752
  140.6434  133.9469  155.8339 H   0  0  0  0  0  0  0  0  0  0  0  0  # atno 11005 bound_to 11000
  146.2451  140.5378  142.8917 LP  0  0  0  0  0  0  0  0  0  0  0  0  # atno 17320 bound_to 7965
  144.8003  140.6201  143.6482 LP  0  0  0  0  0  0  0  0  0  0  0  0  # atno 17321 bound_to 7965
  140.1649  143.4244  152.2042 LP  0  0  0  0  0  0  0  0  0  0  0  0  # atno 17342 bound_to 10162
  139.5504  144.7333  151.4453 LP  0  0  0  0  0  0  0  0  0  0  0  0  # atno 17343 bound_to 10162
  156.1169  130.6082  151.0135 LP  0  0  0  0  0  0  0  0  0  0  0  0  # atno 17370 bound_to 10713
  157.6609  131.0881  150.7841 LP  0  0  0  0  0  0  0  0  0  0  0  0  # atno 17371 bound_to 10713
  141.0590  134.0374  157.3684 LP  0  0  0  0  0  0  0  0  0  0  0  0  # atno 17394 bound_to 11000
  139.9072  135.0182  156.7536 LP  0  0  0  0  0  0  0  0  0  0  0  0  # atno 17395 bound_to 11000

$$$$
