AV-unprocessed.smi:354|AV-procd|sdf|2405|dock1
  -GOLD-   2262022333D 1   1.00000     0.00000
 Structure written by MMmdl.
 37 39  0  0  0  0  0  0  0  0  2 V2000
  151.4393  136.6830  154.1348 O   0  0  0  0  0  0  0  0  0  0  0  0
  151.6408  137.9606  154.6967 C   0  0  0  0  0  0  0  0  0  0  0  0
  150.4667  138.8620  154.4928 C   0  0  0  0  0  0  0  0  0  0  0  0
  149.3734  138.5702  153.7328 N   0  3  0  0  0  0  0  0  0  0  0  0
  148.4806  139.6418  153.7543 C   0  0  0  0  0  0  0  0  0  0  0  0
  147.2448  139.8118  153.1378 C   0  0  0  0  0  0  0  0  0  0  0  0
  146.5876  141.0387  153.3658 C   0  0  0  0  0  0  0  0  0  0  0  0
  147.1600  142.0387  154.1786 C   0  0  0  0  0  0  0  0  0  0  0  0
  148.4141  141.8549  154.7976 C   0  0  0  0  0  0  0  0  0  0  0  0
  149.0569  140.6387  154.5671 C   0  0  0  0  0  0  0  0  0  0  0  0
  150.2812  140.1171  154.9993 N   0  0  0  0  0  0  0  0  0  0  0  0
  151.1359  140.9441  155.8666 C   0  0  0  0  0  0  0  0  0  0  0  0
  151.5745  140.2122  157.1508 C   0  0  2  0  0  0  0  0  0  0  0  0
  150.5433  139.3446  157.5834 O   0  0  0  0  0  0  0  0  0  0  0  0
  152.0052  141.2030  158.2242 C   0  0  0  0  0  0  0  0  0  0  0  0
  151.7795  142.5888  158.0612 C   0  0  0  0  0  0  0  0  0  0  0  0
  152.1930  143.4987  159.0533 C   0  0  0  0  0  0  0  0  0  0  0  0
  152.8398  143.0313  160.2128 C   0  0  0  0  0  0  0  0  0  0  0  0
  153.0754  141.6534  160.3781 C   0  0  0  0  0  0  0  0  0  0  0  0
  152.6619  140.7412  159.3876 C   0  0  0  0  0  0  0  0  0  0  0  0
  152.9051  139.4190  159.5572 F   0  0  0  0  0  0  0  0  0  0  0  0
  151.4473  136.7634  153.1932 H   0  0  0  0  0  0  0  0  0  0  0  0
  151.8261  137.8510  155.7654 H   0  0  0  0  0  0  0  0  0  0  0  0
  152.5380  138.4027  154.2659 H   0  0  0  0  0  0  0  0  0  0  0  0
  146.8046  139.0475  152.5142 H   0  0  0  0  0  0  0  0  0  0  0  0
  145.6255  141.2168  152.9073 H   0  0  0  0  0  0  0  0  0  0  0  0
  146.6273  142.9664  154.3299 H   0  0  0  0  0  0  0  0  0  0  0  0
  148.8455  142.6281  155.4162 H   0  0  0  0  0  0  0  0  0  0  0  0
  152.0029  141.2636  155.2870 H   0  0  0  0  0  0  0  0  0  0  0  0
  150.5911  141.8541  156.1163 H   0  0  0  0  0  0  0  0  0  0  0  0
  152.4267  139.5716  156.9221 H   0  0  0  0  0  0  0  0  0  0  0  0
  150.1202  139.7329  158.3340 H   0  0  0  0  0  0  0  0  0  0  0  0
  151.2919  142.9637  157.1733 H   0  0  0  0  0  0  0  0  0  0  0  0
  152.0160  144.5561  158.9228 H   0  0  0  0  0  0  0  0  0  0  0  0
  153.1589  143.7293  160.9725 H   0  0  0  0  0  0  0  0  0  0  0  0
  153.5774  141.2953  161.2647 H   0  0  0  0  0  0  0  0  0  0  0  0
  149.2548  137.7002  153.2300 H   0  0  0  0  0  0  0  0  0  0  0  0
  1  2  1  0  0  0  0
  1 22  1  0  0  0  0
  2  3  1  0  0  0  0
  2 23  1  0  0  0  0
  2 24  1  0  0  0  0
  3 11  1  0  0  0  0
  3  4  2  0  0  0  0
  4  5  1  0  0  0  0
  4 37  1  0  0  0  0
  5 10  2  0  0  0  0
  5  6  1  0  0  0  0
  6  7  2  0  0  0  0
  6 25  1  0  0  0  0
  7  8  1  0  0  0  0
  7 26  1  0  0  0  0
  8  9  2  0  0  0  0
  8 27  1  0  0  0  0
  9 10  1  0  0  0  0
  9 28  1  0  0  0  0
 10 11  1  0  0  0  0
 11 12  1  0  0  0  0
 12 13  1  0  0  0  0
 12 29  1  0  0  0  0
 12 30  1  0  0  0  0
 13 14  1  0  0  0  0
 13 15  1  0  0  0  0
 13 31  1  0  0  0  0
 14 32  1  0  0  0  0
 15 20  1  0  0  0  0
 15 16  2  0  0  0  0
 16 17  1  0  0  0  0
 16 33  1  0  0  0  0
 17 18  2  0  0  0  0
 17 34  1  0  0  0  0
 18 19  1  0  0  0  0
 18 35  1  0  0  0  0
 19 20  2  0  0  0  0
 19 36  1  0  0  0  0
 20 21  1  0  0  0  0
M  CHG  1   4   1
M  END
> <s_m_source_file>
AV-unprocessed.smi

> <i_m_source_file_index>
354

> <i_lp_mmshare_version>
43012

> <i_f3d_flags>
0

> <s_epik_input>
W2NIXTFbY0hdW2NIXVtjSF1jKGMxMiluKGMobjIpW0NIMl1bT0hdKVtDSDJdW0NASF0oW09IXSljM1tjSF1bY0hdW2NIXVtjSF1jM0Y=

> <s_epik_cmdline>
J2VwaWtfcHl0aG9uJywgJy1waCcsICc3LjAnLCAnLXRuJywgJzgnLCAnLW1hJywgJzIwMCcsICctbWV0YWxfYmluZGluZycsICctaW1hZScsICc8aW5maWxlLm1hZT4nLCAnLW9tYWUnLCAnPG91dGZpbGUubWFlPic=

> <r_epik_Ionization_Penalty>
1.35643

> <r_epik_Ionization_Penalty_Charging>
1.35557

> <r_epik_Ionization_Penalty_Neutral>
0.000857128

> <r_epik_State_Penalty>
1.43401

> <r_epik_Charging_Adjusted_Penalty>
2.78958

> <i_epik_Tot_Q>
1

> <i_epik_Tot_abs_Q>
1

> <r_epik_Metal_State_Penalty>
5.47166

> <b_epik_Metal_Only>
0

> <s_lp_Force_Field>
OPLS_2005

> <r_lp_Energy>
14.4216

> <b_lp_Chiralities_Consistent>
1

> <s_lp_Variant>
AV-unprocessed.smi:354-3

> <Gold.Version>
5.8.1

> <Gold.Id.Protein>
6NUR|6NUR_protein|mol2

> <Gold.PLP.Fitness>
59.0058

> <Gold.PLP.PLP>
-47.9525

> <Gold.PLP.part.hbond>
-4.0000

> <Gold.PLP.part.metal>
0.0000

> <Gold.PLP.part.buried>
1.3868

> <Gold.PLP.part.nonpolar>
-45.5709

> <Gold.PLP.part.repulsive>
0.0604

> <Gold.PLP.ligand.clash>
0.0000

> <Gold.PLP.ligand.torsion>
0.4881

> <Gold.PLP.Chemscore.Hbond>
3.9920

> <Gold.PLP.Chemscore.CHOScore>
0.0000

> <Gold.PLP.Chemscore.Metal>
0.0000

> <Gold.Chemscore.Hbonds>
donor molecule, donor type, donor heavy atom, donor atom, acceptor molecule, acceptor atom, score
      L1  H     1    22       P1  7949  0.99
      L1  H     4    37       P1  7948  2.00
      P1  H 10752 10763       L1     1  1.00

> <Gold.PLP.Chemscore.Internal.Correction>
0.0535

> <Gold.Rescore>
     Score         DG    S(hbond)    S(metal)    S(lipo)     H(rot)  DE(clash)    DE(int)     intcor
     19.45     -21.15       2.57        0.00     122.26       2.82       1.20       0.50       ----

> <Gold.Chemscore.Fitness>
19.4460

> <Gold.Chemscore.DG>
-21.1470

> <Gold.Chemscore.ZeroCoef>
-5.4800

> <Gold.Chemscore.Hbond>
2.5708

> <Gold.Chemscore.Metal>
0.0000

> <Gold.Chemscore.Lipo>
122.2612

> <Gold.Chemscore.Internal_Hbond>
0.0000

> <Gold.Chemscore.DEClash>
1.1977

> <Gold.Chemscore.DEInternal>
0.5033

> <Gold.Chemscore.Rot>
2.8219

> <Gold.Chemscore.Internal.Correction>
   9.000000E+99

> <Gold.Chemscore.Hbonds>
donor molecule, donor type, donor heavy atom, donor atom, acceptor molecule, acceptor atom, score
      L1  H     1    22       P1  7949  0.80
      L1  H     4    37       P1  7948  0.95
      P1  H 10752 10763       L1     1  0.31

> <Gold.Chemscore.Hbond.Weighted>
-8.5865

> <Gold.Chemscore.Metal.Weighted>
-0.0000

> <Gold.Chemscore.Lipo.Weighted>
-14.3046

> <Gold.Chemscore.Internal_Hbond.Weighted>
0.0000

> <Gold.Chemscore.DEClash.Weighted>
1.1977

> <Gold.Chemscore.DEInternal.Weighted>
0.5033

> <Gold.Chemscore.Rot.Weighted>
7.2240

> <Gold.Chemscore.Internal.Correction.Weighted>
   9.000000E+99

> <Gold.Protein.RotatedTorsions>
[ 6907 6896 6895 6894 ] final   21.45 input  -60.11 | X-H torsion
[ 7974 7965 7964 7962 ] final    1.15 input  175.53 | X-H torsion
[ 8008 7997 7996 7995 ] final -125.77 input   59.86 | X-H torsion
[ 10167 10162 10161 10158 ] final  124.55 input  -65.29 | X-H torsion
[ 10718 10713 10712 10709 ] final  -20.89 input   66.30 | X-H torsion
[ 10763 10752 10751 10750 ] final   56.16 input  -60.55 | X-H torsion
[ 11005 11000 10999 10996 ] final -103.51 input  -57.11 | X-H torsion

> <Gold.Protein.ActiveResidues>
 VAL166  LYS551  ARG553  GLY616  TRP617  ASP618  TYR619  PRO620  LYS621  CYS622 
 ASP623  PHE694  ASN695  SER759  ASP760  ASP761  ALA762  ILE779  LEU786  VAL792 
 PHE793  MET794  SER795  GLU796  ALA797  LYS798  CYS799  TRP800  GLU811  SER814 

> <Gold.Protein.RotatedAtoms>
  151.9120  135.0335  160.0514 H   0  0  0  0  0  0  0  0  0  0  0  0  # atno 6907 bound_to 6896
  152.2272  133.5025  159.5203 H   0  0  0  0  0  0  0  0  0  0  0  0  # atno 6908 bound_to 6896
  150.7015  134.1182  159.4067 H   0  0  0  0  0  0  0  0  0  0  0  0  # atno 6909 bound_to 6896
  146.2439  140.1030  142.8347 H   0  0  0  0  0  0  0  0  0  0  0  0  # atno 7974 bound_to 7965
  155.2187  140.0421  157.2945 H   0  0  0  0  0  0  0  0  0  0  0  0  # atno 8008 bound_to 7997
  154.5964  140.2440  155.7822 H   0  0  0  0  0  0  0  0  0  0  0  0  # atno 8009 bound_to 7997
  156.2293  140.2944  156.0155 H   0  0  0  0  0  0  0  0  0  0  0  0  # atno 8010 bound_to 7997
  139.5735  144.6951  151.3715 H   0  0  0  0  0  0  0  0  0  0  0  0  # atno 10167 bound_to 10162
  156.5256  130.4643  149.6574 H   0  0  0  0  0  0  0  0  0  0  0  0  # atno 10718 bound_to 10713
  152.9827  135.5686  154.5185 H   0  0  0  0  0  0  0  0  0  0  0  0  # atno 10763 bound_to 10752
  154.4677  135.2783  155.1668 H   0  0  0  0  0  0  0  0  0  0  0  0  # atno 10764 bound_to 10752
  154.3229  135.6265  153.5569 H   0  0  0  0  0  0  0  0  0  0  0  0  # atno 10765 bound_to 10752
  141.1142  133.8646  157.1496 H   0  0  0  0  0  0  0  0  0  0  0  0  # atno 11005 bound_to 11000
  145.0552  140.9047  143.4971 LP  0  0  0  0  0  0  0  0  0  0  0  0  # atno 17320 bound_to 7965
  145.1135  139.2741  143.5625 LP  0  0  0  0  0  0  0  0  0  0  0  0  # atno 17321 bound_to 7965
  140.7019  143.7611  150.7417 LP  0  0  0  0  0  0  0  0  0  0  0  0  # atno 17342 bound_to 10162
  140.1124  143.4687  152.2362 LP  0  0  0  0  0  0  0  0  0  0  0  0  # atno 17343 bound_to 10162
  156.3108  130.7228  151.2120 LP  0  0  0  0  0  0  0  0  0  0  0  0  # atno 17370 bound_to 10713
  157.7430  131.0482  150.4982 LP  0  0  0  0  0  0  0  0  0  0  0  0  # atno 17371 bound_to 10713
  140.0054  135.0010  157.0281 LP  0  0  0  0  0  0  0  0  0  0  0  0  # atno 17394 bound_to 11000
  140.4692  134.1404  155.7201 LP  0  0  0  0  0  0  0  0  0  0  0  0  # atno 17395 bound_to 11000

$$$$
