AV-unprocessed.smi:1560|AV-procd|sdf|6279|dock9
  -GOLD-   22720 6473D 1   1.00000     0.00000
 Structure written by MMmdl.
 46 47  0  0  0  0  0  0  0  0  2 V2000
  148.5775  132.3081  153.7302 C   0  0  0  0  0  0  0  0  0  0  0  0
  148.0607  133.7463  153.9197 C   0  0  0  0  0  0  0  0  0  0  0  0
  146.5095  133.9202  153.8658 C   0  0  1  0  0  0  0  0  0  0  0  0
  145.9119  132.7866  154.7425 C   0  0  0  0  0  0  0  0  0  0  0  0
  146.1355  135.2903  154.5188 C   0  0  0  0  0  0  0  0  0  0  0  0
  146.9582  136.4107  154.0630 N   0  0  0  0  0  0  0  0  0  0  0  0
  147.0507  137.6107  154.6566 C   0  0  0  0  0  0  0  0  0  0  0  0
  146.4082  137.9218  155.6604 O   0  0  0  0  0  0  0  0  0  0  0  0
  147.9891  138.6230  153.9869 C   0  0  0  0  0  0  0  0  0  0  0  0
  149.2785  138.7526  154.6844 N   0  0  0  0  0  0  0  0  0  0  0  0
  150.4446  138.4081  153.9778 C   0  0  0  0  0  0  0  0  0  0  0  0
  151.6664  138.4969  154.5373 C   0  0  0  0  0  0  0  0  0  0  0  0
  151.7630  138.9650  155.9145 C   0  0  0  0  0  0  0  0  0  0  0  0
  152.8699  139.0470  156.4436 O   0  0  0  0  0  0  0  0  0  0  0  0
  150.6030  139.2928  156.5561 N   0  5  0  0  0  0  0  0  0  0  0  0
  149.3674  139.1992  155.9739 C   0  0  0  0  0  0  0  0  0  0  0  0
  148.3332  139.5011  156.5710 O   0  0  0  0  0  0  0  0  0  0  0  0
  146.0116  133.8158  152.4645 N   0  0  0  0  0  0  0  0  0  0  0  0
  144.5880  134.1271  152.2835 C   0  0  0  0  0  0  0  0  0  0  0  0
  144.1863  134.1432  150.7991 C   0  0  0  0  0  0  0  0  0  0  0  0
  144.5033  132.8909  150.2035 O   0  0  0  0  0  0  0  0  0  0  0  0
  145.8862  132.5748  150.3071 C   0  0  0  0  0  0  0  0  0  0  0  0
  146.3019  132.5459  151.7879 C   0  0  0  0  0  0  0  0  0  0  0  0
  149.6661  132.2859  153.7790 H   0  0  0  0  0  0  0  0  0  0  0  0
  148.2886  131.8961  152.7635 H   0  0  0  0  0  0  0  0  0  0  0  0
  148.2057  131.6386  154.5053 H   0  0  0  0  0  0  0  0  0  0  0  0
  148.4412  134.1004  154.8780 H   0  0  0  0  0  0  0  0  0  0  0  0
  148.5393  134.3922  153.1835 H   0  0  0  0  0  0  0  0  0  0  0  0
  146.4300  132.6903  155.6973 H   0  0  0  0  0  0  0  0  0  0  0  0
  145.9734  131.8181  154.2454 H   0  0  0  0  0  0  0  0  0  0  0  0
  144.8628  132.9643  154.9797 H   0  0  0  0  0  0  0  0  0  0  0  0
  145.0817  135.5223  154.3626 H   0  0  0  0  0  0  0  0  0  0  0  0
  146.2681  135.2462  155.5992 H   0  0  0  0  0  0  0  0  0  0  0  0
  147.5197  136.2524  153.2390 H   0  0  0  0  0  0  0  0  0  0  0  0
  148.1556  138.3457  152.9442 H   0  0  0  0  0  0  0  0  0  0  0  0
  147.4758  139.5847  153.9490 H   0  0  0  0  0  0  0  0  0  0  0  0
  150.2863  138.0767  152.9619 H   0  0  0  0  0  0  0  0  0  0  0  0
  152.5528  138.2310  153.9802 H   0  0  0  0  0  0  0  0  0  0  0  0
  143.9710  133.3930  152.8012 H   0  0  0  0  0  0  0  0  0  0  0  0
  144.3424  135.0996  152.7059 H   0  0  0  0  0  0  0  0  0  0  0  0
  143.1160  134.3241  150.6987 H   0  0  0  0  0  0  0  0  0  0  0  0
  144.6988  134.9479  150.2695 H   0  0  0  0  0  0  0  0  0  0  0  0
  146.0654  131.6044  149.8440 H   0  0  0  0  0  0  0  0  0  0  0  0
  146.4771  133.3073  149.7550 H   0  0  0  0  0  0  0  0  0  0  0  0
  147.3652  132.3161  151.8283 H   0  0  0  0  0  0  0  0  0  0  0  0
  145.7807  131.7251  152.2804 H   0  0  0  0  0  0  0  0  0  0  0  0
  1  2  1  0  0  0  0
  1 24  1  0  0  0  0
  1 25  1  0  0  0  0
  1 26  1  0  0  0  0
  2  3  1  0  0  0  0
  2 27  1  0  0  0  0
  2 28  1  0  0  0  0
  3  4  1  0  0  0  0
  3  5  1  0  0  0  0
  3 18  1  0  0  0  0
  4 29  1  0  0  0  0
  4 30  1  0  0  0  0
  4 31  1  0  0  0  0
  5  6  1  0  0  0  0
  5 32  1  0  0  0  0
  5 33  1  0  0  0  0
  6  7  1  0  0  0  0
  6 34  1  0  0  0  0
  7  8  2  0  0  0  0
  7  9  1  0  0  0  0
  9 10  1  0  0  0  0
  9 35  1  0  0  0  0
  9 36  1  0  0  0  0
 10 16  1  0  0  0  0
 10 11  1  0  0  0  0
 11 12  2  0  0  0  0
 11 37  1  0  0  0  0
 12 13  1  0  0  0  0
 12 38  1  0  0  0  0
 13 14  2  0  0  0  0
 13 15  1  0  0  0  0
 15 16  1  0  0  0  0
 16 17  2  0  0  0  0
 18 23  1  0  0  0  0
 18 19  1  0  0  0  0
 19 20  1  0  0  0  0
 19 39  1  0  0  0  0
 19 40  1  0  0  0  0
 20 21  1  0  0  0  0
 20 41  1  0  0  0  0
 20 42  1  0  0  0  0
 21 22  1  0  0  0  0
 22 23  1  0  0  0  0
 22 43  1  0  0  0  0
 22 44  1  0  0  0  0
 23 45  1  0  0  0  0
 23 46  1  0  0  0  0
M  CHG  1  15  -1
M  END
> <s_m_source_file>
AV-unprocessed.smi

> <i_m_source_file_index>
1560

> <i_lp_mmshare_version>
43012

> <i_f3d_flags>
0

> <s_epik_input>
W0NIMl0xW0NIMl1PW0NIMl1bQ0gyXU4xW0NAQF0oW0NIM10pKFtDSDJdW0NIM10pW0NIMl1bTkhdQyg9TylbQ0gyXW4yW2NIXVtjSF1jKD1PKVtuSF1jMj1P

> <s_epik_cmdline>
J2VwaWtfcHl0aG9uJywgJy1waCcsICc3LjAnLCAnLXRuJywgJzgnLCAnLW1hJywgJzIwMCcsICctbWV0YWxfYmluZGluZycsICctaW1hZScsICc8aW5maWxlLm1hZT4nLCAnLW9tYWUnLCAnPG91dGZpbGUubWFlPic=

> <r_lp_tautomer_probability>
0.999537

> <r_epik_Ionization_Penalty>
3.35108

> <r_epik_Ionization_Penalty_Charging>
2.65778e-08

> <r_epik_Ionization_Penalty_Neutral>
3.35108

> <r_epik_State_Penalty>
3.36199

> <r_epik_Charging_Adjusted_Penalty>
3.36199

> <i_epik_Tot_Q>
-1

> <i_epik_Tot_abs_Q>
1

> <r_epik_Metal_State_Penalty>
0.748914

> <b_epik_Metal_Only>
1

> <s_lp_Force_Field>
OPLS_2005

> <r_lp_Energy>
51.7621

> <b_lp_Chiralities_Consistent>
1

> <s_lp_Variant>
AV-unprocessed.smi:1560-5

> <Gold.Version>
5.8.1

> <Gold.Id.Protein>
6NUR|6NUR_protein|mol2

> <Gold.PLP.Fitness>
38.8010

> <Gold.PLP.PLP>
-28.8773

> <Gold.PLP.part.hbond>
-2.0000

> <Gold.PLP.part.metal>
0.0000

> <Gold.PLP.part.buried>
-4.2250

> <Gold.PLP.part.nonpolar>
-23.2993

> <Gold.PLP.part.repulsive>
0.2623

> <Gold.PLP.ligand.clash>
0.0000

> <Gold.PLP.ligand.torsion>
0.7748

> <Gold.PLP.Chemscore.Hbond>
2.0000

> <Gold.PLP.Chemscore.CHOScore>
1.7663

> <Gold.PLP.Chemscore.Metal>
0.0000

> <Gold.Chemscore.Hbonds>
donor molecule, donor type, donor heavy atom, donor atom, acceptor molecule, acceptor atom, score
      L1  H     6    34       P1  7948  1.00
      P1  H  7997  8010       L1    14  1.00
      L1  C    11    37       P1  7948  0.81
      L1  C    11    37       P1  7949  0.18
      L1  C    11    37       P1  7957  0.33

> <Gold.PLP.Chemscore.Internal.Correction>
0.1745

> <Gold.Rescore>
     Score         DG    S(hbond)    S(metal)    S(lipo)     H(rot)  DE(clash)    DE(int)     intcor
     12.43     -13.93       1.99        0.00      68.27       2.42       0.11       1.39       ----

> <Gold.Chemscore.Fitness>
12.4285

> <Gold.Chemscore.DG>
-13.9305

> <Gold.Chemscore.ZeroCoef>
-5.4800

> <Gold.Chemscore.Hbond>
1.9933

> <Gold.Chemscore.Metal>
0.0000

> <Gold.Chemscore.Lipo>
68.2675

> <Gold.Chemscore.Internal_Hbond>
0.0000

> <Gold.Chemscore.DEClash>
0.1093

> <Gold.Chemscore.DEInternal>
1.3927

> <Gold.Chemscore.Rot>
2.4197

> <Gold.Chemscore.Internal.Correction>
   9.000000E+99

> <Gold.Chemscore.Hbonds>
donor molecule, donor type, donor heavy atom, donor atom, acceptor molecule, acceptor atom, score
      L1  H     6    34       P1  7948  0.97
      P1  H  7997  8010       L1    14  1.00

> <Gold.Chemscore.Hbond.Weighted>
-6.6576

> <Gold.Chemscore.Metal.Weighted>
-0.0000

> <Gold.Chemscore.Lipo.Weighted>
-7.9873

> <Gold.Chemscore.Internal_Hbond.Weighted>
0.0000

> <Gold.Chemscore.DEClash.Weighted>
0.1093

> <Gold.Chemscore.DEInternal.Weighted>
1.3927

> <Gold.Chemscore.Rot.Weighted>
6.1943

> <Gold.Chemscore.Internal.Correction.Weighted>
   9.000000E+99

> <Gold.Protein.RotatedTorsions>
[ 6907 6896 6895 6894 ] final   18.19 input  -60.11 | X-H torsion
[ 7974 7965 7964 7962 ] final -145.50 input  175.53 | X-H torsion
[ 8008 7997 7996 7995 ] final   67.42 input   59.86 | X-H torsion
[ 10167 10162 10161 10158 ] final   63.53 input  -65.29 | X-H torsion
[ 10718 10713 10712 10709 ] final  -30.30 input   66.30 | X-H torsion
[ 10763 10752 10751 10750 ] final   67.54 input  -60.55 | X-H torsion
[ 11005 11000 10999 10996 ] final -119.10 input  -57.11 | X-H torsion

> <Gold.Protein.ActiveResidues>
 VAL166  LYS551  ARG553  GLY616  TRP617  ASP618  TYR619  PRO620  LYS621  CYS622 
 ASP623  PHE694  ASN695  SER759  ASP760  ASP761  ALA762  ILE779  LEU786  VAL792 
 PHE793  MET794  SER795  GLU796  ALA797  LYS798  CYS799  TRP800  GLU811  SER814 

> <Gold.Protein.RotatedAtoms>
  151.8615  135.0522  160.0469 H   0  0  0  0  0  0  0  0  0  0  0  0  # atno 6907 bound_to 6896
  152.2659  133.5334  159.5418 H   0  0  0  0  0  0  0  0  0  0  0  0  # atno 6908 bound_to 6896
  150.7133  134.0681  159.3897 H   0  0  0  0  0  0  0  0  0  0  0  0  # atno 6909 bound_to 6896
  144.8223  140.5576  143.5570 H   0  0  0  0  0  0  0  0  0  0  0  0  # atno 7974 bound_to 7965
  155.6926  140.3496  155.4900 H   0  0  0  0  0  0  0  0  0  0  0  0  # atno 8008 bound_to 7997
  155.9510  140.1119  157.0999 H   0  0  0  0  0  0  0  0  0  0  0  0  # atno 8009 bound_to 7997
  154.4122  140.1194  156.5039 H   0  0  0  0  0  0  0  0  0  0  0  0  # atno 8010 bound_to 7997
  140.1321  144.4633  150.6859 H   0  0  0  0  0  0  0  0  0  0  0  0  # atno 10167 bound_to 10162
  156.4015  130.4391  149.7319 H   0  0  0  0  0  0  0  0  0  0  0  0  # atno 10718 bound_to 10713
  153.0191  135.5280  154.6996 H   0  0  0  0  0  0  0  0  0  0  0  0  # atno 10763 bound_to 10752
  154.6108  135.2878  155.0436 H   0  0  0  0  0  0  0  0  0  0  0  0  # atno 10764 bound_to 10752
  154.1459  135.6571  153.5005 H   0  0  0  0  0  0  0  0  0  0  0  0  # atno 10765 bound_to 10752
  141.0239  134.0082  157.3242 H   0  0  0  0  0  0  0  0  0  0  0  0  # atno 11005 bound_to 11000
  145.5077  139.1480  143.3622 LP  0  0  0  0  0  0  0  0  0  0  0  0  # atno 17320 bound_to 7965
  146.2529  140.5217  142.8886 LP  0  0  0  0  0  0  0  0  0  0  0  0  # atno 17321 bound_to 7965
  140.6811  143.2327  151.5382 LP  0  0  0  0  0  0  0  0  0  0  0  0  # atno 17342 bound_to 10162
  139.5514  144.2385  152.1537 LP  0  0  0  0  0  0  0  0  0  0  0  0  # atno 17343 bound_to 10162
  156.4333  130.7826  151.2846 LP  0  0  0  0  0  0  0  0  0  0  0  0  # atno 17370 bound_to 10713
  157.7504  131.0147  150.3475 LP  0  0  0  0  0  0  0  0  0  0  0  0  # atno 17371 bound_to 10713
  139.9164  135.0197  156.7896 LP  0  0  0  0  0  0  0  0  0  0  0  0  # atno 17394 bound_to 11000
  140.6524  133.9719  155.7762 LP  0  0  0  0  0  0  0  0  0  0  0  0  # atno 17395 bound_to 11000

$$$$
