AV-unprocessed.smi:473|AV-procd|sdf|2663|dock2
  -GOLD-   2262023 73D 1   1.00000     0.00000
 Structure written by MMmdl.
 43 45  0  0  0  0  0  0  0  0  2 V2000
  152.1384  145.1559  160.7833 C   0  0  0  0  0  0  0  0  0  0  0  0
  152.0617  144.0008  159.7993 C   0  0  0  0  0  0  0  0  0  0  0  0
  151.2205  144.1307  158.6709 C   0  0  0  0  0  0  0  0  0  0  0  0
  151.1752  143.0591  157.7870 C   0  0  0  0  0  0  0  0  0  0  0  0
  150.4616  142.8808  156.5998 N   0  3  0  0  0  0  0  0  0  0  0  0
  150.7462  141.6554  156.0780 C   0  0  0  0  0  0  0  0  0  0  0  0
  151.6311  141.0492  156.9153 N   0  0  0  0  0  0  0  0  0  0  0  0
  152.2667  139.7278  156.8255 C   0  0  0  0  0  0  0  0  0  0  0  0
  152.8129  139.4208  155.4167 C   0  0  2  0  0  0  0  0  0  0  0  0
  151.7234  139.1947  154.5434 O   0  0  0  0  0  0  0  0  0  0  0  0
  153.7190  138.1799  155.4106 C   0  0  0  0  0  0  0  0  0  0  0  0
  154.8879  138.4589  156.1696 O   0  0  0  0  0  0  0  0  0  0  0  0
  155.9198  137.4913  156.0235 C   0  0  0  0  0  0  0  0  0  0  0  0
  156.6693  137.7642  154.7555 C   0  0  0  0  0  0  0  0  0  0  0  0
  157.8696  138.3640  154.4913 C   0  0  0  0  0  0  0  0  0  0  0  0
  158.0460  138.3087  153.0810 C   0  0  0  0  0  0  0  0  0  0  0  0
  156.9433  137.6714  152.5883 C   0  0  0  0  0  0  0  0  0  0  0  0
  156.0961  137.3278  153.5961 O   0  0  0  0  0  0  0  0  0  0  0  0
  151.9272  141.8869  157.9954 C   0  0  0  0  0  0  0  0  0  0  0  0
  152.7589  141.7408  159.1027 C   0  0  0  0  0  0  0  0  0  0  0  0
  152.8214  142.8211  160.0120 C   0  0  0  0  0  0  0  0  0  0  0  0
  153.7261  142.6941  161.2260 C   0  0  0  0  0  0  0  0  0  0  0  0
  151.5030  145.9863  160.4742 H   0  0  0  0  0  0  0  0  0  0  0  0
  153.1604  145.5281  160.8574 H   0  0  0  0  0  0  0  0  0  0  0  0
  151.8119  144.8376  161.7735 H   0  0  0  0  0  0  0  0  0  0  0  0
  150.6401  145.0261  158.5018 H   0  0  0  0  0  0  0  0  0  0  0  0
  150.3467  141.2421  155.1631 H   0  0  0  0  0  0  0  0  0  0  0  0
  153.0606  139.6794  157.5722 H   0  0  0  0  0  0  0  0  0  0  0  0
  151.5226  138.9845  157.1156 H   0  0  0  0  0  0  0  0  0  0  0  0
  153.3767  140.2822  155.0572 H   0  0  0  0  0  0  0  0  0  0  0  0
  151.9996  138.5953  153.8673 H   0  0  0  0  0  0  0  0  0  0  0  0
  153.1889  137.3446  155.8701 H   0  0  0  0  0  0  0  0  0  0  0  0
  153.9695  137.8769  154.3924 H   0  0  0  0  0  0  0  0  0  0  0  0
  156.5870  137.4870  156.8868 H   0  0  0  0  0  0  0  0  0  0  0  0
  155.4616  136.5039  155.9672 H   0  0  0  0  0  0  0  0  0  0  0  0
  158.5376  138.7926  155.2237 H   0  0  0  0  0  0  0  0  0  0  0  0
  158.8757  138.6849  152.5008 H   0  0  0  0  0  0  0  0  0  0  0  0
  156.6189  137.3918  151.5968 H   0  0  0  0  0  0  0  0  0  0  0  0
  153.3386  140.8435  159.2624 H   0  0  0  0  0  0  0  0  0  0  0  0
  154.2185  141.7215  161.2567 H   0  0  0  0  0  0  0  0  0  0  0  0
  153.1524  142.8053  162.1463 H   0  0  0  0  0  0  0  0  0  0  0  0
  154.5020  143.4598  161.2055 H   0  0  0  0  0  0  0  0  0  0  0  0
  149.8298  143.5461  156.1726 H   0  0  0  0  0  0  0  0  0  0  0  0
  1  2  1  0  0  0  0
  1 23  1  0  0  0  0
  1 24  1  0  0  0  0
  1 25  1  0  0  0  0
  2 21  1  0  0  0  0
  2  3  2  0  0  0  0
  3  4  1  0  0  0  0
  3 26  1  0  0  0  0
  4 19  2  0  0  0  0
  4  5  1  0  0  0  0
  5  6  2  0  0  0  0
  5 43  1  0  0  0  0
  6  7  1  0  0  0  0
  6 27  1  0  0  0  0
  7  8  1  0  0  0  0
  7 19  1  0  0  0  0
  8  9  1  0  0  0  0
  8 28  1  0  0  0  0
  8 29  1  0  0  0  0
  9 10  1  0  0  0  0
  9 11  1  0  0  0  0
  9 30  1  0  0  0  0
 10 31  1  0  0  0  0
 11 12  1  0  0  0  0
 11 32  1  0  0  0  0
 11 33  1  0  0  0  0
 12 13  1  0  0  0  0
 13 14  1  0  0  0  0
 13 34  1  0  0  0  0
 13 35  1  0  0  0  0
 14 18  1  0  0  0  0
 14 15  2  0  0  0  0
 15 16  1  0  0  0  0
 15 36  1  0  0  0  0
 16 17  2  0  0  0  0
 16 37  1  0  0  0  0
 17 18  1  0  0  0  0
 17 38  1  0  0  0  0
 19 20  1  0  0  0  0
 20 21  2  0  0  0  0
 20 39  1  0  0  0  0
 21 22  1  0  0  0  0
 22 40  1  0  0  0  0
 22 41  1  0  0  0  0
 22 42  1  0  0  0  0
M  CHG  1   5   1
M  END
> <s_m_source_file>
AV-unprocessed.smi

> <i_m_source_file_index>
473

> <i_lp_mmshare_version>
43012

> <i_f3d_flags>
0

> <s_epik_input>
W0NIM11jKFtjSF0xKWMoW0NIM10pW2NIXWMoYzEyKW4oW2NIXW4yKVtDSDJdW0NASF0oW09IXSlbQ0gyXU9bQ0gyXWMzW2NIXVtjSF1bY0hdbzM=

> <s_epik_cmdline>
J2VwaWtfcHl0aG9uJywgJy1waCcsICc3LjAnLCAnLXRuJywgJzgnLCAnLW1hJywgJzIwMCcsICctbWV0YWxfYmluZGluZycsICctaW1hZScsICc8aW5maWxlLm1hZT4nLCAnLW9tYWUnLCAnPG91dGZpbGUubWFlPic=

> <r_epik_Ionization_Penalty>
1.03981

> <r_epik_Ionization_Penalty_Charging>
1.03981

> <r_epik_Ionization_Penalty_Neutral>
9.34185e-07

> <r_epik_State_Penalty>
1.09172

> <r_epik_Charging_Adjusted_Penalty>
2.13153

> <i_epik_Tot_Q>
1

> <i_epik_Tot_abs_Q>
1

> <r_epik_Metal_State_Penalty>
5.0824

> <b_epik_Metal_Only>
0

> <s_lp_Force_Field>
OPLS_2005

> <r_lp_Energy>
14.0474

> <b_lp_Chiralities_Consistent>
1

> <s_lp_Variant>
AV-unprocessed.smi:473-3

> <Gold.Version>
5.8.1

> <Gold.Id.Protein>
6NUR|6NUR_protein|mol2

> <Gold.PLP.Fitness>
59.4647

> <Gold.PLP.PLP>
-45.8788

> <Gold.PLP.part.hbond>
-3.5183

> <Gold.PLP.part.metal>
0.0000

> <Gold.PLP.part.buried>
0.9860

> <Gold.PLP.part.nonpolar>
-44.1409

> <Gold.PLP.part.repulsive>
0.1040

> <Gold.PLP.ligand.clash>
0.0000

> <Gold.PLP.ligand.torsion>
0.6634

> <Gold.PLP.Chemscore.Hbond>
3.9212

> <Gold.PLP.Chemscore.CHOScore>
1.0000

> <Gold.PLP.Chemscore.Metal>
0.0000

> <Gold.Chemscore.Hbonds>
donor molecule, donor type, donor heavy atom, donor atom, acceptor molecule, acceptor atom, score
      L1  H     5    43       P1  8028  2.00
      P1  H  7989  7998       L1    10  0.95
      P1  H 10752 10765       L1    18  0.43
      L1  C    17    38       P1 10674  0.61

> <Gold.PLP.Chemscore.Internal.Correction>
0.1490

> <Gold.Rescore>
     Score         DG    S(hbond)    S(metal)    S(lipo)     H(rot)  DE(clash)    DE(int)     intcor
     21.63     -23.17       1.84        0.00     153.13       2.49       0.75       0.79       ----

> <Gold.Chemscore.Fitness>
21.6343

> <Gold.Chemscore.DG>
-23.1679

> <Gold.Chemscore.ZeroCoef>
-5.4800

> <Gold.Chemscore.Hbond>
1.8411

> <Gold.Chemscore.Metal>
0.0000

> <Gold.Chemscore.Lipo>
153.1322

> <Gold.Chemscore.Internal_Hbond>
0.0000

> <Gold.Chemscore.DEClash>
0.7484

> <Gold.Chemscore.DEInternal>
0.7852

> <Gold.Chemscore.Rot>
2.4913

> <Gold.Chemscore.Internal.Correction>
   9.000000E+99

> <Gold.Chemscore.Hbonds>
donor molecule, donor type, donor heavy atom, donor atom, acceptor molecule, acceptor atom, score
      L1  H     5    43       P1  8028  0.98
      P1  H  7989  7998       L1    10  0.08
      P1  H 10752 10765       L1    18  0.40

> <Gold.Chemscore.Hbond.Weighted>
-6.1493

> <Gold.Chemscore.Metal.Weighted>
-0.0000

> <Gold.Chemscore.Lipo.Weighted>
-17.9165

> <Gold.Chemscore.Internal_Hbond.Weighted>
0.0000

> <Gold.Chemscore.DEClash.Weighted>
0.7484

> <Gold.Chemscore.DEInternal.Weighted>
0.7852

> <Gold.Chemscore.Rot.Weighted>
6.3778

> <Gold.Chemscore.Internal.Correction.Weighted>
   9.000000E+99

> <Gold.Protein.RotatedTorsions>
[ 6907 6896 6895 6894 ] final  -58.39 input  -60.11 | X-H torsion
[ 7974 7965 7964 7962 ] final   25.59 input  175.53 | X-H torsion
[ 8008 7997 7996 7995 ] final  -29.86 input   59.86 | X-H torsion
[ 10167 10162 10161 10158 ] final  145.88 input  -65.29 | X-H torsion
[ 10718 10713 10712 10709 ] final  158.99 input   66.30 | X-H torsion
[ 10763 10752 10751 10750 ] final   30.05 input  -60.55 | X-H torsion
[ 11005 11000 10999 10996 ] final  101.10 input  -57.11 | X-H torsion

> <Gold.Protein.ActiveResidues>
 VAL166  LYS551  ARG553  GLY616  TRP617  ASP618  TYR619  PRO620  LYS621  CYS622 
 ASP623  PHE694  ASN695  SER759  ASP760  ASP761  ALA762  ILE779  LEU786  VAL792 
 PHE793  MET794  SER795  GLU796  ALA797  LYS798  CYS799  TRP800  GLU811  SER814 

> <Gold.Protein.RotatedAtoms>
  150.8011  134.7105  159.6600 H   0  0  0  0  0  0  0  0  0  0  0  0  # atno 6907 bound_to 6896
  152.4128  134.6091  160.0030 H   0  0  0  0  0  0  0  0  0  0  0  0  # atno 6908 bound_to 6896
  151.6329  133.3294  159.3149 H   0  0  0  0  0  0  0  0  0  0  0  0  # atno 6909 bound_to 6896
  146.1881  139.7445  142.8852 H   0  0  0  0  0  0  0  0  0  0  0  0  # atno 7974 bound_to 7965
  154.4273  140.1807  156.1316 H   0  0  0  0  0  0  0  0  0  0  0  0  # atno 8008 bound_to 7997
  156.0063  140.3355  155.6871 H   0  0  0  0  0  0  0  0  0  0  0  0  # atno 8009 bound_to 7997
  155.6173  140.0656  157.2679 H   0  0  0  0  0  0  0  0  0  0  0  0  # atno 8010 bound_to 7997
  139.4917  144.5870  151.6758 H   0  0  0  0  0  0  0  0  0  0  0  0  # atno 10167 bound_to 10162
  157.1704  131.0608  151.2186 H   0  0  0  0  0  0  0  0  0  0  0  0  # atno 10718 bound_to 10713
  153.0394  135.6474  154.0985 H   0  0  0  0  0  0  0  0  0  0  0  0  # atno 10763 bound_to 10752
  154.0694  135.2882  155.3312 H   0  0  0  0  0  0  0  0  0  0  0  0  # atno 10764 bound_to 10752
  154.6604  135.5393  153.8076 H   0  0  0  0  0  0  0  0  0  0  0  0  # atno 10765 bound_to 10752
  139.8772  134.9168  156.4855 H   0  0  0  0  0  0  0  0  0  0  0  0  # atno 11005 bound_to 11000
  145.3878  141.0368  143.3141 LP  0  0  0  0  0  0  0  0  0  0  0  0  # atno 17320 bound_to 7965
  144.8434  139.5435  143.6889 LP  0  0  0  0  0  0  0  0  0  0  0  0  # atno 17321 bound_to 7965
  140.5488  144.0459  150.6118 LP  0  0  0  0  0  0  0  0  0  0  0  0  # atno 17342 bound_to 10162
  140.3506  143.2965  152.0491 LP  0  0  0  0  0  0  0  0  0  0  0  0  # atno 17343 bound_to 10162
  157.4049  130.7353  149.6794 LP  0  0  0  0  0  0  0  0  0  0  0  0  # atno 17370 bound_to 10713
  155.9739  130.4111  150.3963 LP  0  0  0  0  0  0  0  0  0  0  0  0  # atno 17371 bound_to 10713
  140.8696  133.7998  155.9350 LP  0  0  0  0  0  0  0  0  0  0  0  0  # atno 17394 bound_to 11000
  140.8966  134.2430  157.5065 LP  0  0  0  0  0  0  0  0  0  0  0  0  # atno 17395 bound_to 11000

$$$$
