#       Name:                AV-unprocessed.smi:2181
#       Creating user name   scv26
#       Creation time:       Fri Mar 27 12:05:42 2020


#       File generated by GOLD software.
#

@<TRIPOS>MOLECULE
AV-unprocessed.smi:2181
    45    46     1
SMALL
NO_CHARGES


@<TRIPOS>ATOM
      1 ****        -1.9013   2.3503   1.7320 C.3            1 S1                 0.0000
      2 ****        -2.8365   1.1753   1.7016 C.2            1 S1                 0.0000
      3 ****        -4.1179   1.3739   1.4421 N.2            1 S1                 0.0000
      4 ****        -4.7157   0.1102   1.4709 O.3            1 S1                 0.0000
      5 ****        -3.7585  -0.8111   1.7487 C.2            1 S1                 0.0000
      6 ****        -4.1959  -2.2354   1.8148 C.3            1 S1                 0.0000
      7 ****        -2.5432  -0.2043   1.9080 C.2            1 S1                 0.0000
      8 ****        -1.2130  -0.8410   2.2184 C.3            1 S1                 0.0000
      9 ****        -0.4246  -1.0350   0.9239 C.2            1 S1                 0.0000
     10 ****        -0.5648  -2.0654   0.2655 O.2            1 S1                 0.0000
     11 ****         0.3949  -0.0327   0.5707 N.am           1 S1                 0.0000
     12 ****         1.2089   0.0237  -0.6424 C.3            1 S1                 0.0000
     13 ****         2.5014  -0.8164  -0.4746 C.3            1 S1                 0.0000
     14 ****         3.6975  -0.4059  -1.3589 C.3            1 S1                 0.0000
     15 ****         3.4082  -0.3225  -2.8716 C.3            1 S1                 0.0000
     16 ****         2.2368   0.5906  -3.3067 C.3            1 S1                 0.0000
     17 ****         1.9173   1.6566  -2.3577 N.am           1 S1                 0.0000
     18 ****         1.4193   1.4732  -1.1227 C.2            1 S1                 0.0000
     19 ****         1.1593   2.4252  -0.3874 O.2            1 S1                 0.0000
     20 ****        -1.5116   2.5611   0.7360 H              1 S1                 0.0000
     21 ****        -1.0507   2.1636   2.3872 H              1 S1                 0.0000
     22 ****        -2.4014   3.2502   2.0914 H              1 S1                 0.0000
     23 ****        -3.8295  -2.7896   0.9504 H              1 S1                 0.0000
     24 ****        -5.2833  -2.3134   1.8316 H              1 S1                 0.0000
     25 ****        -3.8099  -2.7168   2.7134 H              1 S1                 0.0000
     26 ****        -0.6322  -0.2344   2.9142 H              1 S1                 0.0000
     27 ****        -1.3389  -1.8112   2.7002 H              1 S1                 0.0000
     28 ****         0.4378   0.7757   1.1743 H              1 S1                 0.0000
     29 ****         0.6117  -0.4488  -1.4236 H              1 S1                 0.0000
     30 ****         2.8321  -0.7665   0.5638 H              1 S1                 0.0000
     31 ****         2.2650  -1.8657  -0.6559 H              1 S1                 0.0000
     32 ****         4.0905   0.5517  -1.0144 H              1 S1                 0.0000
     33 ****         4.5092  -1.1161  -1.1980 H              1 S1                 0.0000
     34 ****         4.3175   0.0309  -3.3592 H              1 S1                 0.0000
     35 ****         3.2385  -1.3249  -3.2663 H              1 S1                 0.0000
     36 ****         2.4702   1.0469  -4.2690 H              1 S1                 0.0000
     37 ****         1.3427  -0.0079  -3.4841 H              1 S1                 0.0000
     38 ****         2.0703   2.6054  -2.6681 H              1 S1                 0.0000
     39 ****        -4.5674   2.2489   1.2621 LP             1 S1                 0.0000
     40 ****        -5.1278  -0.0887   0.5818 LP             1 S1                 0.0000
     41 ****        -5.4221   0.0870   2.1784 LP             1 S1                 0.0000
     42 ****        -1.1950  -2.7763   0.5777 LP             1 S1                 0.0000
     43 ****        -0.0485  -2.1916  -0.5815 LP             1 S1                 0.0000
     44 ****         0.8068   2.2634   0.5344 LP             1 S1                 0.0000
     45 ****         1.3005   3.3606  -0.7116 LP             1 S1                 0.0000
@<TRIPOS>BOND
    1    1    2 1     
    2    1   20 1     
    3    1   21 1     
    4    1   22 1     
    5    2    7 1     
    6    2    3 2     
    7    3    4 1     
    8    4    5 1     
    9    5    6 1     
   10    5    7 2     
   11    6   23 1     
   12    6   24 1     
   13    6   25 1     
   14    7    8 1     
   15    8    9 1     
   16    8   26 1     
   17    8   27 1     
   18    9   10 2     
   19    9   11 am    
   20   11   12 1     
   21   11   28 1     
   22   12   18 1     
   23   12   13 1     
   24   12   29 1     
   25   13   14 1     
   26   13   30 1     
   27   13   31 1     
   28   14   15 1     
   29   14   32 1     
   30   14   33 1     
   31   15   16 1     
   32   15   34 1     
   33   15   35 1     
   34   16   17 1     
   35   16   36 1     
   36   16   37 1     
   37   17   18 am    
   38   17   38 1     
   39   18   19 2     
   40    3   39 1     
   41    4   40 1     
   42    4   41 1     
   43   10   42 1     
   44   10   43 1     
   45   19   44 1     
   46   19   45 1     
@<TRIPOS>SUBSTRUCTURE
      1 S1             1
@<TRIPOS>SET
LONE_PAIRS      STATIC     ATOMS    <user>   **** ""
7 39 40 41 42 43 44 45
DONOR_HYDROGENS      STATIC     ATOMS    <user>   **** ""
2 28 38
ATOM$BLUE        STATIC     ATOMS    COLORGROUP SYSTEM
7 39 40 41 42 43 44 45
ATOM$RED        STATIC     ATOMS    COLORGROUP SYSTEM
2 28 38
