#       Name:                AV-unprocessed.smi:1200
#       Creating user name   scv26
#       Creation time:       Fri Mar 27 04:04:27 2020


#       File generated by GOLD software.
#

@<TRIPOS>MOLECULE
AV-unprocessed.smi:1200
    48    49     1
SMALL
NO_CHARGES


@<TRIPOS>ATOM
      1 ****        -4.8925   3.7322   2.4447 C.3            1 S1                 0.0000
      2 ****        -4.4300   2.3775   2.1869 N.am           1 S1                 0.0000
      3 ****        -4.8410   1.6219   1.1582 C.2            1 S1                 0.0000
      4 ****        -5.6640   2.0015   0.3258 O.2            1 S1                 0.0000
      5 ****        -4.2347   0.2175   1.0534 C.3            1 S1                 0.0000
      6 ****        -2.7587   0.1852   0.9254 N.3            1 S1                 0.0000
      7 ****        -2.2826   0.8677  -0.2874 C.3            1 S1                 0.0000
      8 ****        -0.7444   0.8666  -0.3404 C.3            1 S1                 0.0000
      9 ****        -0.1855  -0.5623  -0.2906 C.3            1 S1                 0.0000
     10 ****         1.2724  -0.5288  -0.2023 N.am           1 S1                 0.0000
     11 ****         2.1258  -1.0218  -1.1117 C.2            1 S1                 0.0000
     12 ****         1.7705  -1.5886  -2.1446 O.2            1 S1                 0.0000
     13 ****         3.4008  -0.8282  -0.7319 N.am           1 S1                 0.0000
     14 ****         4.5939  -1.1890  -1.4155 C.ar           1 S1                 0.0000
     15 ****         5.7855  -1.2711  -0.6656 C.ar           1 S1                 0.0000
     16 ****         6.9858  -1.6109  -1.3181 C.ar           1 S1                 0.0000
     17 ****         6.9497  -1.8466  -2.7059 C.ar           1 S1                 0.0000
     18 ****         5.8223  -1.7571  -3.4421 N.ar           1 S1                 0.0000
     19 ****         4.6737  -1.4335  -2.8093 C.ar           1 S1                 0.0000
     20 ****        -0.7715  -1.2872   0.9289 C.3            1 S1                 0.0000
     21 ****        -2.3082  -1.2106   0.9319 C.3            1 S1                 0.0000
     22 ****        -4.3893   4.1356   3.3232 H              1 S1                 0.0000
     23 ****        -5.9672   3.7464   2.6305 H              1 S1                 0.0000
     24 ****        -4.6758   4.3849   1.5980 H              1 S1                 0.0000
     25 ****        -3.7497   1.9895   2.8245 H              1 S1                 0.0000
     26 ****        -4.5339  -0.3309   1.9478 H              1 S1                 0.0000
     27 ****        -4.6883  -0.3021   0.2071 H              1 S1                 0.0000
     28 ****        -2.6932   0.3857  -1.1765 H              1 S1                 0.0000
     29 ****        -2.6184   1.9044  -0.3092 H              1 S1                 0.0000
     30 ****        -0.4068   1.3672  -1.2486 H              1 S1                 0.0000
     31 ****        -0.3553   1.4492   0.4962 H              1 S1                 0.0000
     32 ****        -0.5073  -1.0896  -1.1905 H              1 S1                 0.0000
     33 ****         1.6623  -0.0882   0.6179 H              1 S1                 0.0000
     34 ****         3.5337  -0.4173   0.1806 H              1 S1                 0.0000
     35 ****         5.7819  -1.0809   0.3979 H              1 S1                 0.0000
     36 ****         7.9123  -1.6879  -0.7686 H              1 S1                 0.0000
     37 ****         7.8514  -2.1085  -3.2398 H              1 S1                 0.0000
     38 ****         3.8139  -1.3529  -3.4555 H              1 S1                 0.0000
     39 ****        -0.4548  -2.3308   0.9297 H              1 S1                 0.0000
     40 ****        -0.3856  -0.8459   1.8494 H              1 S1                 0.0000
     41 ****        -2.6821  -1.7147   1.8241 H              1 S1                 0.0000
     42 ****        -2.7146  -1.7457   0.0715 H              1 S1                 0.0000
     43 ****        -6.0621   2.9160   0.3973 LP             1 S1                 0.0000
     44 ****        -5.9347   1.3954  -0.4221 LP             1 S1                 0.0000
     45 ****        -2.3713   0.6793   1.7037 LP             1 S1                 0.0000
     46 ****         0.7970  -1.7022  -2.3431 LP             1 S1                 0.0000
     47 ****         2.4553  -1.9356  -2.7854 LP             1 S1                 0.0000
     48 ****         5.8368  -1.9255  -4.4277 LP             1 S1                 0.0000
@<TRIPOS>BOND
    1    1    2 1     
    2    1   22 1     
    3    1   23 1     
    4    1   24 1     
    5    2    3 am    
    6    2   25 1     
    7    3    4 2     
    8    3    5 1     
    9    5    6 1     
   10    5   26 1     
   11    5   27 1     
   12    6   21 1     
   13    6    7 1     
   14    7    8 1     
   15    7   28 1     
   16    7   29 1     
   17    8    9 1     
   18    8   30 1     
   19    8   31 1     
   20    9   10 1     
   21    9   20 1     
   22    9   32 1     
   23   10   11 am    
   24   10   33 1     
   25   11   12 2     
   26   11   13 am    
   27   13   14 1     
   28   13   34 1     
   29   14   19 ar    
   30   14   15 ar    
   31   15   16 ar    
   32   15   35 1     
   33   16   17 ar    
   34   16   36 1     
   35   17   18 ar    
   36   17   37 1     
   37   18   19 ar    
   38   19   38 1     
   39   20   21 1     
   40   20   39 1     
   41   20   40 1     
   42   21   41 1     
   43   21   42 1     
   44    4   43 1     
   45    4   44 1     
   46    6   45 1     
   47   12   46 1     
   48   12   47 1     
   49   18   48 1     
@<TRIPOS>SUBSTRUCTURE
      1 S1             1
@<TRIPOS>SET
LONE_PAIRS      STATIC     ATOMS    <user>   **** ""
6 43 44 45 46 47 48
DONOR_HYDROGENS      STATIC     ATOMS    <user>   **** ""
3 25 33 34
ATOM$BLUE        STATIC     ATOMS    COLORGROUP SYSTEM
6 43 44 45 46 47 48
ATOM$RED        STATIC     ATOMS    COLORGROUP SYSTEM
3 25 33 34
