AV-unprocessed.smi:1604|AV-procd|sdf|6449|dock10
  -GOLD-   22720 7103D 1   1.00000     0.00000
 Structure written by MMmdl.
 47 49  0  0  0  0  0  0  0  0  2 V2000
  147.1812  137.6048  152.8237 O   0  0  0  0  0  0  0  0  0  0  0  0
  146.2188  138.3681  152.9063 C   0  0  0  0  0  0  0  0  0  0  0  0
  146.2685  139.6183  153.3931 N   0  0  0  0  0  0  0  0  0  0  0  0
  147.3847  140.2594  153.9963 C   0  0  0  0  0  0  0  0  0  0  0  0
  148.6725  139.6680  153.9475 C   0  0  0  0  0  0  0  0  0  0  0  0
  149.7791  140.3518  154.4848 C   0  0  0  0  0  0  0  0  0  0  0  0
  149.5833  141.6240  155.0493 C   0  0  0  0  0  0  0  0  0  0  0  0
  148.3469  142.1637  155.0712 N   0  3  0  0  0  0  0  0  0  0  0  0
  147.2394  141.5492  154.5844 C   0  0  0  0  0  0  0  0  0  0  0  0
  146.0044  142.2290  154.6914 N   0  0  0  0  0  0  0  0  0  0  0  0
  145.7573  143.4376  153.9139 C   0  0  0  0  0  0  0  0  0  0  0  0
  144.5136  144.0630  154.5394 C   0  0  0  0  0  0  0  0  0  0  0  0
  144.6880  143.7297  156.0180 C   0  0  0  0  0  0  0  0  0  0  0  0
  145.3785  142.3617  156.0041 C   0  0  0  0  0  0  0  0  0  0  0  0
  144.9706  138.0376  152.5431 N   0  0  0  0  0  0  0  0  0  0  0  0
  144.5466  136.7179  152.0702 C   0  0  2  0  0  0  0  0  0  0  0  0
  144.8981  135.6916  153.1716 C   0  0  0  0  0  0  0  0  0  0  0  0
  144.0778  134.3924  153.0937 C   0  0  0  0  0  0  0  0  0  0  0  0
  144.3245  133.5427  151.8378 C   0  0  0  0  0  0  0  0  0  0  0  0
  143.9424  134.2507  150.5266 C   0  0  0  0  0  0  0  0  0  0  0  0
  144.9454  135.2249  150.1169 N   0  0  0  0  0  0  0  0  0  0  0  0
  145.2954  136.3439  150.7692 C   0  0  0  0  0  0  0  0  0  0  0  0
  146.2023  137.0573  150.3390 O   0  0  0  0  0  0  0  0  0  0  0  0
  145.3842  140.0964  153.4857 H   0  0  0  0  0  0  0  0  0  0  0  0
  148.8286  138.7047  153.4846 H   0  0  0  0  0  0  0  0  0  0  0  0
  150.7648  139.9110  154.4527 H   0  0  0  0  0  0  0  0  0  0  0  0
  150.3724  142.2243  155.4786 H   0  0  0  0  0  0  0  0  0  0  0  0
  146.5979  144.1265  154.0051 H   0  0  0  0  0  0  0  0  0  0  0  0
  145.6091  143.2110  152.8576 H   0  0  0  0  0  0  0  0  0  0  0  0
  144.4337  145.1334  154.3484 H   0  0  0  0  0  0  0  0  0  0  0  0
  143.6155  143.5797  154.1520 H   0  0  0  0  0  0  0  0  0  0  0  0
  145.3437  144.4671  156.4832 H   0  0  0  0  0  0  0  0  0  0  0  0
  143.7465  143.7236  156.5682 H   0  0  0  0  0  0  0  0  0  0  0  0
  144.6374  141.5706  156.1216 H   0  0  0  0  0  0  0  0  0  0  0  0
  146.1015  142.2749  156.8166 H   0  0  0  0  0  0  0  0  0  0  0  0
  144.2445  138.7303  152.6506 H   0  0  0  0  0  0  0  0  0  0  0  0
  143.4692  136.7292  151.8950 H   0  0  0  0  0  0  0  0  0  0  0  0
  145.9658  135.4642  153.1690 H   0  0  0  0  0  0  0  0  0  0  0  0
  144.6984  136.1357  154.1482 H   0  0  0  0  0  0  0  0  0  0  0  0
  144.3060  133.7862  153.9710 H   0  0  0  0  0  0  0  0  0  0  0  0
  143.0158  134.6302  153.1671 H   0  0  0  0  0  0  0  0  0  0  0  0
  145.3648  133.2166  151.8008 H   0  0  0  0  0  0  0  0  0  0  0  0
  143.7299  132.6323  151.9234 H   0  0  0  0  0  0  0  0  0  0  0  0
  143.8689  133.5117  149.7286 H   0  0  0  0  0  0  0  0  0  0  0  0
  142.9604  134.7197  150.6015 H   0  0  0  0  0  0  0  0  0  0  0  0
  145.4464  135.0153  149.2656 H   0  0  0  0  0  0  0  0  0  0  0  0
  148.2377  143.0880  155.4886 H   0  0  0  0  0  0  0  0  0  0  0  0
  1  2  2  0  0  0  0
  2  3  1  0  0  0  0
  2 15  1  0  0  0  0
  3  4  1  0  0  0  0
  3 24  1  0  0  0  0
  4  9  1  0  0  0  0
  4  5  2  0  0  0  0
  5  6  1  0  0  0  0
  5 25  1  0  0  0  0
  6  7  2  0  0  0  0
  6 26  1  0  0  0  0
  7  8  1  0  0  0  0
  7 27  1  0  0  0  0
  8  9  2  0  0  0  0
  8 47  1  0  0  0  0
  9 10  1  0  0  0  0
 10 14  1  0  0  0  0
 10 11  1  0  0  0  0
 11 12  1  0  0  0  0
 11 28  1  0  0  0  0
 11 29  1  0  0  0  0
 12 13  1  0  0  0  0
 12 30  1  0  0  0  0
 12 31  1  0  0  0  0
 13 14  1  0  0  0  0
 13 32  1  0  0  0  0
 13 33  1  0  0  0  0
 14 34  1  0  0  0  0
 14 35  1  0  0  0  0
 15 16  1  0  0  0  0
 15 36  1  0  0  0  0
 16 22  1  0  0  0  0
 16 17  1  0  0  0  0
 16 37  1  0  0  0  0
 17 18  1  0  0  0  0
 17 38  1  0  0  0  0
 17 39  1  0  0  0  0
 18 19  1  0  0  0  0
 18 40  1  0  0  0  0
 18 41  1  0  0  0  0
 19 20  1  0  0  0  0
 19 42  1  0  0  0  0
 19 43  1  0  0  0  0
 20 21  1  0  0  0  0
 20 44  1  0  0  0  0
 20 45  1  0  0  0  0
 21 22  1  0  0  0  0
 21 46  1  0  0  0  0
 22 23  2  0  0  0  0
M  CHG  1   8   1
M  END
> <s_m_source_file>
AV-unprocessed.smi

> <i_m_source_file_index>
1604

> <i_lp_mmshare_version>
43012

> <i_f3d_flags>
0

> <s_epik_input>
Tz1DMVtOSF1bQ0gyXVtDSDJdW0NIMl1bQ0gyXVtDQEhdMVtOSF1DKD1PKVtOSF1jMltjSF1bY0hdW2NIXW5jMk4zW0NIMl1bQ0gyXVtDSDJdW0NIMl0z

> <s_epik_cmdline>
J2VwaWtfcHl0aG9uJywgJy1waCcsICc3LjAnLCAnLXRuJywgJzgnLCAnLW1hJywgJzIwMCcsICctbWV0YWxfYmluZGluZycsICctaW1hZScsICc8aW5maWxlLm1hZT4nLCAnLW9tYWUnLCAnPG91dGZpbGUubWFlPic=

> <r_lp_tautomer_probability>
0.999994

> <r_epik_Ionization_Penalty>
1.20452

> <r_epik_Ionization_Penalty_Charging>
1.2045

> <r_epik_Ionization_Penalty_Neutral>
1.88134e-05

> <r_epik_State_Penalty>
1.2704

> <r_epik_Charging_Adjusted_Penalty>
2.4749

> <i_epik_Tot_Q>
1

> <i_epik_Tot_abs_Q>
1

> <r_epik_Metal_State_Penalty>
1.34433

> <b_epik_Metal_Only>
0

> <s_lp_Force_Field>
OPLS_2005

> <r_lp_Energy>
45.117

> <b_lp_Chiralities_Consistent>
1

> <s_lp_Variant>
AV-unprocessed.smi:1604-3

> <Gold.Version>
5.8.1

> <Gold.Id.Protein>
6NUR|6NUR_protein|mol2

> <Gold.PLP.Fitness>
47.9922

> <Gold.PLP.PLP>
-30.5889

> <Gold.PLP.part.hbond>
-6.0000

> <Gold.PLP.part.metal>
0.0000

> <Gold.PLP.part.buried>
0.4142

> <Gold.PLP.part.nonpolar>
-30.7021

> <Gold.PLP.part.repulsive>
6.7830

> <Gold.PLP.ligand.clash>
0.0000

> <Gold.PLP.ligand.torsion>
0.2114

> <Gold.PLP.Chemscore.Hbond>
5.8160

> <Gold.PLP.Chemscore.CHOScore>
0.0000

> <Gold.PLP.Chemscore.Metal>
0.0000

> <Gold.Chemscore.Hbonds>
donor molecule, donor type, donor heavy atom, donor atom, acceptor molecule, acceptor atom, score
      L1  H     3    24       P1 10175  0.83
      L1  H     8    47       P1  8028  1.92
      L1  H    15    36       P1 10175  1.00
      L1  H    21    46       P1  7921  1.00
      P1  H  7954  7966       L1    23  0.54

> <Gold.PLP.Chemscore.Internal.Correction>
0.3781

> <Gold.Rescore>
     Score         DG    S(hbond)    S(metal)    S(lipo)     H(rot)  DE(clash)    DE(int)     intcor
     14.54     -25.48       4.41        0.00      72.51       1.26       5.85       5.09       ----

> <Gold.Chemscore.Fitness>
14.5422

> <Gold.Chemscore.DG>
-25.4832

> <Gold.Chemscore.ZeroCoef>
-5.4800

> <Gold.Chemscore.Hbond>
4.4120

> <Gold.Chemscore.Metal>
0.0000

> <Gold.Chemscore.Lipo>
72.5135

> <Gold.Chemscore.Internal_Hbond>
0.0000

> <Gold.Chemscore.DEClash>
5.8512

> <Gold.Chemscore.DEInternal>
5.0898

> <Gold.Chemscore.Rot>
1.2566

> <Gold.Chemscore.Internal.Correction>
   9.000000E+99

> <Gold.Chemscore.Hbonds>
donor molecule, donor type, donor heavy atom, donor atom, acceptor molecule, acceptor atom, score
      L1  H     3    24       P1 10175  0.79
      L1  H     8    47       P1  8028  0.87
      L1  H    15    36       P1 10175  0.94
      L1  H    21    46       P1  7921  1.00
      P1  H  7954  7966       L1    23  0.52

> <Gold.Chemscore.Hbond.Weighted>
-14.7360

> <Gold.Chemscore.Metal.Weighted>
-0.0000

> <Gold.Chemscore.Lipo.Weighted>
-8.4841

> <Gold.Chemscore.Internal_Hbond.Weighted>
0.0000

> <Gold.Chemscore.DEClash.Weighted>
5.8512

> <Gold.Chemscore.DEInternal.Weighted>
5.0898

> <Gold.Chemscore.Rot.Weighted>
3.2168

> <Gold.Chemscore.Internal.Correction.Weighted>
   9.000000E+99

> <Gold.Protein.RotatedTorsions>
[ 6907 6896 6895 6894 ] final  -33.88 input  -60.11 | X-H torsion
[ 7974 7965 7964 7962 ] final  -29.89 input  175.53 | X-H torsion
[ 8008 7997 7996 7995 ] final   74.03 input   59.86 | X-H torsion
[ 10167 10162 10161 10158 ] final  -40.05 input  -65.29 | X-H torsion
[ 10718 10713 10712 10709 ] final  162.65 input   66.30 | X-H torsion
[ 10763 10752 10751 10750 ] final  -82.68 input  -60.55 | X-H torsion
[ 11005 11000 10999 10996 ] final  -94.11 input  -57.11 | X-H torsion

> <Gold.Protein.ActiveResidues>
 VAL166  LYS551  ARG553  GLY616  TRP617  ASP618  TYR619  PRO620  LYS621  CYS622 
 ASP623  PHE694  ASN695  SER759  ASP760  ASP761  ALA762  ILE779  LEU786  VAL792 
 PHE793  MET794  SER795  GLU796  ALA797  LYS798  CYS799  TRP800  GLU811  SER814 

> <Gold.Protein.RotatedAtoms>
  151.0598  134.9729  159.8254 H   0  0  0  0  0  0  0  0  0  0  0  0  # atno 6907 bound_to 6896
  152.5394  134.2432  159.8880 H   0  0  0  0  0  0  0  0  0  0  0  0  # atno 6908 bound_to 6896
  151.2451  133.4336  159.2642 H   0  0  0  0  0  0  0  0  0  0  0  0  # atno 6909 bound_to 6896
  146.1183  140.5471  142.8747 H   0  0  0  0  0  0  0  0  0  0  0  0  # atno 7974 bound_to 7965
  155.7924  140.3479  155.5357 H   0  0  0  0  0  0  0  0  0  0  0  0  # atno 8008 bound_to 7997
  155.8620  140.0973  157.1627 H   0  0  0  0  0  0  0  0  0  0  0  0  # atno 8009 bound_to 7997
  154.4012  140.1356  156.3960 H   0  0  0  0  0  0  0  0  0  0  0  0  # atno 8010 bound_to 7997
  140.7046  143.3176  151.2870 H   0  0  0  0  0  0  0  0  0  0  0  0  # atno 10167 bound_to 10162
  157.1195  131.0488  151.2421 H   0  0  0  0  0  0  0  0  0  0  0  0  # atno 10718 bound_to 10713
  154.5787  135.5582  153.7164 H   0  0  0  0  0  0  0  0  0  0  0  0  # atno 10763 bound_to 10752
  153.0074  135.6315  154.2013 H   0  0  0  0  0  0  0  0  0  0  0  0  # atno 10764 bound_to 10752
  154.1953  135.2880  155.2988 H   0  0  0  0  0  0  0  0  0  0  0  0  # atno 10765 bound_to 10752
  141.1479  133.7934  157.0253 H   0  0  0  0  0  0  0  0  0  0  0  0  # atno 11005 bound_to 11000
  144.7573  140.5339  143.6760 LP  0  0  0  0  0  0  0  0  0  0  0  0  # atno 17320 bound_to 7965
  145.5520  139.1477  143.3389 LP  0  0  0  0  0  0  0  0  0  0  0  0  # atno 17321 bound_to 7965
  139.6620  144.0172  152.2698 LP  0  0  0  0  0  0  0  0  0  0  0  0  # atno 17342 bound_to 10162
  139.9742  144.6473  150.7960 LP  0  0  0  0  0  0  0  0  0  0  0  0  # atno 17343 bound_to 10162
  157.4489  130.7587  149.7134 LP  0  0  0  0  0  0  0  0  0  0  0  0  # atno 17370 bound_to 10713
  155.9832  130.4003  150.3377 LP  0  0  0  0  0  0  0  0  0  0  0  0  # atno 17371 bound_to 10713
  140.0789  134.9659  157.1592 LP  0  0  0  0  0  0  0  0  0  0  0  0  # atno 17394 bound_to 11000
  140.3604  134.2500  155.7188 LP  0  0  0  0  0  0  0  0  0  0  0  0  # atno 17395 bound_to 11000

$$$$
