AV-unprocessed.smi:1709|AV-procd|sdf|6896|dock2
  -GOLD-   22720 8103D 1   1.00000     0.00000
 Structure written by MMmdl.
 43 45  0  0  0  0  0  0  0  0  2 V2000
  144.6460  133.8112  150.4678 C   0  0  0  0  0  0  0  0  0  0  0  0
  145.4203  132.7567  151.2427 C   0  0  0  0  0  0  0  0  0  0  0  0
  145.1816  131.3925  150.9715 C   0  0  0  0  0  0  0  0  0  0  0  0
  145.8961  130.4157  151.6847 C   0  0  0  0  0  0  0  0  0  0  0  0
  146.8253  130.8476  152.6454 C   0  0  0  0  0  0  0  0  0  0  0  0
  147.0599  132.1493  152.9099 N   0  0  0  0  0  0  0  0  0  0  0  0
  146.3786  133.1086  152.2315 C   0  0  0  0  0  0  0  0  0  0  0  0
  146.5656  134.5102  152.4438 N   0  0  0  0  0  0  0  0  0  0  0  0
  145.7183  135.4834  152.8417 C   0  0  0  0  0  0  0  0  0  0  0  0
  144.5399  135.2353  153.0913 O   0  0  0  0  0  0  0  0  0  0  0  0
  146.2331  136.7196  152.9393 N   0  0  0  0  0  0  0  0  0  0  0  0
  145.4973  137.9220  153.3134 C   0  0  1  0  0  0  0  0  0  0  0  0
  144.5481  137.6948  154.5034 C   0  0  0  0  0  0  0  0  0  0  0  0
  144.6369  138.9804  155.3492 C   0  0  0  0  0  0  0  0  0  0  0  0
  145.5078  139.8927  154.5839 N   0  3  1  0  0  0  0  0  0  0  0  0
  146.2120  140.9481  155.3443 C   0  0  0  0  0  0  0  0  0  0  0  0
  146.9998  141.8410  154.3648 C   0  0  0  0  0  0  0  0  0  0  0  0
  147.9290  141.0115  153.4550 C   0  0  0  0  0  0  0  0  0  0  0  0
  147.1576  139.8712  152.7631 C   0  0  0  0  0  0  0  0  0  0  0  0
  146.4227  139.0305  153.8208 C   0  0  2  0  0  0  0  0  0  0  0  0
  143.9678  133.3556  149.7458 H   0  0  0  0  0  0  0  0  0  0  0  0
  145.3286  134.4623  149.9205 H   0  0  0  0  0  0  0  0  0  0  0  0
  144.0509  134.4233  151.1463 H   0  0  0  0  0  0  0  0  0  0  0  0
  144.4601  131.0944  150.2250 H   0  0  0  0  0  0  0  0  0  0  0  0
  145.7361  129.3639  151.4996 H   0  0  0  0  0  0  0  0  0  0  0  0
  147.3967  130.1308  153.2162 H   0  0  0  0  0  0  0  0  0  0  0  0
  147.5144  134.8238  152.3000 H   0  0  0  0  0  0  0  0  0  0  0  0
  147.2130  136.8331  152.7190 H   0  0  0  0  0  0  0  0  0  0  0  0
  144.9099  138.2931  152.4708 H   0  0  0  0  0  0  0  0  0  0  0  0
  143.5304  137.5032  154.1618 H   0  0  0  0  0  0  0  0  0  0  0  0
  144.8578  136.8374  155.1034 H   0  0  0  0  0  0  0  0  0  0  0  0
  143.6605  139.4330  155.5232 H   0  0  0  0  0  0  0  0  0  0  0  0
  145.0857  138.7587  156.3188 H   0  0  0  0  0  0  0  0  0  0  0  0
  145.4875  141.5453  155.8988 H   0  0  0  0  0  0  0  0  0  0  0  0
  146.8846  140.4951  156.0743 H   0  0  0  0  0  0  0  0  0  0  0  0
  146.2985  142.4015  153.7450 H   0  0  0  0  0  0  0  0  0  0  0  0
  147.5803  142.5806  154.9170 H   0  0  0  0  0  0  0  0  0  0  0  0
  148.3981  141.6545  152.7096 H   0  0  0  0  0  0  0  0  0  0  0  0
  148.7387  140.5905  154.0522 H   0  0  0  0  0  0  0  0  0  0  0  0
  146.4448  140.2834  152.0476 H   0  0  0  0  0  0  0  0  0  0  0  0
  147.8485  139.2487  152.1943 H   0  0  0  0  0  0  0  0  0  0  0  0
  147.1514  138.5996  154.5119 H   0  0  0  0  0  0  0  0  0  0  0  0
  144.9172  140.3517  153.9052 H   0  0  0  0  0  0  0  0  0  0  0  0
  1  2  1  0  0  0  0
  1 21  1  0  0  0  0
  1 22  1  0  0  0  0
  1 23  1  0  0  0  0
  2  7  1  0  0  0  0
  2  3  2  0  0  0  0
  3  4  1  0  0  0  0
  3 24  1  0  0  0  0
  4  5  2  0  0  0  0
  4 25  1  0  0  0  0
  5  6  1  0  0  0  0
  5 26  1  0  0  0  0
  6  7  2  0  0  0  0
  7  8  1  0  0  0  0
  8  9  1  0  0  0  0
  8 27  1  0  0  0  0
  9 10  2  0  0  0  0
  9 11  1  0  0  0  0
 11 12  1  0  0  0  0
 11 28  1  0  0  0  0
 12 20  1  0  0  0  0
 12 13  1  0  0  0  0
 12 29  1  0  0  0  0
 13 14  1  0  0  0  0
 13 30  1  0  0  0  0
 13 31  1  0  0  0  0
 14 15  1  0  0  0  0
 14 32  1  0  0  0  0
 14 33  1  0  0  0  0
 15 20  1  0  0  0  0
 15 16  1  0  0  0  0
 15 43  1  0  0  0  0
 16 17  1  0  0  0  0
 16 34  1  0  0  0  0
 16 35  1  0  0  0  0
 17 18  1  0  0  0  0
 17 36  1  0  0  0  0
 17 37  1  0  0  0  0
 18 19  1  0  0  0  0
 18 38  1  0  0  0  0
 18 39  1  0  0  0  0
 19 20  1  0  0  0  0
 19 40  1  0  0  0  0
 19 41  1  0  0  0  0
 20 42  1  0  0  0  0
M  CHG  1  15   1
M  END
> <s_m_source_file>
AV-unprocessed.smi

> <i_m_source_file_index>
1709

> <i_lp_mmshare_version>
43012

> <i_f3d_flags>
0

> <s_epik_input>
W0NIM11jMVtjSF1bY0hdW2NIXW5jMVtOSF1DKD1PKVtOSF1bQ0BIXShbQ0gyXVtDSDJdMilbQ0BASF0oTjIzKVtDSDJdW0NIMl1bQ0gyXVtDSDJdMw==

> <s_epik_cmdline>
J2VwaWtfcHl0aG9uJywgJy1waCcsICc3LjAnLCAnLXRuJywgJzgnLCAnLW1hJywgJzIwMCcsICctbWV0YWxfYmluZGluZycsICctaW1hZScsICc8aW5maWxlLm1hZT4nLCAnLW9tYWUnLCAnPG91dGZpbGUubWFlPic=

> <r_epik_Ionization_Penalty>
0.00101524

> <r_epik_Ionization_Penalty_Charging>
0.000974069

> <r_epik_Ionization_Penalty_Neutral>
4.11757e-05

> <r_epik_State_Penalty>
0.000633842

> <r_epik_Charging_Adjusted_Penalty>
0.00160791

> <i_epik_Tot_Q>
1

> <i_epik_Tot_abs_Q>
1

> <r_epik_Metal_State_Penalty>
-0

> <b_epik_Metal_Only>
0

> <s_lp_Force_Field>
OPLS_2005

> <r_lp_Energy>
38.4546

> <b_lp_Chiralities_Consistent>
1

> <s_lp_Variant>
AV-unprocessed.smi:1709-6

> <Gold.Version>
5.8.1

> <Gold.Id.Protein>
6NUR|6NUR_protein|mol2

> <Gold.PLP.Fitness>
38.0922

> <Gold.PLP.PLP>
-27.7253

> <Gold.PLP.part.hbond>
-3.0000

> <Gold.PLP.part.metal>
0.0000

> <Gold.PLP.part.buried>
-0.5192

> <Gold.PLP.part.nonpolar>
-24.4635

> <Gold.PLP.part.repulsive>
0.1864

> <Gold.PLP.ligand.clash>
0.0000

> <Gold.PLP.ligand.torsion>
0.8219

> <Gold.PLP.Chemscore.Hbond>
4.0000

> <Gold.PLP.Chemscore.CHOScore>
0.0000

> <Gold.PLP.Chemscore.Metal>
0.0000

> <Gold.Chemscore.Hbonds>
donor molecule, donor type, donor heavy atom, donor atom, acceptor molecule, acceptor atom, score
      L1  H     8    27       P1  7948  1.00
      L1  H    11    28       P1  7948  1.00
      L1  H    15    43       P1 10175  2.00

> <Gold.PLP.Chemscore.Internal.Correction>
0.0108

> <Gold.Rescore>
     Score         DG    S(hbond)    S(metal)    S(lipo)     H(rot)  DE(clash)    DE(int)     intcor
     18.22     -20.85       2.75        0.00      74.91       1.00       0.36       2.28       ----

> <Gold.Chemscore.Fitness>
18.2170

> <Gold.Chemscore.DG>
-20.8537

> <Gold.Chemscore.ZeroCoef>
-5.4800

> <Gold.Chemscore.Hbond>
2.7453

> <Gold.Chemscore.Metal>
0.0000

> <Gold.Chemscore.Lipo>
74.9084

> <Gold.Chemscore.Internal_Hbond>
0.0000

> <Gold.Chemscore.DEClash>
0.3591

> <Gold.Chemscore.DEInternal>
2.2777

> <Gold.Chemscore.Rot>
1.0000

> <Gold.Chemscore.Internal.Correction>
   9.000000E+99

> <Gold.Chemscore.Hbonds>
donor molecule, donor type, donor heavy atom, donor atom, acceptor molecule, acceptor atom, score
      L1  H     8    27       P1  7948  0.84
      L1  H    11    28       P1  7948  0.90
      L1  H    15    43       P1 10175  0.99

> <Gold.Chemscore.Hbond.Weighted>
-9.1694

> <Gold.Chemscore.Metal.Weighted>
-0.0000

> <Gold.Chemscore.Lipo.Weighted>
-8.7643

> <Gold.Chemscore.Internal_Hbond.Weighted>
0.0000

> <Gold.Chemscore.DEClash.Weighted>
0.3591

> <Gold.Chemscore.DEInternal.Weighted>
2.2777

> <Gold.Chemscore.Rot.Weighted>
2.5600

> <Gold.Chemscore.Internal.Correction.Weighted>
   9.000000E+99

> <Gold.Protein.RotatedTorsions>
[ 6907 6896 6895 6894 ] final   45.65 input  -60.11 | X-H torsion
[ 7974 7965 7964 7962 ] final   66.52 input  175.53 | X-H torsion
[ 8008 7997 7996 7995 ] final   28.31 input   59.86 | X-H torsion
[ 10167 10162 10161 10158 ] final  -14.28 input  -65.29 | X-H torsion
[ 10718 10713 10712 10709 ] final  172.32 input   66.30 | X-H torsion
[ 10763 10752 10751 10750 ] final  -70.55 input  -60.55 | X-H torsion
[ 11005 11000 10999 10996 ] final -158.69 input  -57.11 | X-H torsion

> <Gold.Protein.ActiveResidues>
 VAL166  LYS551  ARG553  GLY616  TRP617  ASP618  TYR619  PRO620  LYS621  CYS622 
 ASP623  PHE694  ASN695  SER759  ASP760  ASP761  ALA762  ILE779  LEU786  VAL792 
 PHE793  MET794  SER795  GLU796  ALA797  LYS798  CYS799  TRP800  GLU811  SER814 

> <Gold.Protein.RotatedAtoms>
  152.2470  134.8171  160.0451 H   0  0  0  0  0  0  0  0  0  0  0  0  # atno 6907 bound_to 6896
  151.8864  133.3501  159.3792 H   0  0  0  0  0  0  0  0  0  0  0  0  # atno 6908 bound_to 6896
  150.7072  134.4893  159.5552 H   0  0  0  0  0  0  0  0  0  0  0  0  # atno 6909 bound_to 6896
  145.8256  139.3110  143.1017 H   0  0  0  0  0  0  0  0  0  0  0  0  # atno 7974 bound_to 7965
  155.0567  140.3185  155.4674 H   0  0  0  0  0  0  0  0  0  0  0  0  # atno 8008 bound_to 7997
  156.2822  140.2136  156.5637 H   0  0  0  0  0  0  0  0  0  0  0  0  # atno 8009 bound_to 7997
  154.7166  140.0493  157.0588 H   0  0  0  0  0  0  0  0  0  0  0  0  # atno 8010 bound_to 7997
  140.7198  143.5337  150.9489 H   0  0  0  0  0  0  0  0  0  0  0  0  # atno 10167 bound_to 10162
  156.9807  131.0118  151.2882 H   0  0  0  0  0  0  0  0  0  0  0  0  # atno 10718 bound_to 10713
  154.4193  135.5990  153.6000 H   0  0  0  0  0  0  0  0  0  0  0  0  # atno 10763 bound_to 10752
  152.9793  135.5948  154.3975 H   0  0  0  0  0  0  0  0  0  0  0  0  # atno 10764 bound_to 10752
  154.3798  135.2841  155.2196 H   0  0  0  0  0  0  0  0  0  0  0  0  # atno 10765 bound_to 10752
  140.6508  134.4452  157.5235 H   0  0  0  0  0  0  0  0  0  0  0  0  # atno 11005 bound_to 11000
  145.9627  140.8823  143.0202 LP  0  0  0  0  0  0  0  0  0  0  0  0  # atno 17320 bound_to 7965
  144.6744  140.1835  143.7403 LP  0  0  0  0  0  0  0  0  0  0  0  0  # atno 17321 bound_to 7965
  139.9058  143.6780  152.3123 LP  0  0  0  0  0  0  0  0  0  0  0  0  # atno 17342 bound_to 10162
  139.7145  144.7614  151.1056 LP  0  0  0  0  0  0  0  0  0  0  0  0  # atno 17343 bound_to 10162
  157.5528  130.8193  149.8166 LP  0  0  0  0  0  0  0  0  0  0  0  0  # atno 17370 bound_to 10713
  156.0245  130.3784  150.1862 LP  0  0  0  0  0  0  0  0  0  0  0  0  # atno 17371 bound_to 10713
  139.9046  134.8477  156.1756 LP  0  0  0  0  0  0  0  0  0  0  0  0  # atno 17394 bound_to 11000
  141.0538  133.6875  156.1821 LP  0  0  0  0  0  0  0  0  0  0  0  0  # atno 17395 bound_to 11000

$$$$
