#       Name:                AV-unprocessed.smi:245
#       Creating user name   scv26
#       Creation time:       Thu Mar 26 20:52:10 2020


#       File generated by GOLD software.
#

@<TRIPOS>MOLECULE
AV-unprocessed.smi:245
    64    68     1
SMALL
NO_CHARGES


@<TRIPOS>ATOM
      1 ****        -4.9810   1.0041   2.7190 O.2            1 S1                 0.0000
      2 ****        -4.5463   0.7831   1.5912 C.2            1 S1                 0.0000
      3 ****        -3.0273   0.6635   1.3753 C.3            1 S1                 0.0000
      4 ****        -2.6016   0.4421  -0.0174 N.3            1 S1                 0.0000
      5 ****        -1.2756   0.6837  -0.1542 C.ar           1 S1                 0.0000
      6 ****        -0.8444   1.8819  -0.6305 N.ar           1 S1                 0.0000
      7 ****         0.4653   2.1262  -0.7380 C.ar           1 S1                 0.0000
      8 ****         1.4916   1.3334  -0.4211 N.ar           1 S1                 0.0000
      9 ****         1.0600   0.1365   0.0713 C.ar           1 S1                 0.0000
     10 ****        -0.2944  -0.2666   0.2343 C.ar           1 S1                 0.0000
     11 ****        -0.3509  -1.5552   0.7493 N.2            1 S1                 0.0000
     12 ****         0.9020  -1.8984   0.8775 C.2            1 S1                 0.0000
     13 ****         1.8163  -0.9324   0.5190 N.pl3          1 S1                 0.0000
     14 ****         3.2450  -1.0480   0.5271 C.3            1 S1                 0.0000
     15 ****         3.9657  -2.0318   1.4531 C.3            1 S1                 0.0000
     16 ****         5.1535  -1.0480   1.5592 C.3            1 S1                 0.0000
     17 ****         5.7635  -0.9358   2.9678 C.3            1 S1                 0.0000
     18 ****         6.4278   0.2960   3.1603 O.3            1 S1                 0.0000
     19 ****         6.2784  -1.3153   0.5367 C.3            1 S1                 0.0000
     20 ****         7.0593  -0.1651   0.2867 O.3            1 S1                 0.0000
     21 ****         4.1147   0.0307   1.1742 C.3            1 S1                 0.0000
     22 ****        -3.5019   0.8865  -1.0886 C.3            1 S1                 0.0000
     23 ****        -3.0580   0.4424  -2.5052 C.3            1 S1                 0.0000
     24 ****        -4.0534   0.9239  -3.5752 C.3            1 S1                 0.0000
     25 ****        -5.4819   0.4411  -3.2780 C.3            1 S1                 0.0000
     26 ****        -5.9249   0.8420  -1.8620 C.3            1 S1                 0.0000
     27 ****        -4.9190   0.3354  -0.8143 C.3            1 S1                 0.0000
     28 ****        -5.3644   0.6605   0.5347 N.am           1 S1                 0.0000
     29 ****        -2.5679   1.5728   1.7687 H              1 S1                 0.0000
     30 ****        -2.6657  -0.1624   1.9891 H              1 S1                 0.0000
     31 ****         0.7292   3.0970  -1.1310 H              1 S1                 0.0000
     32 ****         1.1922  -2.8714   1.2465 H              1 S1                 0.0000
     33 ****         3.5394  -1.2070  -0.5117 H              1 S1                 0.0000
     34 ****         3.4413  -2.1739   2.3998 H              1 S1                 0.0000
     35 ****         4.2028  -2.9919   0.9934 H              1 S1                 0.0000
     36 ****         4.9893  -1.0084   3.7322 H              1 S1                 0.0000
     37 ****         6.4629  -1.7492   3.1635 H              1 S1                 0.0000
     38 ****         6.7718   0.3184   4.0400 H              1 S1                 0.0000
     39 ****         6.9356  -2.1165   0.8755 H              1 S1                 0.0000
     40 ****         5.8708  -1.6458  -0.4187 H              1 S1                 0.0000
     41 ****         7.7211  -0.3831  -0.3515 H              1 S1                 0.0000
     42 ****         4.4726   0.7948   0.4837 H              1 S1                 0.0000
     43 ****         3.6350   0.4864   2.0427 H              1 S1                 0.0000
     44 ****        -3.5406   1.9777  -1.0610 H              1 S1                 0.0000
     45 ****        -2.0714   0.8314  -2.7540 H              1 S1                 0.0000
     46 ****        -2.9764  -0.6448  -2.5433 H              1 S1                 0.0000
     47 ****        -4.0396   2.0137  -3.6190 H              1 S1                 0.0000
     48 ****        -3.7407   0.5721  -4.5588 H              1 S1                 0.0000
     49 ****        -6.1743   0.8489  -4.0150 H              1 S1                 0.0000
     50 ****        -5.5268  -0.6441  -3.3795 H              1 S1                 0.0000
     51 ****        -6.0142   1.9275  -1.7979 H              1 S1                 0.0000
     52 ****        -6.9166   0.4354  -1.6601 H              1 S1                 0.0000
     53 ****        -4.8875  -0.7544  -0.8701 H              1 S1                 0.0000
     54 ****        -6.3582   0.7580   0.6844 H              1 S1                 0.0000
     55 ****        -5.9658   1.0969   2.8660 LP             1 S1                 0.0000
     56 ****        -4.3500   1.0913   3.4899 LP             1 S1                 0.0000
     57 ****        -2.7201  -0.5348  -0.1951 LP             1 S1                 0.0000
     58 ****        -1.5072   2.5805  -0.9004 LP             1 S1                 0.0000
     59 ****         2.4533   1.5847  -0.5306 LP             1 S1                 0.0000
     60 ****        -1.1631  -2.0949   0.9706 LP             1 S1                 0.0000
     61 ****         5.7837   1.0500   3.0310 LP             1 S1                 0.0000
     62 ****         7.1768   0.3812   2.5033 LP             1 S1                 0.0000
     63 ****         7.4952   0.1370   1.1345 LP             1 S1                 0.0000
     64 ****         6.4773   0.5668  -0.0679 LP             1 S1                 0.0000
@<TRIPOS>BOND
    1    1    2 2     
    2    2   28 am    
    3    2    3 1     
    4    3    4 1     
    5    3   29 1     
    6    3   30 1     
    7    4    5 1     
    8    4   22 1     
    9    5   10 ar    
   10    5    6 ar    
   11    6    7 ar    
   12    7    8 ar    
   13    7   31 1     
   14    8    9 ar    
   15    9   13 1     
   16    9   10 ar    
   17   10   11 1     
   18   11   12 2     
   19   12   13 1     
   20   12   32 1     
   21   13   14 1     
   22   14   21 1     
   23   14   15 1     
   24   14   33 1     
   25   15   16 1     
   26   15   34 1     
   27   15   35 1     
   28   16   17 1     
   29   16   19 1     
   30   16   21 1     
   31   17   18 1     
   32   17   36 1     
   33   17   37 1     
   34   18   38 1     
   35   19   20 1     
   36   19   39 1     
   37   19   40 1     
   38   20   41 1     
   39   21   42 1     
   40   21   43 1     
   41   22   27 1     
   42   22   23 1     
   43   22   44 1     
   44   23   24 1     
   45   23   45 1     
   46   23   46 1     
   47   24   25 1     
   48   24   47 1     
   49   24   48 1     
   50   25   26 1     
   51   25   49 1     
   52   25   50 1     
   53   26   27 1     
   54   26   51 1     
   55   26   52 1     
   56   27   28 1     
   57   27   53 1     
   58   28   54 1     
   59    1   55 1     
   60    1   56 1     
   61    4   57 1     
   62    6   58 1     
   63    8   59 1     
   64   11   60 1     
   65   18   61 1     
   66   18   62 1     
   67   20   63 1     
   68   20   64 1     
@<TRIPOS>SUBSTRUCTURE
      1 S1             1
@<TRIPOS>SET
LONE_PAIRS      STATIC     ATOMS    <user>   **** ""
10 55 56 57 58 59 60 61 62 63 64
DONOR_HYDROGENS      STATIC     ATOMS    <user>   **** ""
3 38 41 54
ATOM$BLUE        STATIC     ATOMS    COLORGROUP SYSTEM
10 55 56 57 58 59 60 61 62 63 64
ATOM$RED        STATIC     ATOMS    COLORGROUP SYSTEM
3 38 41 54
