AV-unprocessed.smi:282|AV-procd|sdf|2124|dock8
  -GOLD-   2262021433D 1   1.00000     0.00000
 Structure written by MMmdl.
 65 69  0  0  0  0  0  0  0  0  2 V2000
  147.1815  141.0135  154.3605 C   0  0  0  0  0  0  0  0  0  0  0  0
  148.5088  141.7550  154.5699 C   0  0  0  0  0  0  0  0  0  0  0  0
  149.5386  140.9413  155.3824 C   0  0  1  0  0  0  0  0  0  0  0  0
  150.8434  141.7361  155.6107 C   0  0  0  0  0  0  0  0  0  0  0  0
  150.6725  142.8127  156.6209 N   0  3  2  0  0  0  0  0  0  0  0  0
  151.9202  143.5966  156.8084 C   0  0  0  0  0  0  0  0  0  0  0  0
  151.6974  144.7824  157.7597 C   0  0  0  0  0  0  0  0  0  0  0  0
  151.1528  144.3007  159.1095 C   0  0  0  0  0  0  0  0  0  0  0  0
  149.8763  143.4784  158.8935 C   0  0  0  0  0  0  0  0  0  0  0  0
  150.1135  142.3132  157.9118 C   0  0  1  0  0  0  0  0  0  0  0  0
  148.8075  141.5274  157.6785 C   0  0  0  0  0  0  0  0  0  0  0  0
  148.9902  140.4906  156.6661 N   0  0  0  0  0  0  0  0  0  0  0  0
  149.3223  139.2601  157.1371 C   0  0  0  0  0  0  0  0  0  0  0  0
  149.2151  138.9887  158.4651 N   0  0  0  0  0  0  0  0  0  0  0  0
  149.5305  137.7786  158.9353 C   0  0  0  0  0  0  0  0  0  0  0  0
  149.9694  136.7124  158.2647 N   0  0  0  0  0  0  0  0  0  0  0  0
  150.0895  136.9791  156.9328 C   0  0  0  0  0  0  0  0  0  0  0  0
  149.7857  138.2131  156.2913 C   0  0  0  0  0  0  0  0  0  0  0  0
  150.0313  138.1095  154.9275 N   0  0  0  0  0  0  0  0  0  0  0  0
  150.4448  136.8818  154.7704 C   0  0  0  0  0  0  0  0  0  0  0  0
  150.5276  136.1365  155.9251 N   0  0  0  0  0  0  0  0  0  0  0  0
  150.9576  134.7499  156.0392 C   0  0  0  0  0  0  0  0  0  0  0  0
  149.8022  133.7053  156.0729 C   0  0  0  0  0  0  0  0  0  0  0  0
  150.3446  132.2871  156.4133 C   0  0  0  0  0  0  0  0  0  0  0  0
  151.1454  132.2856  157.5783 O   0  0  0  0  0  0  0  0  0  0  0  0
  148.7481  134.1226  157.1292 C   0  0  0  0  0  0  0  0  0  0  0  0
  147.4293  133.3370  157.0088 C   0  0  0  0  0  0  0  0  0  0  0  0
  146.8980  133.4715  155.6972 O   0  0  0  0  0  0  0  0  0  0  0  0
  147.7611  132.9479  154.6961 C   0  0  0  0  0  0  0  0  0  0  0  0
  149.0923  133.7205  154.6959 C   0  0  0  0  0  0  0  0  0  0  0  0
  146.5000  141.6058  153.7494 H   0  0  0  0  0  0  0  0  0  0  0  0
  146.6824  140.8122  155.3087 H   0  0  0  0  0  0  0  0  0  0  0  0
  147.3379  140.0602  153.8547 H   0  0  0  0  0  0  0  0  0  0  0  0
  148.9294  141.9810  153.5894 H   0  0  0  0  0  0  0  0  0  0  0  0
  148.3174  142.7196  155.0398 H   0  0  0  0  0  0  0  0  0  0  0  0
  149.7833  140.0709  154.7717 H   0  0  0  0  0  0  0  0  0  0  0  0
  151.6311  141.0624  155.9506 H   0  0  0  0  0  0  0  0  0  0  0  0
  151.1910  142.1626  154.6689 H   0  0  0  0  0  0  0  0  0  0  0  0
  152.7046  142.9457  157.1983 H   0  0  0  0  0  0  0  0  0  0  0  0
  152.2665  143.9674  155.8431 H   0  0  0  0  0  0  0  0  0  0  0  0
  152.6323  145.3239  157.9067 H   0  0  0  0  0  0  0  0  0  0  0  0
  150.9974  145.4879  157.3104 H   0  0  0  0  0  0  0  0  0  0  0  0
  151.9032  143.6932  159.6169 H   0  0  0  0  0  0  0  0  0  0  0  0
  150.9477  145.1522  159.7591 H   0  0  0  0  0  0  0  0  0  0  0  0
  149.5214  143.0946  159.8507 H   0  0  0  0  0  0  0  0  0  0  0  0
  149.0878  144.1284  158.5113 H   0  0  0  0  0  0  0  0  0  0  0  0
  150.8481  141.6346  158.3502 H   0  0  0  0  0  0  0  0  0  0  0  0
  148.4664  141.1081  158.6246 H   0  0  0  0  0  0  0  0  0  0  0  0
  148.0158  142.2003  157.3486 H   0  0  0  0  0  0  0  0  0  0  0  0
  149.4157  137.6458  160.0010 H   0  0  0  0  0  0  0  0  0  0  0  0
  150.7113  136.4856  153.8014 H   0  0  0  0  0  0  0  0  0  0  0  0
  151.6281  134.5406  155.2046 H   0  0  0  0  0  0  0  0  0  0  0  0
  151.5736  134.6629  156.9351 H   0  0  0  0  0  0  0  0  0  0  0  0
  149.5265  131.5811  156.5554 H   0  0  0  0  0  0  0  0  0  0  0  0
  150.9469  131.8807  155.6027 H   0  0  0  0  0  0  0  0  0  0  0  0
  151.7279  131.5422  157.5419 H   0  0  0  0  0  0  0  0  0  0  0  0
  149.1470  134.0086  158.1376 H   0  0  0  0  0  0  0  0  0  0  0  0
  148.5187  135.1824  157.0116 H   0  0  0  0  0  0  0  0  0  0  0  0
  147.5639  132.2834  157.2549 H   0  0  0  0  0  0  0  0  0  0  0  0
  146.7008  133.7293  157.7187 H   0  0  0  0  0  0  0  0  0  0  0  0
  147.9150  131.8793  154.8483 H   0  0  0  0  0  0  0  0  0  0  0  0
  147.2730  133.0555  153.7273 H   0  0  0  0  0  0  0  0  0  0  0  0
  148.8792  134.7519  154.4110 H   0  0  0  0  0  0  0  0  0  0  0  0
  149.7480  133.3289  153.9178 H   0  0  0  0  0  0  0  0  0  0  0  0
  149.9857  143.4493  156.2426 H   0  0  0  0  0  0  0  0  0  0  0  0
  1  2  1  0  0  0  0
  1 31  1  0  0  0  0
  1 32  1  0  0  0  0
  1 33  1  0  0  0  0
  2  3  1  0  0  0  0
  2 34  1  0  0  0  0
  2 35  1  0  0  0  0
  3 12  1  0  0  0  0
  3  4  1  0  0  0  0
  3 36  1  0  0  0  0
  4  5  1  0  0  0  0
  4 37  1  0  0  0  0
  4 38  1  0  0  0  0
  5 10  1  0  0  0  0
  5  6  1  0  0  0  0
  5 65  1  0  0  0  0
  6  7  1  0  0  0  0
  6 39  1  0  0  0  0
  6 40  1  0  0  0  0
  7  8  1  0  0  0  0
  7 41  1  0  0  0  0
  7 42  1  0  0  0  0
  8  9  1  0  0  0  0
  8 43  1  0  0  0  0
  8 44  1  0  0  0  0
  9 10  1  0  0  0  0
  9 45  1  0  0  0  0
  9 46  1  0  0  0  0
 10 11  1  0  0  0  0
 10 47  1  0  0  0  0
 11 12  1  0  0  0  0
 11 48  1  0  0  0  0
 11 49  1  0  0  0  0
 12 13  1  0  0  0  0
 13 18  1  0  0  0  0
 13 14  2  0  0  0  0
 14 15  1  0  0  0  0
 15 16  2  0  0  0  0
 15 50  1  0  0  0  0
 16 17  1  0  0  0  0
 17 21  1  0  0  0  0
 17 18  2  0  0  0  0
 18 19  1  0  0  0  0
 19 20  2  0  0  0  0
 20 21  1  0  0  0  0
 20 51  1  0  0  0  0
 21 22  1  0  0  0  0
 22 23  1  0  0  0  0
 22 52  1  0  0  0  0
 22 53  1  0  0  0  0
 23 30  1  0  0  0  0
 23 24  1  0  0  0  0
 23 26  1  0  0  0  0
 24 25  1  0  0  0  0
 24 54  1  0  0  0  0
 24 55  1  0  0  0  0
 25 56  1  0  0  0  0
 26 27  1  0  0  0  0
 26 57  1  0  0  0  0
 26 58  1  0  0  0  0
 27 28  1  0  0  0  0
 27 59  1  0  0  0  0
 27 60  1  0  0  0  0
 28 29  1  0  0  0  0
 29 30  1  0  0  0  0
 29 61  1  0  0  0  0
 29 62  1  0  0  0  0
 30 63  1  0  0  0  0
 30 64  1  0  0  0  0
M  CHG  1   5   1
M  END
> <s_m_source_file>
AV-unprocessed.smi

> <i_m_source_file_index>
282

> <i_lp_mmshare_version>
43012

> <i_f3d_flags>
0

> <s_epik_input>
W0NIMl0xW0NIMl1bQ0gyXVtDSDJdW0NAQEhdKE4xMilbQ0gyXU4oW0NAQEhdKFtDSDJdMilbQ0gyXVtDSDNdKWMobltjSF1uMyljKGMzNCluW2NIXW40W0NIMl1DNShbQ0gyXVtPSF0pW0NIMl1bQ0gyXU9bQ0gyXVtDSDJdNQ==

> <s_epik_cmdline>
J2VwaWtfcHl0aG9uJywgJy1waCcsICc3LjAnLCAnLXRuJywgJzgnLCAnLW1hJywgJzIwMCcsICctbWV0YWxfYmluZGluZycsICctaW1hZScsICc8aW5maWxlLm1hZT4nLCAnLW9tYWUnLCAnPG91dGZpbGUubWFlPic=

> <r_lp_tautomer_probability>
1

> <r_epik_Ionization_Penalty>
0.00308583

> <r_epik_Ionization_Penalty_Charging>
0.00300384

> <r_epik_Ionization_Penalty_Neutral>
8.19894e-05

> <r_epik_State_Penalty>
-0

> <r_epik_Charging_Adjusted_Penalty>
0.00300384

> <i_epik_Tot_Q>
1

> <i_epik_Tot_abs_Q>
1

> <r_epik_Metal_State_Penalty>
-0

> <b_epik_Metal_Only>
0

> <s_lp_Force_Field>
OPLS_2005

> <r_lp_Energy>
57.1852

> <b_lp_Chiralities_Consistent>
1

> <s_lp_Variant>
AV-unprocessed.smi:282-8

> <Gold.Version>
5.8.1

> <Gold.Id.Protein>
6NUR|6NUR_protein|mol2

> <Gold.PLP.Fitness>
51.1171

> <Gold.PLP.PLP>
-39.9822

> <Gold.PLP.part.hbond>
-2.3733

> <Gold.PLP.part.metal>
0.0000

> <Gold.PLP.part.buried>
-4.9091

> <Gold.PLP.part.nonpolar>
-32.8274

> <Gold.PLP.part.repulsive>
0.2020

> <Gold.PLP.ligand.clash>
0.0000

> <Gold.PLP.ligand.torsion>
0.5792

> <Gold.PLP.Chemscore.Hbond>
3.0000

> <Gold.PLP.Chemscore.CHOScore>
1.0000

> <Gold.PLP.Chemscore.Metal>
0.0000

> <Gold.Chemscore.Hbonds>
donor molecule, donor type, donor heavy atom, donor atom, acceptor molecule, acceptor atom, score
      L1  H     5    65       P1  8028  2.00
      P1  H  6896  6907       L1    25  1.00
      L1  C    20    51       P1  7948  0.22
      L1  C    20    51       P1  7949  0.68

> <Gold.PLP.Chemscore.Internal.Correction>
0.2933

> <Gold.Rescore>
     Score         DG    S(hbond)    S(metal)    S(lipo)     H(rot)  DE(clash)    DE(int)     intcor
     18.41     -20.98       2.80        0.00     100.86       2.20       0.47       2.10       ----

> <Gold.Chemscore.Fitness>
18.4112

> <Gold.Chemscore.DG>
-20.9805

> <Gold.Chemscore.ZeroCoef>
-5.4800

> <Gold.Chemscore.Hbond>
2.7973

> <Gold.Chemscore.Metal>
0.0000

> <Gold.Chemscore.Lipo>
100.8584

> <Gold.Chemscore.Internal_Hbond>
0.0000

> <Gold.Chemscore.DEClash>
0.4700

> <Gold.Chemscore.DEInternal>
2.0993

> <Gold.Chemscore.Rot>
2.2042

> <Gold.Chemscore.Internal.Correction>
   9.000000E+99

> <Gold.Chemscore.Hbonds>
donor molecule, donor type, donor heavy atom, donor atom, acceptor molecule, acceptor atom, score
      L1  H     5    65       P1  8028  1.00
      P1  H  6896  6907       L1    25  0.68
      P1  H  6896  6908       L1    16  0.02

> <Gold.Chemscore.Hbond.Weighted>
-9.3430

> <Gold.Chemscore.Metal.Weighted>
-0.0000

> <Gold.Chemscore.Lipo.Weighted>
-11.8004

> <Gold.Chemscore.Internal_Hbond.Weighted>
0.0000

> <Gold.Chemscore.DEClash.Weighted>
0.4700

> <Gold.Chemscore.DEInternal.Weighted>
2.0993

> <Gold.Chemscore.Rot.Weighted>
5.6429

> <Gold.Chemscore.Internal.Correction.Weighted>
   9.000000E+99

> <Gold.Protein.RotatedTorsions>
[ 6907 6896 6895 6894 ] final -171.15 input  -60.11 | X-H torsion
[ 7974 7965 7964 7962 ] final  127.26 input  175.53 | X-H torsion
[ 8008 7997 7996 7995 ] final  106.49 input   59.86 | X-H torsion
[ 10167 10162 10161 10158 ] final   24.58 input  -65.29 | X-H torsion
[ 10718 10713 10712 10709 ] final  -74.09 input   66.30 | X-H torsion
[ 10763 10752 10751 10750 ] final  -13.13 input  -60.55 | X-H torsion
[ 11005 11000 10999 10996 ] final   89.79 input  -57.11 | X-H torsion

> <Gold.Protein.ActiveResidues>
 VAL166  LYS551  ARG553  GLY616  TRP617  ASP618  TYR619  PRO620  LYS621  CYS622 
 ASP623  PHE694  ASN695  SER759  ASP760  ASP761  ALA762  ILE779  LEU786  VAL792 
 PHE793  MET794  SER795  GLU796  ALA797  LYS798  CYS799  TRP800  GLU811  SER814 

> <Gold.Protein.RotatedAtoms>
  151.5191  133.3470  159.2897 H   0  0  0  0  0  0  0  0  0  0  0  0  # atno 6907 bound_to 6896
  150.8664  134.8030  159.7132 H   0  0  0  0  0  0  0  0  0  0  0  0  # atno 6908 bound_to 6896
  152.4667  134.5068  159.9793 H   0  0  0  0  0  0  0  0  0  0  0  0  # atno 6909 bound_to 6896
  145.0525  139.3871  143.5047 H   0  0  0  0  0  0  0  0  0  0  0  0  # atno 7974 bound_to 7965
  156.1747  140.3112  155.9038 H   0  0  0  0  0  0  0  0  0  0  0  0  # atno 8008 bound_to 7997
  155.3512  140.0471  157.3063 H   0  0  0  0  0  0  0  0  0  0  0  0  # atno 8009 bound_to 7997
  154.5278  140.2220  155.8869 H   0  0  0  0  0  0  0  0  0  0  0  0  # atno 8010 bound_to 7997
  140.5176  144.0056  150.6401 H   0  0  0  0  0  0  0  0  0  0  0  0  # atno 10167 bound_to 10162
  156.0255  130.4409  150.2840 H   0  0  0  0  0  0  0  0  0  0  0  0  # atno 10718 bound_to 10713
  153.5087  135.7016  153.5793 H   0  0  0  0  0  0  0  0  0  0  0  0  # atno 10763 bound_to 10752
  153.3892  135.3900  155.1911 H   0  0  0  0  0  0  0  0  0  0  0  0  # atno 10764 bound_to 10752
  154.8705  135.3854  154.4565 H   0  0  0  0  0  0  0  0  0  0  0  0  # atno 10765 bound_to 10752
  139.8868  134.8574  156.3193 H   0  0  0  0  0  0  0  0  0  0  0  0  # atno 11005 bound_to 11000
  146.3519  140.0182  142.8661 LP  0  0  0  0  0  0  0  0  0  0  0  0  # atno 17320 bound_to 7965
  145.1509  140.9622  143.4433 LP  0  0  0  0  0  0  0  0  0  0  0  0  # atno 17321 bound_to 7965
  140.3396  143.3028  152.0602 LP  0  0  0  0  0  0  0  0  0  0  0  0  # atno 17342 bound_to 10162
  139.4914  144.6452  151.6793 LP  0  0  0  0  0  0  0  0  0  0  0  0  # atno 17343 bound_to 10162
  157.0944  131.0178  151.3109 LP  0  0  0  0  0  0  0  0  0  0  0  0  # atno 17370 bound_to 10713
  157.4829  130.7776  149.7431 LP  0  0  0  0  0  0  0  0  0  0  0  0  # atno 17371 bound_to 10713
  140.9798  133.7275  156.0655 LP  0  0  0  0  0  0  0  0  0  0  0  0  # atno 17394 bound_to 11000
  140.7764  134.3774  157.5497 LP  0  0  0  0  0  0  0  0  0  0  0  0  # atno 17395 bound_to 11000

$$$$
