AV-unprocessed.smi:398|AV-procd|sdf|2489|dock3
  -GOLD-   2262022433D 1   1.00000     0.00000
 Structure written by MMmdl.
 34 36  0  0  0  0  0  0  0  0  1 V2000
  152.1871  137.0093  159.5837 N   0  0  0  0  0  0  0  0  0  0  0  0
  152.1737  138.1317  159.3017 C   0  0  0  0  0  0  0  0  0  0  0  0
  152.1388  139.5192  158.9767 C   0  0  0  0  0  0  0  0  0  0  0  0
  152.6545  140.4558  159.7993 C   0  0  0  0  0  0  0  0  0  0  0  0
  152.6370  141.7997  159.4955 N   0  0  0  0  0  0  0  0  0  0  0  0
  153.0450  142.7906  160.4511 C   0  0  0  0  0  0  0  0  0  0  0  0
  152.5276  142.7316  161.8753 C   0  0  0  0  0  0  0  0  0  0  0  0
  152.0336  143.8058  160.9379 C   0  0  0  0  0  0  0  0  0  0  0  0
  151.9936  142.2543  158.3237 C   0  0  0  0  0  0  0  0  0  0  0  0
  151.8813  143.4592  158.0841 O   0  0  0  0  0  0  0  0  0  0  0  0
  151.4688  141.2832  157.4367 N   0  0  0  0  0  0  0  0  0  0  0  0
  150.8052  141.7388  156.1952 C   0  0  0  0  0  0  0  0  0  0  0  0
  149.3069  141.4011  156.1393 C   0  0  0  0  0  0  0  0  0  0  0  0
  148.8950  140.2865  156.4656 O   0  0  0  0  0  0  0  0  0  0  0  0
  148.5030  142.3904  155.7237 N   0  0  0  0  0  0  0  0  0  0  0  0
  147.0845  142.3057  155.5911 C   0  0  0  0  0  0  0  0  0  0  0  0
  146.5280  141.2341  154.6787 C   0  0  0  0  0  0  0  0  0  0  0  0
  146.4795  142.6758  154.2540 C   0  0  0  0  0  0  0  0  0  0  0  0
  151.5120  139.8922  157.7108 C   0  0  0  0  0  0  0  0  0  0  0  0
  151.0333  139.0749  156.9224 O   0  0  0  0  0  0  0  0  0  0  0  0
  153.1042  140.1422  160.7306 H   0  0  0  0  0  0  0  0  0  0  0  0
  154.0629  143.1576  160.3324 H   0  0  0  0  0  0  0  0  0  0  0  0
  151.8266  141.9411  162.1367 H   0  0  0  0  0  0  0  0  0  0  0  0
  153.2098  143.0296  162.6689 H   0  0  0  0  0  0  0  0  0  0  0  0
  152.3852  144.8213  161.1088 H   0  0  0  0  0  0  0  0  0  0  0  0
  151.0088  143.7220  160.5813 H   0  0  0  0  0  0  0  0  0  0  0  0
  150.9183  142.8157  156.0608 H   0  0  0  0  0  0  0  0  0  0  0  0
  151.2939  141.3111  155.3179 H   0  0  0  0  0  0  0  0  0  0  0  0
  148.9292  143.2725  155.4792 H   0  0  0  0  0  0  0  0  0  0  0  0
  146.4848  142.5443  156.4685 H   0  0  0  0  0  0  0  0  0  0  0  0
  147.2339  140.5839  154.1653 H   0  0  0  0  0  0  0  0  0  0  0  0
  145.5905  140.7644  154.9701 H   0  0  0  0  0  0  0  0  0  0  0  0
  145.5095  143.1688  154.2621 H   0  0  0  0  0  0  0  0  0  0  0  0
  147.1531  142.9870  153.4576 H   0  0  0  0  0  0  0  0  0  0  0  0
  1  2  3  0  0  0  0
  2  3  1  0  0  0  0
  3 19  1  0  0  0  0
  3  4  2  0  0  0  0
  4  5  1  0  0  0  0
  4 21  1  0  0  0  0
  5  6  1  0  0  0  0
  5  9  1  0  0  0  0
  6  8  1  0  0  0  0
  6  7  1  0  0  0  0
  6 22  1  0  0  0  0
  7  8  1  0  0  0  0
  7 23  1  0  0  0  0
  7 24  1  0  0  0  0
  8 25  1  0  0  0  0
  8 26  1  0  0  0  0
  9 10  2  0  0  0  0
  9 11  1  0  0  0  0
 11 12  1  0  0  0  0
 11 19  1  0  0  0  0
 12 13  1  0  0  0  0
 12 27  1  0  0  0  0
 12 28  1  0  0  0  0
 13 14  2  0  0  0  0
 13 15  1  0  0  0  0
 15 16  1  0  0  0  0
 15 29  1  0  0  0  0
 16 18  1  0  0  0  0
 16 17  1  0  0  0  0
 16 30  1  0  0  0  0
 17 18  1  0  0  0  0
 17 31  1  0  0  0  0
 17 32  1  0  0  0  0
 18 33  1  0  0  0  0
 18 34  1  0  0  0  0
 19 20  2  0  0  0  0
M  END
> <s_m_source_file>
AV-unprocessed.smi

> <i_m_source_file_index>
398

> <i_lp_mmshare_version>
43012

> <i_f3d_flags>
0

> <s_epik_input>
TiNDYzFbY0hdbihbQ0hdMltDSDJdW0NIMl0yKWMoPU8pbihjMT1PKVtDSDJdQyg9TylbTkhdW0NIXTNbQ0gyXVtDSDJdMw==

> <s_epik_cmdline>
J2VwaWtfcHl0aG9uJywgJy1waCcsICc3LjAnLCAnLXRuJywgJzgnLCAnLW1hJywgJzIwMCcsICctbWV0YWxfYmluZGluZycsICctaW1hZScsICc8aW5maWxlLm1hZT4nLCAnLW9tYWUnLCAnPG91dGZpbGUubWFlPic=

> <r_lp_tautomer_probability>
1

> <r_epik_Ionization_Penalty>
2.07526e-08

> <r_epik_Ionization_Penalty_Charging>
8.22213e-11

> <r_epik_Ionization_Penalty_Neutral>
2.06703e-08

> <r_epik_State_Penalty>
-0

> <r_epik_Charging_Adjusted_Penalty>
8.22213e-11

> <i_epik_Tot_Q>
0

> <i_epik_Tot_abs_Q>
0

> <r_epik_Metal_State_Penalty>
-0

> <b_epik_Metal_Only>
0

> <s_lp_Force_Field>
OPLS_2005

> <r_lp_Energy>
41.1586

> <b_lp_Chiralities_Consistent>
1

> <s_lp_Variant>
AV-unprocessed.smi:398-1

> <Gold.Version>
5.8.1

> <Gold.Id.Protein>
6NUR|6NUR_protein|mol2

> <Gold.PLP.Fitness>
45.2184

> <Gold.PLP.PLP>
-39.6899

> <Gold.PLP.part.hbond>
-1.8663

> <Gold.PLP.part.metal>
0.0000

> <Gold.PLP.part.buried>
-6.0495

> <Gold.PLP.part.nonpolar>
-32.2593

> <Gold.PLP.part.repulsive>
0.1846

> <Gold.PLP.ligand.clash>
0.0084

> <Gold.PLP.ligand.torsion>
0.3326

> <Gold.PLP.Chemscore.Hbond>
1.9760

> <Gold.PLP.Chemscore.CHOScore>
0.0000

> <Gold.PLP.Chemscore.Metal>
0.0000

> <Gold.Chemscore.Hbonds>
donor molecule, donor type, donor heavy atom, donor atom, acceptor molecule, acceptor atom, score
      L1  H    15    29       P1  8028  0.74
      P1  H  6896  6908       L1     1  1.00

> <Gold.PLP.Chemscore.Internal.Correction>
0.2742

> <Gold.Rescore>
     Score         DG    S(hbond)    S(metal)    S(lipo)     H(rot)  DE(clash)    DE(int)     intcor
     12.83     -14.91       1.97        0.00      65.13       1.87       0.00       2.07       ----

> <Gold.Chemscore.Fitness>
12.8342

> <Gold.Chemscore.DG>
-14.9063

> <Gold.Chemscore.ZeroCoef>
-5.4800

> <Gold.Chemscore.Hbond>
1.9704

> <Gold.Chemscore.Metal>
0.0000

> <Gold.Chemscore.Lipo>
65.1336

> <Gold.Chemscore.Internal_Hbond>
0.0000

> <Gold.Chemscore.DEClash>
0.0000

> <Gold.Chemscore.DEInternal>
2.0721

> <Gold.Chemscore.Rot>
1.8654

> <Gold.Chemscore.Internal.Correction>
   9.000000E+99

> <Gold.Chemscore.Hbonds>
donor molecule, donor type, donor heavy atom, donor atom, acceptor molecule, acceptor atom, score
      L1  H    15    29       P1  8028  0.69
      P1  H  6896  6908       L1     1  0.98

> <Gold.Chemscore.Hbond.Weighted>
-6.5811

> <Gold.Chemscore.Metal.Weighted>
-0.0000

> <Gold.Chemscore.Lipo.Weighted>
-7.6206

> <Gold.Chemscore.Internal_Hbond.Weighted>
0.0000

> <Gold.Chemscore.DEClash.Weighted>
0.0000

> <Gold.Chemscore.DEInternal.Weighted>
2.0721

> <Gold.Chemscore.Rot.Weighted>
4.7755

> <Gold.Chemscore.Internal.Correction.Weighted>
   9.000000E+99

> <Gold.Protein.RotatedTorsions>
[ 6907 6896 6895 6894 ] final -108.60 input  -60.11 | X-H torsion
[ 7974 7965 7964 7962 ] final   56.43 input  175.53 | X-H torsion
[ 8008 7997 7996 7995 ] final   34.61 input   59.86 | X-H torsion
[ 10167 10162 10161 10158 ] final  -37.63 input  -65.29 | X-H torsion
[ 10718 10713 10712 10709 ] final  -60.95 input   66.30 | X-H torsion
[ 10763 10752 10751 10750 ] final  151.60 input  -60.55 | X-H torsion
[ 11005 11000 10999 10996 ] final -124.79 input  -57.11 | X-H torsion

> <Gold.Protein.ActiveResidues>
 VAL166  LYS551  ARG553  GLY616  TRP617  ASP618  TYR619  PRO620  LYS621  CYS622 
 ASP623  PHE694  ASN695  SER759  ASP760  ASP761  ALA762  ILE779  LEU786  VAL792 
 PHE793  MET794  SER795  GLU796  ALA797  LYS798  CYS799  TRP800  GLU811  SER814 

> <Gold.Protein.RotatedAtoms>
  150.7511  133.9654  159.3528 H   0  0  0  0  0  0  0  0  0  0  0  0  # atno 6907 bound_to 6896
  151.7583  135.0814  160.0351 H   0  0  0  0  0  0  0  0  0  0  0  0  # atno 6908 bound_to 6896
  152.3420  133.6041  159.5919 H   0  0  0  0  0  0  0  0  0  0  0  0  # atno 6909 bound_to 6896
  145.9398  139.3879  143.0370 H   0  0  0  0  0  0  0  0  0  0  0  0  # atno 7974 bound_to 7965
  155.1576  140.3280  155.4418 H   0  0  0  0  0  0  0  0  0  0  0  0  # atno 8008 bound_to 7997
  156.2553  140.1966  156.6635 H   0  0  0  0  0  0  0  0  0  0  0  0  # atno 8009 bound_to 7997
  154.6428  140.0568  156.9852 H   0  0  0  0  0  0  0  0  0  0  0  0  # atno 8010 bound_to 7997
  140.7113  143.3329  151.2528 H   0  0  0  0  0  0  0  0  0  0  0  0  # atno 10167 bound_to 10162
  156.0955  130.4193  150.0925 H   0  0  0  0  0  0  0  0  0  0  0  0  # atno 10718 bound_to 10713
  154.1064  135.2842  155.3240 H   0  0  0  0  0  0  0  0  0  0  0  0  # atno 10763 bound_to 10752
  154.6520  135.5365  153.7917 H   0  0  0  0  0  0  0  0  0  0  0  0  # atno 10764 bound_to 10752
  153.0361  135.6512  154.1224 H   0  0  0  0  0  0  0  0  0  0  0  0  # atno 10765 bound_to 10752
  140.9813  134.0668  157.3761 H   0  0  0  0  0  0  0  0  0  0  0  0  # atno 11005 bound_to 11000
  145.8314  140.9628  143.0847 LP  0  0  0  0  0  0  0  0  0  0  0  0  # atno 17320 bound_to 7965
  144.6777  140.0168  143.7484 LP  0  0  0  0  0  0  0  0  0  0  0  0  # atno 17321 bound_to 7965
  139.6816  143.9844  152.2812 LP  0  0  0  0  0  0  0  0  0  0  0  0  # atno 17342 bound_to 10162
  139.9476  144.6641  150.8204 LP  0  0  0  0  0  0  0  0  0  0  0  0  # atno 17343 bound_to 10162
  156.8925  130.9593  151.3586 LP  0  0  0  0  0  0  0  0  0  0  0  0  # atno 17370 bound_to 10713
  157.6115  130.8586  149.8959 LP  0  0  0  0  0  0  0  0  0  0  0  0  # atno 17371 bound_to 10713
  139.8951  135.0139  156.6987 LP  0  0  0  0  0  0  0  0  0  0  0  0  # atno 17394 bound_to 11000
  140.7181  133.9164  155.8129 LP  0  0  0  0  0  0  0  0  0  0  0  0  # atno 17395 bound_to 11000

$$$$
