AV-unprocessed.smi:1809|AV-procd|sdf|7319|dock9
  -GOLD-   22720 8573D 1   1.00000     0.00000
 Structure written by MMmdl.
 39 41  0  0  0  0  0  0  0  0  1 V2000
  150.5763  129.4793  154.2821 C   0  0  0  0  0  0  0  0  0  0  0  0
  150.6209  130.9528  154.5022 C   0  0  0  0  0  0  0  0  0  0  0  0
  151.2427  131.5121  155.5476 N   0  0  0  0  0  0  0  0  0  0  0  0
  151.1428  132.8964  155.5403 N   0  0  0  0  0  0  0  0  0  0  0  0
  150.4448  133.3416  154.4864 C   0  0  0  0  0  0  0  0  0  0  0  0
  150.1882  134.7150  154.2326 N   0  0  0  0  0  0  0  0  0  0  0  0
  150.1717  135.7356  155.1081 C   0  0  0  0  0  0  0  0  0  0  0  0
  150.3861  135.6392  156.3165 O   0  0  0  0  0  0  0  0  0  0  0  0
  149.8841  136.8926  154.4951 N   0  0  0  0  0  0  0  0  0  0  0  0
  149.7440  138.1873  155.1539 C   0  0  0  0  0  0  0  0  0  0  0  0
  150.8571  139.1627  154.7169 C   0  0  2  0  0  0  0  0  0  0  0  0
  151.9387  139.3690  155.8044 C   0  0  0  0  0  0  0  0  0  0  0  0
  151.4502  140.2351  156.8606 N   0  0  0  0  0  0  0  0  0  0  0  0
  152.3915  140.5906  157.8973 C   0  0  0  0  0  0  0  0  0  0  0  0
  151.7427  141.7938  158.6026 C   0  0  0  0  0  0  0  0  0  0  0  0
  150.7350  142.3468  157.5708 C   0  0  0  0  0  0  0  0  0  0  0  0
  151.0181  141.4987  156.3291 C   0  0  2  0  0  0  0  0  0  0  0  0
  149.8696  141.3008  155.3319 C   0  0  0  0  0  0  0  0  0  0  0  0
  150.3208  140.4264  154.2921 O   0  0  0  0  0  0  0  0  0  0  0  0
  149.8517  132.0928  153.4047 S   0  0  0  0  0  0  0  0  0  0  0  0
  151.2666  128.9683  154.9541 H   0  0  0  0  0  0  0  0  0  0  0  0
  150.8543  129.2464  153.2541 H   0  0  0  0  0  0  0  0  0  0  0  0
  149.5685  129.1068  154.4660 H   0  0  0  0  0  0  0  0  0  0  0  0
  149.9842  134.9464  153.2718 H   0  0  0  0  0  0  0  0  0  0  0  0
  149.7258  136.8744  153.4984 H   0  0  0  0  0  0  0  0  0  0  0  0
  148.7529  138.6120  154.9891 H   0  0  0  0  0  0  0  0  0  0  0  0
  149.8179  138.0124  156.2274 H   0  0  0  0  0  0  0  0  0  0  0  0
  151.3481  138.7247  153.8471 H   0  0  0  0  0  0  0  0  0  0  0  0
  152.2537  138.4106  156.2184 H   0  0  0  0  0  0  0  0  0  0  0  0
  152.8227  139.8157  155.3470 H   0  0  0  0  0  0  0  0  0  0  0  0
  152.5791  139.7570  158.5746 H   0  0  0  0  0  0  0  0  0  0  0  0
  153.3437  140.8895  157.4555 H   0  0  0  0  0  0  0  0  0  0  0  0
  151.2227  141.4805  159.5086 H   0  0  0  0  0  0  0  0  0  0  0  0
  152.4907  142.5353  158.8846 H   0  0  0  0  0  0  0  0  0  0  0  0
  149.7141  142.1908  157.9223 H   0  0  0  0  0  0  0  0  0  0  0  0
  150.8699  143.4119  157.3801 H   0  0  0  0  0  0  0  0  0  0  0  0
  151.8520  141.9607  155.7960 H   0  0  0  0  0  0  0  0  0  0  0  0
  148.9906  140.8872  155.8262 H   0  0  0  0  0  0  0  0  0  0  0  0
  149.5717  142.2532  154.8935 H   0  0  0  0  0  0  0  0  0  0  0  0
  1  2  1  0  0  0  0
  1 21  1  0  0  0  0
  1 22  1  0  0  0  0
  1 23  1  0  0  0  0
  2 20  1  0  0  0  0
  2  3  2  0  0  0  0
  3  4  1  0  0  0  0
  4  5  2  0  0  0  0
  5  6  1  0  0  0  0
  5 20  1  0  0  0  0
  6  7  1  0  0  0  0
  6 24  1  0  0  0  0
  7  8  2  0  0  0  0
  7  9  1  0  0  0  0
  9 10  1  0  0  0  0
  9 25  1  0  0  0  0
 10 11  1  0  0  0  0
 10 26  1  0  0  0  0
 10 27  1  0  0  0  0
 11 19  1  0  0  0  0
 11 12  1  0  0  0  0
 11 28  1  0  0  0  0
 12 13  1  0  0  0  0
 12 29  1  0  0  0  0
 12 30  1  0  0  0  0
 13 17  1  0  0  0  0
 13 14  1  0  0  0  0
 14 15  1  0  0  0  0
 14 31  1  0  0  0  0
 14 32  1  0  0  0  0
 15 16  1  0  0  0  0
 15 33  1  0  0  0  0
 15 34  1  0  0  0  0
 16 17  1  0  0  0  0
 16 35  1  0  0  0  0
 16 36  1  0  0  0  0
 17 18  1  0  0  0  0
 17 37  1  0  0  0  0
 18 19  1  0  0  0  0
 18 38  1  0  0  0  0
 18 39  1  0  0  0  0
M  END
> <s_m_source_file>
AV-unprocessed.smi

> <i_m_source_file_index>
1809

> <i_lp_mmshare_version>
43012

> <i_f3d_flags>
0

> <s_epik_input>
W0NIM11jMW5uYyhzMSlbTkhdQyg9TylbTkhdW0NIMl1bQ0BIXShbQ0gyXTIpT1tDSDJdW0NAQEhdKE4yMylbQ0gyXVtDSDJdW0NIMl0z

> <s_epik_cmdline>
J2VwaWtfcHl0aG9uJywgJy1waCcsICc3LjAnLCAnLXRuJywgJzgnLCAnLW1hJywgJzIwMCcsICctbWV0YWxfYmluZGluZycsICctaW1hZScsICc8aW5maWxlLm1hZT4nLCAnLW9tYWUnLCAnPG91dGZpbGUubWFlPic=

> <r_lp_tautomer_probability>
1

> <r_epik_Ionization_Penalty>
1.05954

> <r_epik_Ionization_Penalty_Charging>
0

> <r_epik_Ionization_Penalty_Neutral>
1.05954

> <r_epik_State_Penalty>
1.4238

> <r_epik_Charging_Adjusted_Penalty>
1.4238

> <i_epik_Tot_Q>
0

> <i_epik_Tot_abs_Q>
0

> <r_epik_Metal_State_Penalty>
1.7901

> <b_epik_Metal_Only>
0

> <s_lp_Force_Field>
OPLS_2005

> <r_lp_Energy>
48.8115

> <b_lp_Chiralities_Consistent>
1

> <s_lp_Variant>
AV-unprocessed.smi:1809-11

> <Gold.Version>
5.8.1

> <Gold.Id.Protein>
6NUR|6NUR_protein|mol2

> <Gold.PLP.Fitness>
39.7102

> <Gold.PLP.PLP>
-33.8175

> <Gold.PLP.part.hbond>
-3.0000

> <Gold.PLP.part.metal>
0.0000

> <Gold.PLP.part.buried>
-5.7649

> <Gold.PLP.part.nonpolar>
-26.4924

> <Gold.PLP.part.repulsive>
0.1904

> <Gold.PLP.ligand.clash>
0.0000

> <Gold.PLP.ligand.torsion>
0.8102

> <Gold.PLP.Chemscore.Hbond>
2.5012

> <Gold.PLP.Chemscore.CHOScore>
0.0000

> <Gold.PLP.Chemscore.Metal>
0.0000

> <Gold.Chemscore.Hbonds>
donor molecule, donor type, donor heavy atom, donor atom, acceptor molecule, acceptor atom, score
      L1  H     9    25       P1  7948  1.00
      P1  H  7989  7998       L1    19  0.76

> <Gold.PLP.Chemscore.Internal.Correction>
0.0095

> <Gold.Rescore>
     Score         DG    S(hbond)    S(metal)    S(lipo)     H(rot)  DE(clash)    DE(int)     intcor
     16.09     -18.16       2.59        0.00      63.33       1.32       0.08       1.99       ----

> <Gold.Chemscore.Fitness>
16.0874

> <Gold.Chemscore.DG>
-18.1585

> <Gold.Chemscore.ZeroCoef>
-5.4800

> <Gold.Chemscore.Hbond>
2.5890

> <Gold.Chemscore.Metal>
0.0000

> <Gold.Chemscore.Lipo>
63.3297

> <Gold.Chemscore.Internal_Hbond>
0.0000

> <Gold.Chemscore.DEClash>
0.0811

> <Gold.Chemscore.DEInternal>
1.9900

> <Gold.Chemscore.Rot>
1.3196

> <Gold.Chemscore.Internal.Correction>
   9.000000E+99

> <Gold.Chemscore.Hbonds>
donor molecule, donor type, donor heavy atom, donor atom, acceptor molecule, acceptor atom, score
      L1  H     9    25       P1  7948  0.55
      P1  H  7989  7998       L1    19  0.10

> <Gold.Chemscore.Hbond.Weighted>
-8.6472

> <Gold.Chemscore.Metal.Weighted>
-0.0000

> <Gold.Chemscore.Lipo.Weighted>
-7.4096

> <Gold.Chemscore.Internal_Hbond.Weighted>
0.0000

> <Gold.Chemscore.DEClash.Weighted>
0.0811

> <Gold.Chemscore.DEInternal.Weighted>
1.9900

> <Gold.Chemscore.Rot.Weighted>
3.3783

> <Gold.Chemscore.Internal.Correction.Weighted>
   9.000000E+99

> <Gold.Protein.RotatedTorsions>
[ 6907 6896 6895 6894 ] final   76.71 input  -60.11 | X-H torsion
[ 7974 7965 7964 7962 ] final -106.37 input  175.53 | X-H torsion
[ 8008 7997 7996 7995 ] final   49.89 input   59.86 | X-H torsion
[ 10167 10162 10161 10158 ] final  171.06 input  -65.29 | X-H torsion
[ 10718 10713 10712 10709 ] final  108.06 input   66.30 | X-H torsion
[ 10763 10752 10751 10750 ] final  136.25 input  -60.55 | X-H torsion
[ 11005 11000 10999 10996 ] final -153.73 input  -57.11 | X-H torsion

> <Gold.Protein.ActiveResidues>
 VAL166  LYS551  ARG553  GLY616  TRP617  ASP618  TYR619  PRO620  LYS621  CYS622 
 ASP623  PHE694  ASN695  SER759  ASP760  ASP761  ALA762  ILE779  LEU786  VAL792 
 PHE793  MET794  SER795  GLU796  ALA797  LYS798  CYS799  TRP800  GLU811  SER814 

> <Gold.Protein.RotatedAtoms>
  152.5085  134.3927  159.9389 H   0  0  0  0  0  0  0  0  0  0  0  0  # atno 6907 bound_to 6896
  151.3888  133.3790  159.2726 H   0  0  0  0  0  0  0  0  0  0  0  0  # atno 6908 bound_to 6896
  150.9448  134.8875  159.7694 H   0  0  0  0  0  0  0  0  0  0  0  0  # atno 6909 bound_to 6896
  145.2187  140.9125  143.3272 H   0  0  0  0  0  0  0  0  0  0  0  0  # atno 7974 bound_to 7965
  155.4098  140.3441  155.4263 H   0  0  0  0  0  0  0  0  0  0  0  0  # atno 8008 bound_to 7997
  156.1455  140.1555  156.8884 H   0  0  0  0  0  0  0  0  0  0  0  0  # atno 8009 bound_to 7997
  154.5007  140.0815  156.7773 H   0  0  0  0  0  0  0  0  0  0  0  0  # atno 8010 bound_to 7997
  139.5036  144.3527  151.9906 H   0  0  0  0  0  0  0  0  0  0  0  0  # atno 10167 bound_to 10162
  157.6602  131.0886  150.6249 H   0  0  0  0  0  0  0  0  0  0  0  0  # atno 10718 bound_to 10713
  153.8534  135.3076  155.3434 H   0  0  0  0  0  0  0  0  0  0  0  0  # atno 10763 bound_to 10752
  154.7881  135.4798  153.9994 H   0  0  0  0  0  0  0  0  0  0  0  0  # atno 10764 bound_to 10752
  153.1505  135.6842  153.8983 H   0  0  0  0  0  0  0  0  0  0  0  0  # atno 10765 bound_to 10752
  140.7050  134.3895  157.5205 H   0  0  0  0  0  0  0  0  0  0  0  0  # atno 11005 bound_to 11000
  144.9786  139.3806  143.6273 LP  0  0  0  0  0  0  0  0  0  0  0  0  # atno 17320 bound_to 7965
  146.3381  139.8917  142.8808 LP  0  0  0  0  0  0  0  0  0  0  0  0  # atno 17321 bound_to 7965
  140.2964  144.3696  150.6073 LP  0  0  0  0  0  0  0  0  0  0  0  0  # atno 17342 bound_to 10162
  140.5907  143.2168  151.7258 LP  0  0  0  0  0  0  0  0  0  0  0  0  # atno 17343 bound_to 10162
  156.6552  130.4496  149.5706 LP  0  0  0  0  0  0  0  0  0  0  0  0  # atno 17370 bound_to 10713
  156.2108  130.6677  151.1267 LP  0  0  0  0  0  0  0  0  0  0  0  0  # atno 17371 bound_to 10713
  139.8886  134.8851  156.2463 LP  0  0  0  0  0  0  0  0  0  0  0  0  # atno 17394 bound_to 11000
  141.0132  133.7083  156.1146 LP  0  0  0  0  0  0  0  0  0  0  0  0  # atno 17395 bound_to 11000

$$$$
