AV-unprocessed.smi:829|AV-procd|sdf|3867|dock8
  -GOLD-   22720 1323D 1   1.00000     0.00000
 Structure written by MMmdl.
 49 51  0  0  0  0  0  0  0  0  2 V2000
  146.6295  139.4145  151.6620 O   0  0  0  0  0  0  0  0  0  0  0  0
  146.5607  139.0401  152.8323 C   0  0  0  0  0  0  0  0  0  0  0  0
  146.1344  137.8325  153.2417 N   0  0  0  0  0  0  0  0  0  0  0  0
  145.6794  136.7385  152.4560 C   0  0  0  0  0  0  0  0  0  0  0  0
  145.6137  135.4715  153.0714 C   0  0  0  0  0  0  0  0  0  0  0  0
  145.1793  134.3679  152.3099 C   0  0  0  0  0  0  0  0  0  0  0  0
  144.8288  134.4561  151.0097 N   0  0  0  0  0  0  0  0  0  0  0  0
  144.9070  135.6668  150.4179 C   0  0  0  0  0  0  0  0  0  0  0  0
  145.3275  136.8332  151.0879 C   0  0  0  0  0  0  0  0  0  0  0  0
  146.8886  139.8182  153.8746 N   0  0  0  0  0  0  0  0  0  0  0  0
  147.3743  141.1949  153.7794 C   0  0  2  0  0  0  0  0  0  0  0  0
  148.8998  141.2451  153.9774 C   0  0  0  0  0  0  0  0  0  0  0  0
  149.3071  140.9852  155.4401 C   0  0  0  0  0  0  0  0  0  0  0  0
  148.6194  141.9229  156.3653 N   0  3  2  0  0  0  0  0  0  0  0  0
  149.0990  141.8111  157.7673 C   0  0  0  0  0  0  0  0  0  0  0  0
  150.5327  142.3530  157.9320 C   0  0  0  0  0  0  0  0  0  0  0  0
  151.4404  141.4194  158.7364 C   0  0  0  0  0  0  0  0  0  0  0  0
  152.6242  142.2937  159.1572 C   0  0  0  0  0  0  0  0  0  0  0  0
  152.0850  143.7290  159.2270 C   0  0  0  0  0  0  0  0  0  0  0  0
  150.6474  143.6779  158.6953 C   0  0  0  0  0  0  0  0  0  0  0  0
  147.1422  141.8187  156.2425 C   0  0  0  0  0  0  0  0  0  0  0  0
  146.6873  142.1197  154.8046 C   0  0  0  0  0  0  0  0  0  0  0  0
  146.0668  137.7010  154.2401 H   0  0  0  0  0  0  0  0  0  0  0  0
  145.8838  135.3421  154.1092 H   0  0  0  0  0  0  0  0  0  0  0  0
  145.1140  133.3874  152.7579 H   0  0  0  0  0  0  0  0  0  0  0  0
  144.6313  135.7072  149.3747 H   0  0  0  0  0  0  0  0  0  0  0  0
  145.3821  137.7614  150.5405 H   0  0  0  0  0  0  0  0  0  0  0  0
  146.8034  139.4275  154.8015 H   0  0  0  0  0  0  0  0  0  0  0  0
  147.1522  141.5576  152.7741 H   0  0  0  0  0  0  0  0  0  0  0  0
  149.3918  140.5296  153.3172 H   0  0  0  0  0  0  0  0  0  0  0  0
  149.2645  142.2292  153.6794 H   0  0  0  0  0  0  0  0  0  0  0  0
  149.0776  139.9569  155.7242 H   0  0  0  0  0  0  0  0  0  0  0  0
  150.3873  141.1054  155.5316 H   0  0  0  0  0  0  0  0  0  0  0  0
  148.4075  142.2999  158.4556 H   0  0  0  0  0  0  0  0  0  0  0  0
  149.1109  140.7606  158.0622 H   0  0  0  0  0  0  0  0  0  0  0  0
  150.9810  142.4811  156.9449 H   0  0  0  0  0  0  0  0  0  0  0  0
  150.9168  141.0632  159.6250 H   0  0  0  0  0  0  0  0  0  0  0  0
  151.7546  140.5450  158.1651 H   0  0  0  0  0  0  0  0  0  0  0  0
  153.0542  141.9670  160.1044 H   0  0  0  0  0  0  0  0  0  0  0  0
  153.4112  142.2367  158.4041 H   0  0  0  0  0  0  0  0  0  0  0  0
  152.1078  144.1164  160.2461 H   0  0  0  0  0  0  0  0  0  0  0  0
  152.6994  144.3899  158.6145 H   0  0  0  0  0  0  0  0  0  0  0  0
  150.4144  144.5402  158.0698 H   0  0  0  0  0  0  0  0  0  0  0  0
  149.9547  143.6831  159.5380 H   0  0  0  0  0  0  0  0  0  0  0  0
  146.8191  140.8199  156.5401 H   0  0  0  0  0  0  0  0  0  0  0  0
  146.6547  142.5165  156.9213 H   0  0  0  0  0  0  0  0  0  0  0  0
  146.9274  143.1569  154.5669 H   0  0  0  0  0  0  0  0  0  0  0  0
  145.6021  142.0407  154.7319 H   0  0  0  0  0  0  0  0  0  0  0  0
  148.8743  142.8503  156.0572 H   0  0  0  0  0  0  0  0  0  0  0  0
  1  2  2  0  0  0  0
  2  3  1  0  0  0  0
  2 10  1  0  0  0  0
  3  4  1  0  0  0  0
  3 23  1  0  0  0  0
  4  9  1  0  0  0  0
  4  5  2  0  0  0  0
  5  6  1  0  0  0  0
  5 24  1  0  0  0  0
  6  7  2  0  0  0  0
  6 25  1  0  0  0  0
  7  8  1  0  0  0  0
  8  9  2  0  0  0  0
  8 26  1  0  0  0  0
  9 27  1  0  0  0  0
 10 11  1  0  0  0  0
 10 28  1  0  0  0  0
 11 22  1  0  0  0  0
 11 12  1  0  0  0  0
 11 29  1  0  0  0  0
 12 13  1  0  0  0  0
 12 30  1  0  0  0  0
 12 31  1  0  0  0  0
 13 14  1  0  0  0  0
 13 32  1  0  0  0  0
 13 33  1  0  0  0  0
 14 15  1  0  0  0  0
 14 21  1  0  0  0  0
 14 49  1  0  0  0  0
 15 16  1  0  0  0  0
 15 34  1  0  0  0  0
 15 35  1  0  0  0  0
 16 20  1  0  0  0  0
 16 17  1  0  0  0  0
 16 36  1  0  0  0  0
 17 18  1  0  0  0  0
 17 37  1  0  0  0  0
 17 38  1  0  0  0  0
 18 19  1  0  0  0  0
 18 39  1  0  0  0  0
 18 40  1  0  0  0  0
 19 20  1  0  0  0  0
 19 41  1  0  0  0  0
 19 42  1  0  0  0  0
 20 43  1  0  0  0  0
 20 44  1  0  0  0  0
 21 22  1  0  0  0  0
 21 45  1  0  0  0  0
 21 46  1  0  0  0  0
 22 47  1  0  0  0  0
 22 48  1  0  0  0  0
M  CHG  1  14   1
M  END
> <s_m_source_file>
AV-unprocessed.smi

> <i_m_source_file_index>
829

> <i_lp_mmshare_version>
43012

> <i_f3d_flags>
0

> <s_epik_input>
W2NIXTFbY0hdbltjSF1bY0hdYzFbTkhdQyg9TylbTkhdW0NIXTJbQ0gyXVtDSDJdTihbQ0gyXVtDSDJdMilbQ0gyXVtDSF0zW0NIMl1bQ0gyXVtDSDJdW0NIMl0z

> <s_epik_cmdline>
J2VwaWtfcHl0aG9uJywgJy1waCcsICc3LjAnLCAnLXRuJywgJzgnLCAnLW1hJywgJzIwMCcsICctbWV0YWxfYmluZGluZycsICctaW1hZScsICc8aW5maWxlLm1hZT4nLCAnLW9tYWUnLCAnPG91dGZpbGUubWFlPic=

> <r_epik_Ionization_Penalty>
0.101981

> <r_epik_Ionization_Penalty_Charging>
0.00207989

> <r_epik_Ionization_Penalty_Neutral>
0.0999008

> <r_epik_State_Penalty>
0.0935668

> <r_epik_Charging_Adjusted_Penalty>
0.0956467

> <i_epik_Tot_Q>
1

> <i_epik_Tot_abs_Q>
1

> <r_epik_Metal_State_Penalty>
0.0787682

> <b_epik_Metal_Only>
0

> <s_lp_Force_Field>
OPLS_2005

> <r_lp_Energy>
43.3749

> <b_lp_Chiralities_Consistent>
1

> <s_lp_Variant>
AV-unprocessed.smi:829-2

> <Gold.Version>
5.8.1

> <Gold.Id.Protein>
6NUR|6NUR_protein|mol2

> <Gold.PLP.Fitness>
44.3186

> <Gold.PLP.PLP>
-37.3920

> <Gold.PLP.part.hbond>
-1.0000

> <Gold.PLP.part.metal>
0.0000

> <Gold.PLP.part.buried>
-4.7107

> <Gold.PLP.part.nonpolar>
-33.2613

> <Gold.PLP.part.repulsive>
1.2689

> <Gold.PLP.ligand.clash>
0.0000

> <Gold.PLP.ligand.torsion>
1.0503

> <Gold.PLP.Chemscore.Hbond>
2.0000

> <Gold.PLP.Chemscore.CHOScore>
1.0000

> <Gold.PLP.Chemscore.Metal>
0.0000

> <Gold.Chemscore.Hbonds>
donor molecule, donor type, donor heavy atom, donor atom, acceptor molecule, acceptor atom, score
      L1  H    14    49       P1  8028  2.00
      L1  C     8    26       P1  7921  0.83

> <Gold.PLP.Chemscore.Internal.Correction>
0.0272

> <Gold.Rescore>
     Score         DG    S(hbond)    S(metal)    S(lipo)     H(rot)  DE(clash)    DE(int)     intcor
     15.00     -17.36       0.99        0.00     102.67       1.35       0.12       2.24       ----

> <Gold.Chemscore.Fitness>
15.0001

> <Gold.Chemscore.DG>
-17.3559

> <Gold.Chemscore.ZeroCoef>
-5.4800

> <Gold.Chemscore.Hbond>
0.9903

> <Gold.Chemscore.Metal>
0.0000

> <Gold.Chemscore.Lipo>
102.6734

> <Gold.Chemscore.Internal_Hbond>
0.0000

> <Gold.Chemscore.DEClash>
0.1183

> <Gold.Chemscore.DEInternal>
2.2376

> <Gold.Chemscore.Rot>
1.3455

> <Gold.Chemscore.Internal.Correction>
   9.000000E+99

> <Gold.Chemscore.Hbonds>
donor molecule, donor type, donor heavy atom, donor atom, acceptor molecule, acceptor atom, score
      L1  H    14    49       P1  8028  1.00

> <Gold.Chemscore.Hbond.Weighted>
-3.3076

> <Gold.Chemscore.Metal.Weighted>
-0.0000

> <Gold.Chemscore.Lipo.Weighted>
-12.0128

> <Gold.Chemscore.Internal_Hbond.Weighted>
0.0000

> <Gold.Chemscore.DEClash.Weighted>
0.1183

> <Gold.Chemscore.DEInternal.Weighted>
2.2376

> <Gold.Chemscore.Rot.Weighted>
3.4445

> <Gold.Chemscore.Internal.Correction.Weighted>
   9.000000E+99

> <Gold.Protein.RotatedTorsions>
[ 6907 6896 6895 6894 ] final  -24.24 input  -60.11 | X-H torsion
[ 7974 7965 7964 7962 ] final  -75.28 input  175.53 | X-H torsion
[ 8008 7997 7996 7995 ] final  134.21 input   59.86 | X-H torsion
[ 10167 10162 10161 10158 ] final -147.40 input  -65.29 | X-H torsion
[ 10718 10713 10712 10709 ] final  133.13 input   66.30 | X-H torsion
[ 10763 10752 10751 10750 ] final -109.20 input  -60.55 | X-H torsion
[ 11005 11000 10999 10996 ] final -146.79 input  -57.11 | X-H torsion

> <Gold.Protein.ActiveResidues>
 VAL166  LYS551  ARG553  GLY616  TRP617  ASP618  TYR619  PRO620  LYS621  CYS622 
 ASP623  PHE694  ASN695  SER759  ASP760  ASP761  ALA762  ILE779  LEU786  VAL792 
 PHE793  MET794  SER795  GLU796  ALA797  LYS798  CYS799  TRP800  GLU811  SER814 

> <Gold.Protein.RotatedAtoms>
  151.1924  135.0408  159.8837 H   0  0  0  0  0  0  0  0  0  0  0  0  # atno 6907 bound_to 6896
  152.5438  134.0941  159.8299 H   0  0  0  0  0  0  0  0  0  0  0  0  # atno 6908 bound_to 6896
  151.1071  133.5153  159.2639 H   0  0  0  0  0  0  0  0  0  0  0  0  # atno 6909 bound_to 6896
  145.6281  140.9345  143.1102 H   0  0  0  0  0  0  0  0  0  0  0  0  # atno 7974 bound_to 7965
  156.2997  140.2502  156.3380 H   0  0  0  0  0  0  0  0  0  0  0  0  # atno 8008 bound_to 7997
  154.9082  140.0404  157.1950 H   0  0  0  0  0  0  0  0  0  0  0  0  # atno 8009 bound_to 7997
  154.8432  140.2894  155.5650 H   0  0  0  0  0  0  0  0  0  0  0  0  # atno 8010 bound_to 7997
  139.7626  143.8355  152.2610 H   0  0  0  0  0  0  0  0  0  0  0  0  # atno 10167 bound_to 10162
  157.4803  131.1085  150.9690 H   0  0  0  0  0  0  0  0  0  0  0  0  # atno 10718 bound_to 10713
  154.8180  135.4609  154.0697 H   0  0  0  0  0  0  0  0  0  0  0  0  # atno 10763 bound_to 10752
  153.2074  135.6877  153.8162 H   0  0  0  0  0  0  0  0  0  0  0  0  # atno 10764 bound_to 10752
  153.7626  135.3282  155.3316 H   0  0  0  0  0  0  0  0  0  0  0  0  # atno 10765 bound_to 10752
  140.7784  134.3108  157.5053 H   0  0  0  0  0  0  0  0  0  0  0  0  # atno 11005 bound_to 11000
  144.7204  139.8049  143.7384 LP  0  0  0  0  0  0  0  0  0  0  0  0  # atno 17320 bound_to 7965
  146.1378  139.4428  143.0128 LP  0  0  0  0  0  0  0  0  0  0  0  0  # atno 17321 bound_to 7965
  139.8366  144.7229  150.9384 LP  0  0  0  0  0  0  0  0  0  0  0  0  # atno 17342 bound_to 10162
  140.7808  143.4021  151.1131 LP  0  0  0  0  0  0  0  0  0  0  0  0  # atno 17343 bound_to 10162
  157.0425  130.5755  149.5358 LP  0  0  0  0  0  0  0  0  0  0  0  0  # atno 17370 bound_to 10713
  156.0118  130.5210  150.8013 LP  0  0  0  0  0  0  0  0  0  0  0  0  # atno 17371 bound_to 10713
  139.8746  134.9303  156.3499 LP  0  0  0  0  0  0  0  0  0  0  0  0  # atno 17394 bound_to 11000
  140.9506  133.7453  156.0267 LP  0  0  0  0  0  0  0  0  0  0  0  0  # atno 17395 bound_to 11000

$$$$
