AV-unprocessed.smi:227|AV-procd|sdf|1742|dock8
  -GOLD-   2262020253D 1   1.00000     0.00000
 Structure written by MMmdl.
 54 58  0  0  0  0  0  0  0  0  1 V2000
  149.3467  133.8366  158.4602 O   0  0  0  0  0  0  0  0  0  0  0  0
  147.9970  133.8727  158.8781 C   0  0  0  0  0  0  0  0  0  0  0  0
  147.8734  134.0224  160.4168 C   0  0  1  0  0  0  0  0  0  0  0  0
  148.3163  135.4256  160.9098 C   0  0  0  0  0  0  0  0  0  0  0  0
  148.3009  136.4424  159.8733 N   0  0  0  0  0  0  0  0  0  0  0  0
  147.1908  137.0634  159.3526 C   0  0  0  0  0  0  0  0  0  0  0  0
  147.4361  137.9512  158.4290 N   0  0  0  0  0  0  0  0  0  0  0  0
  148.8217  137.9518  158.3036 C   0  0  0  0  0  0  0  0  0  0  0  0
  149.7592  138.6750  157.5062 C   0  0  0  0  0  0  0  0  0  0  0  0
  149.4373  139.6313  156.5904 N   0  0  0  0  0  0  0  0  0  0  0  0
  150.4487  140.2858  155.7727 C   0  0  1  0  0  0  0  0  0  0  0  0
  150.8600  139.2047  154.7536 C   0  0  0  0  0  0  0  0  0  0  0  0
  149.5259  138.4724  154.5440 C   0  0  0  0  0  0  0  0  0  0  0  0
  148.5831  139.2857  155.4612 C   0  0  2  0  0  0  0  0  0  0  0  0
  148.2749  140.6815  154.8741 C   0  0  2  0  0  0  0  0  0  0  0  0
  147.6929  140.7386  153.4492 C   0  0  0  0  0  0  0  0  0  0  0  0
  146.6192  139.8314  153.3205 O   0  0  0  0  0  0  0  0  0  0  0  0
  149.6392  141.3729  155.0415 C   0  0  0  0  0  0  0  0  0  0  0  0
  151.0739  138.3665  157.6645 N   0  0  0  0  0  0  0  0  0  0  0  0
  151.4558  137.4390  158.5459 C   0  0  0  0  0  0  0  0  0  0  0  0
  150.6997  136.7016  159.3588 N   0  0  0  0  0  0  0  0  0  0  0  0
  149.3774  136.9930  159.2006 C   0  0  0  0  0  0  0  0  0  0  0  0
  146.4297  133.7104  160.8900 C   0  0  1  0  0  0  0  0  0  0  0  0
  146.2223  133.7756  162.4040 C   0  0  0  0  0  0  0  0  0  0  0  0
  144.8305  134.3881  162.5881 C   0  0  0  0  0  0  0  0  0  0  0  0
  144.2819  134.4717  161.2826 O   0  0  0  0  0  0  0  0  0  0  0  0
  145.3593  134.6838  160.3884 C   0  0  0  0  0  0  0  0  0  0  0  0
  149.4229  133.2269  157.7420 H   0  0  0  0  0  0  0  0  0  0  0  0
  147.4759  134.6829  158.3669 H   0  0  0  0  0  0  0  0  0  0  0  0
  147.5432  132.9460  158.5294 H   0  0  0  0  0  0  0  0  0  0  0  0
  148.5278  133.2819  160.8805 H   0  0  0  0  0  0  0  0  0  0  0  0
  147.6756  135.7548  161.7289 H   0  0  0  0  0  0  0  0  0  0  0  0
  149.3296  135.3914  161.3094 H   0  0  0  0  0  0  0  0  0  0  0  0
  146.1879  136.8383  159.6849 H   0  0  0  0  0  0  0  0  0  0  0  0
  151.2887  140.7165  156.3144 H   0  0  0  0  0  0  0  0  0  0  0  0
  151.2626  139.6259  153.8318 H   0  0  0  0  0  0  0  0  0  0  0  0
  151.6082  138.5306  155.1727 H   0  0  0  0  0  0  0  0  0  0  0  0
  149.2108  138.4371  153.5024 H   0  0  0  0  0  0  0  0  0  0  0  0
  149.6042  137.4415  154.8918 H   0  0  0  0  0  0  0  0  0  0  0  0
  147.6739  138.7447  155.7257 H   0  0  0  0  0  0  0  0  0  0  0  0
  147.5655  141.1728  155.5430 H   0  0  0  0  0  0  0  0  0  0  0  0
  147.3203  141.7422  153.2431 H   0  0  0  0  0  0  0  0  0  0  0  0
  148.4448  140.5264  152.6901 H   0  0  0  0  0  0  0  0  0  0  0  0
  145.9420  140.2392  152.8027 H   0  0  0  0  0  0  0  0  0  0  0  0
  149.5396  142.2686  155.6559 H   0  0  0  0  0  0  0  0  0  0  0  0
  150.0967  141.6648  154.0953 H   0  0  0  0  0  0  0  0  0  0  0  0
  152.5197  137.2638  158.6089 H   0  0  0  0  0  0  0  0  0  0  0  0
  146.1519  132.7102  160.5531 H   0  0  0  0  0  0  0  0  0  0  0  0
  146.2842  132.7819  162.8491 H   0  0  0  0  0  0  0  0  0  0  0  0
  146.9698  134.4034  162.8909 H   0  0  0  0  0  0  0  0  0  0  0  0
  144.1935  133.7909  163.2410 H   0  0  0  0  0  0  0  0  0  0  0  0
  144.9062  135.3907  163.0112 H   0  0  0  0  0  0  0  0  0  0  0  0
  145.6961  135.7195  160.4596 H   0  0  0  0  0  0  0  0  0  0  0  0
  145.0561  134.4882  159.3597 H   0  0  0  0  0  0  0  0  0  0  0  0
  1  2  1  0  0  0  0
  1 28  1  0  0  0  0
  2  3  1  0  0  0  0
  2 29  1  0  0  0  0
  2 30  1  0  0  0  0
  3  4  1  0  0  0  0
  3 23  1  0  0  0  0
  3 31  1  0  0  0  0
  4  5  1  0  0  0  0
  4 32  1  0  0  0  0
  4 33  1  0  0  0  0
  5 22  1  0  0  0  0
  5  6  1  0  0  0  0
  6  7  2  0  0  0  0
  6 34  1  0  0  0  0
  7  8  1  0  0  0  0
  8 22  2  0  0  0  0
  8  9  1  0  0  0  0
  9 10  1  0  0  0  0
  9 19  2  0  0  0  0
 10 14  1  0  0  0  0
 10 11  1  0  0  0  0
 11 18  1  0  0  0  0
 11 12  1  0  0  0  0
 11 35  1  0  0  0  0
 12 13  1  0  0  0  0
 12 36  1  0  0  0  0
 12 37  1  0  0  0  0
 13 14  1  0  0  0  0
 13 38  1  0  0  0  0
 13 39  1  0  0  0  0
 14 15  1  0  0  0  0
 14 40  1  0  0  0  0
 15 16  1  0  0  0  0
 15 18  1  0  0  0  0
 15 41  1  0  0  0  0
 16 17  1  0  0  0  0
 16 42  1  0  0  0  0
 16 43  1  0  0  0  0
 17 44  1  0  0  0  0
 18 45  1  0  0  0  0
 18 46  1  0  0  0  0
 19 20  1  0  0  0  0
 20 21  2  0  0  0  0
 20 47  1  0  0  0  0
 21 22  1  0  0  0  0
 23 27  1  0  0  0  0
 23 24  1  0  0  0  0
 23 48  1  0  0  0  0
 24 25  1  0  0  0  0
 24 49  1  0  0  0  0
 24 50  1  0  0  0  0
 25 26  1  0  0  0  0
 25 51  1  0  0  0  0
 25 52  1  0  0  0  0
 26 27  1  0  0  0  0
 27 53  1  0  0  0  0
 27 54  1  0  0  0  0
M  END
> <s_m_source_file>
AV-unprocessed.smi

> <i_m_source_file_index>
227

> <i_lp_mmshare_version>
43012

> <i_f3d_flags>
0

> <s_epik_input>
W0NIMl0xT1tDSDJdW0NIMl1bQ0BIXTFbQ0BIXShbQ0gyXVtPSF0pW0NIMl1uKFtjSF1uMiljKGMyMyluW2NIXW5jM04oW0NASF00NSlbQ0BASF0oW0NIMl1bQ0gyXTQpW0NASF0oW0NIMl01KVtDSDJdW09IXQ==

> <s_epik_cmdline>
J2VwaWtfcHl0aG9uJywgJy1waCcsICc3LjAnLCAnLXRuJywgJzgnLCAnLW1hJywgJzIwMCcsICctbWV0YWxfYmluZGluZycsICctaW1hZScsICc8aW5maWxlLm1hZT4nLCAnLW9tYWUnLCAnPG91dGZpbGUubWFlPic=

> <r_lp_tautomer_probability>
1

> <r_epik_Ionization_Penalty>
0.0055791

> <r_epik_Ionization_Penalty_Charging>
0

> <r_epik_Ionization_Penalty_Neutral>
0.0055791

> <r_epik_State_Penalty>
0.00401299

> <r_epik_Charging_Adjusted_Penalty>
0.00401299

> <i_epik_Tot_Q>
0

> <i_epik_Tot_abs_Q>
0

> <r_epik_Metal_State_Penalty>
-0

> <b_epik_Metal_Only>
0

> <s_lp_Force_Field>
OPLS_2005

> <r_lp_Energy>
88.534

> <b_lp_Chiralities_Consistent>
1

> <s_lp_Variant>
AV-unprocessed.smi:227-16

> <Gold.Version>
5.8.1

> <Gold.Id.Protein>
6NUR|6NUR_protein|mol2

> <Gold.PLP.Fitness>
43.0947

> <Gold.PLP.PLP>
-36.3798

> <Gold.PLP.part.hbond>
-3.6075

> <Gold.PLP.part.metal>
0.0000

> <Gold.PLP.part.buried>
-4.6273

> <Gold.PLP.part.nonpolar>
-28.9721

> <Gold.PLP.part.repulsive>
0.0069

> <Gold.PLP.ligand.clash>
0.0000

> <Gold.PLP.ligand.torsion>
0.9579

> <Gold.PLP.Chemscore.Hbond>
2.8400

> <Gold.PLP.Chemscore.CHOScore>
0.0000

> <Gold.PLP.Chemscore.Metal>
0.0000

> <Gold.Chemscore.Hbonds>
donor molecule, donor type, donor heavy atom, donor atom, acceptor molecule, acceptor atom, score
      L1  H    17    44       P1 10175  0.33
      P1  H  6896  6908       L1     1  0.96
      P1  H  6896  6909       L1    21  1.00

> <Gold.PLP.Chemscore.Internal.Correction>
0.1106

> <Gold.Rescore>
     Score         DG    S(hbond)    S(metal)    S(lipo)     H(rot)  DE(clash)    DE(int)     intcor
     13.65     -15.06       2.71        0.00      83.37       3.61       0.13       1.28       ----

> <Gold.Chemscore.Fitness>
13.6476

> <Gold.Chemscore.DG>
-15.0602

> <Gold.Chemscore.ZeroCoef>
-5.4800

> <Gold.Chemscore.Hbond>
2.7127

> <Gold.Chemscore.Metal>
0.0000

> <Gold.Chemscore.Lipo>
83.3668

> <Gold.Chemscore.Internal_Hbond>
0.0000

> <Gold.Chemscore.DEClash>
0.1334

> <Gold.Chemscore.DEInternal>
1.2792

> <Gold.Chemscore.Rot>
3.6071

> <Gold.Chemscore.Internal.Correction>
   9.000000E+99

> <Gold.Chemscore.Hbonds>
donor molecule, donor type, donor heavy atom, donor atom, acceptor molecule, acceptor atom, score
      L1  H    17    44       P1 10175  0.28
      P1  H  6896  6908       L1     1  0.41
      P1  H  6896  6909       L1    21  0.89

> <Gold.Chemscore.Hbond.Weighted>
-9.0605

> <Gold.Chemscore.Metal.Weighted>
-0.0000

> <Gold.Chemscore.Lipo.Weighted>
-9.7539

> <Gold.Chemscore.Internal_Hbond.Weighted>
0.0000

> <Gold.Chemscore.DEClash.Weighted>
0.1334

> <Gold.Chemscore.DEInternal.Weighted>
1.2792

> <Gold.Chemscore.Rot.Weighted>
9.2342

> <Gold.Chemscore.Internal.Correction.Weighted>
   9.000000E+99

> <Gold.Protein.RotatedTorsions>
[ 6907 6896 6895 6894 ] final  112.70 input  -60.11 | X-H torsion
[ 7974 7965 7964 7962 ] final -107.08 input  175.53 | X-H torsion
[ 8008 7997 7996 7995 ] final  -99.18 input   59.86 | X-H torsion
[ 10167 10162 10161 10158 ] final  -36.67 input  -65.29 | X-H torsion
[ 10718 10713 10712 10709 ] final   54.81 input   66.30 | X-H torsion
[ 10763 10752 10751 10750 ] final  155.85 input  -60.55 | X-H torsion
[ 11005 11000 10999 10996 ] final -173.81 input  -57.11 | X-H torsion

> <Gold.Protein.ActiveResidues>
 VAL166  LYS551  ARG553  GLY616  TRP617  ASP618  TYR619  PRO620  LYS621  CYS622 
 ASP623  PHE694  ASN695  SER759  ASP760  ASP761  ALA762  ILE779  LEU786  VAL792 
 PHE793  MET794  SER795  GLU796  ALA797  LYS798  CYS799  TRP800  GLU811  SER814 

> <Gold.Protein.RotatedAtoms>
  152.4902  133.8479  159.7186 H   0  0  0  0  0  0  0  0  0  0  0  0  # atno 6907 bound_to 6896
  150.9024  133.7092  159.2882 H   0  0  0  0  0  0  0  0  0  0  0  0  # atno 6908 bound_to 6896
  151.4528  135.1035  159.9755 H   0  0  0  0  0  0  0  0  0  0  0  0  # atno 6909 bound_to 6896
  145.2098  140.9091  143.3321 H   0  0  0  0  0  0  0  0  0  0  0  0  # atno 7974 bound_to 7965
  154.8113  140.0449  157.1345 H   0  0  0  0  0  0  0  0  0  0  0  0  # atno 8008 bound_to 7997
  154.9365  140.3047  155.5122 H   0  0  0  0  0  0  0  0  0  0  0  0  # atno 8009 bound_to 7997
  156.2972  140.2313  156.4430 H   0  0  0  0  0  0  0  0  0  0  0  0  # atno 8010 bound_to 7997
  140.7137  143.3393  151.2393 H   0  0  0  0  0  0  0  0  0  0  0  0  # atno 10167 bound_to 10162
  157.5290  130.8617  149.8661 H   0  0  0  0  0  0  0  0  0  0  0  0  # atno 10718 bound_to 10713
  154.1749  135.2802  155.3070 H   0  0  0  0  0  0  0  0  0  0  0  0  # atno 10763 bound_to 10752
  154.6047  135.5518  153.7413 H   0  0  0  0  0  0  0  0  0  0  0  0  # atno 10764 bound_to 10752
  153.0154  135.6400  154.1889 H   0  0  0  0  0  0  0  0  0  0  0  0  # atno 10765 bound_to 10752
  140.4815  134.6070  157.4921 H   0  0  0  0  0  0  0  0  0  0  0  0  # atno 11005 bound_to 11000
  144.9866  139.3730  143.6235 LP  0  0  0  0  0  0  0  0  0  0  0  0  # atno 17320 bound_to 7965
  146.3400  139.9031  142.8791 LP  0  0  0  0  0  0  0  0  0  0  0  0  # atno 17321 bound_to 7965
  139.6896  143.9714  152.2852 LP  0  0  0  0  0  0  0  0  0  0  0  0  # atno 17342 bound_to 10162
  139.9372  144.6705  150.8303 LP  0  0  0  0  0  0  0  0  0  0  0  0  # atno 17343 bound_to 10162
  156.0408  130.3739  150.1441 LP  0  0  0  0  0  0  0  0  0  0  0  0  # atno 17370 bound_to 10713
  156.9626  130.9809  151.3476 LP  0  0  0  0  0  0  0  0  0  0  0  0  # atno 17371 bound_to 10713
  139.9823  134.7117  155.9836 LP  0  0  0  0  0  0  0  0  0  0  0  0  # atno 17394 bound_to 11000
  141.1529  133.6546  156.4068 LP  0  0  0  0  0  0  0  0  0  0  0  0  # atno 17395 bound_to 11000

$$$$
