#       Name:                AV-unprocessed.smi:13
#       Creating user name   scv26
#       Creation time:       Thu Mar 26 15:19:47 2020


#       File generated by GOLD software.
#

@<TRIPOS>MOLECULE
AV-unprocessed.smi:13
    64    68     1
SMALL
NO_CHARGES


@<TRIPOS>ATOM
      1 ****        -4.7869   0.2271  -0.3493 C.3            1 S1                 0.0000
      2 ****        -3.5045   0.8155   0.2552 C.3            1 S1                 0.0000
      3 ****        -3.9434   1.7814   1.3555 C.3            1 S1                 0.0000
      4 ****        -2.4474  -0.2224   0.6630 C.3            1 S1                 0.0000
      5 ****        -1.7989   0.0393  -0.6097 N.3            1 S1                 0.0000
      6 ****        -0.3753  -0.0279  -0.5637 C.ar           1 S1                 0.0000
      7 ****         0.3815   1.0004  -1.0319 N.ar           1 S1                 0.0000
      8 ****         1.7156   0.9444  -1.0110 C.ar           1 S1                 0.0000
      9 ****         2.5005  -0.0390  -0.5710 N.ar           1 S1                 0.0000
     10 ****         1.7592  -1.0822  -0.1023 C.ar           1 S1                 0.0000
     11 ****         0.3372  -1.1576  -0.0679 C.ar           1 S1                 0.0000
     12 ****        -0.0553  -2.3799   0.4644 N.2            1 S1                 0.0000
     13 ****         1.0672  -2.9879   0.7341 C.2            1 S1                 0.0000
     14 ****         2.2071  -2.2774   0.4337 N.pl3          1 S1                 0.0000
     15 ****         3.5820  -2.7143   0.6257 C.3            1 S1                 0.0000
     16 ****         4.0899  -2.5551   2.0793 C.3            1 S1                 0.0000
     17 ****         3.3359  -3.4074   2.9223 O.3            1 S1                 0.0000
     18 ****         5.5739  -2.9023   2.2188 C.3            1 S1                 0.0000
     19 ****         6.2378  -1.5494   2.4459 C.3            1 S1                 0.0000
     20 ****         5.2691  -0.8556   3.2114 O.3            1 S1                 0.0000
     21 ****         4.0062  -1.1105   2.6136 C.3            1 S1                 0.0000
     22 ****        -2.4263   1.3524  -0.7167 C.3            1 S1                 0.0000
     23 ****        -2.7645   1.7314  -2.1636 C.3            1 S1                 0.0000
     24 ****        -3.7317   2.9122  -2.2857 C.3            1 S1                 0.0000
     25 ****        -3.3427   3.5838  -3.5956 C.3            1 S1                 0.0000
     26 ****        -2.0674   2.8579  -4.0238 C.3            1 S1                 0.0000
     27 ****        -1.6168   2.2166  -2.8423 O.3            1 S1                 0.0000
     28 ****        -5.3347  -0.3643   0.3846 H              1 S1                 0.0000
     29 ****        -4.5723  -0.4318  -1.1912 H              1 S1                 0.0000
     30 ****        -5.4626   1.0035  -0.7075 H              1 S1                 0.0000
     31 ****        -3.0863   2.2277   1.8603 H              1 S1                 0.0000
     32 ****        -4.5389   1.2775   2.1176 H              1 S1                 0.0000
     33 ****        -4.5419   2.5997   0.9537 H              1 S1                 0.0000
     34 ****        -1.8438   0.0839   1.5198 H              1 S1                 0.0000
     35 ****        -2.8235  -1.2408   0.7644 H              1 S1                 0.0000
     36 ****         2.2255   1.8115  -1.4041 H              1 S1                 0.0000
     37 ****         1.0946  -3.9782   1.1652 H              1 S1                 0.0000
     38 ****         3.6536  -3.7567   0.3120 H              1 S1                 0.0000
     39 ****         4.2187  -2.1482  -0.0555 H              1 S1                 0.0000
     40 ****         3.6367  -3.2897   3.8106 H              1 S1                 0.0000
     41 ****         5.7495  -3.5339   3.0915 H              1 S1                 0.0000
     42 ****         5.9821  -3.4242   1.3526 H              1 S1                 0.0000
     43 ****         7.1891  -1.6282   2.9722 H              1 S1                 0.0000
     44 ****         6.4050  -1.0295   1.5010 H              1 S1                 0.0000
     45 ****         3.8817  -0.3950   1.8008 H              1 S1                 0.0000
     46 ****         3.1904  -0.9509   3.3200 H              1 S1                 0.0000
     47 ****        -1.8297   2.1151  -0.2118 H              1 S1                 0.0000
     48 ****        -3.1609   0.8768  -2.7154 H              1 S1                 0.0000
     49 ****        -4.7753   2.5992  -2.2753 H              1 S1                 0.0000
     50 ****        -3.5847   3.6103  -1.4605 H              1 S1                 0.0000
     51 ****        -4.1213   3.4923  -4.3534 H              1 S1                 0.0000
     52 ****        -3.1531   4.6455  -3.4342 H              1 S1                 0.0000
     53 ****        -2.2879   2.1029  -4.7803 H              1 S1                 0.0000
     54 ****        -1.3116   3.5338  -4.4241 H              1 S1                 0.0000
     55 ****        -1.9118  -0.5838  -1.3837 LP             1 S1                 0.0000
     56 ****        -0.0696   1.8139  -1.3988 LP             1 S1                 0.0000
     57 ****         3.5001  -0.0146  -0.5832 LP             1 S1                 0.0000
     58 ****        -0.9859  -2.7167   0.6080 LP             1 S1                 0.0000
     59 ****         3.4666  -4.3592   2.6446 LP             1 S1                 0.0000
     60 ****         2.3659  -3.1723   2.8601 LP             1 S1                 0.0000
     61 ****         5.4619   0.1255   3.2013 LP             1 S1                 0.0000
     62 ****         5.2755  -1.1869   4.1549 LP             1 S1                 0.0000
     63 ****        -1.0099   1.4567  -3.0752 LP             1 S1                 0.0000
     64 ****        -1.1272   2.8690  -2.2639 LP             1 S1                 0.0000
@<TRIPOS>BOND
    1    1    2 1     
    2    1   28 1     
    3    1   29 1     
    4    1   30 1     
    5    2   22 1     
    6    2    3 1     
    7    2    4 1     
    8    3   31 1     
    9    3   32 1     
   10    3   33 1     
   11    4    5 1     
   12    4   34 1     
   13    4   35 1     
   14    5    6 1     
   15    5   22 1     
   16    6   11 ar    
   17    6    7 ar    
   18    7    8 ar    
   19    8    9 ar    
   20    8   36 1     
   21    9   10 ar    
   22   10   14 1     
   23   10   11 ar    
   24   11   12 1     
   25   12   13 2     
   26   13   14 1     
   27   13   37 1     
   28   14   15 1     
   29   15   16 1     
   30   15   38 1     
   31   15   39 1     
   32   16   21 1     
   33   16   17 1     
   34   16   18 1     
   35   17   40 1     
   36   18   19 1     
   37   18   41 1     
   38   18   42 1     
   39   19   20 1     
   40   19   43 1     
   41   19   44 1     
   42   20   21 1     
   43   21   45 1     
   44   21   46 1     
   45   22   23 1     
   46   22   47 1     
   47   23   27 1     
   48   23   24 1     
   49   23   48 1     
   50   24   25 1     
   51   24   49 1     
   52   24   50 1     
   53   25   26 1     
   54   25   51 1     
   55   25   52 1     
   56   26   27 1     
   57   26   53 1     
   58   26   54 1     
   59    5   55 1     
   60    7   56 1     
   61    9   57 1     
   62   12   58 1     
   63   17   59 1     
   64   17   60 1     
   65   20   61 1     
   66   20   62 1     
   67   27   63 1     
   68   27   64 1     
@<TRIPOS>SUBSTRUCTURE
      1 S1             1
@<TRIPOS>SET
LONE_PAIRS      STATIC     ATOMS    <user>   **** ""
10 55 56 57 58 59 60 61 62 63 64
DONOR_HYDROGENS      STATIC     ATOMS    <user>   **** ""
1 40
ATOM$BLUE        STATIC     ATOMS    COLORGROUP SYSTEM
10 55 56 57 58 59 60 61 62 63 64
ATOM$RED        STATIC     ATOMS    COLORGROUP SYSTEM
1 40
