AV-unprocessed.smi:38|AV-procd|sdf|349|dock8
  -GOLD-   2262016193D 1   1.00000     0.00000
 Structure written by MMmdl.
 27 28  0  0  0  0  0  0  0  0  2 V2000
  150.9223  145.5816  159.8758 O   0  0  0  0  0  0  0  0  0  0  0  0
  150.5801  144.5757  159.2561 C   0  0  0  0  0  0  0  0  0  0  0  0
  149.3729  143.9680  159.4428 N   0  5  0  0  0  0  0  0  0  0  0  0
  148.9959  142.8504  158.7549 C   0  0  0  0  0  0  0  0  0  0  0  0
  147.9035  142.3030  158.9074 O   0  0  0  0  0  0  0  0  0  0  0  0
  149.8977  142.2865  157.8115 N   0  0  0  0  0  0  0  0  0  0  0  0
  149.4774  141.0520  157.0437 C   0  0  1  0  0  0  0  0  0  0  0  0
  148.8780  141.4444  155.6829 C   0  0  0  0  0  0  0  0  0  0  0  0
  149.5110  140.4363  154.7437 C   0  0  1  0  0  0  0  0  0  0  0  0
  149.6137  140.9540  153.4330 O   0  0  0  0  0  0  0  0  0  0  0  0
  150.8771  140.2356  155.4025 C   0  0  2  0  0  0  0  0  0  0  0  0
  151.6707  138.9759  155.0113 C   0  0  0  0  0  0  0  0  0  0  0  0
  152.9272  138.9149  155.6542 O   0  0  0  0  0  0  0  0  0  0  0  0
  150.5976  140.2485  156.7974 O   0  0  0  0  0  0  0  0  0  0  0  0
  151.1264  142.8885  157.5941 C   0  0  0  0  0  0  0  0  0  0  0  0
  151.4925  143.9948  158.2729 C   0  0  0  0  0  0  0  0  0  0  0  0
  152.6911  144.5568  158.0398 F   0  0  0  0  0  0  0  0  0  0  0  0
  148.7921  140.5029  157.6912 H   0  0  0  0  0  0  0  0  0  0  0  0
  148.9239  139.5176  154.7441 H   0  0  0  0  0  0  0  0  0  0  0  0
  151.4995  141.1101  155.2039 H   0  0  0  0  0  0  0  0  0  0  0  0
  147.7886  141.4015  155.7037 H   0  0  0  0  0  0  0  0  0  0  0  0
  149.1868  142.4602  155.4273 H   0  0  0  0  0  0  0  0  0  0  0  0
  149.4371  140.2558  152.8212 H   0  0  0  0  0  0  0  0  0  0  0  0
  151.1087  138.0867  155.2974 H   0  0  0  0  0  0  0  0  0  0  0  0
  151.8091  138.9312  153.9308 H   0  0  0  0  0  0  0  0  0  0  0  0
  153.0765  138.0262  155.9388 H   0  0  0  0  0  0  0  0  0  0  0  0
  151.8146  142.4790  156.8710 H   0  0  0  0  0  0  0  0  0  0  0  0
  1  2  2  0  0  0  0
  2 16  1  0  0  0  0
  2  3  1  0  0  0  0
  3  4  1  0  0  0  0
  4  5  2  0  0  0  0
  4  6  1  0  0  0  0
  6  7  1  0  0  0  0
  6 15  1  0  0  0  0
  7 18  1  0  0  0  0
  7 14  1  0  0  0  0
  7  8  1  0  0  0  0
  8  9  1  0  0  0  0
  8 21  1  0  0  0  0
  8 22  1  0  0  0  0
  9 19  1  0  0  0  0
  9 10  1  0  0  0  0
  9 11  1  0  0  0  0
 10 23  1  0  0  0  0
 11 20  1  0  0  0  0
 11 12  1  0  0  0  0
 11 14  1  0  0  0  0
 12 13  1  0  0  0  0
 12 24  1  0  0  0  0
 12 25  1  0  0  0  0
 13 26  1  0  0  0  0
 15 16  2  0  0  0  0
 15 27  1  0  0  0  0
 16 17  1  0  0  0  0
M  CHG  1   3  -1
M  END
> <s_m_source_file>
AV-unprocessed.smi

> <i_m_source_file_index>
38

> <i_lp_mmshare_version>
43012

> <i_f3d_flags>
0

> <s_epik_input>
Tz1jMVtuSF1jKD1PKW4oW2NIXWMxRilbQ0BIXTJbQ0gyXVtDQEhdKFtPSF0pW0NASF0oTzIpW0NIMl1bT0hd

> <s_epik_cmdline>
J2VwaWtfcHl0aG9uJywgJy1waCcsICc3LjAnLCAnLXRuJywgJzgnLCAnLW1hJywgJzIwMCcsICctbWV0YWxfYmluZGluZycsICctaW1hZScsICc8aW5maWxlLm1hZT4nLCAnLW9tYWUnLCAnPG91dGZpbGUubWFlPic=

> <r_epik_Ionization_Penalty>
1.68146

> <r_epik_Ionization_Penalty_Charging>
3.4211e-08

> <r_epik_Ionization_Penalty_Neutral>
1.68146

> <r_epik_State_Penalty>
1.78593

> <r_epik_Charging_Adjusted_Penalty>
1.78593

> <i_epik_Tot_Q>
-1

> <i_epik_Tot_abs_Q>
1

> <r_epik_Metal_State_Penalty>
0.0113696

> <b_epik_Metal_Only>
0

> <s_epik_Chemistry_Notes>
This compound contains an acetal/aminal-like group ( X-CH(R)-Y where X, Y are N, S, or O) that may be acid/base labile, releasing an aldehyde.

> <s_lp_Force_Field>
OPLS_2005

> <r_lp_Energy>
38.28

> <b_lp_Chiralities_Consistent>
1

> <s_lp_Variant>
AV-unprocessed.smi:38-15

> <Gold.Version>
5.8.1

> <Gold.Id.Protein>
6NUR|6NUR_protein|mol2

> <Gold.PLP.Fitness>
41.9004

> <Gold.PLP.PLP>
-34.7390

> <Gold.PLP.part.hbond>
-6.2761

> <Gold.PLP.part.metal>
0.0000

> <Gold.PLP.part.buried>
-3.7013

> <Gold.PLP.part.nonpolar>
-26.4382

> <Gold.PLP.part.repulsive>
0.4755

> <Gold.PLP.ligand.clash>
0.0000

> <Gold.PLP.ligand.torsion>
0.7031

> <Gold.PLP.Chemscore.Hbond>
2.8544

> <Gold.PLP.Chemscore.CHOScore>
0.0000

> <Gold.PLP.Chemscore.Metal>
0.0000

> <Gold.Chemscore.Hbonds>
donor molecule, donor type, donor heavy atom, donor atom, acceptor molecule, acceptor atom, score
      L1  H    10    23       P1  7957  0.70
      P1  H  7989  7998       L1    10  0.17
      P1  H  7997  8010       L1    13  1.00
      P1  H  8011  8017       L1    10  1.00

> <Gold.PLP.Chemscore.Internal.Correction>
0.0045

> <Gold.Rescore>
     Score         DG    S(hbond)    S(metal)    S(lipo)     H(rot)  DE(clash)    DE(int)     intcor
      9.86     -10.97       2.14        0.00      48.79       2.88       0.40       0.70       ----

> <Gold.Chemscore.Fitness>
9.8586

> <Gold.Chemscore.DG>
-10.9661

> <Gold.Chemscore.ZeroCoef>
-5.4800

> <Gold.Chemscore.Hbond>
2.1419

> <Gold.Chemscore.Metal>
0.0000

> <Gold.Chemscore.Lipo>
48.7918

> <Gold.Chemscore.Internal_Hbond>
0.0000

> <Gold.Chemscore.DEClash>
0.4027

> <Gold.Chemscore.DEInternal>
0.7048

> <Gold.Chemscore.Rot>
2.8815

> <Gold.Chemscore.Internal.Correction>
   9.000000E+99

> <Gold.Chemscore.Hbonds>
donor molecule, donor type, donor heavy atom, donor atom, acceptor molecule, acceptor atom, score
      L1  H    10    23       P1  7957  0.70
      P1  H  6934  6946       L1     5  0.01
      P1  H  7997  8010       L1    13  0.81
      P1  H  8011  8017       L1    10  0.34

> <Gold.Chemscore.Hbond.Weighted>
-7.1539

> <Gold.Chemscore.Metal.Weighted>
-0.0000

> <Gold.Chemscore.Lipo.Weighted>
-5.7086

> <Gold.Chemscore.Internal_Hbond.Weighted>
0.0000

> <Gold.Chemscore.DEClash.Weighted>
0.4027

> <Gold.Chemscore.DEInternal.Weighted>
0.7048

> <Gold.Chemscore.Rot.Weighted>
7.3765

> <Gold.Chemscore.Internal.Correction.Weighted>
   9.000000E+99

> <Gold.Protein.RotatedTorsions>
[ 6907 6896 6895 6894 ] final -152.16 input  -60.11 | X-H torsion
[ 7974 7965 7964 7962 ] final  -42.17 input  175.53 | X-H torsion
[ 8008 7997 7996 7995 ] final   82.74 input   59.86 | X-H torsion
[ 10167 10162 10161 10158 ] final  112.77 input  -65.29 | X-H torsion
[ 10718 10713 10712 10709 ] final    4.88 input   66.30 | X-H torsion
[ 10763 10752 10751 10750 ] final   58.38 input  -60.55 | X-H torsion
[ 11005 11000 10999 10996 ] final  -61.23 input  -57.11 | X-H torsion

> <Gold.Protein.ActiveResidues>
 VAL166  LYS551  ARG553  GLY616  TRP617  ASP618  TYR619  PRO620  LYS621  CYS622 
 ASP623  PHE694  ASN695  SER759  ASP760  ASP761  ALA762  ILE779  LEU786  VAL792 
 PHE793  MET794  SER795  GLU796  ALA797  LYS798  CYS799  TRP800  GLU811  SER814 

> <Gold.Protein.RotatedAtoms>
  151.2237  133.4488  159.2601 H   0  0  0  0  0  0  0  0  0  0  0  0  # atno 6907 bound_to 6896
  151.0860  134.9887  159.8389 H   0  0  0  0  0  0  0  0  0  0  0  0  # atno 6908 bound_to 6896
  152.5429  134.2174  159.8827 H   0  0  0  0  0  0  0  0  0  0  0  0  # atno 6909 bound_to 6896
  146.0142  140.6928  142.9210 H   0  0  0  0  0  0  0  0  0  0  0  0  # atno 7974 bound_to 7965
  155.9147  140.3425  155.6126 H   0  0  0  0  0  0  0  0  0  0  0  0  # atno 8008 bound_to 7997
  155.7346  140.0800  157.2292 H   0  0  0  0  0  0  0  0  0  0  0  0  # atno 8009 bound_to 7997
  154.4060  140.1582  156.2534 H   0  0  0  0  0  0  0  0  0  0  0  0  # atno 8010 bound_to 7997
  139.6511  144.7128  151.2046 H   0  0  0  0  0  0  0  0  0  0  0  0  # atno 10167 bound_to 10162
  156.8991  130.5715  149.5648 H   0  0  0  0  0  0  0  0  0  0  0  0  # atno 10718 bound_to 10713
  152.9869  135.5608  154.5543 H   0  0  0  0  0  0  0  0  0  0  0  0  # atno 10763 bound_to 10752
  154.4974  135.2795  155.1450 H   0  0  0  0  0  0  0  0  0  0  0  0  # atno 10764 bound_to 10752
  154.2894  135.6329  153.5432 H   0  0  0  0  0  0  0  0  0  0  0  0  # atno 10765 bound_to 10752
  141.1317  133.6628  156.5343 H   0  0  0  0  0  0  0  0  0  0  0  0  # atno 11005 bound_to 11000
  144.6964  140.3451  143.7192 LP  0  0  0  0  0  0  0  0  0  0  0  0  # atno 17320 bound_to 7965
  145.7295  139.1732  143.2438 LP  0  0  0  0  0  0  0  0  0  0  0  0  # atno 17321 bound_to 7965
  140.7538  143.6148  150.8570 LP  0  0  0  0  0  0  0  0  0  0  0  0  # atno 17342 bound_to 10162
  139.9797  143.5965  152.2947 LP  0  0  0  0  0  0  0  0  0  0  0  0  # atno 17343 bound_to 10162
  156.0591  130.5647  150.9154 LP  0  0  0  0  0  0  0  0  0  0  0  0  # atno 17370 bound_to 10713
  157.6037  131.0940  150.8916 LP  0  0  0  0  0  0  0  0  0  0  0  0  # atno 17371 bound_to 10713
  140.4190  134.7204  157.4879 LP  0  0  0  0  0  0  0  0  0  0  0  0  # atno 17394 bound_to 11000
  140.0373  134.6318  155.9026 LP  0  0  0  0  0  0  0  0  0  0  0  0  # atno 17395 bound_to 11000

$$$$
