AV-unprocessed.smi:3085|AV-procd|sdf|11750|dock1
  -GOLD-   2272017143D 1   1.00000     0.00000
 Structure written by MMmdl.
 28 29  0  0  0  0  0  0  0  0  2 V2000
  145.3051  143.1146  155.2280 C   0  0  0  0  0  0  0  0  0  0  0  0
  145.9383  142.6977  153.8961 C   0  0  0  0  0  0  0  0  0  0  0  0
  147.2318  141.9741  154.0789 C   0  0  0  0  0  0  0  0  0  0  0  0
  147.4595  140.7125  153.7290 N   0  0  0  0  0  0  0  0  0  0  0  0
  148.7597  140.5781  154.1310 C   0  0  0  0  0  0  0  0  0  0  0  0
  149.5022  139.2833  154.0063 C   0  0  2  0  0  0  0  0  0  0  0  0
  148.8285  138.1471  154.7987 C   0  0  0  0  0  0  0  0  0  0  0  0
  149.6477  136.9227  154.7143 N   0  3  0  0  0  0  0  0  0  0  0  0
  151.0348  137.1688  155.1566 C   0  0  0  0  0  0  0  0  0  0  0  0
  151.6431  138.3423  154.3675 C   0  0  0  0  0  0  0  0  0  0  0  0
  150.8208  139.4967  154.5074 O   0  0  0  0  0  0  0  0  0  0  0  0
  149.3016  141.6481  154.7140 N   0  0  0  0  0  0  0  0  0  0  0  0
  148.2919  142.5419  154.6572 N   0  0  0  0  0  0  0  0  0  0  0  0
  148.3653  143.4825  155.0189 H   0  0  0  0  0  0  0  0  0  0  0  0
  144.3636  143.6389  155.0639 H   0  0  0  0  0  0  0  0  0  0  0  0
  145.9649  143.7805  155.7853 H   0  0  0  0  0  0  0  0  0  0  0  0
  145.0978  142.2462  155.8543 H   0  0  0  0  0  0  0  0  0  0  0  0
  145.2524  142.0531  153.3454 H   0  0  0  0  0  0  0  0  0  0  0  0
  146.1060  143.5773  153.2730 H   0  0  0  0  0  0  0  0  0  0  0  0
  149.5601  139.0189  152.9486 H   0  0  0  0  0  0  0  0  0  0  0  0
  148.7147  138.4278  155.8469 H   0  0  0  0  0  0  0  0  0  0  0  0
  147.8310  137.9431  154.4089 H   0  0  0  0  0  0  0  0  0  0  0  0
  149.2341  136.2003  155.2867 H   0  0  0  0  0  0  0  0  0  0  0  0
  151.0367  137.3917  156.2245 H   0  0  0  0  0  0  0  0  0  0  0  0
  151.6256  136.2634  155.0157 H   0  0  0  0  0  0  0  0  0  0  0  0
  152.6410  138.5705  154.7423 H   0  0  0  0  0  0  0  0  0  0  0  0
  151.7510  138.0861  153.3122 H   0  0  0  0  0  0  0  0  0  0  0  0
  149.6655  136.6119  153.7532 H   0  0  0  0  0  0  0  0  0  0  0  0
  1  2  1  0  0  0  0
  1 15  1  0  0  0  0
  1 16  1  0  0  0  0
  1 17  1  0  0  0  0
  2  3  1  0  0  0  0
  2 18  1  0  0  0  0
  2 19  1  0  0  0  0
  3 13  1  0  0  0  0
  3  4  2  0  0  0  0
  4  5  1  0  0  0  0
  5  6  1  0  0  0  0
  5 12  2  0  0  0  0
  6 11  1  0  0  0  0
  6  7  1  0  0  0  0
  6 20  1  0  0  0  0
  7  8  1  0  0  0  0
  7 21  1  0  0  0  0
  7 22  1  0  0  0  0
  8  9  1  0  0  0  0
  8 23  1  0  0  0  0
  8 28  1  0  0  0  0
  9 10  1  0  0  0  0
  9 24  1  0  0  0  0
  9 25  1  0  0  0  0
 10 11  1  0  0  0  0
 10 26  1  0  0  0  0
 10 27  1  0  0  0  0
 12 13  1  0  0  0  0
 13 14  1  0  0  0  0
M  CHG  1   8   1
M  END
> <s_m_source_file>
AV-unprocessed.smi

> <i_m_source_file_index>
3085

> <i_lp_mmshare_version>
43012

> <i_f3d_flags>
0

> <s_epik_input>
W0NIM11bQ0gyXWMxbmMobltuSF0xKVtDQEBIXTJbQ0gyXVtOSF1bQ0gyXVtDSDJdTzI=

> <s_epik_cmdline>
J2VwaWtfcHl0aG9uJywgJy1waCcsICc3LjAnLCAnLXRuJywgJzgnLCAnLW1hJywgJzIwMCcsICctbWV0YWxfYmluZGluZycsICctaW1hZScsICc8aW5maWxlLm1hZT4nLCAnLW9tYWUnLCAnPG91dGZpbGUubWFlPic=

> <r_lp_tautomer_probability>
0.948284

> <r_epik_Ionization_Penalty>
0.107151

> <r_epik_Ionization_Penalty_Charging>
0.100865

> <r_epik_Ionization_Penalty_Neutral>
0.00628602

> <r_epik_State_Penalty>
0.429695

> <r_epik_Charging_Adjusted_Penalty>
0.530559

> <i_epik_Tot_Q>
1

> <i_epik_Tot_abs_Q>
1

> <r_epik_Metal_State_Penalty>
0.651827

> <b_epik_Metal_Only>
0

> <s_lp_Force_Field>
OPLS_2005

> <r_lp_Energy>
10.1089

> <b_lp_Chiralities_Consistent>
1

> <s_lp_Variant>
AV-unprocessed.smi:3085-1

> <Gold.Version>
5.8.1

> <Gold.Id.Protein>
6NUR|6NUR_protein|mol2

> <Gold.PLP.Fitness>
35.5650

> <Gold.PLP.PLP>
-24.1576

> <Gold.PLP.part.hbond>
-3.4068

> <Gold.PLP.part.metal>
0.0000

> <Gold.PLP.part.buried>
-3.3257

> <Gold.PLP.part.nonpolar>
-18.9646

> <Gold.PLP.part.repulsive>
0.6839

> <Gold.PLP.ligand.clash>
0.0000

> <Gold.PLP.ligand.torsion>
0.0247

> <Gold.PLP.Chemscore.Hbond>
3.8125

> <Gold.PLP.Chemscore.CHOScore>
0.0000

> <Gold.PLP.Chemscore.Metal>
0.0000

> <Gold.Chemscore.Hbonds>
donor molecule, donor type, donor heavy atom, donor atom, acceptor molecule, acceptor atom, score
      L1  H     8    28       P1  7948  2.00
      L1  H    13    14       P1  8028  0.81
      P1  H  7989  7998       L1    11  1.00

> <Gold.PLP.Chemscore.Internal.Correction>
0.0193

> <Gold.Rescore>
     Score         DG    S(hbond)    S(metal)    S(lipo)     H(rot)  DE(clash)    DE(int)     intcor
     13.89     -14.47       2.47        0.00      34.86       1.30       0.40       0.18       ----

> <Gold.Chemscore.Fitness>
13.8929

> <Gold.Chemscore.DG>
-14.4707

> <Gold.Chemscore.ZeroCoef>
-5.4800

> <Gold.Chemscore.Hbond>
2.4680

> <Gold.Chemscore.Metal>
0.0000

> <Gold.Chemscore.Lipo>
34.8596

> <Gold.Chemscore.Internal_Hbond>
0.0000

> <Gold.Chemscore.DEClash>
0.4000

> <Gold.Chemscore.DEInternal>
0.1778

> <Gold.Chemscore.Rot>
1.3011

> <Gold.Chemscore.Internal.Correction>
   9.000000E+99

> <Gold.Chemscore.Hbonds>
donor molecule, donor type, donor heavy atom, donor atom, acceptor molecule, acceptor atom, score
      L1  H     8    28       P1  7948  0.61
      L1  H    13    14       P1  8028  0.79
      P1  H  7989  7998       L1    11  0.36

> <Gold.Chemscore.Hbond.Weighted>
-8.2430

> <Gold.Chemscore.Metal.Weighted>
-0.0000

> <Gold.Chemscore.Lipo.Weighted>
-4.0786

> <Gold.Chemscore.Internal_Hbond.Weighted>
0.0000

> <Gold.Chemscore.DEClash.Weighted>
0.4000

> <Gold.Chemscore.DEInternal.Weighted>
0.1778

> <Gold.Chemscore.Rot.Weighted>
3.3308

> <Gold.Chemscore.Internal.Correction.Weighted>
   9.000000E+99

> <Gold.Protein.RotatedTorsions>
[ 6907 6896 6895 6894 ] final -100.60 input  -60.11 | X-H torsion
[ 7974 7965 7964 7962 ] final   66.81 input  175.53 | X-H torsion
[ 8008 7997 7996 7995 ] final -156.29 input   59.86 | X-H torsion
[ 10167 10162 10161 10158 ] final  152.30 input  -65.29 | X-H torsion
[ 10718 10713 10712 10709 ] final   27.58 input   66.30 | X-H torsion
[ 10763 10752 10751 10750 ] final   42.58 input  -60.55 | X-H torsion
[ 11005 11000 10999 10996 ] final  -75.75 input  -57.11 | X-H torsion

> <Gold.Protein.ActiveResidues>
 VAL166  LYS551  ARG553  GLY616  TRP617  ASP618  TYR619  PRO620  LYS621  CYS622 
 ASP623  PHE694  ASN695  SER759  ASP760  ASP761  ALA762  ILE779  LEU786  VAL792 
 PHE793  MET794  SER795  GLU796  ALA797  LYS798  CYS799  TRP800  GLU811  SER814 

> <Gold.Protein.RotatedAtoms>
  150.7122  134.0862  159.3915 H   0  0  0  0  0  0  0  0  0  0  0  0  # atno 6907 bound_to 6896
  151.8847  135.0438  160.0501 H   0  0  0  0  0  0  0  0  0  0  0  0  # atno 6908 bound_to 6896
  152.2540  133.5204  159.5379 H   0  0  0  0  0  0  0  0  0  0  0  0  # atno 6909 bound_to 6896
  145.8221  139.3091  143.1037 H   0  0  0  0  0  0  0  0  0  0  0  0  # atno 7974 bound_to 7965
  155.7149  140.0783  157.2355 H   0  0  0  0  0  0  0  0  0  0  0  0  # atno 8008 bound_to 7997
  154.4053  140.1623  156.2391 H   0  0  0  0  0  0  0  0  0  0  0  0  # atno 8009 bound_to 7997
  155.9249  140.3395  155.6205 H   0  0  0  0  0  0  0  0  0  0  0  0  # atno 8010 bound_to 7997
  139.4834  144.5369  151.7630 H   0  0  0  0  0  0  0  0  0  0  0  0  # atno 10167 bound_to 10162
  157.2221  130.6984  149.6275 H   0  0  0  0  0  0  0  0  0  0  0  0  # atno 10718 bound_to 10713
  152.9880  135.6127  154.2972 H   0  0  0  0  0  0  0  0  0  0  0  0  # atno 10763 bound_to 10752
  154.2694  135.2780  155.2746 H   0  0  0  0  0  0  0  0  0  0  0  0  # atno 10764 bound_to 10752
  154.5135  135.5834  153.6681 H   0  0  0  0  0  0  0  0  0  0  0  0  # atno 10765 bound_to 10752
  141.1648  133.6958  156.7564 H   0  0  0  0  0  0  0  0  0  0  0  0  # atno 11005 bound_to 11000
  145.9663  140.8796  143.0185 LP  0  0  0  0  0  0  0  0  0  0  0  0  # atno 17320 bound_to 7965
  144.6747  140.1883  143.7399 LP  0  0  0  0  0  0  0  0  0  0  0  0  # atno 17321 bound_to 7965
  140.4903  144.1321  150.5949 LP  0  0  0  0  0  0  0  0  0  0  0  0  # atno 17342 bound_to 10162
  140.4179  143.2625  151.9752 LP  0  0  0  0  0  0  0  0  0  0  0  0  # atno 17343 bound_to 10162
  155.9681  130.4516  150.5743 LP  0  0  0  0  0  0  0  0  0  0  0  0  # atno 17370 bound_to 10713
  157.3565  131.0742  151.1671 LP  0  0  0  0  0  0  0  0  0  0  0  0  # atno 17371 bound_to 10713
  140.2566  134.8499  157.3719 LP  0  0  0  0  0  0  0  0  0  0  0  0  # atno 17394 bound_to 11000
  140.1651  134.4679  155.7868 LP  0  0  0  0  0  0  0  0  0  0  0  0  # atno 17395 bound_to 11000

$$$$
