AV-unprocessed.smi:1121|AV-procd|sdf|4826|dock1
  -GOLD-   22720 3383D 1   1.00000     0.00000
 Structure written by MMmdl.
 46 48  0  0  0  0  0  0  0  0  1 V2000
  147.5526  143.9420  161.0068 O   0  0  0  0  0  0  0  0  0  0  0  0
  147.5545  144.3565  159.8477 C   0  0  0  0  0  0  0  0  0  0  0  0
  146.4738  144.7869  159.1763 N   0  0  0  0  0  0  0  0  0  0  0  0
  145.1365  144.9095  159.6495 C   0  0  0  0  0  0  0  0  0  0  0  0
  144.5558  143.9644  160.5294 C   0  0  0  0  0  0  0  0  0  0  0  0
  143.2137  144.1230  160.9185 C   0  0  0  0  0  0  0  0  0  0  0  0
  142.4943  145.2157  160.4042 C   0  0  0  0  0  0  0  0  0  0  0  0
  143.0283  146.1164  159.5545 N   0  0  0  0  0  0  0  0  0  0  0  0
  144.3224  145.9742  159.1768 C   0  0  0  0  0  0  0  0  0  0  0  0
  144.8534  146.9452  158.3039 N   0  0  0  0  0  0  0  0  0  0  0  0
  144.3456  146.9645  156.9357 C   0  0  0  0  0  0  0  0  0  0  0  0
  145.1923  147.9194  156.0770 C   0  0  0  0  0  0  0  0  0  0  0  0
  145.2022  149.2144  156.6716 O   0  0  0  0  0  0  0  0  0  0  0  0
  145.7672  149.1998  157.9796 C   0  0  0  0  0  0  0  0  0  0  0  0
  144.9407  148.2771  158.8913 C   0  0  0  0  0  0  0  0  0  0  0  0
  148.6602  144.4552  159.0961 N   0  0  0  0  0  0  0  0  0  0  0  0
  150.0085  144.0967  159.5260 C   0  0  0  0  0  0  0  0  0  0  0  0
  150.9754  145.2845  159.3348 C   0  0  0  0  0  0  0  0  0  0  0  0
  152.4181  144.9022  159.7027 C   0  0  0  0  0  0  0  0  0  0  0  0
  152.8898  143.6732  158.9102 C   0  0  0  0  0  0  0  0  0  0  0  0
  151.9333  142.4869  159.1074 C   0  0  0  0  0  0  0  0  0  0  0  0
  150.4912  142.8665  158.7341 C   0  0  0  0  0  0  0  0  0  0  0  0
  146.6454  145.1793  158.2619 H   0  0  0  0  0  0  0  0  0  0  0  0
  145.1088  143.1132  160.8957 H   0  0  0  0  0  0  0  0  0  0  0  0
  142.7450  143.4178  161.5888 H   0  0  0  0  0  0  0  0  0  0  0  0
  141.4608  145.3681  160.6780 H   0  0  0  0  0  0  0  0  0  0  0  0
  144.3725  145.9588  156.5146 H   0  0  0  0  0  0  0  0  0  0  0  0
  143.3051  147.2924  156.9327 H   0  0  0  0  0  0  0  0  0  0  0  0
  146.2132  147.5480  155.9731 H   0  0  0  0  0  0  0  0  0  0  0  0
  144.7755  147.9923  155.0726 H   0  0  0  0  0  0  0  0  0  0  0  0
  146.8064  148.8701  157.9347 H   0  0  0  0  0  0  0  0  0  0  0  0
  145.7723  150.2148  158.3766 H   0  0  0  0  0  0  0  0  0  0  0  0
  143.9341  148.6786  159.0146 H   0  0  0  0  0  0  0  0  0  0  0  0
  145.3900  148.2387  159.8837 H   0  0  0  0  0  0  0  0  0  0  0  0
  148.5640  144.8094  158.1558 H   0  0  0  0  0  0  0  0  0  0  0  0
  149.9825  143.8292  160.5844 H   0  0  0  0  0  0  0  0  0  0  0  0
  150.9447  145.6226  158.2980 H   0  0  0  0  0  0  0  0  0  0  0  0
  150.6586  146.1317  159.9439 H   0  0  0  0  0  0  0  0  0  0  0  0
  153.0852  145.7440  159.5148 H   0  0  0  0  0  0  0  0  0  0  0  0
  152.4785  144.6925  160.7713 H   0  0  0  0  0  0  0  0  0  0  0  0
  152.9504  143.9222  157.8499 H   0  0  0  0  0  0  0  0  0  0  0  0
  153.8972  143.3948  159.2211 H   0  0  0  0  0  0  0  0  0  0  0  0
  152.2623  141.6398  158.5047 H   0  0  0  0  0  0  0  0  0  0  0  0
  151.9671  142.1586  160.1470 H   0  0  0  0  0  0  0  0  0  0  0  0
  149.8299  142.0190  158.9186 H   0  0  0  0  0  0  0  0  0  0  0  0
  150.4391  143.0713  157.6638 H   0  0  0  0  0  0  0  0  0  0  0  0
  1  2  2  0  0  0  0
  2  3  1  0  0  0  0
  2 16  1  0  0  0  0
  3  4  1  0  0  0  0
  3 23  1  0  0  0  0
  4  9  1  0  0  0  0
  4  5  2  0  0  0  0
  5  6  1  0  0  0  0
  5 24  1  0  0  0  0
  6  7  2  0  0  0  0
  6 25  1  0  0  0  0
  7  8  1  0  0  0  0
  7 26  1  0  0  0  0
  8  9  2  0  0  0  0
  9 10  1  0  0  0  0
 10 15  1  0  0  0  0
 10 11  1  0  0  0  0
 11 12  1  0  0  0  0
 11 27  1  0  0  0  0
 11 28  1  0  0  0  0
 12 13  1  0  0  0  0
 12 29  1  0  0  0  0
 12 30  1  0  0  0  0
 13 14  1  0  0  0  0
 14 15  1  0  0  0  0
 14 31  1  0  0  0  0
 14 32  1  0  0  0  0
 15 33  1  0  0  0  0
 15 34  1  0  0  0  0
 16 17  1  0  0  0  0
 16 35  1  0  0  0  0
 17 22  1  0  0  0  0
 17 18  1  0  0  0  0
 17 36  1  0  0  0  0
 18 19  1  0  0  0  0
 18 37  1  0  0  0  0
 18 38  1  0  0  0  0
 19 20  1  0  0  0  0
 19 39  1  0  0  0  0
 19 40  1  0  0  0  0
 20 21  1  0  0  0  0
 20 41  1  0  0  0  0
 20 42  1  0  0  0  0
 21 22  1  0  0  0  0
 21 43  1  0  0  0  0
 21 44  1  0  0  0  0
 22 45  1  0  0  0  0
 22 46  1  0  0  0  0
M  END
> <s_m_source_file>
AV-unprocessed.smi

> <i_m_source_file_index>
1121

> <i_lp_mmshare_version>
43012

> <i_f3d_flags>
0

> <s_epik_input>
W0NIMl0xW0NIMl1bQ0gyXVtDSDJdW0NIMl1bQ0hdMVtOSF1DKD1PKVtOSF1jMltjSF1bY0hdW2NIXW5jMk4zW0NIMl1bQ0gyXU9bQ0gyXVtDSDJdMw==

> <s_epik_cmdline>
J2VwaWtfcHl0aG9uJywgJy1waCcsICc3LjAnLCAnLXRuJywgJzgnLCAnLW1hJywgJzIwMCcsICctbWV0YWxfYmluZGluZycsICctaW1hZScsICc8aW5maWxlLm1hZT4nLCAnLW9tYWUnLCAnPG91dGZpbGUubWFlPic=

> <r_lp_tautomer_probability>
1

> <r_epik_Ionization_Penalty>
0.00218153

> <r_epik_Ionization_Penalty_Charging>
0

> <r_epik_Ionization_Penalty_Neutral>
0.00218153

> <r_epik_State_Penalty>
0.00146907

> <r_epik_Charging_Adjusted_Penalty>
0.00146907

> <i_epik_Tot_Q>
0

> <i_epik_Tot_abs_Q>
0

> <r_epik_Metal_State_Penalty>
-0

> <b_epik_Metal_Only>
0

> <s_lp_Force_Field>
OPLS_2005

> <r_lp_Energy>
26.2081

> <b_lp_Chiralities_Consistent>
1

> <s_lp_Variant>
AV-unprocessed.smi:1121-1

> <Gold.Version>
5.8.1

> <Gold.Id.Protein>
6NUR|6NUR_protein|mol2

> <Gold.PLP.Fitness>
45.6402

> <Gold.PLP.PLP>
-37.3166

> <Gold.PLP.part.hbond>
-2.8884

> <Gold.PLP.part.metal>
0.0000

> <Gold.PLP.part.buried>
-6.8921

> <Gold.PLP.part.nonpolar>
-28.1024

> <Gold.PLP.part.repulsive>
0.6219

> <Gold.PLP.ligand.clash>
0.0000

> <Gold.PLP.ligand.torsion>
0.4097

> <Gold.PLP.Chemscore.Hbond>
2.9760

> <Gold.PLP.Chemscore.CHOScore>
0.0000

> <Gold.PLP.Chemscore.Metal>
0.0000

> <Gold.Chemscore.Hbonds>
donor molecule, donor type, donor heavy atom, donor atom, acceptor molecule, acceptor atom, score
      L1  H     3    23       P1  8029  0.88
      L1  H    16    35       P1  8029  0.90
      P1  H  6933  6944       L1     1  1.00

> <Gold.PLP.Chemscore.Internal.Correction>
0.2149

> <Gold.Rescore>
     Score         DG    S(hbond)    S(metal)    S(lipo)     H(rot)  DE(clash)    DE(int)     intcor
     23.67     -25.09       2.91        0.00     110.35       1.18       0.08       1.33       ----

> <Gold.Chemscore.Fitness>
23.6696

> <Gold.Chemscore.DG>
-25.0852

> <Gold.Chemscore.ZeroCoef>
-5.4800

> <Gold.Chemscore.Hbond>
2.9121

> <Gold.Chemscore.Metal>
0.0000

> <Gold.Chemscore.Lipo>
110.3507

> <Gold.Chemscore.Internal_Hbond>
0.0000

> <Gold.Chemscore.DEClash>
0.0825

> <Gold.Chemscore.DEInternal>
1.3331

> <Gold.Chemscore.Rot>
1.1844

> <Gold.Chemscore.Internal.Correction>
   9.000000E+99

> <Gold.Chemscore.Hbonds>
donor molecule, donor type, donor heavy atom, donor atom, acceptor molecule, acceptor atom, score
      L1  H     3    23       P1  8029  0.86
      L1  H    16    35       P1  8029  0.52
      P1  H  6933  6944       L1     1  0.98

> <Gold.Chemscore.Hbond.Weighted>
-9.7263

> <Gold.Chemscore.Metal.Weighted>
-0.0000

> <Gold.Chemscore.Lipo.Weighted>
-12.9110

> <Gold.Chemscore.Internal_Hbond.Weighted>
0.0000

> <Gold.Chemscore.DEClash.Weighted>
0.0825

> <Gold.Chemscore.DEInternal.Weighted>
1.3331

> <Gold.Chemscore.Rot.Weighted>
3.0321

> <Gold.Chemscore.Internal.Correction.Weighted>
   9.000000E+99

> <Gold.Protein.RotatedTorsions>
[ 6907 6896 6895 6894 ] final -104.64 input  -60.11 | X-H torsion
[ 7974 7965 7964 7962 ] final    5.76 input  175.53 | X-H torsion
[ 8008 7997 7996 7995 ] final  -50.24 input   59.86 | X-H torsion
[ 10167 10162 10161 10158 ] final  106.67 input  -65.29 | X-H torsion
[ 10718 10713 10712 10709 ] final -174.78 input   66.30 | X-H torsion
[ 10763 10752 10751 10750 ] final  118.44 input  -60.55 | X-H torsion
[ 11005 11000 10999 10996 ] final   60.13 input  -57.11 | X-H torsion

> <Gold.Protein.ActiveResidues>
 VAL166  LYS551  ARG553  GLY616  TRP617  ASP618  TYR619  PRO620  LYS621  CYS622 
 ASP623  PHE694  ASN695  SER759  ASP760  ASP761  ALA762  ILE779  LEU786  VAL792 
 PHE793  MET794  SER795  GLU796  ALA797  LYS798  CYS799  TRP800  GLU811  SER814 

> <Gold.Protein.RotatedAtoms>
  150.7297  134.0248  159.3713 H   0  0  0  0  0  0  0  0  0  0  0  0  # atno 6907 bound_to 6896
  151.8214  135.0648  160.0435 H   0  0  0  0  0  0  0  0  0  0  0  0  # atno 6908 bound_to 6896
  152.3001  133.5610  159.5649 H   0  0  0  0  0  0  0  0  0  0  0  0  # atno 6909 bound_to 6896
  146.2439  140.0336  142.8388 H   0  0  0  0  0  0  0  0  0  0  0  0  # atno 7974 bound_to 7965
  154.4058  140.1277  156.4633 H   0  0  0  0  0  0  0  0  0  0  0  0  # atno 8008 bound_to 7997
  155.7251  140.3492  155.5014 H   0  0  0  0  0  0  0  0  0  0  0  0  # atno 8009 bound_to 7997
  155.9178  140.1047  157.1220 H   0  0  0  0  0  0  0  0  0  0  0  0  # atno 8010 bound_to 7997
  139.6990  144.7097  151.1218 H   0  0  0  0  0  0  0  0  0  0  0  0  # atno 10167 bound_to 10162
  156.7902  130.9515  151.3120 H   0  0  0  0  0  0  0  0  0  0  0  0  # atno 10718 bound_to 10713
  153.5677  135.3508  155.2825 H   0  0  0  0  0  0  0  0  0  0  0  0  # atno 10763 bound_to 10752
  154.8686  135.4152  154.2760 H   0  0  0  0  0  0  0  0  0  0  0  0  # atno 10764 bound_to 10752
  153.3519  135.7055  153.6851 H   0  0  0  0  0  0  0  0  0  0  0  0  # atno 10765 bound_to 10752
  140.0254  134.6091  155.9581 H   0  0  0  0  0  0  0  0  0  0  0  0  # atno 11005 bound_to 11000
  145.1132  140.9418  143.4644 LP  0  0  0  0  0  0  0  0  0  0  0  0  # atno 17320 bound_to 7965
  145.0555  139.3147  143.5907 LP  0  0  0  0  0  0  0  0  0  0  0  0  # atno 17321 bound_to 7965
  140.7704  143.5451  150.9268 LP  0  0  0  0  0  0  0  0  0  0  0  0  # atno 17342 bound_to 10162
  139.9132  143.6695  152.3111 LP  0  0  0  0  0  0  0  0  0  0  0  0  # atno 17343 bound_to 10162
  157.6604  130.8961  149.9818 LP  0  0  0  0  0  0  0  0  0  0  0  0  # atno 17370 bound_to 10713
  156.1164  130.3647  149.9962 LP  0  0  0  0  0  0  0  0  0  0  0  0  # atno 17371 bound_to 10713
  141.1799  133.6545  156.4978 LP  0  0  0  0  0  0  0  0  0  0  0  0  # atno 17394 bound_to 11000
  140.4316  134.7096  157.4945 LP  0  0  0  0  0  0  0  0  0  0  0  0  # atno 17395 bound_to 11000

$$$$
