AV-unprocessed.smi:3118|AV-procd|sdf|11889|dock5
  -GOLD-   2272017273D 1   1.00000     0.00000
 Structure written by MMmdl.
 32 33  0  0  0  0  0  0  0  0  1 V2000
  149.3085  141.4219  154.8696 C   0  0  0  0  0  0  0  0  0  0  0  0
  150.1192  141.3067  156.1746 C   0  0  1  0  0  0  0  0  0  0  0  0
  151.4978  140.6463  155.9727 C   0  0  0  0  0  0  0  0  0  0  0  0
  151.4036  139.2435  155.6135 N   0  0  0  0  0  0  0  0  0  0  0  0
  150.8386  138.7112  154.4618 C   0  0  0  0  0  0  0  0  0  0  0  0
  150.9714  137.3441  154.5544 C   0  0  0  0  0  0  0  0  0  0  0  0
  151.6053  137.0145  155.7501 N   0  0  0  0  0  0  0  0  0  0  0  0
  151.8279  138.1896  156.3248 C   0  0  0  0  0  0  0  0  0  0  0  0
  150.3072  142.6255  156.7731 N   0  0  0  0  0  0  0  0  0  0  0  0
  150.9310  142.8738  157.9351 C   0  0  0  0  0  0  0  0  0  0  0  0
  151.4229  141.9913  158.6396 O   0  0  0  0  0  0  0  0  0  0  0  0
  151.0087  144.3483  158.3526 C   0  0  0  0  0  0  0  0  0  0  0  0
  152.3964  144.8221  158.8227 C   0  0  0  0  0  0  0  0  0  0  0  0
  151.7093  145.5433  159.9859 C   0  0  0  0  0  0  0  0  0  0  0  0
  150.4990  144.6284  159.7767 C   0  0  0  0  0  0  0  0  0  0  0  0
  149.1010  140.4416  154.4404 H   0  0  0  0  0  0  0  0  0  0  0  0
  149.8441  142.0065  154.1211 H   0  0  0  0  0  0  0  0  0  0  0  0
  148.3461  141.9048  155.0418 H   0  0  0  0  0  0  0  0  0  0  0  0
  149.5533  140.6882  156.8740 H   0  0  0  0  0  0  0  0  0  0  0  0
  152.0567  141.1666  155.1932 H   0  0  0  0  0  0  0  0  0  0  0  0
  152.0902  140.7211  156.8855 H   0  0  0  0  0  0  0  0  0  0  0  0
  150.4035  139.3323  153.6927 H   0  0  0  0  0  0  0  0  0  0  0  0
  150.6599  136.5785  153.8591 H   0  0  0  0  0  0  0  0  0  0  0  0
  152.3143  138.2854  157.2845 H   0  0  0  0  0  0  0  0  0  0  0  0
  149.9358  143.4130  156.2617 H   0  0  0  0  0  0  0  0  0  0  0  0
  150.5724  145.0312  157.6206 H   0  0  0  0  0  0  0  0  0  0  0  0
  153.0596  144.0234  159.1589 H   0  0  0  0  0  0  0  0  0  0  0  0
  152.9033  145.4897  158.1254 H   0  0  0  0  0  0  0  0  0  0  0  0
  152.2055  145.4284  160.9500 H   0  0  0  0  0  0  0  0  0  0  0  0
  151.4915  146.5889  159.7633 H   0  0  0  0  0  0  0  0  0  0  0  0
  149.5400  145.1455  159.8171 H   0  0  0  0  0  0  0  0  0  0  0  0
  150.5098  143.7575  160.4348 H   0  0  0  0  0  0  0  0  0  0  0  0
  1  2  1  0  0  0  0
  1 16  1  0  0  0  0
  1 17  1  0  0  0  0
  1 18  1  0  0  0  0
  2  3  1  0  0  0  0
  2  9  1  0  0  0  0
  2 19  1  0  0  0  0
  3  4  1  0  0  0  0
  3 20  1  0  0  0  0
  3 21  1  0  0  0  0
  4  8  1  0  0  0  0
  4  5  1  0  0  0  0
  5  6  2  0  0  0  0
  5 22  1  0  0  0  0
  6  7  1  0  0  0  0
  6 23  1  0  0  0  0
  7  8  2  0  0  0  0
  8 24  1  0  0  0  0
  9 10  1  0  0  0  0
  9 25  1  0  0  0  0
 10 11  2  0  0  0  0
 10 12  1  0  0  0  0
 12 15  1  0  0  0  0
 12 13  1  0  0  0  0
 12 26  1  0  0  0  0
 13 14  1  0  0  0  0
 13 27  1  0  0  0  0
 13 28  1  0  0  0  0
 14 15  1  0  0  0  0
 14 29  1  0  0  0  0
 14 30  1  0  0  0  0
 15 31  1  0  0  0  0
 15 32  1  0  0  0  0
M  END
> <s_m_source_file>
AV-unprocessed.smi

> <i_m_source_file_index>
3118

> <i_lp_mmshare_version>
43012

> <i_f3d_flags>
0

> <s_epik_input>
W0NIMl0xW0NIMl1bQ0gyXVtDSF0xQyg9TylbTkhdW0NASF0oW0NIM10pW0NIMl1uMltjSF1bY0hdbltjSF0y

> <s_epik_cmdline>
J2VwaWtfcHl0aG9uJywgJy1waCcsICc3LjAnLCAnLXRuJywgJzgnLCAnLW1hJywgJzIwMCcsICctbWV0YWxfYmluZGluZycsICctaW1hZScsICc8aW5maWxlLm1hZT4nLCAnLW9tYWUnLCAnPG91dGZpbGUubWFlPic=

> <r_lp_tautomer_probability>
1

> <r_epik_Ionization_Penalty>
0.642614

> <r_epik_Ionization_Penalty_Charging>
0.642614

> <r_epik_Ionization_Penalty_Neutral>
2.50867e-08

> <r_epik_State_Penalty>
0.660429

> <r_epik_Charging_Adjusted_Penalty>
1.30304

> <i_epik_Tot_Q>
0

> <i_epik_Tot_abs_Q>
0

> <r_epik_Metal_State_Penalty>
0.312239

> <b_epik_Metal_Only>
0

> <s_lp_Force_Field>
OPLS_2005

> <r_lp_Energy>
13.1137

> <b_lp_Chiralities_Consistent>
1

> <s_lp_Variant>
AV-unprocessed.smi:3118-4

> <Gold.Version>
5.8.1

> <Gold.Id.Protein>
6NUR|6NUR_protein|mol2

> <Gold.PLP.Fitness>
49.1474

> <Gold.PLP.PLP>
-37.6531

> <Gold.PLP.part.hbond>
-2.0000

> <Gold.PLP.part.metal>
0.0000

> <Gold.PLP.part.buried>
-3.0948

> <Gold.PLP.part.nonpolar>
-32.4238

> <Gold.PLP.part.repulsive>
0.1165

> <Gold.PLP.ligand.clash>
0.0000

> <Gold.PLP.ligand.torsion>
0.2724

> <Gold.PLP.Chemscore.Hbond>
1.9920

> <Gold.PLP.Chemscore.CHOScore>
1.8819

> <Gold.PLP.Chemscore.Metal>
0.0000

> <Gold.Chemscore.Hbonds>
donor molecule, donor type, donor heavy atom, donor atom, acceptor molecule, acceptor atom, score
      L1  H     9    25       P1  8028  1.00
      P1  H 10752 10765       L1     7  0.24
      L1  C     5    22       P1  7957  0.48
      L1  C     6    23       P1  7948  0.34
      L1  C     6    23       P1  7949  0.64

> <Gold.PLP.Chemscore.Internal.Correction>
0.4173

> <Gold.Rescore>
     Score         DG    S(hbond)    S(metal)    S(lipo)     H(rot)  DE(clash)    DE(int)     intcor
     16.14     -17.17       1.94        0.00      83.61       1.79       0.69       0.35       ----

> <Gold.Chemscore.Fitness>
16.1388

> <Gold.Chemscore.DG>
-17.1717

> <Gold.Chemscore.ZeroCoef>
-5.4800

> <Gold.Chemscore.Hbond>
1.9427

> <Gold.Chemscore.Metal>
0.0000

> <Gold.Chemscore.Lipo>
83.6120

> <Gold.Chemscore.Internal_Hbond>
0.0000

> <Gold.Chemscore.DEClash>
0.6862

> <Gold.Chemscore.DEInternal>
0.3467

> <Gold.Chemscore.Rot>
1.7889

> <Gold.Chemscore.Internal.Correction>
   9.000000E+99

> <Gold.Chemscore.Hbonds>
donor molecule, donor type, donor heavy atom, donor atom, acceptor molecule, acceptor atom, score
      L1  H     9    25       P1  8028  1.00
      P1  H 10752 10765       L1     7  0.01

> <Gold.Chemscore.Hbond.Weighted>
-6.4887

> <Gold.Chemscore.Metal.Weighted>
-0.0000

> <Gold.Chemscore.Lipo.Weighted>
-9.7826

> <Gold.Chemscore.Internal_Hbond.Weighted>
0.0000

> <Gold.Chemscore.DEClash.Weighted>
0.6862

> <Gold.Chemscore.DEInternal.Weighted>
0.3467

> <Gold.Chemscore.Rot.Weighted>
4.5795

> <Gold.Chemscore.Internal.Correction.Weighted>
   9.000000E+99

> <Gold.Protein.RotatedTorsions>
[ 6907 6896 6895 6894 ] final   50.17 input  -60.11 | X-H torsion
[ 7974 7965 7964 7962 ] final   60.55 input  175.53 | X-H torsion
[ 8008 7997 7996 7995 ] final  142.50 input   59.86 | X-H torsion
[ 10167 10162 10161 10158 ] final   68.94 input  -65.29 | X-H torsion
[ 10718 10713 10712 10709 ] final -131.84 input   66.30 | X-H torsion
[ 10763 10752 10751 10750 ] final -176.95 input  -60.55 | X-H torsion
[ 11005 11000 10999 10996 ] final -105.13 input  -57.11 | X-H torsion

> <Gold.Protein.ActiveResidues>
 VAL166  LYS551  ARG553  GLY616  TRP617  ASP618  TYR619  PRO620  LYS621  CYS622 
 ASP623  PHE694  ASN695  SER759  ASP760  ASP761  ALA762  ILE779  LEU786  VAL792 
 PHE793  MET794  SER795  GLU796  ALA797  LYS798  CYS799  TRP800  GLU811  SER814 

> <Gold.Protein.RotatedAtoms>
  152.2988  134.7635  160.0361 H   0  0  0  0  0  0  0  0  0  0  0  0  # atno 6907 bound_to 6896
  151.8155  133.3382  159.3576 H   0  0  0  0  0  0  0  0  0  0  0  0  # atno 6908 bound_to 6896
  150.7264  134.5552  159.5859 H   0  0  0  0  0  0  0  0  0  0  0  0  # atno 6909 bound_to 6896
  145.8947  139.3537  143.0628 H   0  0  0  0  0  0  0  0  0  0  0  0  # atno 7974 bound_to 7965
  156.2948  140.2287  156.4737 H   0  0  0  0  0  0  0  0  0  0  0  0  # atno 8008 bound_to 7997
  154.7913  140.0454  157.1224 H   0  0  0  0  0  0  0  0  0  0  0  0  # atno 8009 bound_to 7997
  154.9642  140.3058  155.5020 H   0  0  0  0  0  0  0  0  0  0  0  0  # atno 8010 bound_to 7997
  140.0731  144.5135  150.7213 H   0  0  0  0  0  0  0  0  0  0  0  0  # atno 10167 bound_to 10162
  156.2285  130.7022  151.0832 H   0  0  0  0  0  0  0  0  0  0  0  0  # atno 10718 bound_to 10713
  154.5661  135.2824  155.0872 H   0  0  0  0  0  0  0  0  0  0  0  0  # atno 10763 bound_to 10752
  154.2262  135.6382  153.5164 H   0  0  0  0  0  0  0  0  0  0  0  0  # atno 10764 bound_to 10752
  153.0043  135.5526  154.6271 H   0  0  0  0  0  0  0  0  0  0  0  0  # atno 10765 bound_to 10752
  141.1068  133.8782  157.1697 H   0  0  0  0  0  0  0  0  0  0  0  0  # atno 11005 bound_to 11000
  145.8865  140.9331  143.0574 LP  0  0  0  0  0  0  0  0  0  0  0  0  # atno 17320 bound_to 7965
  144.6732  140.0848  143.7468 LP  0  0  0  0  0  0  0  0  0  0  0  0  # atno 17321 bound_to 7965
  140.7115  143.2509  151.4566 LP  0  0  0  0  0  0  0  0  0  0  0  0  # atno 17342 bound_to 10162
  139.5824  144.1681  152.1985 LP  0  0  0  0  0  0  0  0  0  0  0  0  # atno 17343 bound_to 10162
  157.7122  131.0728  150.6460 LP  0  0  0  0  0  0  0  0  0  0  0  0  # atno 17370 bound_to 10713
  156.6527  130.4489  149.5714 LP  0  0  0  0  0  0  0  0  0  0  0  0  # atno 17371 bound_to 10713
  139.9942  135.0053  157.0044 LP  0  0  0  0  0  0  0  0  0  0  0  0  # atno 17394 bound_to 11000
  140.4881  134.1221  155.7228 LP  0  0  0  0  0  0  0  0  0  0  0  0  # atno 17395 bound_to 11000

$$$$
