#       Name:                AV-unprocessed.smi:43
#       Creating user name   scv26
#       Creation time:       Thu Mar 26 16:24:51 2020


#       File generated by GOLD software.
#

@<TRIPOS>MOLECULE
AV-unprocessed.smi:43
    34    35     1
SMALL
NO_CHARGES


@<TRIPOS>ATOM
      1 ****        -1.8300  -2.1086   1.1978 C.3            1 S1                 0.0000
      2 ****        -2.2686  -1.0417   0.3168 N.pl3          1 S1                 0.0000
      3 ****        -3.5726  -0.9669  -0.0500 N.2            1 S1                 0.0000
      4 ****        -3.6811   0.0434  -0.8630 N.2            1 S1                 0.0000
      5 ****        -2.4628   0.6624  -1.0588 N.2            1 S1                 0.0000
      6 ****        -1.6246  -0.0363  -0.3021 C.2            1 S1                 0.0000
      7 ****        -0.2543   0.2166  -0.1624 N.pl3          1 S1                 0.0000
      8 ****         0.6378  -0.1796   0.9228 C.3            1 S1                 0.0000
      9 ****         1.7196   0.8889   1.0078 C.3            1 S1                 0.0000
     10 ****         2.8830   0.4332   1.6660 O.3            1 S1                 0.0000
     11 ****         1.9586   1.2043  -0.4555 C.3            1 S1                 0.0000
     12 ****         0.5595   1.0342  -1.0728 C.3            1 S1                 0.0000
     13 ****         0.6280   0.4241  -2.4810 C.2            1 S1                 0.0000
     14 ****         0.3601   1.1824  -3.4382 O.co2          1 S1                 0.0000
     15 ****         0.9473  -0.7822  -2.5775 O.co2          1 S1                -1.0000
     16 ****         1.3309   1.7712   1.5184 H              1 S1                 0.0000
     17 ****         0.0822   2.0132  -1.1362 H              1 S1                 0.0000
     18 ****        -0.9099  -2.5513   0.8170 H              1 S1                 0.0000
     19 ****        -2.5887  -2.8902   1.2537 H              1 S1                 0.0000
     20 ****        -1.6613  -1.7156   2.2001 H              1 S1                 0.0000
     21 ****         0.1117  -0.2580   1.8734 H              1 S1                 0.0000
     22 ****         1.0657  -1.1550   0.6856 H              1 S1                 0.0000
     23 ****         3.5364   1.1144   1.6238 H              1 S1                 0.0000
     24 ****         2.3636   2.2053  -0.6062 H              1 S1                 0.0000
     25 ****         2.6686   0.4907  -0.8790 H              1 S1                 0.0000
     26 ****        -4.3102  -1.5729   0.2478 LP             1 S1                 0.0000
     27 ****        -4.5369   0.3340  -1.2909 LP             1 S1                 0.0000
     28 ****        -2.2589   1.4531  -1.6362 LP             1 S1                 0.0000
     29 ****         3.2251  -0.3911   1.2149 LP             1 S1                 0.0000
     30 ****         2.6715   0.2270   2.6214 LP             1 S1                 0.0000
     31 ****         0.3921   0.8351  -4.3754 LP             1 S1                 0.0000
     32 ****         0.1139   2.1364  -3.2667 LP             1 S1                 0.0000
     33 ****         1.0044  -1.2138  -3.4778 LP             1 S1                 0.0000
     34 ****         1.1453  -1.3144  -1.7544 LP             1 S1                 0.0000
@<TRIPOS>BOND
    1    1    2 1     
    2    1   18 1     
    3    1   19 1     
    4    1   20 1     
    5    2    6 1     
    6    2    3 1     
    7    3    4 2     
    8    4    5 1     
    9    5    6 2     
   10    6    7 1     
   11    7   12 1     
   12    7    8 1     
   13    8    9 1     
   14    8   21 1     
   15    8   22 1     
   16    9   16 1     
   17    9   10 1     
   18    9   11 1     
   19   10   23 1     
   20   11   12 1     
   21   11   24 1     
   22   11   25 1     
   23   12   17 1     
   24   12   13 1     
   25   13   14 ar    
   26   13   15 ar    
   27    3   26 1     
   28    4   27 1     
   29    5   28 1     
   30   10   29 1     
   31   10   30 1     
   32   14   31 1     
   33   14   32 1     
   34   15   33 1     
   35   15   34 1     
@<TRIPOS>SUBSTRUCTURE
      1 S1             1
@<TRIPOS>SET
LONE_PAIRS      STATIC     ATOMS    <user>   **** ""
9 26 27 28 29 30 31 32 33 34
DONOR_HYDROGENS      STATIC     ATOMS    <user>   **** ""
1 23
ATOM$BLUE        STATIC     ATOMS    COLORGROUP SYSTEM
9 26 27 28 29 30 31 32 33 34
ATOM$RED        STATIC     ATOMS    COLORGROUP SYSTEM
1 23
