#       Name:                AV-unprocessed.smi:266
#       Creating user name   scv26
#       Creation time:       Thu Mar 26 21:24:51 2020


#       File generated by GOLD software.
#

@<TRIPOS>MOLECULE
AV-unprocessed.smi:266
    59    62     1
SMALL
NO_CHARGES


@<TRIPOS>ATOM
      1 ****        -5.7887   2.3321   1.4684 C.3            1 S1                 0.0000
      2 ****        -5.1379   2.0109   0.1135 C.3            1 S1                 0.0000
      3 ****        -5.5099   2.9864  -0.8507 O.3            1 S1                 0.0000
      4 ****        -4.5619   2.9262  -1.8999 C.3            1 S1                 0.0000
      5 ****        -3.2436   2.8240  -1.1458 C.3            1 S1                 0.0000
      6 ****        -3.5867   1.9551   0.0707 C.3            1 S1                 0.0000
      7 ****        -3.0091   2.5531   1.2189 O.3            1 S1                 0.0000
      8 ****        -3.0828   0.4913  -0.0322 C.3            1 S1                 0.0000
      9 ****        -1.6372   0.3560  -0.1464 N.pl3          1 S1                 0.0000
     10 ****        -0.9148   0.2090  -1.3085 C.2            1 S1                 0.0000
     11 ****         0.3754   0.1003  -1.1517 N.2            1 S1                 0.0000
     12 ****         0.5609   0.1536   0.2253 C.ar           1 S1                 0.0000
     13 ****         1.6959   0.0882   1.0871 C.ar           1 S1                 0.0000
     14 ****         2.9822  -0.0680   0.6877 N.pl3          1 S1                 0.0000
     15 ****         3.7929   1.1255   0.8924 C.3            1 S1                 0.0000
     16 ****         3.2821  -0.8951  -0.4809 C.3            1 S1                 0.0000
     17 ****         2.7439  -2.3433  -0.3817 C.3            1 S1                 0.0000
     18 ****         3.0312  -3.1209  -1.6823 C.3            1 S1                 0.0000
     19 ****         4.4966  -3.5793  -1.6905 C.3            1 S1                 0.0000
     20 ****         4.9618  -3.8132   0.0672 S.o2           1 S1                 0.0000
     21 ****         5.0411  -5.2493   0.3739 O.2            1 S1                 0.0000
     22 ****         6.0749  -2.9072   0.3889 O.2            1 S1                 0.0000
     23 ****         3.4068  -3.1354   0.7585 C.3            1 S1                 0.0000
     24 ****         1.4777   0.2018   2.4220 N.ar           1 S1                 0.0000
     25 ****         0.2361   0.3452   2.8931 C.ar           1 S1                 0.0000
     26 ****        -0.9109   0.4065   2.2148 N.ar           1 S1                 0.0000
     27 ****        -0.6988   0.3138   0.8711 C.ar           1 S1                 0.0000
     28 ****        -5.5039   1.5996   2.2241 H              1 S1                 0.0000
     29 ****        -6.8756   2.3183   1.3866 H              1 S1                 0.0000
     30 ****        -5.5001   3.3203   1.8278 H              1 S1                 0.0000
     31 ****        -5.5429   1.0617  -0.2415 H              1 S1                 0.0000
     32 ****        -4.7376   2.0381  -2.5091 H              1 S1                 0.0000
     33 ****        -4.6148   3.8055  -2.5423 H              1 S1                 0.0000
     34 ****        -2.4420   2.4342  -1.7710 H              1 S1                 0.0000
     35 ****        -2.9476   3.8273  -0.8337 H              1 S1                 0.0000
     36 ****        -2.0686   2.4918   1.1498 H              1 S1                 0.0000
     37 ****        -3.4086  -0.0777   0.8399 H              1 S1                 0.0000
     38 ****        -3.5327   0.0024  -0.8975 H              1 S1                 0.0000
     39 ****        -1.3772   0.1900  -2.2849 H              1 S1                 0.0000
     40 ****         3.9090   1.3367   1.9559 H              1 S1                 0.0000
     41 ****         3.3328   1.9925   0.4166 H              1 S1                 0.0000
     42 ****         4.7902   0.9987   0.4705 H              1 S1                 0.0000
     43 ****         2.8977  -0.4052  -1.3751 H              1 S1                 0.0000
     44 ****         4.3644  -0.9246  -0.6093 H              1 S1                 0.0000
     45 ****         1.6659  -2.3199  -0.2242 H              1 S1                 0.0000
     46 ****         2.3923  -4.0047  -1.7036 H              1 S1                 0.0000
     47 ****         2.7855  -2.5400  -2.5721 H              1 S1                 0.0000
     48 ****         4.6472  -4.5048  -2.2460 H              1 S1                 0.0000
     49 ****         5.1443  -2.8105  -2.1121 H              1 S1                 0.0000
     50 ****         3.6153  -2.5436   1.6501 H              1 S1                 0.0000
     51 ****         2.7788  -3.9778   1.0494 H              1 S1                 0.0000
     52 ****         0.1496   0.4221   3.9669 H              1 S1                 0.0000
     53 ****        -5.5039   3.8965  -0.4362 LP             1 S1                 0.0000
     54 ****        -6.4239   2.7870  -1.2038 LP             1 S1                 0.0000
     55 ****        -3.3185   2.0738   2.0402 LP             1 S1                 0.0000
     56 ****        -3.2811   3.5140   1.2714 LP             1 S1                 0.0000
     57 ****         1.0732   0.0011  -1.8611 LP             1 S1                 0.0000
     58 ****         2.2506   0.1780   3.0561 LP             1 S1                 0.0000
     59 ****        -1.8113   0.5076   2.6378 LP             1 S1                 0.0000
@<TRIPOS>BOND
    1    1    2 1     
    2    1   28 1     
    3    1   29 1     
    4    1   30 1     
    5    2    6 1     
    6    2    3 1     
    7    2   31 1     
    8    3    4 1     
    9    4    5 1     
   10    4   32 1     
   11    4   33 1     
   12    5    6 1     
   13    5   34 1     
   14    5   35 1     
   15    6    7 1     
   16    6    8 1     
   17    7   36 1     
   18    8    9 1     
   19    8   37 1     
   20    8   38 1     
   21    9   27 1     
   22    9   10 1     
   23   10   11 2     
   24   10   39 1     
   25   11   12 1     
   26   12   27 ar    
   27   12   13 ar    
   28   13   14 1     
   29   13   24 ar    
   30   14   15 1     
   31   14   16 1     
   32   15   40 1     
   33   15   41 1     
   34   15   42 1     
   35   16   17 1     
   36   16   43 1     
   37   16   44 1     
   38   17   23 1     
   39   17   18 1     
   40   17   45 1     
   41   18   19 1     
   42   18   46 1     
   43   18   47 1     
   44   19   20 1     
   45   19   48 1     
   46   19   49 1     
   47   20   21 2     
   48   20   22 2     
   49   20   23 1     
   50   23   50 1     
   51   23   51 1     
   52   24   25 ar    
   53   25   26 ar    
   54   25   52 1     
   55   26   27 ar    
   56    3   53 1     
   57    3   54 1     
   58    7   55 1     
   59    7   56 1     
   60   11   57 1     
   61   24   58 1     
   62   26   59 1     
@<TRIPOS>SUBSTRUCTURE
      1 S1             1
@<TRIPOS>SET
LONE_PAIRS      STATIC     ATOMS    <user>   **** ""
9 53 54 55 56 57 21 22 58 59
DONOR_HYDROGENS      STATIC     ATOMS    <user>   **** ""
1 36
ATOM$BLUE        STATIC     ATOMS    COLORGROUP SYSTEM
9 53 54 55 56 57 21 22 58 59
ATOM$RED        STATIC     ATOMS    COLORGROUP SYSTEM
1 36
