AV-unprocessed.smi:513|AV-procd|sdf|2774|dock3
  -GOLD-   2262023243D 1   1.00000     0.00000
 Structure written by MMmdl.
 42 44  0  0  0  0  0  0  0  0  3 V2000
  151.3267  136.9993  158.3405 C   0  0  0  0  0  0  0  0  0  0  0  0
  152.1634  136.8356  157.2091 O   0  0  0  0  0  0  0  0  0  0  0  0
  153.4754  137.3229  157.4315 C   0  0  0  0  0  0  0  0  0  0  0  0
  153.7055  138.5516  156.5444 C   0  0  0  0  0  0  0  0  0  0  0  0
  153.0278  139.7299  157.0806 N   0  0  0  0  0  0  0  0  0  0  0  0
  152.0637  140.4896  156.4914 C   0  0  0  0  0  0  0  0  0  0  0  0
  151.5565  140.2054  155.2217 N   0  0  0  0  0  0  0  0  0  0  0  0
  152.3802  139.7212  154.1168 C   0  0  0  0  0  0  0  0  0  0  0  0
  151.7461  138.4901  153.4435 C   0  0  0  0  0  0  0  0  0  0  0  0
  150.3732  138.7931  152.9879 N   0  3  0  0  0  0  0  0  0  0  0  0
  149.5314  139.3639  154.0597 C   0  0  0  0  0  0  0  0  0  0  0  0
  150.2354  140.5689  154.7109 C   0  0  0  0  0  0  0  0  0  0  0  0
  151.6879  141.5571  157.1975 N   0  0  0  0  0  0  0  0  0  0  0  0
  152.4617  141.4620  158.3436 C   0  0  0  0  0  0  0  0  0  0  0  0
  153.2873  140.3824  158.2911 C   0  0  0  0  0  0  0  0  0  0  0  0
  154.2731  140.0516  159.3449 C   0  0  0  0  0  0  0  0  0  0  0  0
  155.0252  139.0863  159.2313 O   0  0  0  0  0  0  0  0  0  0  0  0
  154.2286  140.9356  160.3913 N   0  5  0  0  0  0  0  0  0  0  0  0
  153.4020  142.0340  160.4899 C   0  0  0  0  0  0  0  0  0  0  0  0
  153.4301  142.7834  161.4670 O   0  0  0  0  0  0  0  0  0  0  0  0
  152.5201  142.3146  159.4795 N   0  0  0  0  0  0  0  0  0  0  0  0
  151.6363  143.4816  159.5520 C   0  0  0  0  0  0  0  0  0  0  0  0
  150.3313  136.6145  158.1191 H   0  0  0  0  0  0  0  0  0  0  0  0
  151.2286  138.0518  158.6094 H   0  0  0  0  0  0  0  0  0  0  0  0
  151.7156  136.4525  159.2005 H   0  0  0  0  0  0  0  0  0  0  0  0
  153.6094  137.5865  158.4818 H   0  0  0  0  0  0  0  0  0  0  0  0
  154.2020  136.5452  157.1902 H   0  0  0  0  0  0  0  0  0  0  0  0
  154.7689  138.7422  156.4488 H   0  0  0  0  0  0  0  0  0  0  0  0
  153.3718  138.3627  155.5261 H   0  0  0  0  0  0  0  0  0  0  0  0
  152.5171  140.5243  153.3915 H   0  0  0  0  0  0  0  0  0  0  0  0
  153.3736  139.4629  154.4856 H   0  0  0  0  0  0  0  0  0  0  0  0
  152.3457  138.1679  152.5919 H   0  0  0  0  0  0  0  0  0  0  0  0
  151.7116  137.6558  154.1456 H   0  0  0  0  0  0  0  0  0  0  0  0
  150.4325  139.4701  152.2408 H   0  0  0  0  0  0  0  0  0  0  0  0
  148.5701  139.6625  153.6418 H   0  0  0  0  0  0  0  0  0  0  0  0
  149.3317  138.5902  154.8020 H   0  0  0  0  0  0  0  0  0  0  0  0
  149.6221  140.9980  155.5025 H   0  0  0  0  0  0  0  0  0  0  0  0
  150.3565  141.3640  153.9740 H   0  0  0  0  0  0  0  0  0  0  0  0
  151.0240  143.4448  160.4542 H   0  0  0  0  0  0  0  0  0  0  0  0
  150.9568  143.5487  158.7030 H   0  0  0  0  0  0  0  0  0  0  0  0
  152.2232  144.4007  159.5754 H   0  0  0  0  0  0  0  0  0  0  0  0
  149.9423  137.9512  152.6336 H   0  0  0  0  0  0  0  0  0  0  0  0
  1  2  1  0  0  0  0
  1 23  1  0  0  0  0
  1 24  1  0  0  0  0
  1 25  1  0  0  0  0
  2  3  1  0  0  0  0
  3  4  1  0  0  0  0
  3 26  1  0  0  0  0
  3 27  1  0  0  0  0
  4  5  1  0  0  0  0
  4 28  1  0  0  0  0
  4 29  1  0  0  0  0
  5 15  1  0  0  0  0
  5  6  1  0  0  0  0
  6  7  1  0  0  0  0
  6 13  2  0  0  0  0
  7 12  1  0  0  0  0
  7  8  1  0  0  0  0
  8  9  1  0  0  0  0
  8 30  1  0  0  0  0
  8 31  1  0  0  0  0
  9 10  1  0  0  0  0
  9 32  1  0  0  0  0
  9 33  1  0  0  0  0
 10 11  1  0  0  0  0
 10 34  1  0  0  0  0
 10 42  1  0  0  0  0
 11 12  1  0  0  0  0
 11 35  1  0  0  0  0
 11 36  1  0  0  0  0
 12 37  1  0  0  0  0
 12 38  1  0  0  0  0
 13 14  1  0  0  0  0
 14 21  1  0  0  0  0
 14 15  2  0  0  0  0
 15 16  1  0  0  0  0
 16 17  2  0  0  0  0
 16 18  1  0  0  0  0
 18 19  1  0  0  0  0
 19 20  2  0  0  0  0
 19 21  1  0  0  0  0
 21 22  1  0  0  0  0
 22 39  1  0  0  0  0
 22 40  1  0  0  0  0
 22 41  1  0  0  0  0
M  CHG  1  10   1
M  CHG  1  18  -1
M  END
> <s_m_source_file>
AV-unprocessed.smi

> <i_m_source_file_index>
513

> <i_lp_mmshare_version>
43012

> <i_f3d_flags>
0

> <s_epik_input>
W0NIM11uMWMoPU8pW25IXWMoPU8pYyhjMTIpbihbQ0gyXVtDSDJdT1tDSDNdKWMobjIpTjNbQ0gyXVtDSDJdW05IXVtDSDJdW0NIMl0z

> <s_epik_cmdline>
J2VwaWtfcHl0aG9uJywgJy1waCcsICc3LjAnLCAnLXRuJywgJzgnLCAnLW1hJywgJzIwMCcsICctbWV0YWxfYmluZGluZycsICctaW1hZScsICc8aW5maWxlLm1hZT4nLCAnLW9tYWUnLCAnPG91dGZpbGUubWFlPic=

> <r_epik_Ionization_Penalty>
5.91573

> <r_epik_Ionization_Penalty_Charging>
0.0691516

> <r_epik_Ionization_Penalty_Neutral>
5.84657

> <r_epik_State_Penalty>
5.85298

> <r_epik_Charging_Adjusted_Penalty>
5.92213

> <i_epik_Tot_Q>
0

> <i_epik_Tot_abs_Q>
2

> <r_epik_Metal_State_Penalty>
1.81849

> <b_epik_Metal_Only>
1

> <s_lp_Force_Field>
OPLS_2005

> <r_lp_Energy>
49.8146

> <b_lp_Chiralities_Consistent>
1

> <s_lp_Variant>
AV-unprocessed.smi:513-3

> <Gold.Version>
5.8.1

> <Gold.Id.Protein>
6NUR|6NUR_protein|mol2

> <Gold.PLP.Fitness>
46.8977

> <Gold.PLP.PLP>
-39.2647

> <Gold.PLP.part.hbond>
-2.3434

> <Gold.PLP.part.metal>
0.0000

> <Gold.PLP.part.buried>
-1.1962

> <Gold.PLP.part.nonpolar>
-33.7348

> <Gold.PLP.part.repulsive>
0.1552

> <Gold.PLP.ligand.clash>
0.0000

> <Gold.PLP.ligand.torsion>
0.9014

> <Gold.PLP.Chemscore.Hbond>
2.9600

> <Gold.PLP.Chemscore.CHOScore>
0.0000

> <Gold.PLP.Chemscore.Metal>
0.0000

> <Gold.Chemscore.Hbonds>
donor molecule, donor type, donor heavy atom, donor atom, acceptor molecule, acceptor atom, score
      L1  H    10    34       P1  7957  0.66
      L1  H    10    42       P1  7948  1.70

> <Gold.PLP.Chemscore.Internal.Correction>
0.5558

> <Gold.Rescore>
     Score         DG    S(hbond)    S(metal)    S(lipo)     H(rot)  DE(clash)    DE(int)     intcor
     12.50     -14.20       1.73        0.00      59.22       1.55       0.57       1.13       ----

> <Gold.Chemscore.Fitness>
12.5047

> <Gold.Chemscore.DG>
-14.2017

> <Gold.Chemscore.ZeroCoef>
-5.4800

> <Gold.Chemscore.Hbond>
1.7267

> <Gold.Chemscore.Metal>
0.0000

> <Gold.Chemscore.Lipo>
59.2231

> <Gold.Chemscore.Internal_Hbond>
0.0000

> <Gold.Chemscore.DEClash>
0.5683

> <Gold.Chemscore.DEInternal>
1.1287

> <Gold.Chemscore.Rot>
1.5526

> <Gold.Chemscore.Internal.Correction>
   9.000000E+99

> <Gold.Chemscore.Hbonds>
donor molecule, donor type, donor heavy atom, donor atom, acceptor molecule, acceptor atom, score
      L1  H    10    34       P1  7957  0.16
      L1  H    10    42       P1  7948  0.19

> <Gold.Chemscore.Hbond.Weighted>
-5.7671

> <Gold.Chemscore.Metal.Weighted>
-0.0000

> <Gold.Chemscore.Lipo.Weighted>
-6.9291

> <Gold.Chemscore.Internal_Hbond.Weighted>
0.0000

> <Gold.Chemscore.DEClash.Weighted>
0.5683

> <Gold.Chemscore.DEInternal.Weighted>
1.1287

> <Gold.Chemscore.Rot.Weighted>
3.9745

> <Gold.Chemscore.Internal.Correction.Weighted>
   9.000000E+99

> <Gold.Protein.RotatedTorsions>
[ 6907 6896 6895 6894 ] final  175.14 input  -60.11 | X-H torsion
[ 7974 7965 7964 7962 ] final -170.52 input  175.53 | X-H torsion
[ 8008 7997 7996 7995 ] final    8.47 input   59.86 | X-H torsion
[ 10167 10162 10161 10158 ] final  -86.50 input  -65.29 | X-H torsion
[ 10718 10713 10712 10709 ] final  141.11 input   66.30 | X-H torsion
[ 10763 10752 10751 10750 ] final    1.91 input  -60.55 | X-H torsion
[ 11005 11000 10999 10996 ] final  150.64 input  -57.11 | X-H torsion

> <Gold.Protein.ActiveResidues>
 VAL166  LYS551  ARG553  GLY616  TRP617  ASP618  TYR619  PRO620  LYS621  CYS622 
 ASP623  PHE694  ASN695  SER759  ASP760  ASP761  ALA762  ILE779  LEU786  VAL792 
 PHE793  MET794  SER795  GLU796  ALA797  LYS798  CYS799  TRP800  GLU811  SER814 

> <Gold.Protein.RotatedAtoms>
  151.7410  133.3322  159.3365 H   0  0  0  0  0  0  0  0  0  0  0  0  # atno 6907 bound_to 6896
  150.7573  134.6278  159.6179 H   0  0  0  0  0  0  0  0  0  0  0  0  # atno 6908 bound_to 6896
  152.3531  134.6980  160.0282 H   0  0  0  0  0  0  0  0  0  0  0  0  # atno 6909 bound_to 6896
  144.7169  140.2059  143.6333 H   0  0  0  0  0  0  0  0  0  0  0  0  # atno 7974 bound_to 7965
  154.7672  140.2795  155.6166 H   0  0  0  0  0  0  0  0  0  0  0  0  # atno 8008 bound_to 7997
  156.2927  140.2648  156.2393 H   0  0  0  0  0  0  0  0  0  0  0  0  # atno 8009 bound_to 7997
  154.9944  140.0373  157.2323 H   0  0  0  0  0  0  0  0  0  0  0  0  # atno 8010 bound_to 7997
  140.3936  143.2694  151.9233 H   0  0  0  0  0  0  0  0  0  0  0  0  # atno 10167 bound_to 10162
  157.3957  131.1010  151.0602 H   0  0  0  0  0  0  0  0  0  0  0  0  # atno 10718 bound_to 10713
  153.3021  135.6956  153.7193 H   0  0  0  0  0  0  0  0  0  0  0  0  # atno 10763 bound_to 10752
  153.6103  135.3445  155.2977 H   0  0  0  0  0  0  0  0  0  0  0  0  # atno 10764 bound_to 10752
  154.8553  135.4362  154.2135 H   0  0  0  0  0  0  0  0  0  0  0  0  # atno 10765 bound_to 10752
  140.1149  134.8901  157.1989 H   0  0  0  0  0  0  0  0  0  0  0  0  # atno 11005 bound_to 11000
  145.8636  139.2235  143.1702 LP  0  0  0  0  0  0  0  0  0  0  0  0  # atno 17320 bound_to 7965
  146.0150  140.8400  142.9952 LP  0  0  0  0  0  0  0  0  0  0  0  0  # atno 17321 bound_to 7965
  139.4788  144.5703  151.8098 LP  0  0  0  0  0  0  0  0  0  0  0  0  # atno 17342 bound_to 10162
  140.4814  144.1444  150.5933 LP  0  0  0  0  0  0  0  0  0  0  0  0  # atno 17343 bound_to 10162
  157.1619  130.6229  149.5613 LP  0  0  0  0  0  0  0  0  0  0  0  0  # atno 17370 bound_to 10713
  155.9810  130.4814  150.6803 LP  0  0  0  0  0  0  0  0  0  0  0  0  # atno 17371 bound_to 10713
  140.3042  134.3097  155.7282 LP  0  0  0  0  0  0  0  0  0  0  0  0  # atno 17394 bound_to 11000
  141.2139  133.7610  156.9684 LP  0  0  0  0  0  0  0  0  0  0  0  0  # atno 17395 bound_to 11000

$$$$
