AV-unprocessed.smi:1261|AV-procd|sdf|5308|dock8
  -GOLD-   22720 4433D 1   1.00000     0.00000
 Structure written by MMmdl.
 50 51  0  0  0  0  0  0  0  0  2 V2000
  153.6611  141.9297  161.3425 C   0  0  0  0  0  0  0  0  0  0  0  0
  152.5617  142.4197  160.3893 C   0  0  1  0  0  0  0  0  0  0  0  0
  153.1058  143.4631  159.3969 C   0  0  0  0  0  0  0  0  0  0  0  0
  152.0269  143.9121  158.3942 C   0  0  2  0  0  0  0  0  0  0  0  0
  150.9767  144.8461  159.0219 C   0  0  0  0  0  0  0  0  0  0  0  0
  151.3845  142.6891  157.7100 C   0  0  0  0  0  0  0  0  0  0  0  0
  150.8495  141.7221  158.7038 N   0  3  1  0  0  0  0  0  0  0  0  0
  150.0939  140.6161  158.0628 C   0  0  0  0  0  0  0  0  0  0  0  0
  151.0062  139.4508  157.6457 C   0  0  0  0  0  0  0  0  0  0  0  0
  150.2208  138.2881  157.0176 C   0  0  0  0  0  0  0  0  0  0  0  0
  148.9933  138.0199  157.7555 N   0  0  0  0  0  0  0  0  0  0  0  0
  148.8427  137.0652  158.6897 C   0  0  0  0  0  0  0  0  0  0  0  0
  149.7485  136.2927  159.0013 O   0  0  0  0  0  0  0  0  0  0  0  0
  147.4838  136.9499  159.4026 C   0  0  0  0  0  0  0  0  0  0  0  0
  147.4083  135.9037  160.4358 N   0  0  0  0  0  0  0  0  0  0  0  0
  147.4998  134.6114  159.9411 N   0  0  0  0  0  0  0  0  0  0  0  0
  147.4505  133.6064  160.7488 C   0  0  0  0  0  0  0  0  0  0  0  0
  147.5414  132.3438  160.2163 O   0  0  0  0  0  0  0  0  0  0  0  0
  147.3030  133.7990  162.1750 C   0  0  0  0  0  0  0  0  0  0  0  0
  147.2119  135.0615  162.6473 C   0  0  0  0  0  0  0  0  0  0  0  0
  147.2576  136.2236  161.7581 C   0  0  0  0  0  0  0  0  0  0  0  0
  147.1587  137.3832  162.1587 O   0  0  0  0  0  0  0  0  0  0  0  0
  151.9121  141.2469  159.6296 C   0  0  0  0  0  0  0  0  0  0  0  0
  146.9637  131.8078  160.7374 H   0  0  0  0  0  0  0  0  0  0  0  0
  154.4699  141.4408  160.7987 H   0  0  0  0  0  0  0  0  0  0  0  0
  153.2655  141.2143  162.0640 H   0  0  0  0  0  0  0  0  0  0  0  0
  154.0918  142.7589  161.9047 H   0  0  0  0  0  0  0  0  0  0  0  0
  151.7931  142.8935  161.0012 H   0  0  0  0  0  0  0  0  0  0  0  0
  153.5056  144.3253  159.9322 H   0  0  0  0  0  0  0  0  0  0  0  0
  153.9438  143.0323  158.8467 H   0  0  0  0  0  0  0  0  0  0  0  0
  152.5282  144.4938  157.6195 H   0  0  0  0  0  0  0  0  0  0  0  0
  150.3881  144.3431  159.7888 H   0  0  0  0  0  0  0  0  0  0  0  0
  150.2830  145.2160  158.2667 H   0  0  0  0  0  0  0  0  0  0  0  0
  151.4492  145.7140  159.4829 H   0  0  0  0  0  0  0  0  0  0  0  0
  150.5870  143.0237  157.0451 H   0  0  0  0  0  0  0  0  0  0  0  0
  152.1211  142.1834  157.0832 H   0  0  0  0  0  0  0  0  0  0  0  0
  149.3580  140.2269  158.7680 H   0  0  0  0  0  0  0  0  0  0  0  0
  149.5302  140.9950  157.2088 H   0  0  0  0  0  0  0  0  0  0  0  0
  151.7565  139.7966  156.9353 H   0  0  0  0  0  0  0  0  0  0  0  0
  151.5519  139.0875  158.5177 H   0  0  0  0  0  0  0  0  0  0  0  0
  149.9502  138.5321  155.9900 H   0  0  0  0  0  0  0  0  0  0  0  0
  150.8363  137.3881  156.9722 H   0  0  0  0  0  0  0  0  0  0  0  0
  148.1992  138.6106  157.5537 H   0  0  0  0  0  0  0  0  0  0  0  0
  147.2560  137.9221  159.8435 H   0  0  0  0  0  0  0  0  0  0  0  0
  146.7086  136.7888  158.6514 H   0  0  0  0  0  0  0  0  0  0  0  0
  147.2680  132.9482  162.8396 H   0  0  0  0  0  0  0  0  0  0  0  0
  147.1024  135.2196  163.7102 H   0  0  0  0  0  0  0  0  0  0  0  0
  152.6668  140.6974  159.0643 H   0  0  0  0  0  0  0  0  0  0  0  0
  151.4938  140.5484  160.3535 H   0  0  0  0  0  0  0  0  0  0  0  0
  150.1821  142.2368  159.2606 H   0  0  0  0  0  0  0  0  0  0  0  0
  1  2  1  0  0  0  0
  1 25  1  0  0  0  0
  1 26  1  0  0  0  0
  1 27  1  0  0  0  0
  2 23  1  0  0  0  0
  2  3  1  0  0  0  0
  2 28  1  0  0  0  0
  3  4  1  0  0  0  0
  3 29  1  0  0  0  0
  3 30  1  0  0  0  0
  4  5  1  0  0  0  0
  4  6  1  0  0  0  0
  4 31  1  0  0  0  0
  5 32  1  0  0  0  0
  5 33  1  0  0  0  0
  5 34  1  0  0  0  0
  6  7  1  0  0  0  0
  6 35  1  0  0  0  0
  6 36  1  0  0  0  0
  7  8  1  0  0  0  0
  7 23  1  0  0  0  0
  7 50  1  0  0  0  0
  8  9  1  0  0  0  0
  8 37  1  0  0  0  0
  8 38  1  0  0  0  0
  9 10  1  0  0  0  0
  9 39  1  0  0  0  0
  9 40  1  0  0  0  0
 10 11  1  0  0  0  0
 10 41  1  0  0  0  0
 10 42  1  0  0  0  0
 11 12  1  0  0  0  0
 11 43  1  0  0  0  0
 12 13  2  0  0  0  0
 12 14  1  0  0  0  0
 14 44  1  0  0  0  0
 14 45  1  0  0  0  0
 14 15  1  0  0  0  0
 15 16  1  0  0  0  0
 15 21  1  0  0  0  0
 16 17  2  0  0  0  0
 17 18  1  0  0  0  0
 17 19  1  0  0  0  0
 18 24  1  0  0  0  0
 19 46  1  0  0  0  0
 19 20  2  0  0  0  0
 20 47  1  0  0  0  0
 20 21  1  0  0  0  0
 21 22  2  0  0  0  0
 23 48  1  0  0  0  0
 23 49  1  0  0  0  0
M  CHG  1   7   1
M  END
> <s_m_source_file>
AV-unprocessed.smi

> <i_m_source_file_index>
1261

> <i_lp_mmshare_version>
43012

> <i_f3d_flags>
0

> <s_epik_input>
W0NIM11bQ0BASF0xW0NIMl1bQ0BASF0oW0NIM10pW0NIMl1OKFtDSDJdMSlbQ0gyXVtDSDJdW0NIMl1bTkhdQyg9TylbQ0gyXW4yW25IXWMoPU8pW2NIXVtjSF1jMj1P

> <s_epik_cmdline>
J2VwaWtfcHl0aG9uJywgJy1waCcsICc3LjAnLCAnLXRuJywgJzgnLCAnLW1hJywgJzIwMCcsICctbWV0YWxfYmluZGluZycsICctaW1hZScsICc8aW5maWxlLm1hZT4nLCAnLW9tYWUnLCAnPG91dGZpbGUubWFlPic=

> <r_lp_tautomer_probability>
0.9996

> <r_epik_Ionization_Penalty>
2.1425

> <r_epik_Ionization_Penalty_Charging>
0.000312112

> <r_epik_Ionization_Penalty_Neutral>
2.14218

> <r_epik_State_Penalty>
1.71978

> <r_epik_Charging_Adjusted_Penalty>
1.72009

> <i_epik_Tot_Q>
1

> <i_epik_Tot_abs_Q>
1

> <r_epik_Metal_State_Penalty>
1.71978

> <b_epik_Metal_Only>
0

> <s_lp_Force_Field>
OPLS_2005

> <r_lp_Energy>
29.1446

> <b_lp_Chiralities_Consistent>
1

> <s_lp_Variant>
AV-unprocessed.smi:1261-8

> <Gold.Version>
5.8.1

> <Gold.Id.Protein>
6NUR|6NUR_protein|mol2

> <Gold.PLP.Fitness>
55.0327

> <Gold.PLP.PLP>
-49.2005

> <Gold.PLP.part.hbond>
-3.0000

> <Gold.PLP.part.metal>
0.0000

> <Gold.PLP.part.buried>
-6.4573

> <Gold.PLP.part.nonpolar>
-39.5786

> <Gold.PLP.part.repulsive>
0.2191

> <Gold.PLP.ligand.clash>
0.0000

> <Gold.PLP.ligand.torsion>
0.5263

> <Gold.PLP.Chemscore.Hbond>
2.2800

> <Gold.PLP.Chemscore.CHOScore>
0.0000

> <Gold.PLP.Chemscore.Metal>
0.0000

> <Gold.Chemscore.Hbonds>
donor molecule, donor type, donor heavy atom, donor atom, acceptor molecule, acceptor atom, score
      P1  H  6896  6909       L1    13  1.00
      P1  H  6931  6943       L1    22  0.66
      P1  H  6934  6947       L1    22  0.67

> <Gold.PLP.Chemscore.Internal.Correction>
0.0449

> <Gold.Rescore>
     Score         DG    S(hbond)    S(metal)    S(lipo)     H(rot)  DE(clash)    DE(int)     intcor
     18.71     -19.47       2.75        0.00     109.64       3.14       0.09       0.68       ----

> <Gold.Chemscore.Fitness>
18.7089

> <Gold.Chemscore.DG>
-19.4732

> <Gold.Chemscore.ZeroCoef>
-5.4800

> <Gold.Chemscore.Hbond>
2.7520

> <Gold.Chemscore.Metal>
0.0000

> <Gold.Chemscore.Lipo>
109.6379

> <Gold.Chemscore.Internal_Hbond>
0.0000

> <Gold.Chemscore.DEClash>
0.0859

> <Gold.Chemscore.DEInternal>
0.6784

> <Gold.Chemscore.Rot>
3.1352

> <Gold.Chemscore.Internal.Correction>
   9.000000E+99

> <Gold.Chemscore.Hbonds>
donor molecule, donor type, donor heavy atom, donor atom, acceptor molecule, acceptor atom, score
      P1  H  6896  6909       L1    13  0.96
      P1  H  6931  6943       L1    22  0.38
      P1  H  6934  6947       L1    22  0.61

> <Gold.Chemscore.Hbond.Weighted>
-9.1916

> <Gold.Chemscore.Metal.Weighted>
-0.0000

> <Gold.Chemscore.Lipo.Weighted>
-12.8276

> <Gold.Chemscore.Internal_Hbond.Weighted>
0.0000

> <Gold.Chemscore.DEClash.Weighted>
0.0859

> <Gold.Chemscore.DEInternal.Weighted>
0.6784

> <Gold.Chemscore.Rot.Weighted>
8.0260

> <Gold.Chemscore.Internal.Correction.Weighted>
   9.000000E+99

> <Gold.Protein.RotatedTorsions>
[ 6907 6896 6895 6894 ] final   87.85 input  -60.11 | X-H torsion
[ 7974 7965 7964 7962 ] final  -96.54 input  175.53 | X-H torsion
[ 8008 7997 7996 7995 ] final  -17.01 input   59.86 | X-H torsion
[ 10167 10162 10161 10158 ] final  132.09 input  -65.29 | X-H torsion
[ 10718 10713 10712 10709 ] final -140.12 input   66.30 | X-H torsion
[ 10763 10752 10751 10750 ] final -166.14 input  -60.55 | X-H torsion
[ 11005 11000 10999 10996 ] final  109.32 input  -57.11 | X-H torsion

> <Gold.Protein.ActiveResidues>
 VAL166  LYS551  ARG553  GLY616  TRP617  ASP618  TYR619  PRO620  LYS621  CYS622 
 ASP623  PHE694  ASN695  SER759  ASP760  ASP761  ALA762  ILE779  LEU786  VAL792 
 PHE793  MET794  SER795  GLU796  ALA797  LYS798  CYS799  TRP800  GLU811  SER814 

> <Gold.Protein.RotatedAtoms>
  152.5417  134.2212  159.8788 H   0  0  0  0  0  0  0  0  0  0  0  0  # atno 6907 bound_to 6896
  151.2189  133.4507  159.2607 H   0  0  0  0  0  0  0  0  0  0  0  0  # atno 6908 bound_to 6896
  151.0825  134.9880  159.8419 H   0  0  0  0  0  0  0  0  0  0  0  0  # atno 6909 bound_to 6896
  145.3456  140.9467  143.2583 H   0  0  0  0  0  0  0  0  0  0  0  0  # atno 7974 bound_to 7965
  154.5010  140.2154  155.9347 H   0  0  0  0  0  0  0  0  0  0  0  0  # atno 8008 bound_to 7997
  156.1433  140.3175  155.8498 H   0  0  0  0  0  0  0  0  0  0  0  0  # atno 8009 bound_to 7997
  155.4078  140.0488  157.3024 H   0  0  0  0  0  0  0  0  0  0  0  0  # atno 8010 bound_to 7997
  139.5355  144.6678  151.4801 H   0  0  0  0  0  0  0  0  0  0  0  0  # atno 10167 bound_to 10162
  156.3186  130.7522  151.1614 H   0  0  0  0  0  0  0  0  0  0  0  0  # atno 10718 bound_to 10713
  154.6863  135.2963  154.9543 H   0  0  0  0  0  0  0  0  0  0  0  0  # atno 10763 bound_to 10752
  154.0521  135.6643  153.4805 H   0  0  0  0  0  0  0  0  0  0  0  0  # atno 10764 bound_to 10752
  153.0581  135.5132  154.7931 H   0  0  0  0  0  0  0  0  0  0  0  0  # atno 10765 bound_to 10752
  139.8860  134.9455  156.6108 H   0  0  0  0  0  0  0  0  0  0  0  0  # atno 11005 bound_to 11000
  144.8757  139.4975  143.6747 LP  0  0  0  0  0  0  0  0  0  0  0  0  # atno 17320 bound_to 7965
  146.2989  139.7365  142.9106 LP  0  0  0  0  0  0  0  0  0  0  0  0  # atno 17321 bound_to 7965
  140.6559  143.8601  150.6834 LP  0  0  0  0  0  0  0  0  0  0  0  0  # atno 17342 bound_to 10162
  140.1980  143.3982  152.1813 LP  0  0  0  0  0  0  0  0  0  0  0  0  # atno 17343 bound_to 10162
  157.7407  131.0513  150.5148 LP  0  0  0  0  0  0  0  0  0  0  0  0  # atno 17370 bound_to 10713
  156.5297  130.4182  149.6208 LP  0  0  0  0  0  0  0  0  0  0  0  0  # atno 17371 bound_to 10713
  140.7813  133.8658  155.8570 LP  0  0  0  0  0  0  0  0  0  0  0  0  # atno 17394 bound_to 11000
  140.9758  134.1471  157.4537 LP  0  0  0  0  0  0  0  0  0  0  0  0  # atno 17395 bound_to 11000

$$$$
