AV-unprocessed.smi:1943|AV-procd|sdf|7852|dock6
  -GOLD-   22720 9593D 1   1.00000     0.00000
 Structure written by MMmdl.
 47 48  0  0  0  0  0  0  0  0  3 V2000
  143.6776  133.3093  151.4845 C   0  0  0  0  0  0  0  0  0  0  0  0
  143.6187  133.9442  152.8343 N   0  3  0  0  0  0  0  0  0  0  0  0
  142.3863  134.7697  152.9368 C   0  0  0  0  0  0  0  0  0  0  0  0
  144.8986  134.5853  153.3339 C   0  0  0  0  0  0  0  0  0  0  0  0
  145.2028  135.8840  152.5308 C   0  0  0  0  0  0  0  0  0  0  0  0
  144.7761  134.9967  154.8369 C   0  0  0  0  0  0  0  0  0  0  0  0
  146.0497  133.5237  153.1931 C   0  0  0  0  0  0  0  0  0  0  0  0
  147.3103  134.0050  153.7523 N   0  5  0  0  0  0  0  0  0  0  0  0
  148.3549  133.1935  154.0768 C   0  0  0  0  0  0  0  0  0  0  0  0
  148.5573  132.0082  153.7905 O   0  0  0  0  0  0  0  0  0  0  0  0
  149.4225  133.9266  154.8384 C   0  0  0  0  0  0  0  0  0  0  0  0
  149.5426  135.2491  154.5780 N   0  0  0  0  0  0  0  0  0  0  0  0
  150.4741  135.9497  155.2355 C   0  0  0  0  0  0  0  0  0  0  0  0
  150.5699  137.3197  154.9571 N   0  0  0  0  0  0  0  0  0  0  0  0
  151.8525  138.0278  154.9886 C   0  0  0  0  0  0  0  0  0  0  0  0
  151.6583  139.4954  155.4055 C   0  0  0  0  0  0  0  0  0  0  0  0
  150.7135  140.1205  154.5453 O   0  0  0  0  0  0  0  0  0  0  0  0
  149.4393  139.4941  154.6275 C   0  0  0  0  0  0  0  0  0  0  0  0
  149.5487  138.0267  154.1802 C   0  0  0  0  0  0  0  0  0  0  0  0
  151.3202  135.4378  156.1383 N   0  0  0  0  0  0  0  0  0  0  0  0
  151.2313  134.1177  156.4031 C   0  0  0  0  0  0  0  0  0  0  0  0
  150.2863  133.2901  155.7682 C   0  0  0  0  0  0  0  0  0  0  0  0
  150.2531  131.5943  156.1159 Cl  0  0  0  0  0  0  0  0  0  0  0  0
  143.7123  134.0601  150.6940 H   0  0  0  0  0  0  0  0  0  0  0  0
  142.7888  132.7003  151.3169 H   0  0  0  0  0  0  0  0  0  0  0  0
  144.5346  132.6478  151.3612 H   0  0  0  0  0  0  0  0  0  0  0  0
  142.4885  135.6993  152.3757 H   0  0  0  0  0  0  0  0  0  0  0  0
  142.1359  135.0051  153.9711 H   0  0  0  0  0  0  0  0  0  0  0  0
  141.5271  134.2325  152.5340 H   0  0  0  0  0  0  0  0  0  0  0  0
  146.0502  136.4338  152.9450 H   0  0  0  0  0  0  0  0  0  0  0  0
  144.3535  136.5670  152.5614 H   0  0  0  0  0  0  0  0  0  0  0  0
  145.4316  135.7016  151.4790 H   0  0  0  0  0  0  0  0  0  0  0  0
  145.6943  135.4357  155.2329 H   0  0  0  0  0  0  0  0  0  0  0  0
  144.5178  134.1573  155.4864 H   0  0  0  0  0  0  0  0  0  0  0  0
  144.0182  135.7664  154.9847 H   0  0  0  0  0  0  0  0  0  0  0  0
  145.7271  132.5993  153.6747 H   0  0  0  0  0  0  0  0  0  0  0  0
  146.1731  133.2679  152.1406 H   0  0  0  0  0  0  0  0  0  0  0  0
  152.5598  137.5696  155.6793 H   0  0  0  0  0  0  0  0  0  0  0  0
  152.3028  137.9767  153.9968 H   0  0  0  0  0  0  0  0  0  0  0  0
  151.3256  139.5638  156.4425 H   0  0  0  0  0  0  0  0  0  0  0  0
  152.6056  140.0308  155.3402 H   0  0  0  0  0  0  0  0  0  0  0  0
  149.0521  139.5625  155.6455 H   0  0  0  0  0  0  0  0  0  0  0  0
  148.7397  140.0299  153.9858 H   0  0  0  0  0  0  0  0  0  0  0  0
  149.8174  137.9756  153.1246 H   0  0  0  0  0  0  0  0  0  0  0  0
  148.5658  137.5668  154.2787 H   0  0  0  0  0  0  0  0  0  0  0  0
  151.9299  133.7171  157.1228 H   0  0  0  0  0  0  0  0  0  0  0  0
  143.4639  133.1811  153.4782 H   0  0  0  0  0  0  0  0  0  0  0  0
  1  2  1  0  0  0  0
  1 24  1  0  0  0  0
  1 25  1  0  0  0  0
  1 26  1  0  0  0  0
  2  3  1  0  0  0  0
  2  4  1  0  0  0  0
  2 47  1  0  0  0  0
  3 27  1  0  0  0  0
  3 28  1  0  0  0  0
  3 29  1  0  0  0  0
  4  5  1  0  0  0  0
  4  6  1  0  0  0  0
  4  7  1  0  0  0  0
  5 30  1  0  0  0  0
  5 31  1  0  0  0  0
  5 32  1  0  0  0  0
  6 33  1  0  0  0  0
  6 34  1  0  0  0  0
  6 35  1  0  0  0  0
  7  8  1  0  0  0  0
  7 36  1  0  0  0  0
  7 37  1  0  0  0  0
  8  9  1  0  0  0  0
  9 10  2  0  0  0  0
  9 11  1  0  0  0  0
 11 22  1  0  0  0  0
 11 12  2  0  0  0  0
 12 13  1  0  0  0  0
 13 14  1  0  0  0  0
 13 20  2  0  0  0  0
 14 19  1  0  0  0  0
 14 15  1  0  0  0  0
 15 16  1  0  0  0  0
 15 38  1  0  0  0  0
 15 39  1  0  0  0  0
 16 17  1  0  0  0  0
 16 40  1  0  0  0  0
 16 41  1  0  0  0  0
 17 18  1  0  0  0  0
 18 19  1  0  0  0  0
 18 42  1  0  0  0  0
 18 43  1  0  0  0  0
 19 44  1  0  0  0  0
 19 45  1  0  0  0  0
 20 21  1  0  0  0  0
 21 22  2  0  0  0  0
 21 46  1  0  0  0  0
 22 23  1  0  0  0  0
M  CHG  1   2   1
M  CHG  1   8  -1
M  END
> <s_m_source_file>
AV-unprocessed.smi

> <i_m_source_file_index>
1943

> <i_lp_mmshare_version>
43012

> <i_f3d_flags>
0

> <s_epik_input>
W0NIM11OKFtDSDNdKUMoW0NIM10pKFtDSDNdKVtDSDJdW05IXUMoPU8pYzFuYyhuW2NIXWMxQ2wpTjJbQ0gyXVtDSDJdT1tDSDJdW0NIMl0y

> <s_epik_cmdline>
J2VwaWtfcHl0aG9uJywgJy1waCcsICc3LjAnLCAnLXRuJywgJzgnLCAnLW1hJywgJzIwMCcsICctbWV0YWxfYmluZGluZycsICctaW1hZScsICc8aW5maWxlLm1hZT4nLCAnLW9tYWUnLCAnPG91dGZpbGUubWFlPic=

> <r_lp_tautomer_probability>
1

> <r_epik_Ionization_Penalty>
4.9942

> <r_epik_Ionization_Penalty_Charging>
4.9942

> <r_epik_Ionization_Penalty_Neutral>
6.27513e-06

> <r_epik_State_Penalty>
4.99795

> <r_epik_Charging_Adjusted_Penalty>
9.99215

> <i_epik_Tot_Q>
0

> <i_epik_Tot_abs_Q>
2

> <r_epik_Metal_State_Penalty>
1.11486

> <b_epik_Metal_Only>
1

> <s_lp_Force_Field>
OPLS_2005

> <r_lp_Energy>
33.8194

> <b_lp_Chiralities_Consistent>
1

> <s_lp_Variant>
AV-unprocessed.smi:1943-2

> <Gold.Version>
5.8.1

> <Gold.Id.Protein>
6NUR|6NUR_protein|mol2

> <Gold.PLP.Fitness>
43.3306

> <Gold.PLP.PLP>
-32.8067

> <Gold.PLP.part.hbond>
-2.9615

> <Gold.PLP.part.metal>
0.0000

> <Gold.PLP.part.buried>
-4.6133

> <Gold.PLP.part.nonpolar>
-27.9486

> <Gold.PLP.part.repulsive>
2.3997

> <Gold.PLP.ligand.clash>
0.0000

> <Gold.PLP.ligand.torsion>
0.8730

> <Gold.PLP.Chemscore.Hbond>
4.0000

> <Gold.PLP.Chemscore.CHOScore>
0.0000

> <Gold.PLP.Chemscore.Metal>
0.0000

> <Gold.Chemscore.Hbonds>
donor molecule, donor type, donor heavy atom, donor atom, acceptor molecule, acceptor atom, score
      L1  H     2    47       P1 10957  1.76
      P1  H  7989  7998       L1    17  1.00
      P1  H 10752 10765       L1    20  0.68

> <Gold.PLP.Chemscore.Internal.Correction>
0.2700

> <Gold.Rescore>
     Score         DG    S(hbond)    S(metal)    S(lipo)     H(rot)  DE(clash)    DE(int)     intcor
     14.11     -16.09       1.97        0.00      65.16       1.41       0.06       1.92       ----

> <Gold.Chemscore.Fitness>
14.1139

> <Gold.Chemscore.DG>
-16.0936

> <Gold.Chemscore.ZeroCoef>
-5.4800

> <Gold.Chemscore.Hbond>
1.9729

> <Gold.Chemscore.Metal>
0.0000

> <Gold.Chemscore.Lipo>
65.1582

> <Gold.Chemscore.Internal_Hbond>
0.0000

> <Gold.Chemscore.DEClash>
0.0605

> <Gold.Chemscore.DEInternal>
1.9192

> <Gold.Chemscore.Rot>
1.4060

> <Gold.Chemscore.Internal.Correction>
   9.000000E+99

> <Gold.Chemscore.Hbonds>
donor molecule, donor type, donor heavy atom, donor atom, acceptor molecule, acceptor atom, score
      L1  H     2    47       P1 10957  0.81
      P1  H  7989  7998       L1    17  0.39
      P1  H 10752 10765       L1    20  0.03

> <Gold.Chemscore.Hbond.Weighted>
-6.5895

> <Gold.Chemscore.Metal.Weighted>
-0.0000

> <Gold.Chemscore.Lipo.Weighted>
-7.6235

> <Gold.Chemscore.Internal_Hbond.Weighted>
0.0000

> <Gold.Chemscore.DEClash.Weighted>
0.0605

> <Gold.Chemscore.DEInternal.Weighted>
1.9192

> <Gold.Chemscore.Rot.Weighted>
3.5994

> <Gold.Chemscore.Internal.Correction.Weighted>
   9.000000E+99

> <Gold.Protein.RotatedTorsions>
[ 6907 6896 6895 6894 ] final  128.27 input  -60.11 | X-H torsion
[ 7974 7965 7964 7962 ] final -148.88 input  175.53 | X-H torsion
[ 8008 7997 7996 7995 ] final   14.00 input   59.86 | X-H torsion
[ 10167 10162 10161 10158 ] final    1.96 input  -65.29 | X-H torsion
[ 10718 10713 10712 10709 ] final  170.38 input   66.30 | X-H torsion
[ 10763 10752 10751 10750 ] final -158.64 input  -60.55 | X-H torsion
[ 11005 11000 10999 10996 ] final   56.85 input  -57.11 | X-H torsion

> <Gold.Protein.ActiveResidues>
 VAL166  LYS551  ARG553  GLY616  TRP617  ASP618  TYR619  PRO620  LYS621  CYS622 
 ASP623  PHE694  ASN695  SER759  ASP760  ASP761  ALA762  ILE779  LEU786  VAL792 
 PHE793  MET794  SER795  GLU796  ALA797  LYS798  CYS799  TRP800  GLU811  SER814 

> <Gold.Protein.RotatedAtoms>
  152.3735  133.6450  159.6105 H   0  0  0  0  0  0  0  0  0  0  0  0  # atno 6907 bound_to 6896
  150.7686  133.9231  159.3413 H   0  0  0  0  0  0  0  0  0  0  0  0  # atno 6908 bound_to 6896
  151.7050  135.0924  160.0309 H   0  0  0  0  0  0  0  0  0  0  0  0  # atno 6909 bound_to 6896
  144.8001  140.5138  143.5713 H   0  0  0  0  0  0  0  0  0  0  0  0  # atno 7974 bound_to 7965
  154.8424  140.2916  155.5651 H   0  0  0  0  0  0  0  0  0  0  0  0  # atno 8008 bound_to 7997
  156.3012  140.2511  156.3300 H   0  0  0  0  0  0  0  0  0  0  0  0  # atno 8009 bound_to 7997
  154.9111  140.0388  157.1936 H   0  0  0  0  0  0  0  0  0  0  0  0  # atno 8010 bound_to 7997
  140.6658  143.7184  150.7824 H   0  0  0  0  0  0  0  0  0  0  0  0  # atno 10167 bound_to 10162
  157.0090  131.0198  151.2809 H   0  0  0  0  0  0  0  0  0  0  0  0  # atno 10718 bound_to 10713
  154.7540  135.3100  154.8505 H   0  0  0  0  0  0  0  0  0  0  0  0  # atno 10763 bound_to 10752
  153.9284  135.6788  153.4750 H   0  0  0  0  0  0  0  0  0  0  0  0  # atno 10764 bound_to 10752
  153.1137  135.4854  154.9007 H   0  0  0  0  0  0  0  0  0  0  0  0  # atno 10765 bound_to 10752
  140.0497  134.5754  155.9278 H   0  0  0  0  0  0  0  0  0  0  0  0  # atno 11005 bound_to 11000
  145.5573  139.1478  143.3361 LP  0  0  0  0  0  0  0  0  0  0  0  0  # atno 17320 bound_to 7965
  146.2281  140.5710  142.8987 LP  0  0  0  0  0  0  0  0  0  0  0  0  # atno 17321 bound_to 7965
  140.0861  143.4922  152.2504 LP  0  0  0  0  0  0  0  0  0  0  0  0  # atno 17342 bound_to 10162
  139.5906  144.7548  151.3410 LP  0  0  0  0  0  0  0  0  0  0  0  0  # atno 17343 bound_to 10162
  157.5335  130.8073  149.7944 LP  0  0  0  0  0  0  0  0  0  0  0  0  # atno 17370 bound_to 10713
  156.0143  130.3820  150.2161 LP  0  0  0  0  0  0  0  0  0  0  0  0  # atno 17371 bound_to 10713
  141.1924  133.6575  156.5502 LP  0  0  0  0  0  0  0  0  0  0  0  0  # atno 17394 bound_to 11000
  140.3937  134.7418  157.4737 LP  0  0  0  0  0  0  0  0  0  0  0  0  # atno 17395 bound_to 11000

$$$$
