AV-unprocessed.smi:740|AV-procd|sdf|3552|dock7
  -GOLD-   22720 0553D 1   1.00000     0.00000
 Structure written by MMmdl.
 45 47  0  0  0  0  0  0  0  0  2 V2000
  152.3504  143.3394  161.4533 C   0  0  0  0  0  0  0  0  0  0  0  0
  152.2171  142.5986  160.1337 C   0  0  0  0  0  0  0  0  0  0  0  0
  151.3442  143.1204  159.1529 C   0  0  0  0  0  0  0  0  0  0  0  0
  151.2419  142.4196  157.9573 C   0  0  0  0  0  0  0  0  0  0  0  0
  150.4785  142.6696  156.8153 N   0  3  0  0  0  0  0  0  0  0  0  0
  150.7092  141.6953  155.8927 C   0  0  0  0  0  0  0  0  0  0  0  0
  151.6113  140.8282  156.4270 N   0  0  0  0  0  0  0  0  0  0  0  0
  152.1930  139.6105  155.8445 C   0  0  0  0  0  0  0  0  0  0  0  0
  151.1353  138.5321  155.5385 C   0  0  2  0  0  0  0  0  0  0  0  0
  151.7917  137.3000  155.3123 O   0  0  0  0  0  0  0  0  0  0  0  0
  150.3043  138.8913  154.2890 C   0  0  0  0  0  0  0  0  0  0  0  0
  148.9657  139.3809  154.6379 N   0  0  0  0  0  0  0  0  0  0  0  0
  148.4723  140.5630  154.2446 C   0  0  0  0  0  0  0  0  0  0  0  0
  149.0476  141.3949  153.5434 O   0  0  0  0  0  0  0  0  0  0  0  0
  147.0669  140.7765  154.7888 C   0  0  0  0  0  0  0  0  0  0  0  0
  146.8046  139.4996  155.6016 C   0  0  2  0  0  0  0  0  0  0  0  0
  146.5036  139.7619  157.0865 C   0  0  0  0  0  0  0  0  0  0  0  0
  148.1013  138.7138  155.4159 C   0  0  0  0  0  0  0  0  0  0  0  0
  148.2925  137.6136  155.9343 O   0  0  0  0  0  0  0  0  0  0  0  0
  151.9723  141.2395  157.7160 C   0  0  0  0  0  0  0  0  0  0  0  0
  152.8378  140.7126  158.6722 C   0  0  0  0  0  0  0  0  0  0  0  0
  152.9530  141.4088  159.8968 C   0  0  0  0  0  0  0  0  0  0  0  0
  153.8858  140.8537  160.9601 C   0  0  0  0  0  0  0  0  0  0  0  0
  151.7558  144.2534  161.4594 H   0  0  0  0  0  0  0  0  0  0  0  0
  153.3888  143.6175  161.6353 H   0  0  0  0  0  0  0  0  0  0  0  0
  152.0089  142.7137  162.2783 H   0  0  0  0  0  0  0  0  0  0  0  0
  150.7789  144.0244  159.3264 H   0  0  0  0  0  0  0  0  0  0  0  0
  150.2583  141.6233  154.9135 H   0  0  0  0  0  0  0  0  0  0  0  0
  152.6889  139.9119  154.9210 H   0  0  0  0  0  0  0  0  0  0  0  0
  152.9765  139.2297  156.5001 H   0  0  0  0  0  0  0  0  0  0  0  0
  150.4834  138.4249  156.4065 H   0  0  0  0  0  0  0  0  0  0  0  0
  152.1567  137.3091  154.4407 H   0  0  0  0  0  0  0  0  0  0  0  0
  150.8125  139.6779  153.7284 H   0  0  0  0  0  0  0  0  0  0  0  0
  150.2523  138.0434  153.6034 H   0  0  0  0  0  0  0  0  0  0  0  0
  147.0354  141.6774  155.4028 H   0  0  0  0  0  0  0  0  0  0  0  0
  146.3547  140.8890  153.9706 H   0  0  0  0  0  0  0  0  0  0  0  0
  145.9855  138.9356  155.1533 H   0  0  0  0  0  0  0  0  0  0  0  0
  146.2888  138.8325  157.6150 H   0  0  0  0  0  0  0  0  0  0  0  0
  145.6342  140.4102  157.1978 H   0  0  0  0  0  0  0  0  0  0  0  0
  147.3433  140.2449  157.5881 H   0  0  0  0  0  0  0  0  0  0  0  0
  153.3964  139.8059  158.4951 H   0  0  0  0  0  0  0  0  0  0  0  0
  154.3333  139.9102  160.6460 H   0  0  0  0  0  0  0  0  0  0  0  0
  153.3450  140.6708  161.8888 H   0  0  0  0  0  0  0  0  0  0  0  0
  154.6949  141.5560  161.1621 H   0  0  0  0  0  0  0  0  0  0  0  0
  149.8456  143.4465  156.6736 H   0  0  0  0  0  0  0  0  0  0  0  0
  1  2  1  0  0  0  0
  1 24  1  0  0  0  0
  1 25  1  0  0  0  0
  1 26  1  0  0  0  0
  2 22  1  0  0  0  0
  2  3  2  0  0  0  0
  3  4  1  0  0  0  0
  3 27  1  0  0  0  0
  4 20  2  0  0  0  0
  4  5  1  0  0  0  0
  5  6  2  0  0  0  0
  5 45  1  0  0  0  0
  6  7  1  0  0  0  0
  6 28  1  0  0  0  0
  7  8  1  0  0  0  0
  7 20  1  0  0  0  0
  8  9  1  0  0  0  0
  8 29  1  0  0  0  0
  8 30  1  0  0  0  0
  9 10  1  0  0  0  0
  9 11  1  0  0  0  0
  9 31  1  0  0  0  0
 10 32  1  0  0  0  0
 11 12  1  0  0  0  0
 11 33  1  0  0  0  0
 11 34  1  0  0  0  0
 12 18  1  0  0  0  0
 12 13  1  0  0  0  0
 13 14  2  0  0  0  0
 13 15  1  0  0  0  0
 15 16  1  0  0  0  0
 15 35  1  0  0  0  0
 15 36  1  0  0  0  0
 16 17  1  0  0  0  0
 16 18  1  0  0  0  0
 16 37  1  0  0  0  0
 17 38  1  0  0  0  0
 17 39  1  0  0  0  0
 17 40  1  0  0  0  0
 18 19  2  0  0  0  0
 20 21  1  0  0  0  0
 21 22  2  0  0  0  0
 21 41  1  0  0  0  0
 22 23  1  0  0  0  0
 23 42  1  0  0  0  0
 23 43  1  0  0  0  0
 23 44  1  0  0  0  0
M  CHG  1   5   1
M  END
> <s_m_source_file>
AV-unprocessed.smi

> <i_m_source_file_index>
740

> <i_lp_mmshare_version>
43012

> <i_f3d_flags>
0

> <s_epik_input>
W0NIM11jKFtjSF0xKWMoW0NIM10pW2NIXWMoYzEyKW4oW2NIXW4yKVtDSDJdW0NASF0oW09IXSlbQ0gyXU4zQyg9TylbQ0gyXVtDQEBIXShbQ0gzXSlDMz1P

> <s_epik_cmdline>
J2VwaWtfcHl0aG9uJywgJy1waCcsICc3LjAnLCAnLXRuJywgJzgnLCAnLW1hJywgJzIwMCcsICctbWV0YWxfYmluZGluZycsICctaW1hZScsICc8aW5maWxlLm1hZT4nLCAnLW9tYWUnLCAnPG91dGZpbGUubWFlPic=

> <r_lp_tautomer_probability>
1

> <r_epik_Ionization_Penalty>
1.08202

> <r_epik_Ionization_Penalty_Charging>
1.08202

> <r_epik_Ionization_Penalty_Neutral>
1.16605e-06

> <r_epik_State_Penalty>
1.13754

> <r_epik_Charging_Adjusted_Penalty>
2.21956

> <i_epik_Tot_Q>
1

> <i_epik_Tot_abs_Q>
1

> <r_epik_Metal_State_Penalty>
5.13645

> <b_epik_Metal_Only>
0

> <s_lp_Force_Field>
OPLS_2005

> <r_lp_Energy>
22.2654

> <b_lp_Chiralities_Consistent>
1

> <s_lp_Variant>
AV-unprocessed.smi:740-7

> <Gold.Version>
5.8.1

> <Gold.Id.Protein>
6NUR|6NUR_protein|mol2

> <Gold.PLP.Fitness>
48.7273

> <Gold.PLP.PLP>
-41.5909

> <Gold.PLP.part.hbond>
-3.7908

> <Gold.PLP.part.metal>
0.0000

> <Gold.PLP.part.buried>
-6.9390

> <Gold.PLP.part.nonpolar>
-33.2451

> <Gold.PLP.part.repulsive>
2.3596

> <Gold.PLP.ligand.clash>
0.0000

> <Gold.PLP.ligand.torsion>
0.7635

> <Gold.PLP.Chemscore.Hbond>
2.8800

> <Gold.PLP.Chemscore.CHOScore>
0.0000

> <Gold.PLP.Chemscore.Metal>
0.0000

> <Gold.Chemscore.Hbonds>
donor molecule, donor type, donor heavy atom, donor atom, acceptor molecule, acceptor atom, score
      L1  H     5    45       P1  8028  2.00
      P1  H  8011  8017       L1    14  0.88

> <Gold.PLP.Chemscore.Internal.Correction>
0.0234

> <Gold.Rescore>
     Score         DG    S(hbond)    S(metal)    S(lipo)     H(rot)  DE(clash)    DE(int)     intcor
     13.73     -17.21       1.92        0.00      97.46       2.37       1.44       2.04       ----

> <Gold.Chemscore.Fitness>
13.7283

> <Gold.Chemscore.DG>
-17.2128

> <Gold.Chemscore.ZeroCoef>
-5.4800

> <Gold.Chemscore.Hbond>
1.9173

> <Gold.Chemscore.Metal>
0.0000

> <Gold.Chemscore.Lipo>
97.4573

> <Gold.Chemscore.Internal_Hbond>
0.0000

> <Gold.Chemscore.DEClash>
1.4418

> <Gold.Chemscore.DEInternal>
2.0428

> <Gold.Chemscore.Rot>
2.3724

> <Gold.Chemscore.Internal.Correction>
   9.000000E+99

> <Gold.Chemscore.Hbonds>
donor molecule, donor type, donor heavy atom, donor atom, acceptor molecule, acceptor atom, score
      L1  H     5    45       P1  8028  0.98
      P1  H  8011  8017       L1    14  0.87

> <Gold.Chemscore.Hbond.Weighted>
-6.4037

> <Gold.Chemscore.Metal.Weighted>
-0.0000

> <Gold.Chemscore.Lipo.Weighted>
-11.4025

> <Gold.Chemscore.Internal_Hbond.Weighted>
0.0000

> <Gold.Chemscore.DEClash.Weighted>
1.4418

> <Gold.Chemscore.DEInternal.Weighted>
2.0428

> <Gold.Chemscore.Rot.Weighted>
6.0734

> <Gold.Chemscore.Internal.Correction.Weighted>
   9.000000E+99

> <Gold.Protein.RotatedTorsions>
[ 6907 6896 6895 6894 ] final   83.84 input  -60.11 | X-H torsion
[ 7974 7965 7964 7962 ] final   86.08 input  175.53 | X-H torsion
[ 8008 7997 7996 7995 ] final    5.96 input   59.86 | X-H torsion
[ 10167 10162 10161 10158 ] final    1.69 input  -65.29 | X-H torsion
[ 10718 10713 10712 10709 ] final  -70.80 input   66.30 | X-H torsion
[ 10763 10752 10751 10750 ] final  100.29 input  -60.55 | X-H torsion
[ 11005 11000 10999 10996 ] final  -48.54 input  -57.11 | X-H torsion

> <Gold.Protein.ActiveResidues>
 VAL166  LYS551  ARG553  GLY616  TRP617  ASP618  TYR619  PRO620  LYS621  CYS622 
 ASP623  PHE694  ASN695  SER759  ASP760  ASP761  ALA762  ILE779  LEU786  VAL792 
 PHE793  MET794  SER795  GLU796  ALA797  LYS798  CYS799  TRP800  GLU811  SER814 

> <Gold.Protein.RotatedAtoms>
  152.5337  134.2833  159.9015 H   0  0  0  0  0  0  0  0  0  0  0  0  # atno 6907 bound_to 6896
  151.2786  133.4214  159.2633 H   0  0  0  0  0  0  0  0  0  0  0  0  # atno 6908 bound_to 6896
  151.0303  134.9550  159.8164 H   0  0  0  0  0  0  0  0  0  0  0  0  # atno 6909 bound_to 6896
  145.5770  139.2320  143.2374 H   0  0  0  0  0  0  0  0  0  0  0  0  # atno 7974 bound_to 7965
  154.7349  140.2737  155.6423 H   0  0  0  0  0  0  0  0  0  0  0  0  # atno 8008 bound_to 7997
  156.2859  140.2708  156.1985 H   0  0  0  0  0  0  0  0  0  0  0  0  # atno 8009 bound_to 7997
  155.0333  140.0371  157.2472 H   0  0  0  0  0  0  0  0  0  0  0  0  # atno 8010 bound_to 7997
  140.6671  143.7151  150.7848 H   0  0  0  0  0  0  0  0  0  0  0  0  # atno 10167 bound_to 10162
  156.0391  130.4339  150.2350 H   0  0  0  0  0  0  0  0  0  0  0  0  # atno 10718 bound_to 10713
  153.3121  135.4084  155.1345 H   0  0  0  0  0  0  0  0  0  0  0  0  # atno 10763 bound_to 10752
  154.8579  135.3567  154.5709 H   0  0  0  0  0  0  0  0  0  0  0  0  # atno 10764 bound_to 10752
  153.6138  135.7067  153.5395 H   0  0  0  0  0  0  0  0  0  0  0  0  # atno 10765 bound_to 10752
  141.0707  133.6680  156.3456 H   0  0  0  0  0  0  0  0  0  0  0  0  # atno 11005 bound_to 11000
  146.1743  140.6597  142.9218 LP  0  0  0  0  0  0  0  0  0  0  0  0  # atno 17320 bound_to 7965
  144.7411  140.4945  143.6868 LP  0  0  0  0  0  0  0  0  0  0  0  0  # atno 17321 bound_to 7965
  140.0830  143.4951  152.2520 LP  0  0  0  0  0  0  0  0  0  0  0  0  # atno 17342 bound_to 10162
  139.5924  144.7555  151.3369 LP  0  0  0  0  0  0  0  0  0  0  0  0  # atno 17343 bound_to 10162
  157.0446  131.0045  151.3273 LP  0  0  0  0  0  0  0  0  0  0  0  0  # atno 17370 bound_to 10713
  157.5184  130.7983  149.7782 LP  0  0  0  0  0  0  0  0  0  0  0  0  # atno 17371 bound_to 10713
  140.5680  134.5869  157.5450 LP  0  0  0  0  0  0  0  0  0  0  0  0  # atno 17394 bound_to 11000
  139.9520  134.7600  156.0426 LP  0  0  0  0  0  0  0  0  0  0  0  0  # atno 17395 bound_to 11000

$$$$
