AV-unprocessed.smi:2458|AV-procd|sdf|9710|dock10
  -GOLD-   2272013353D 1   1.00000     0.00000
 Structure written by MMmdl.
 47 48  0  0  0  0  0  0  0  0  1 V2000
  147.5707  129.3478  153.3482 C   0  0  0  0  0  0  0  0  0  0  0  0
  146.4863  129.5043  152.2642 C   0  0  0  0  0  0  0  0  0  0  0  0
  146.6195  128.3411  151.2620 C   0  0  0  0  0  0  0  0  0  0  0  0
  146.5217  130.9010  151.5756 C   0  0  1  0  0  0  0  0  0  0  0  0
  145.2386  131.1900  150.7588 C   0  0  0  0  0  0  0  0  0  0  0  0
  145.2608  132.5753  150.0845 C   0  0  0  0  0  0  0  0  0  0  0  0
  145.5414  133.7404  151.0572 C   0  0  1  0  0  0  0  0  0  0  0  0
  144.3173  134.1249  151.9099 C   0  0  0  0  0  0  0  0  0  0  0  0
  143.2464  133.5303  151.7891 O   0  0  0  0  0  0  0  0  0  0  0  0
  144.4923  135.1329  152.7767 N   0  0  0  0  0  0  0  0  0  0  0  0
  143.4636  135.6382  153.6762 C   0  0  0  0  0  0  0  0  0  0  0  0
  143.0162  137.0515  153.2633 C   0  0  2  0  0  0  0  0  0  0  0  0
  143.8634  137.9956  153.8885 O   0  0  0  0  0  0  0  0  0  0  0  0
  141.5575  137.2930  153.6177 C   0  0  0  0  0  0  0  0  0  0  0  0
  140.7386  136.2526  154.1081 C   0  0  0  0  0  0  0  0  0  0  0  0
  139.3918  136.5304  154.4107 C   0  0  0  0  0  0  0  0  0  0  0  0
  138.9159  137.8409  154.2084 C   0  0  0  0  0  0  0  0  0  0  0  0
  139.6867  138.8445  153.7375 N   0  0  0  0  0  0  0  0  0  0  0  0
  140.9773  138.5694  153.4500 C   0  0  0  0  0  0  0  0  0  0  0  0
  146.7878  133.4324  151.9116 C   0  0  0  0  0  0  0  0  0  0  0  0
  146.7467  132.0501  152.5879 C   0  0  0  0  0  0  0  0  0  0  0  0
  147.3622  130.9059  150.8798 H   0  0  0  0  0  0  0  0  0  0  0  0
  145.7802  134.6128  150.4462 H   0  0  0  0  0  0  0  0  0  0  0  0
  148.5647  129.5494  152.9473 H   0  0  0  0  0  0  0  0  0  0  0  0
  147.5788  128.3357  153.7538 H   0  0  0  0  0  0  0  0  0  0  0  0
  147.4045  130.0146  154.1935 H   0  0  0  0  0  0  0  0  0  0  0  0
  145.5194  129.3950  152.7572 H   0  0  0  0  0  0  0  0  0  0  0  0
  147.5244  128.4365  150.6610 H   0  0  0  0  0  0  0  0  0  0  0  0
  145.7676  128.2834  150.5857 H   0  0  0  0  0  0  0  0  0  0  0  0
  146.6661  127.3815  151.7776 H   0  0  0  0  0  0  0  0  0  0  0  0
  145.1131  130.4489  149.9706 H   0  0  0  0  0  0  0  0  0  0  0  0
  144.3629  131.0960  151.4007 H   0  0  0  0  0  0  0  0  0  0  0  0
  146.0299  132.5737  149.3111 H   0  0  0  0  0  0  0  0  0  0  0  0
  144.3179  132.7412  149.5614 H   0  0  0  0  0  0  0  0  0  0  0  0
  145.4008  135.5712  152.8258 H   0  0  0  0  0  0  0  0  0  0  0  0
  142.6154  134.9543  153.6138 H   0  0  0  0  0  0  0  0  0  0  0  0
  143.8068  135.6242  154.7125 H   0  0  0  0  0  0  0  0  0  0  0  0
  143.1293  137.1704  152.1845 H   0  0  0  0  0  0  0  0  0  0  0  0
  143.5944  138.8622  153.6251 H   0  0  0  0  0  0  0  0  0  0  0  0
  141.1334  135.2569  154.2485 H   0  0  0  0  0  0  0  0  0  0  0  0
  138.7386  135.7574  154.7877 H   0  0  0  0  0  0  0  0  0  0  0  0
  137.8884  138.0891  154.4295 H   0  0  0  0  0  0  0  0  0  0  0  0
  141.5627  139.3953  153.0734 H   0  0  0  0  0  0  0  0  0  0  0  0
  147.6715  133.4845  151.2744 H   0  0  0  0  0  0  0  0  0  0  0  0
  146.9249  134.2054  152.6691 H   0  0  0  0  0  0  0  0  0  0  0  0
  145.9706  132.0278  153.3531 H   0  0  0  0  0  0  0  0  0  0  0  0
  147.6915  131.9183  153.1130 H   0  0  0  0  0  0  0  0  0  0  0  0
  1  2  1  0  0  0  0
  1 24  1  0  0  0  0
  1 25  1  0  0  0  0
  1 26  1  0  0  0  0
  2  3  1  0  0  0  0
  2  4  1  0  0  0  0
  2 27  1  0  0  0  0
  3 28  1  0  0  0  0
  3 29  1  0  0  0  0
  3 30  1  0  0  0  0
  4 22  1  0  0  0  0
  4 21  1  0  0  0  0
  4  5  1  0  0  0  0
  5  6  1  0  0  0  0
  5 31  1  0  0  0  0
  5 32  1  0  0  0  0
  6  7  1  0  0  0  0
  6 33  1  0  0  0  0
  6 34  1  0  0  0  0
  7 23  1  0  0  0  0
  7  8  1  0  0  0  0
  7 20  1  0  0  0  0
  8  9  2  0  0  0  0
  8 10  1  0  0  0  0
 10 11  1  0  0  0  0
 10 35  1  0  0  0  0
 11 12  1  0  0  0  0
 11 36  1  0  0  0  0
 11 37  1  0  0  0  0
 12 13  1  0  0  0  0
 12 14  1  0  0  0  0
 12 38  1  0  0  0  0
 13 39  1  0  0  0  0
 14 19  1  0  0  0  0
 14 15  2  0  0  0  0
 15 16  1  0  0  0  0
 15 40  1  0  0  0  0
 16 17  2  0  0  0  0
 16 41  1  0  0  0  0
 17 18  1  0  0  0  0
 17 42  1  0  0  0  0
 18 19  2  0  0  0  0
 19 43  1  0  0  0  0
 20 21  1  0  0  0  0
 20 44  1  0  0  0  0
 20 45  1  0  0  0  0
 21 46  1  0  0  0  0
 21 47  1  0  0  0  0
M  END
> <s_m_source_file>
AV-unprocessed.smi

> <i_m_source_file_index>
2458

> <i_lp_mmshare_version>
43012

> <i_f3d_flags>
0

> <s_epik_input>
W0NIM11bQ0hdKFtDSDNdKVtDQEhdMVtDSDJdW0NIMl1bQ0BASF0oW0NIMl1bQ0gyXTEpQyg9TylbTkhdW0NIMl1bQ0BIXShbT0hdKWMyW2NIXVtjSF1bY0hdbltjSF0y

> <s_epik_cmdline>
J2VwaWtfcHl0aG9uJywgJy1waCcsICc3LjAnLCAnLXRuJywgJzgnLCAnLW1hJywgJzIwMCcsICctbWV0YWxfYmluZGluZycsICctaW1hZScsICc8aW5maWxlLm1hZT4nLCAnLW9tYWUnLCAnPG91dGZpbGUubWFlPic=

> <r_epik_Ionization_Penalty>
0.00169206

> <r_epik_Ionization_Penalty_Charging>
0

> <r_epik_Ionization_Penalty_Neutral>
0.00169206

> <r_epik_State_Penalty>
0.0011427

> <r_epik_Charging_Adjusted_Penalty>
0.0011427

> <i_epik_Tot_Q>
0

> <i_epik_Tot_abs_Q>
0

> <r_epik_Metal_State_Penalty>
-0

> <b_epik_Metal_Only>
0

> <s_lp_Force_Field>
OPLS_2005

> <r_lp_Energy>
16.378

> <b_lp_Chiralities_Consistent>
1

> <s_lp_Variant>
AV-unprocessed.smi:2458-3

> <Gold.Version>
5.8.1

> <Gold.Id.Protein>
6NUR|6NUR_protein|mol2

> <Gold.PLP.Fitness>
45.5780

> <Gold.PLP.PLP>
-38.7558

> <Gold.PLP.part.hbond>
-1.0000

> <Gold.PLP.part.metal>
0.0000

> <Gold.PLP.part.buried>
-4.0168

> <Gold.PLP.part.nonpolar>
-34.4312

> <Gold.PLP.part.repulsive>
0.3833

> <Gold.PLP.ligand.clash>
0.0000

> <Gold.PLP.ligand.torsion>
0.7572

> <Gold.PLP.Chemscore.Hbond>
1.0000

> <Gold.PLP.Chemscore.CHOScore>
1.7602

> <Gold.PLP.Chemscore.Metal>
0.0000

> <Gold.Chemscore.Hbonds>
donor molecule, donor type, donor heavy atom, donor atom, acceptor molecule, acceptor atom, score
      L1  H    13    39       P1 10175  1.00
      L1  C    19    43       P1 10160  0.38
      L1  C    19    43       P1 10175  1.00

> <Gold.PLP.Chemscore.Internal.Correction>
0.0559

> <Gold.Rescore>
     Score         DG    S(hbond)    S(metal)    S(lipo)     H(rot)  DE(clash)    DE(int)     intcor
     14.95     -16.40       0.92        0.00     112.16       2.06       0.34       1.12       ----

> <Gold.Chemscore.Fitness>
14.9487

> <Gold.Chemscore.DG>
-16.4015

> <Gold.Chemscore.ZeroCoef>
-5.4800

> <Gold.Chemscore.Hbond>
0.9189

> <Gold.Chemscore.Metal>
0.0000

> <Gold.Chemscore.Lipo>
112.1616

> <Gold.Chemscore.Internal_Hbond>
0.0000

> <Gold.Chemscore.DEClash>
0.3368

> <Gold.Chemscore.DEInternal>
1.1160

> <Gold.Chemscore.Rot>
2.0588

> <Gold.Chemscore.Internal.Correction>
   9.000000E+99

> <Gold.Chemscore.Hbonds>
donor molecule, donor type, donor heavy atom, donor atom, acceptor molecule, acceptor atom, score
      L1  H    13    39       P1 10175  0.97

> <Gold.Chemscore.Hbond.Weighted>
-3.0691

> <Gold.Chemscore.Metal.Weighted>
-0.0000

> <Gold.Chemscore.Lipo.Weighted>
-13.1229

> <Gold.Chemscore.Internal_Hbond.Weighted>
0.0000

> <Gold.Chemscore.DEClash.Weighted>
0.3368

> <Gold.Chemscore.DEInternal.Weighted>
1.1160

> <Gold.Chemscore.Rot.Weighted>
5.2705

> <Gold.Chemscore.Internal.Correction.Weighted>
   9.000000E+99

> <Gold.Protein.RotatedTorsions>
[ 6907 6896 6895 6894 ] final  134.48 input  -60.11 | X-H torsion
[ 7974 7965 7964 7962 ] final   69.57 input  175.53 | X-H torsion
[ 8008 7997 7996 7995 ] final  -36.27 input   59.86 | X-H torsion
[ 10167 10162 10161 10158 ] final  -22.89 input  -65.29 | X-H torsion
[ 10718 10713 10712 10709 ] final   57.81 input   66.30 | X-H torsion
[ 10763 10752 10751 10750 ] final   97.03 input  -60.55 | X-H torsion
[ 11005 11000 10999 10996 ] final  -47.59 input  -57.11 | X-H torsion

> <Gold.Protein.ActiveResidues>
 VAL166  LYS551  ARG553  GLY616  TRP617  ASP618  TYR619  PRO620  LYS621  CYS622 
 ASP623  PHE694  ASN695  SER759  ASP760  ASP761  ALA762  ILE779  LEU786  VAL792 
 PHE793  MET794  SER795  GLU796  ALA797  LYS798  CYS799  TRP800  GLU811  SER814 

> <Gold.Protein.RotatedAtoms>
  152.3108  133.5751  159.5679 H   0  0  0  0  0  0  0  0  0  0  0  0  # atno 6907 bound_to 6896
  150.7322  134.0155  159.3693 H   0  0  0  0  0  0  0  0  0  0  0  0  # atno 6908 bound_to 6896
  151.8048  135.0699  160.0456 H   0  0  0  0  0  0  0  0  0  0  0  0  # atno 6909 bound_to 6896
  145.7888  139.2923  143.1222 H   0  0  0  0  0  0  0  0  0  0  0  0  # atno 7974 bound_to 7965
  154.4077  140.1635  156.2346 H   0  0  0  0  0  0  0  0  0  0  0  0  # atno 8008 bound_to 7997
  155.9253  140.3418  155.6182 H   0  0  0  0  0  0  0  0  0  0  0  0  # atno 8009 bound_to 7997
  155.7173  140.0764  157.2336 H   0  0  0  0  0  0  0  0  0  0  0  0  # atno 8010 bound_to 7997
  140.7287  143.4493  151.0540 H   0  0  0  0  0  0  0  0  0  0  0  0  # atno 10167 bound_to 10162
  157.5545  130.8790  149.9014 H   0  0  0  0  0  0  0  0  0  0  0  0  # atno 10718 bound_to 10713
  153.2720  135.4197  155.0997 H   0  0  0  0  0  0  0  0  0  0  0  0  # atno 10763 bound_to 10752
  154.8459  135.3474  154.6230 H   0  0  0  0  0  0  0  0  0  0  0  0  # atno 10764 bound_to 10752
  153.6650  135.7046  153.5222 H   0  0  0  0  0  0  0  0  0  0  0  0  # atno 10765 bound_to 10752
  141.0650  133.6697  156.3319 H   0  0  0  0  0  0  0  0  0  0  0  0  # atno 11005 bound_to 11000
  145.9998  140.8530  143.0024 LP  0  0  0  0  0  0  0  0  0  0  0  0  # atno 17320 bound_to 7965
  144.6785  140.2336  143.7352 LP  0  0  0  0  0  0  0  0  0  0  0  0  # atno 17321 bound_to 7965
  139.8168  143.7875  152.3175 LP  0  0  0  0  0  0  0  0  0  0  0  0  # atno 17342 bound_to 10162
  139.7944  144.7398  150.9911 LP  0  0  0  0  0  0  0  0  0  0  0  0  # atno 17343 bound_to 10162
  156.0606  130.3700  150.0991 LP  0  0  0  0  0  0  0  0  0  0  0  0  # atno 17370 bound_to 10713
  156.9161  130.9667  151.3556 LP  0  0  0  0  0  0  0  0  0  0  0  0  # atno 17371 bound_to 10713
  140.5792  134.5763  157.5475 LP  0  0  0  0  0  0  0  0  0  0  0  0  # atno 17394 bound_to 11000
  139.9468  134.7688  156.0544 LP  0  0  0  0  0  0  0  0  0  0  0  0  # atno 17395 bound_to 11000

$$$$
