AV-unprocessed.smi:2542|AV-procd|sdf|9992|dock1
  -GOLD-   2272014 43D 1   1.00000     0.00000
 Structure written by MMmdl.
 42 43  0  0  0  0  0  0  0  0  2 V2000
  149.7789  139.1852  157.1235 C   0  0  0  0  0  0  0  0  0  0  0  0
  150.1151  139.5952  155.6743 C   0  0  0  0  0  0  0  0  0  0  0  0
  150.9807  140.8762  155.7588 C   0  0  0  0  0  0  0  0  0  0  0  0
  150.9568  138.4668  155.0181 C   0  0  0  0  0  0  0  0  0  0  0  0
  150.5051  137.1329  155.4092 N   0  0  0  0  0  0  0  0  0  0  0  0
  151.2670  136.1616  155.9383 C   0  0  0  0  0  0  0  0  0  0  0  0
  152.4541  136.3308  156.2194 O   0  0  0  0  0  0  0  0  0  0  0  0
  150.5977  134.7895  156.1722 C   0  0  0  0  0  0  0  0  0  0  0  0
  149.4856  134.8676  157.1427 C   0  0  0  0  0  0  0  0  0  0  0  0
  148.6164  134.9284  157.9054 N   0  0  0  0  0  0  0  0  0  0  0  0
  150.0840  134.1710  154.8585 C   0  0  0  0  0  0  0  0  0  0  0  0
  150.0202  132.6610  155.1139 C   0  0  0  0  0  0  0  0  0  0  0  0
  151.0282  132.3785  156.2358 C   0  0  0  0  0  0  0  0  0  0  0  0
  151.6229  133.7369  156.6276 C   0  0  0  0  0  0  0  0  0  0  0  0
  148.8086  139.8142  154.8838 C   0  0  0  0  0  0  0  0  0  0  0  0
  147.8697  138.7752  154.6528 C   0  0  0  0  0  0  0  0  0  0  0  0
  146.6813  139.0483  153.9455 C   0  0  0  0  0  0  0  0  0  0  0  0
  146.4390  140.2947  153.4895 N   0  3  0  0  0  0  0  0  0  0  0  0
  147.2976  141.3178  153.6787 C   0  0  0  0  0  0  0  0  0  0  0  0
  148.5013  141.1027  154.3792 C   0  0  0  0  0  0  0  0  0  0  0  0
  150.6843  139.0439  157.7152 H   0  0  0  0  0  0  0  0  0  0  0  0
  149.2210  138.2498  157.1681 H   0  0  0  0  0  0  0  0  0  0  0  0
  149.1792  139.9481  157.6215 H   0  0  0  0  0  0  0  0  0  0  0  0
  151.9008  140.6935  156.3153 H   0  0  0  0  0  0  0  0  0  0  0  0
  150.4552  141.6838  156.2698 H   0  0  0  0  0  0  0  0  0  0  0  0
  151.2757  141.2414  154.7750 H   0  0  0  0  0  0  0  0  0  0  0  0
  150.9725  138.5788  153.9326 H   0  0  0  0  0  0  0  0  0  0  0  0
  151.9983  138.5467  155.3306 H   0  0  0  0  0  0  0  0  0  0  0  0
  149.5369  136.9150  155.2218 H   0  0  0  0  0  0  0  0  0  0  0  0
  149.1132  134.5711  154.5631 H   0  0  0  0  0  0  0  0  0  0  0  0
  150.7722  134.3573  154.0325 H   0  0  0  0  0  0  0  0  0  0  0  0
  149.0186  132.3774  155.4391 H   0  0  0  0  0  0  0  0  0  0  0  0
  150.2434  132.0930  154.2101 H   0  0  0  0  0  0  0  0  0  0  0  0
  150.5160  131.9296  157.0878 H   0  0  0  0  0  0  0  0  0  0  0  0
  151.8057  131.6825  155.9194 H   0  0  0  0  0  0  0  0  0  0  0  0
  152.5758  133.8705  156.1123 H   0  0  0  0  0  0  0  0  0  0  0  0
  151.8260  133.7930  157.6980 H   0  0  0  0  0  0  0  0  0  0  0  0
  148.0303  137.7690  155.0080 H   0  0  0  0  0  0  0  0  0  0  0  0
  145.9206  138.3108  153.7347 H   0  0  0  0  0  0  0  0  0  0  0  0
  146.9967  142.2714  153.2701 H   0  0  0  0  0  0  0  0  0  0  0  0
  149.1773  141.9310  154.5306 H   0  0  0  0  0  0  0  0  0  0  0  0
  145.5712  140.4705  152.9823 H   0  0  0  0  0  0  0  0  0  0  0  0
  1  2  1  0  0  0  0
  1 21  1  0  0  0  0
  1 22  1  0  0  0  0
  1 23  1  0  0  0  0
  2  3  1  0  0  0  0
  2  4  1  0  0  0  0
  2 15  1  0  0  0  0
  3 24  1  0  0  0  0
  3 25  1  0  0  0  0
  3 26  1  0  0  0  0
  4  5  1  0  0  0  0
  4 27  1  0  0  0  0
  4 28  1  0  0  0  0
  5  6  1  0  0  0  0
  5 29  1  0  0  0  0
  6  7  2  0  0  0  0
  6  8  1  0  0  0  0
  8 14  1  0  0  0  0
  8  9  1  0  0  0  0
  8 11  1  0  0  0  0
  9 10  3  0  0  0  0
 11 12  1  0  0  0  0
 11 30  1  0  0  0  0
 11 31  1  0  0  0  0
 12 13  1  0  0  0  0
 12 32  1  0  0  0  0
 12 33  1  0  0  0  0
 13 14  1  0  0  0  0
 13 34  1  0  0  0  0
 13 35  1  0  0  0  0
 14 36  1  0  0  0  0
 14 37  1  0  0  0  0
 15 20  1  0  0  0  0
 15 16  2  0  0  0  0
 16 17  1  0  0  0  0
 16 38  1  0  0  0  0
 17 18  2  0  0  0  0
 17 39  1  0  0  0  0
 18 19  1  0  0  0  0
 18 42  1  0  0  0  0
 19 20  2  0  0  0  0
 19 40  1  0  0  0  0
 20 41  1  0  0  0  0
M  CHG  1  18   1
M  END
> <s_m_source_file>
AV-unprocessed.smi

> <i_m_source_file_index>
2542

> <i_lp_mmshare_version>
43012

> <i_f3d_flags>
0

> <s_epik_input>
W2NIXTFbY0hdbltjSF1bY0hdYzFDKFtDSDNdKShbQ0gzXSlbQ0gyXVtOSF1DKD1PKUMyKEMjTilbQ0gyXVtDSDJdW0NIMl1bQ0gyXTI=

> <s_epik_cmdline>
J2VwaWtfcHl0aG9uJywgJy1waCcsICc3LjAnLCAnLXRuJywgJzgnLCAnLW1hJywgJzIwMCcsICctbWV0YWxfYmluZGluZycsICctaW1hZScsICc8aW5maWxlLm1hZT4nLCAnLW9tYWUnLCAnPG91dGZpbGUubWFlPic=

> <r_epik_Ionization_Penalty>
1.51272

> <r_epik_Ionization_Penalty_Charging>
1.51272

> <r_epik_Ionization_Penalty_Neutral>
6.26824e-07

> <r_epik_State_Penalty>
1.60388

> <r_epik_Charging_Adjusted_Penalty>
3.1166

> <i_epik_Tot_Q>
1

> <i_epik_Tot_abs_Q>
1

> <r_epik_Metal_State_Penalty>
1.64935

> <b_epik_Metal_Only>
0

> <s_lp_Force_Field>
OPLS_2005

> <r_lp_Energy>
37.2322

> <b_lp_Chiralities_Consistent>
1

> <s_lp_Variant>
AV-unprocessed.smi:2542-2

> <Gold.Version>
5.8.1

> <Gold.Id.Protein>
6NUR|6NUR_protein|mol2

> <Gold.PLP.Fitness>
37.4639

> <Gold.PLP.PLP>
-29.2811

> <Gold.PLP.part.hbond>
-2.0000

> <Gold.PLP.part.metal>
0.0000

> <Gold.PLP.part.buried>
-4.6793

> <Gold.PLP.part.nonpolar>
-23.2201

> <Gold.PLP.part.repulsive>
0.0695

> <Gold.PLP.ligand.clash>
0.0000

> <Gold.PLP.ligand.torsion>
0.4459

> <Gold.PLP.Chemscore.Hbond>
3.0000

> <Gold.PLP.Chemscore.CHOScore>
0.0000

> <Gold.PLP.Chemscore.Metal>
0.0000

> <Gold.Chemscore.Hbonds>
donor molecule, donor type, donor heavy atom, donor atom, acceptor molecule, acceptor atom, score
      L1  H    18    42       P1 10175  2.00
      P1  H 10752 10763       L1     7  1.00

> <Gold.PLP.Chemscore.Internal.Correction>
0.0745

> <Gold.Rescore>
     Score         DG    S(hbond)    S(metal)    S(lipo)     H(rot)  DE(clash)    DE(int)     intcor
     15.48     -16.14       1.85        0.00      72.49       1.56       0.26       0.41       ----

> <Gold.Chemscore.Fitness>
15.4750

> <Gold.Chemscore.DG>
-16.1415

> <Gold.Chemscore.ZeroCoef>
-5.4800

> <Gold.Chemscore.Hbond>
1.8522

> <Gold.Chemscore.Metal>
0.0000

> <Gold.Chemscore.Lipo>
72.4905

> <Gold.Chemscore.Internal_Hbond>
0.0000

> <Gold.Chemscore.DEClash>
0.2566

> <Gold.Chemscore.DEInternal>
0.4099

> <Gold.Chemscore.Rot>
1.5649

> <Gold.Chemscore.Internal.Correction>
   9.000000E+99

> <Gold.Chemscore.Hbonds>
donor molecule, donor type, donor heavy atom, donor atom, acceptor molecule, acceptor atom, score
      L1  H    18    42       P1 10175  0.84
      P1  H 10752 10763       L1     7  0.49

> <Gold.Chemscore.Hbond.Weighted>
-6.1863

> <Gold.Chemscore.Metal.Weighted>
-0.0000

> <Gold.Chemscore.Lipo.Weighted>
-8.4814

> <Gold.Chemscore.Internal_Hbond.Weighted>
0.0000

> <Gold.Chemscore.DEClash.Weighted>
0.2566

> <Gold.Chemscore.DEInternal.Weighted>
0.4099

> <Gold.Chemscore.Rot.Weighted>
4.0061

> <Gold.Chemscore.Internal.Correction.Weighted>
   9.000000E+99

> <Gold.Protein.RotatedTorsions>
[ 6907 6896 6895 6894 ] final  145.76 input  -60.11 | X-H torsion
[ 7974 7965 7964 7962 ] final  -61.18 input  175.53 | X-H torsion
[ 8008 7997 7996 7995 ] final -179.20 input   59.86 | X-H torsion
[ 10167 10162 10161 10158 ] final   72.84 input  -65.29 | X-H torsion
[ 10718 10713 10712 10709 ] final  126.12 input   66.30 | X-H torsion
[ 10763 10752 10751 10750 ] final   99.41 input  -60.55 | X-H torsion
[ 11005 11000 10999 10996 ] final -156.38 input  -57.11 | X-H torsion

> <Gold.Protein.ActiveResidues>
 VAL166  LYS551  ARG553  GLY616  TRP617  ASP618  TYR619  PRO620  LYS621  CYS622 
 ASP623  PHE694  ASN695  SER759  ASP760  ASP761  ALA762  ILE779  LEU786  VAL792 
 PHE793  MET794  SER795  GLU796  ALA797  LYS798  CYS799  TRP800  GLU811  SER814 

> <Gold.Protein.RotatedAtoms>
  152.1768  133.4680  159.4936 H   0  0  0  0  0  0  0  0  0  0  0  0  # atno 6907 bound_to 6896
  150.6928  134.1884  159.4285 H   0  0  0  0  0  0  0  0  0  0  0  0  # atno 6908 bound_to 6896
  151.9794  135.0036  160.0607 H   0  0  0  0  0  0  0  0  0  0  0  0  # atno 6909 bound_to 6896
  145.8066  140.8623  143.0203 H   0  0  0  0  0  0  0  0  0  0  0  0  # atno 7974 bound_to 7965
  156.0278  140.1275  157.0291 H   0  0  0  0  0  0  0  0  0  0  0  0  # atno 8008 bound_to 7997
  154.4337  140.1056  156.6125 H   0  0  0  0  0  0  0  0  0  0  0  0  # atno 8009 bound_to 7997
  155.5852  140.3468  155.4553 H   0  0  0  0  0  0  0  0  0  0  0  0  # atno 8010 bound_to 7997
  140.0309  144.5466  150.7507 H   0  0  0  0  0  0  0  0  0  0  0  0  # atno 10167 bound_to 10162
  157.5446  131.1096  150.8803 H   0  0  0  0  0  0  0  0  0  0  0  0  # atno 10718 bound_to 10713
  153.3011  135.4114  155.1253 H   0  0  0  0  0  0  0  0  0  0  0  0  # atno 10763 bound_to 10752
  154.8549  135.3541  154.5850 H   0  0  0  0  0  0  0  0  0  0  0  0  # atno 10764 bound_to 10752
  153.6276  135.7062  153.5346 H   0  0  0  0  0  0  0  0  0  0  0  0  # atno 10765 bound_to 10752
  140.6762  134.4194  157.5229 H   0  0  0  0  0  0  0  0  0  0  0  0  # atno 11005 bound_to 11000
  144.6762  140.0335  143.7482 LP  0  0  0  0  0  0  0  0  0  0  0  0  # atno 17320 bound_to 7965
  145.9821  139.2949  143.1035 LP  0  0  0  0  0  0  0  0  0  0  0  0  # atno 17321 bound_to 7965
  140.7302  143.2681  151.3978 LP  0  0  0  0  0  0  0  0  0  0  0  0  # atno 17342 bound_to 10162
  139.6076  144.1164  152.2266 LP  0  0  0  0  0  0  0  0  0  0  0  0  # atno 17343 bound_to 10162
  156.9345  130.5362  149.5279 LP  0  0  0  0  0  0  0  0  0  0  0  0  # atno 17370 bound_to 10713
  156.0525  130.5592  150.9020 LP  0  0  0  0  0  0  0  0  0  0  0  0  # atno 17371 bound_to 10713
  139.8966  134.8656  156.2081 LP  0  0  0  0  0  0  0  0  0  0  0  0  # atno 17394 bound_to 11000
  141.0353  133.6966  156.1502 LP  0  0  0  0  0  0  0  0  0  0  0  0  # atno 17395 bound_to 11000

$$$$
