AV-unprocessed.smi:1880|AV-procd|sdf|7635|dock5
  -GOLD-   22720 9363D 1   1.00000     0.00000
 Structure written by MMmdl.
 36 38  0  0  0  0  0  0  0  0  1 V2000
  150.0370  140.3066  154.2086 O   0  0  0  0  0  0  0  0  0  0  0  0
  149.5044  141.0199  155.3076 C   0  0  2  0  0  0  0  0  0  0  0  0
  148.2691  141.7965  154.8271 C   0  0  0  0  0  0  0  0  0  0  0  0
  147.5688  140.9983  153.8880 O   0  0  0  0  0  0  0  0  0  0  0  0
  146.8276  139.9550  154.4957 C   0  0  0  0  0  0  0  0  0  0  0  0
  146.4675  139.0043  153.4058 C   0  0  0  0  0  0  0  0  0  0  0  0
  145.8991  137.7605  153.3921 C   0  0  0  0  0  0  0  0  0  0  0  0
  145.8075  137.3771  152.0255 C   0  0  0  0  0  0  0  0  0  0  0  0
  146.3289  138.4155  151.3074 C   0  0  0  0  0  0  0  0  0  0  0  0
  146.7366  139.4163  152.1346 O   0  0  0  0  0  0  0  0  0  0  0  0
  150.5917  141.9531  155.8745 C   0  0  0  0  0  0  0  0  0  0  0  0
  151.4298  141.2904  156.8583 N   0  0  0  0  0  0  0  0  0  0  0  0
  152.0010  140.0760  156.7458 C   0  0  0  0  0  0  0  0  0  0  0  0
  152.7418  139.6537  157.7664 N   0  0  0  0  0  0  0  0  0  0  0  0
  152.6413  140.7194  158.6440 C   0  0  0  0  0  0  0  0  0  0  0  0
  153.2053  140.9071  159.9260 C   0  0  0  0  0  0  0  0  0  0  0  0
  152.9630  142.0950  160.6467 C   0  0  0  0  0  0  0  0  0  0  0  0
  153.5124  142.2590  161.8735 F   0  0  0  0  0  0  0  0  0  0  0  0
  152.1534  143.1115  160.0976 C   0  0  0  0  0  0  0  0  0  0  0  0
  151.9263  144.2489  160.7964 F   0  0  0  0  0  0  0  0  0  0  0  0
  151.5804  142.9470  158.8218 C   0  0  0  0  0  0  0  0  0  0  0  0
  151.8252  141.7602  158.1063 C   0  0  0  0  0  0  0  0  0  0  0  0
  149.6052  139.4669  154.1612 H   0  0  0  0  0  0  0  0  0  0  0  0
  149.2092  140.3096  156.0814 H   0  0  0  0  0  0  0  0  0  0  0  0
  147.6050  141.9934  155.6705 H   0  0  0  0  0  0  0  0  0  0  0  0
  148.5494  142.7624  154.4026 H   0  0  0  0  0  0  0  0  0  0  0  0
  147.4212  139.4511  155.2600 H   0  0  0  0  0  0  0  0  0  0  0  0
  145.9271  140.3482  154.9697 H   0  0  0  0  0  0  0  0  0  0  0  0
  145.5848  137.1985  154.2591 H   0  0  0  0  0  0  0  0  0  0  0  0
  145.4100  136.4586  151.6196 H   0  0  0  0  0  0  0  0  0  0  0  0
  146.4776  138.5992  150.2535 H   0  0  0  0  0  0  0  0  0  0  0  0
  151.2251  142.3377  155.0742 H   0  0  0  0  0  0  0  0  0  0  0  0
  150.1321  142.8200  156.3508 H   0  0  0  0  0  0  0  0  0  0  0  0
  151.8675  139.4686  155.8624 H   0  0  0  0  0  0  0  0  0  0  0  0
  153.8273  140.1363  160.3562 H   0  0  0  0  0  0  0  0  0  0  0  0
  150.9640  143.7251  158.3967 H   0  0  0  0  0  0  0  0  0  0  0  0
  1  2  1  0  0  0  0
  1 23  1  0  0  0  0
  2  3  1  0  0  0  0
  2 11  1  0  0  0  0
  2 24  1  0  0  0  0
  3  4  1  0  0  0  0
  3 25  1  0  0  0  0
  3 26  1  0  0  0  0
  4  5  1  0  0  0  0
  5  6  1  0  0  0  0
  5 27  1  0  0  0  0
  5 28  1  0  0  0  0
  6 10  1  0  0  0  0
  6  7  2  0  0  0  0
  7  8  1  0  0  0  0
  7 29  1  0  0  0  0
  8  9  2  0  0  0  0
  8 30  1  0  0  0  0
  9 10  1  0  0  0  0
  9 31  1  0  0  0  0
 11 12  1  0  0  0  0
 11 32  1  0  0  0  0
 11 33  1  0  0  0  0
 12 22  1  0  0  0  0
 12 13  1  0  0  0  0
 13 14  2  0  0  0  0
 13 34  1  0  0  0  0
 14 15  1  0  0  0  0
 15 22  2  0  0  0  0
 15 16  1  0  0  0  0
 16 17  2  0  0  0  0
 16 35  1  0  0  0  0
 17 18  1  0  0  0  0
 17 19  1  0  0  0  0
 19 20  1  0  0  0  0
 19 21  2  0  0  0  0
 21 22  1  0  0  0  0
 21 36  1  0  0  0  0
M  END
> <s_m_source_file>
AV-unprocessed.smi

> <i_m_source_file_index>
1880

> <i_lp_mmshare_version>
43012

> <i_f3d_flags>
0

> <s_epik_input>
W2NIXTFjKEYpYyhGKVtjSF1jKGMxMiluKFtjSF1uMilbQ0gyXVtDQEhdKFtPSF0pW0NIMl1PW0NIMl1jM1tjSF1bY0hdW2NIXW8z

> <s_epik_cmdline>
J2VwaWtfcHl0aG9uJywgJy1waCcsICc3LjAnLCAnLXRuJywgJzgnLCAnLW1hJywgJzIwMCcsICctbWV0YWxfYmluZGluZycsICctaW1hZScsICc8aW5maWxlLm1hZT4nLCAnLW9tYWUnLCAnPG91dGZpbGUubWFlPic=

> <r_epik_Ionization_Penalty>
0.0152348

> <r_epik_Ionization_Penalty_Charging>
0

> <r_epik_Ionization_Penalty_Neutral>
0.0152348

> <r_epik_State_Penalty>
0.0119607

> <r_epik_Charging_Adjusted_Penalty>
0.0119607

> <i_epik_Tot_Q>
0

> <i_epik_Tot_abs_Q>
0

> <r_epik_Metal_State_Penalty>
1.20821e-05

> <b_epik_Metal_Only>
0

> <s_lp_Force_Field>
OPLS_2005

> <r_lp_Energy>
7.92035

> <b_lp_Chiralities_Consistent>
1

> <s_lp_Variant>
AV-unprocessed.smi:1880-1

> <Gold.Version>
5.8.1

> <Gold.Id.Protein>
6NUR|6NUR_protein|mol2

> <Gold.PLP.Fitness>
49.3737

> <Gold.PLP.PLP>
-44.9259

> <Gold.PLP.part.hbond>
-2.6913

> <Gold.PLP.part.metal>
0.0000

> <Gold.PLP.part.buried>
-2.7844

> <Gold.PLP.part.nonpolar>
-40.2183

> <Gold.PLP.part.repulsive>
1.2163

> <Gold.PLP.ligand.clash>
0.0000

> <Gold.PLP.ligand.torsion>
0.8934

> <Gold.PLP.Chemscore.Hbond>
1.9120

> <Gold.PLP.Chemscore.CHOScore>
0.1445

> <Gold.PLP.Chemscore.Metal>
0.0000

> <Gold.Chemscore.Hbonds>
donor molecule, donor type, donor heavy atom, donor atom, acceptor molecule, acceptor atom, score
      P1  H  7989  7998       L1     1  0.88
      P1  H  7997  8009       L1    14  0.83
      L1  C     9    31       P1 10171  0.20

> <Gold.PLP.Chemscore.Internal.Correction>
0.0650

> <Gold.Rescore>
     Score         DG    S(hbond)    S(metal)    S(lipo)     H(rot)  DE(clash)    DE(int)     intcor
     12.50     -13.85       1.02        0.00     104.89       2.85       0.52       0.82       ----

> <Gold.Chemscore.Fitness>
12.5030

> <Gold.Chemscore.DG>
-13.8463

> <Gold.Chemscore.ZeroCoef>
-5.4800

> <Gold.Chemscore.Hbond>
1.0164

> <Gold.Chemscore.Metal>
0.0000

> <Gold.Chemscore.Lipo>
104.8902

> <Gold.Chemscore.Internal_Hbond>
0.0000

> <Gold.Chemscore.DEClash>
0.5213

> <Gold.Chemscore.DEInternal>
0.8220

> <Gold.Chemscore.Rot>
2.8518

> <Gold.Chemscore.Internal.Correction>
   9.000000E+99

> <Gold.Chemscore.Hbonds>
donor molecule, donor type, donor heavy atom, donor atom, acceptor molecule, acceptor atom, score
      P1  H  7989  7998       L1     1  0.83
      P1  H  7997  8009       L1    14  0.05

> <Gold.Chemscore.Hbond.Weighted>
-3.3947

> <Gold.Chemscore.Metal.Weighted>
-0.0000

> <Gold.Chemscore.Lipo.Weighted>
-12.2722

> <Gold.Chemscore.Internal_Hbond.Weighted>
0.0000

> <Gold.Chemscore.DEClash.Weighted>
0.5213

> <Gold.Chemscore.DEInternal.Weighted>
0.8220

> <Gold.Chemscore.Rot.Weighted>
7.3005

> <Gold.Chemscore.Internal.Correction.Weighted>
   9.000000E+99

> <Gold.Protein.RotatedTorsions>
[ 6907 6896 6895 6894 ] final   96.30 input  -60.11 | X-H torsion
[ 7974 7965 7964 7962 ] final   37.74 input  175.53 | X-H torsion
[ 8008 7997 7996 7995 ] final  148.50 input   59.86 | X-H torsion
[ 10167 10162 10161 10158 ] final -175.28 input  -65.29 | X-H torsion
[ 10718 10713 10712 10709 ] final  107.00 input   66.30 | X-H torsion
[ 10763 10752 10751 10750 ] final -102.01 input  -60.55 | X-H torsion
[ 11005 11000 10999 10996 ] final  -73.85 input  -57.11 | X-H torsion

> <Gold.Protein.ActiveResidues>
 VAL166  LYS551  ARG553  GLY616  TRP617  ASP618  TYR619  PRO620  LYS621  CYS622 
 ASP623  PHE694  ASN695  SER759  ASP760  ASP761  ALA762  ILE779  LEU786  VAL792 
 PHE793  MET794  SER795  GLU796  ALA797  LYS798  CYS799  TRP800  GLU811  SER814 

> <Gold.Protein.RotatedAtoms>
  152.5436  134.0907  159.8275 H   0  0  0  0  0  0  0  0  0  0  0  0  # atno 6907 bound_to 6896
  151.0997  133.5246  159.2618 H   0  0  0  0  0  0  0  0  0  0  0  0  # atno 6908 bound_to 6896
  151.2006  135.0450  159.8924 H   0  0  0  0  0  0  0  0  0  0  0  0  # atno 6909 bound_to 6896
  146.1115  139.5857  142.9349 H   0  0  0  0  0  0  0  0  0  0  0  0  # atno 7974 bound_to 7965
  156.2789  140.2127  156.5709 H   0  0  0  0  0  0  0  0  0  0  0  0  # atno 8008 bound_to 7997
  154.7136  140.0510  157.0597 H   0  0  0  0  0  0  0  0  0  0  0  0  # atno 8009 bound_to 7997
  155.0572  140.3162  155.4675 H   0  0  0  0  0  0  0  0  0  0  0  0  # atno 8010 bound_to 7997
  139.5589  144.1919  152.1206 H   0  0  0  0  0  0  0  0  0  0  0  0  # atno 10167 bound_to 10162
  157.6646  131.0863  150.6091 H   0  0  0  0  0  0  0  0  0  0  0  0  # atno 10718 bound_to 10713
  154.7701  135.4876  153.9632 H   0  0  0  0  0  0  0  0  0  0  0  0  # atno 10763 bound_to 10752
  153.1357  135.6762  153.9114 H   0  0  0  0  0  0  0  0  0  0  0  0  # atno 10764 bound_to 10752
  153.8804  135.3133  155.3423 H   0  0  0  0  0  0  0  0  0  0  0  0  # atno 10765 bound_to 10752
  141.1628  133.6892  156.7275 H   0  0  0  0  0  0  0  0  0  0  0  0  # atno 11005 bound_to 11000
  145.5654  141.0400  143.2203 LP  0  0  0  0  0  0  0  0  0  0  0  0  # atno 17320 bound_to 7965
  144.7515  139.7181  143.7271 LP  0  0  0  0  0  0  0  0  0  0  0  0  # atno 17321 bound_to 7965
  140.1429  144.5185  150.6733 LP  0  0  0  0  0  0  0  0  0  0  0  0  # atno 17342 bound_to 10162
  140.6866  143.2353  151.5244 LP  0  0  0  0  0  0  0  0  0  0  0  0  # atno 17343 bound_to 10162
  156.6393  130.4454  149.5758 LP  0  0  0  0  0  0  0  0  0  0  0  0  # atno 17370 bound_to 10713
  156.2222  130.6744  151.1379 LP  0  0  0  0  0  0  0  0  0  0  0  0  # atno 17371 bound_to 10713
  140.2770  134.8347  157.3899 LP  0  0  0  0  0  0  0  0  0  0  0  0  # atno 17394 bound_to 11000
  140.1468  134.4900  155.7990 LP  0  0  0  0  0  0  0  0  0  0  0  0  # atno 17395 bound_to 11000

$$$$
