AV-unprocessed.smi:1865|AV-procd|sdf|7554|dock6
  -GOLD-   22720 9273D 1   1.00000     0.00000
 Structure written by MMmdl.
 40 41  0  0  0  0  0  0  0  0  1 V2000
  149.2653  134.6675  155.4208 O   0  0  0  0  0  0  0  0  0  0  0  0
  148.3372  133.8940  155.6586 C   0  0  0  0  0  0  0  0  0  0  0  0
  147.8563  132.9044  154.5927 C   0  0  0  0  0  0  0  0  0  0  0  0
  147.4750  133.5878  153.2655 C   0  0  0  0  0  0  0  0  0  0  0  0
  146.9829  132.5958  152.1966 C   0  0  0  0  0  0  0  0  0  0  0  0
  146.8145  133.2246  150.8122 C   0  0  0  0  0  0  0  0  0  0  0  0
  145.9189  132.2448  150.0505 C   0  0  0  0  0  0  0  0  0  0  0  0
  145.0613  131.5420  151.1132 C   0  0  0  0  0  0  0  0  0  0  0  0
  145.5997  131.9967  152.4764 C   0  0  0  0  0  0  0  0  0  0  0  0
  147.6880  133.8645  156.8325 N   0  0  0  0  0  0  0  0  0  0  0  0
  147.9729  134.7308  157.9704 C   0  0  0  0  0  0  0  0  0  0  0  0
  148.0078  133.9437  159.2906 C   0  0  0  0  0  0  0  0  0  0  0  0
  147.7865  134.8402  160.4929 C   0  0  0  0  0  0  0  0  0  0  0  0
  147.5058  134.2948  161.7624 C   0  0  0  0  0  0  0  0  0  0  0  0
  147.3024  135.1702  162.8466 C   0  0  0  0  0  0  0  0  0  0  0  0
  147.3880  136.5574  162.6137 C   0  0  0  0  0  0  0  0  0  0  0  0
  147.6551  137.0908  161.4020 N   0  0  0  0  0  0  0  0  0  0  0  0
  147.8493  136.2444  160.3678 C   0  0  0  0  0  0  0  0  0  0  0  0
  148.6362  132.1634  154.4097 H   0  0  0  0  0  0  0  0  0  0  0  0
  146.9997  132.3641  154.9966 H   0  0  0  0  0  0  0  0  0  0  0  0
  146.7071  134.3431  153.4398 H   0  0  0  0  0  0  0  0  0  0  0  0
  148.3437  134.1216  152.8765 H   0  0  0  0  0  0  0  0  0  0  0  0
  147.7020  131.7794  152.1085 H   0  0  0  0  0  0  0  0  0  0  0  0
  146.3096  134.1879  150.8988 H   0  0  0  0  0  0  0  0  0  0  0  0
  147.7673  133.3942  150.3097 H   0  0  0  0  0  0  0  0  0  0  0  0
  145.3134  132.7486  149.2965 H   0  0  0  0  0  0  0  0  0  0  0  0
  146.5362  131.5076  149.5353 H   0  0  0  0  0  0  0  0  0  0  0  0
  144.0063  131.7983  151.0097 H   0  0  0  0  0  0  0  0  0  0  0  0
  145.1451  130.4599  151.0065 H   0  0  0  0  0  0  0  0  0  0  0  0
  145.6387  131.1792  153.1969 H   0  0  0  0  0  0  0  0  0  0  0  0
  144.9395  132.7624  152.8864 H   0  0  0  0  0  0  0  0  0  0  0  0
  146.9366  133.1988  156.9427 H   0  0  0  0  0  0  0  0  0  0  0  0
  148.9164  135.2565  157.8117 H   0  0  0  0  0  0  0  0  0  0  0  0
  147.1959  135.4946  158.0145 H   0  0  0  0  0  0  0  0  0  0  0  0
  147.2460  133.1630  159.2820 H   0  0  0  0  0  0  0  0  0  0  0  0
  148.9670  133.4364  159.4054 H   0  0  0  0  0  0  0  0  0  0  0  0
  147.4455  133.2258  161.9045 H   0  0  0  0  0  0  0  0  0  0  0  0
  147.0857  134.7881  163.8331 H   0  0  0  0  0  0  0  0  0  0  0  0
  147.2374  137.2573  163.4222 H   0  0  0  0  0  0  0  0  0  0  0  0
  148.0587  136.7016  159.4119 H   0  0  0  0  0  0  0  0  0  0  0  0
  1  2  2  0  0  0  0
  2  3  1  0  0  0  0
  2 10  1  0  0  0  0
  3  4  1  0  0  0  0
  3 19  1  0  0  0  0
  3 20  1  0  0  0  0
  4  5  1  0  0  0  0
  4 21  1  0  0  0  0
  4 22  1  0  0  0  0
  5  9  1  0  0  0  0
  5  6  1  0  0  0  0
  5 23  1  0  0  0  0
  6  7  1  0  0  0  0
  6 24  1  0  0  0  0
  6 25  1  0  0  0  0
  7  8  1  0  0  0  0
  7 26  1  0  0  0  0
  7 27  1  0  0  0  0
  8  9  1  0  0  0  0
  8 28  1  0  0  0  0
  8 29  1  0  0  0  0
  9 30  1  0  0  0  0
  9 31  1  0  0  0  0
 10 11  1  0  0  0  0
 10 32  1  0  0  0  0
 11 12  1  0  0  0  0
 11 33  1  0  0  0  0
 11 34  1  0  0  0  0
 12 13  1  0  0  0  0
 12 35  1  0  0  0  0
 12 36  1  0  0  0  0
 13 18  1  0  0  0  0
 13 14  2  0  0  0  0
 14 15  1  0  0  0  0
 14 37  1  0  0  0  0
 15 16  2  0  0  0  0
 15 38  1  0  0  0  0
 16 17  1  0  0  0  0
 16 39  1  0  0  0  0
 17 18  2  0  0  0  0
 18 40  1  0  0  0  0
M  END
> <s_m_source_file>
AV-unprocessed.smi

> <i_m_source_file_index>
1865

> <i_lp_mmshare_version>
43012

> <i_f3d_flags>
0

> <s_epik_input>
W0NIMl0xW0NIMl1bQ0gyXVtDSDJdW0NIXTFbQ0gyXVtDSDJdQyg9TylbTkhdW0NIMl1bQ0gyXWMyW2NIXVtjSF1bY0hdbltjSF0y

> <s_epik_cmdline>
J2VwaWtfcHl0aG9uJywgJy1waCcsICc3LjAnLCAnLXRuJywgJzgnLCAnLW1hJywgJzIwMCcsICctbWV0YWxfYmluZGluZycsICctaW1hZScsICc8aW5maWxlLm1hZT4nLCAnLW9tYWUnLCAnPG91dGZpbGUubWFlPic=

> <r_epik_Ionization_Penalty>
0.0133844

> <r_epik_Ionization_Penalty_Charging>
0

> <r_epik_Ionization_Penalty_Neutral>
0.0133844

> <r_epik_State_Penalty>
0.0104136

> <r_epik_Charging_Adjusted_Penalty>
0.0104136

> <i_epik_Tot_Q>
0

> <i_epik_Tot_abs_Q>
0

> <r_epik_Metal_State_Penalty>
0.0101831

> <b_epik_Metal_Only>
0

> <s_lp_Force_Field>
OPLS_2005

> <r_lp_Energy>
19.5978

> <b_lp_Chiralities_Consistent>
1

> <s_lp_Variant>
AV-unprocessed.smi:1865-1

> <Gold.Version>
5.8.1

> <Gold.Id.Protein>
6NUR|6NUR_protein|mol2

> <Gold.PLP.Fitness>
38.8761

> <Gold.PLP.PLP>
-34.3204

> <Gold.PLP.part.hbond>
-2.0000

> <Gold.PLP.part.metal>
0.0000

> <Gold.PLP.part.buried>
-4.1146

> <Gold.PLP.part.nonpolar>
-28.6068

> <Gold.PLP.part.repulsive>
0.0843

> <Gold.PLP.ligand.clash>
0.0000

> <Gold.PLP.ligand.torsion>
0.4272

> <Gold.PLP.Chemscore.Hbond>
1.7906

> <Gold.PLP.Chemscore.CHOScore>
0.0000

> <Gold.PLP.Chemscore.Metal>
0.0000

> <Gold.Chemscore.Hbonds>
donor molecule, donor type, donor heavy atom, donor atom, acceptor molecule, acceptor atom, score
      P1  H  6931  6943       L1    17  0.95
      P1  H  6934  6947       L1    17  0.81

> <Gold.PLP.Chemscore.Internal.Correction>
0.0383

> <Gold.Rescore>
     Score         DG    S(hbond)    S(metal)    S(lipo)     H(rot)  DE(clash)    DE(int)     intcor
     15.25     -15.69       1.02        0.00      92.26       1.56       0.00       0.44       ----

> <Gold.Chemscore.Fitness>
15.2502

> <Gold.Chemscore.DG>
-15.6942

> <Gold.Chemscore.ZeroCoef>
-5.4800

> <Gold.Chemscore.Hbond>
1.0230

> <Gold.Chemscore.Metal>
0.0000

> <Gold.Chemscore.Lipo>
92.2618

> <Gold.Chemscore.Internal_Hbond>
0.0000

> <Gold.Chemscore.DEClash>
0.0000

> <Gold.Chemscore.DEInternal>
0.4440

> <Gold.Chemscore.Rot>
1.5614

> <Gold.Chemscore.Internal.Correction>
   9.000000E+99

> <Gold.Chemscore.Hbonds>
donor molecule, donor type, donor heavy atom, donor atom, acceptor molecule, acceptor atom, score
      P1  H  6931  6943       L1    17  0.20
      P1  H  6934  6947       L1    17  0.72

> <Gold.Chemscore.Hbond.Weighted>
-3.4167

> <Gold.Chemscore.Metal.Weighted>
-0.0000

> <Gold.Chemscore.Lipo.Weighted>
-10.7946

> <Gold.Chemscore.Internal_Hbond.Weighted>
0.0000

> <Gold.Chemscore.DEClash.Weighted>
0.0000

> <Gold.Chemscore.DEInternal.Weighted>
0.4440

> <Gold.Chemscore.Rot.Weighted>
3.9971

> <Gold.Chemscore.Internal.Correction.Weighted>
   9.000000E+99

> <Gold.Protein.RotatedTorsions>
[ 6907 6896 6895 6894 ] final   37.99 input  -60.11 | X-H torsion
[ 7974 7965 7964 7962 ] final  -34.21 input  175.53 | X-H torsion
[ 8008 7997 7996 7995 ] final  -52.60 input   59.86 | X-H torsion
[ 10167 10162 10161 10158 ] final  161.11 input  -65.29 | X-H torsion
[ 10718 10713 10712 10709 ] final  174.58 input   66.30 | X-H torsion
[ 10763 10752 10751 10750 ] final  -36.72 input  -60.55 | X-H torsion
[ 11005 11000 10999 10996 ] final    0.47 input  -57.11 | X-H torsion

> <Gold.Protein.ActiveResidues>
 VAL166  LYS551  ARG553  GLY616  TRP617  ASP618  TYR619  PRO620  LYS621  CYS622 
 ASP623  PHE694  ASN695  SER759  ASP760  ASP761  ALA762  ILE779  LEU786  VAL792 
 PHE793  MET794  SER795  GLU796  ALA797  LYS798  CYS799  TRP800  GLU811  SER814 

> <Gold.Protein.RotatedAtoms>
  152.1506  134.8991  160.0548 H   0  0  0  0  0  0  0  0  0  0  0  0  # atno 6907 bound_to 6896
  152.0025  133.3826  159.4195 H   0  0  0  0  0  0  0  0  0  0  0  0  # atno 6908 bound_to 6896
  150.6875  134.3741  159.5048 H   0  0  0  0  0  0  0  0  0  0  0  0  # atno 6909 bound_to 6896
  146.0848  140.6011  142.8892 H   0  0  0  0  0  0  0  0  0  0  0  0  # atno 7974 bound_to 7965
  154.4111  140.1220  156.5018 H   0  0  0  0  0  0  0  0  0  0  0  0  # atno 8008 bound_to 7997
  155.6887  140.3495  155.4865 H   0  0  0  0  0  0  0  0  0  0  0  0  # atno 8009 bound_to 7997
  155.9488  140.1101  157.0984 H   0  0  0  0  0  0  0  0  0  0  0  0  # atno 8010 bound_to 7997
  139.4846  144.4569  151.8757 H   0  0  0  0  0  0  0  0  0  0  0  0  # atno 10167 bound_to 10162
  156.9475  131.0020  151.2955 H   0  0  0  0  0  0  0  0  0  0  0  0  # atno 10718 bound_to 10713
  153.8844  135.6818  153.4764 H   0  0  0  0  0  0  0  0  0  0  0  0  # atno 10763 bound_to 10752
  153.1215  135.4737  154.9201 H   0  0  0  0  0  0  0  0  0  0  0  0  # atno 10764 bound_to 10752
  154.7653  135.3222  154.8251 H   0  0  0  0  0  0  0  0  0  0  0  0  # atno 10765 bound_to 10752
  140.6262  133.9617  155.8250 H   0  0  0  0  0  0  0  0  0  0  0  0  # atno 11005 bound_to 11000
  144.7318  140.4693  143.6932 LP  0  0  0  0  0  0  0  0  0  0  0  0  # atno 17320 bound_to 7965
  145.6151  139.1517  143.3054 LP  0  0  0  0  0  0  0  0  0  0  0  0  # atno 17321 bound_to 7965
  140.4029  144.2470  150.5892 LP  0  0  0  0  0  0  0  0  0  0  0  0  # atno 17342 bound_to 10162
  140.5040  143.2309  151.8636 LP  0  0  0  0  0  0  0  0  0  0  0  0  # atno 17343 bound_to 10162
  157.5744  130.8333  149.8435 LP  0  0  0  0  0  0  0  0  0  0  0  0  # atno 17370 bound_to 10713
  156.0377  130.3747  150.1516 LP  0  0  0  0  0  0  0  0  0  0  0  0  # atno 17371 bound_to 10713
  141.0708  134.0209  157.3529 LP  0  0  0  0  0  0  0  0  0  0  0  0  # atno 17394 bound_to 11000
  139.9134  135.0193  156.7784 LP  0  0  0  0  0  0  0  0  0  0  0  0  # atno 17395 bound_to 11000

$$$$
