AV-unprocessed.smi:269|AV-procd|sdf|2043|dock1
  -GOLD-   2262021263D 1   1.00000     0.00000
 Structure written by MMmdl.
 61 64  0  0  0  0  0  0  0  0  1 V2000
  152.4613  144.7892  159.7712 C   0  0  0  0  0  0  0  0  0  0  0  0
  151.0235  144.7245  159.2390 C   0  0  0  0  0  0  0  0  0  0  0  0
  150.9592  144.0198  157.9645 N   0  0  0  0  0  0  0  0  0  0  0  0
  151.4014  142.7709  157.7505 C   0  0  0  0  0  0  0  0  0  0  0  0
  151.9383  142.0830  158.6186 O   0  0  0  0  0  0  0  0  0  0  0  0
  151.1905  142.1996  156.3439 C   0  0  0  0  0  0  0  0  0  0  0  0
  150.0504  141.2617  156.2331 N   0  0  0  0  0  0  0  0  0  0  0  0
  150.5296  139.8876  156.4223 C   0  0  0  0  0  0  0  0  0  0  0  0
  149.3437  138.9059  156.4077 C   0  0  0  0  0  0  0  0  0  0  0  0
  148.6130  139.0210  155.1525 N   0  0  0  0  0  0  0  0  0  0  0  0
  147.6550  138.0847  154.9910 C   0  0  0  0  0  0  0  0  0  0  0  0
  147.3821  137.2939  156.0572 N   0  0  0  0  0  0  0  0  0  0  0  0
  146.4429  136.3478  155.9630 C   0  0  0  0  0  0  0  0  0  0  0  0
  145.6778  136.0316  154.9157 N   0  0  0  0  0  0  0  0  0  0  0  0
  145.9528  136.8254  153.8407 C   0  0  0  0  0  0  0  0  0  0  0  0
  146.9153  137.8727  153.7932 C   0  0  0  0  0  0  0  0  0  0  0  0
  146.9048  138.4690  152.5384 N   0  0  0  0  0  0  0  0  0  0  0  0
  145.9895  137.8108  151.8812 C   0  0  0  0  0  0  0  0  0  0  0  0
  145.3780  136.7943  152.5814 N   0  0  0  0  0  0  0  0  0  0  0  0
  144.3310  135.9059  152.0958 C   0  0  0  0  0  0  0  0  0  0  0  0
  144.7608  134.4179  151.9272 C   0  0  0  0  0  0  0  0  0  0  0  0
  145.2876  133.8377  153.2714 C   0  0  0  0  0  0  0  0  0  0  0  0
  144.3132  133.8880  154.2945 O   0  0  0  0  0  0  0  0  0  0  0  0
  143.5553  133.5755  151.4382 C   0  0  0  0  0  0  0  0  0  0  0  0
  143.9597  132.1748  150.9425 C   0  0  0  0  0  0  0  0  0  0  0  0
  144.9379  132.2835  149.9170 O   0  0  0  0  0  0  0  0  0  0  0  0
  146.1368  132.9051  150.3611 C   0  0  0  0  0  0  0  0  0  0  0  0
  145.8419  134.3446  150.8193 C   0  0  0  0  0  0  0  0  0  0  0  0
  148.1622  140.3850  154.9071 C   0  0  0  0  0  0  0  0  0  0  0  0
  149.3562  141.3568  154.9390 C   0  0  0  0  0  0  0  0  0  0  0  0
  152.4935  145.2856  160.7412 H   0  0  0  0  0  0  0  0  0  0  0  0
  153.1107  145.3451  159.0942 H   0  0  0  0  0  0  0  0  0  0  0  0
  152.8818  143.7905  159.8940 H   0  0  0  0  0  0  0  0  0  0  0  0
  150.3906  144.1964  159.9526 H   0  0  0  0  0  0  0  0  0  0  0  0
  150.6087  145.7288  159.1396 H   0  0  0  0  0  0  0  0  0  0  0  0
  150.5290  144.5089  157.1928 H   0  0  0  0  0  0  0  0  0  0  0  0
  151.0674  143.0167  155.6301 H   0  0  0  0  0  0  0  0  0  0  0  0
  152.1102  141.6833  156.0646 H   0  0  0  0  0  0  0  0  0  0  0  0
  151.2490  139.6221  155.6451 H   0  0  0  0  0  0  0  0  0  0  0  0
  151.0483  139.8041  157.3783 H   0  0  0  0  0  0  0  0  0  0  0  0
  149.7070  137.8845  156.5286 H   0  0  0  0  0  0  0  0  0  0  0  0
  148.6793  139.1116  157.2482 H   0  0  0  0  0  0  0  0  0  0  0  0
  146.2821  135.7586  156.8539 H   0  0  0  0  0  0  0  0  0  0  0  0
  145.7388  138.0462  150.8571 H   0  0  0  0  0  0  0  0  0  0  0  0
  143.4887  135.9772  152.7853 H   0  0  0  0  0  0  0  0  0  0  0  0
  143.9649  136.3056  151.1493 H   0  0  0  0  0  0  0  0  0  0  0  0
  145.6058  132.8024  153.1500 H   0  0  0  0  0  0  0  0  0  0  0  0
  146.1643  134.3755  153.6280 H   0  0  0  0  0  0  0  0  0  0  0  0
  143.8824  133.0482  154.3405 H   0  0  0  0  0  0  0  0  0  0  0  0
  142.8072  133.4794  152.2260 H   0  0  0  0  0  0  0  0  0  0  0  0
  143.0628  134.0929  150.6139 H   0  0  0  0  0  0  0  0  0  0  0  0
  144.3326  131.5516  151.7557 H   0  0  0  0  0  0  0  0  0  0  0  0
  143.0878  131.6615  150.5363 H   0  0  0  0  0  0  0  0  0  0  0  0
  146.5982  132.3164  151.1542 H   0  0  0  0  0  0  0  0  0  0  0  0
  146.8457  132.9189  149.5331 H   0  0  0  0  0  0  0  0  0  0  0  0
  145.5049  134.9095  149.9488 H   0  0  0  0  0  0  0  0  0  0  0  0
  146.7640  134.8267  151.1445 H   0  0  0  0  0  0  0  0  0  0  0  0
  147.6675  140.4381  153.9364 H   0  0  0  0  0  0  0  0  0  0  0  0
  147.4275  140.6796  155.6574 H   0  0  0  0  0  0  0  0  0  0  0  0
  148.9760  142.3647  154.7725 H   0  0  0  0  0  0  0  0  0  0  0  0
  150.0463  141.1383  154.1220 H   0  0  0  0  0  0  0  0  0  0  0  0
  1  2  1  0  0  0  0
  1 31  1  0  0  0  0
  1 32  1  0  0  0  0
  1 33  1  0  0  0  0
  2  3  1  0  0  0  0
  2 34  1  0  0  0  0
  2 35  1  0  0  0  0
  3  4  1  0  0  0  0
  3 36  1  0  0  0  0
  4  5  2  0  0  0  0
  4  6  1  0  0  0  0
  6  7  1  0  0  0  0
  6 37  1  0  0  0  0
  6 38  1  0  0  0  0
  7 30  1  0  0  0  0
  7  8  1  0  0  0  0
  8  9  1  0  0  0  0
  8 39  1  0  0  0  0
  8 40  1  0  0  0  0
  9 10  1  0  0  0  0
  9 41  1  0  0  0  0
  9 42  1  0  0  0  0
 10 11  1  0  0  0  0
 10 29  1  0  0  0  0
 11 16  1  0  0  0  0
 11 12  2  0  0  0  0
 12 13  1  0  0  0  0
 13 14  2  0  0  0  0
 13 43  1  0  0  0  0
 14 15  1  0  0  0  0
 15 19  1  0  0  0  0
 15 16  2  0  0  0  0
 16 17  1  0  0  0  0
 17 18  2  0  0  0  0
 18 19  1  0  0  0  0
 18 44  1  0  0  0  0
 19 20  1  0  0  0  0
 20 21  1  0  0  0  0
 20 45  1  0  0  0  0
 20 46  1  0  0  0  0
 21 28  1  0  0  0  0
 21 22  1  0  0  0  0
 21 24  1  0  0  0  0
 22 23  1  0  0  0  0
 22 47  1  0  0  0  0
 22 48  1  0  0  0  0
 23 49  1  0  0  0  0
 24 25  1  0  0  0  0
 24 50  1  0  0  0  0
 24 51  1  0  0  0  0
 25 26  1  0  0  0  0
 25 52  1  0  0  0  0
 25 53  1  0  0  0  0
 26 27  1  0  0  0  0
 27 28  1  0  0  0  0
 27 54  1  0  0  0  0
 27 55  1  0  0  0  0
 28 56  1  0  0  0  0
 28 57  1  0  0  0  0
 29 30  1  0  0  0  0
 29 58  1  0  0  0  0
 29 59  1  0  0  0  0
 30 60  1  0  0  0  0
 30 61  1  0  0  0  0
M  END
> <s_m_source_file>
AV-unprocessed.smi

> <i_m_source_file_index>
269

> <i_lp_mmshare_version>
43012

> <i_f3d_flags>
0

> <s_epik_input>
W0NIM11bQ0gyXVtOSF1DKD1PKVtDSDJdTjFbQ0gyXVtDSDJdTihbQ0gyXVtDSDJdMSljKG5bY0hdbjIpYyhjMjMpbltjSF1uM1tDSDJdQzQoW0NIMl1bT0hdKVtDSDJdW0NIMl1PW0NIMl1bQ0gyXTQ=

> <s_epik_cmdline>
J2VwaWtfcHl0aG9uJywgJy1waCcsICc3LjAnLCAnLXRuJywgJzgnLCAnLW1hJywgJzIwMCcsICctbWV0YWxfYmluZGluZycsICctaW1hZScsICc8aW5maWxlLm1hZT4nLCAnLW9tYWUnLCAnPG91dGZpbGUubWFlPic=

> <r_lp_tautomer_probability>
1

> <r_epik_Ionization_Penalty>
0.90547

> <r_epik_Ionization_Penalty_Charging>
0

> <r_epik_Ionization_Penalty_Neutral>
0.90547

> <r_epik_State_Penalty>
0.940417

> <r_epik_Charging_Adjusted_Penalty>
0.940417

> <i_epik_Tot_Q>
0

> <i_epik_Tot_abs_Q>
0

> <r_epik_Metal_State_Penalty>
0.947257

> <b_epik_Metal_Only>
0

> <s_lp_Force_Field>
OPLS_2005

> <r_lp_Energy>
47.1209

> <b_lp_Chiralities_Consistent>
1

> <s_lp_Variant>
AV-unprocessed.smi:269-2

> <Gold.Version>
5.8.1

> <Gold.Id.Protein>
6NUR|6NUR_protein|mol2

> <Gold.PLP.Fitness>
48.0865

> <Gold.PLP.PLP>
-40.4709

> <Gold.PLP.part.hbond>
-2.0000

> <Gold.PLP.part.metal>
0.0000

> <Gold.PLP.part.buried>
-6.6932

> <Gold.PLP.part.nonpolar>
-33.1380

> <Gold.PLP.part.repulsive>
0.9043

> <Gold.PLP.ligand.clash>
0.0000

> <Gold.PLP.ligand.torsion>
0.8579

> <Gold.PLP.Chemscore.Hbond>
1.9920

> <Gold.PLP.Chemscore.CHOScore>
0.9967

> <Gold.PLP.Chemscore.Metal>
0.0000

> <Gold.Chemscore.Hbonds>
donor molecule, donor type, donor heavy atom, donor atom, acceptor molecule, acceptor atom, score
      L1  H     3    36       P1  8028  0.52
      L1  H    23    49       P1 10957  1.00
      L1  C    18    44       P1 10171  1.00

> <Gold.PLP.Chemscore.Internal.Correction>
0.3652

> <Gold.Rescore>
     Score         DG    S(hbond)    S(metal)    S(lipo)     H(rot)  DE(clash)    DE(int)     intcor
      8.15     -11.47       1.06        0.00      93.71       3.32       0.69       2.62       ----

> <Gold.Chemscore.Fitness>
8.1539

> <Gold.Chemscore.DG>
-11.4696

> <Gold.Chemscore.ZeroCoef>
-5.4800

> <Gold.Chemscore.Hbond>
1.0564

> <Gold.Chemscore.Metal>
0.0000

> <Gold.Chemscore.Lipo>
93.7074

> <Gold.Chemscore.Internal_Hbond>
0.0000

> <Gold.Chemscore.DEClash>
0.6944

> <Gold.Chemscore.DEInternal>
2.6212

> <Gold.Chemscore.Rot>
3.3213

> <Gold.Chemscore.Internal.Correction>
   9.000000E+99

> <Gold.Chemscore.Hbonds>
donor molecule, donor type, donor heavy atom, donor atom, acceptor molecule, acceptor atom, score
      L1  H     3    36       P1  8028  0.37
      L1  H    23    49       P1 10957  1.00

> <Gold.Chemscore.Hbond.Weighted>
-3.5283

> <Gold.Chemscore.Metal.Weighted>
-0.0000

> <Gold.Chemscore.Lipo.Weighted>
-10.9638

> <Gold.Chemscore.Internal_Hbond.Weighted>
0.0000

> <Gold.Chemscore.DEClash.Weighted>
0.6944

> <Gold.Chemscore.DEInternal.Weighted>
2.6212

> <Gold.Chemscore.Rot.Weighted>
8.5024

> <Gold.Chemscore.Internal.Correction.Weighted>
   9.000000E+99

> <Gold.Protein.RotatedTorsions>
[ 6907 6896 6895 6894 ] final  122.66 input  -60.11 | X-H torsion
[ 7974 7965 7964 7962 ] final  -98.50 input  175.53 | X-H torsion
[ 8008 7997 7996 7995 ] final   21.26 input   59.86 | X-H torsion
[ 10167 10162 10161 10158 ] final   11.45 input  -65.29 | X-H torsion
[ 10718 10713 10712 10709 ] final  145.37 input   66.30 | X-H torsion
[ 10763 10752 10751 10750 ] final -160.97 input  -60.55 | X-H torsion
[ 11005 11000 10999 10996 ] final  -43.10 input  -57.11 | X-H torsion

> <Gold.Protein.ActiveResidues>
 VAL166  LYS551  ARG553  GLY616  TRP617  ASP618  TYR619  PRO620  LYS621  CYS622 
 ASP623  PHE694  ASN695  SER759  ASP760  ASP761  ALA762  ILE779  LEU786  VAL792 
 PHE793  MET794  SER795  GLU796  ALA797  LYS798  CYS799  TRP800  GLU811  SER814 

> <Gold.Protein.RotatedAtoms>
  152.4225  133.7140  159.6494 H   0  0  0  0  0  0  0  0  0  0  0  0  # atno 6907 bound_to 6896
  150.8101  133.8427  159.3192 H   0  0  0  0  0  0  0  0  0  0  0  0  # atno 6908 bound_to 6896
  151.6139  135.1040  160.0138 H   0  0  0  0  0  0  0  0  0  0  0  0  # atno 6909 bound_to 6896
  145.3198  140.9419  143.2722 H   0  0  0  0  0  0  0  0  0  0  0  0  # atno 7974 bound_to 7965
  154.9479  140.3061  155.5089 H   0  0  0  0  0  0  0  0  0  0  0  0  # atno 8008 bound_to 7997
  156.2990  140.2324  156.4491 H   0  0  0  0  0  0  0  0  0  0  0  0  # atno 8009 bound_to 7997
  154.8083  140.0430  157.1312 H   0  0  0  0  0  0  0  0  0  0  0  0  # atno 8010 bound_to 7997
  140.6131  143.8365  150.7088 H   0  0  0  0  0  0  0  0  0  0  0  0  # atno 10167 bound_to 10162
  157.3461  131.0943  151.1041 H   0  0  0  0  0  0  0  0  0  0  0  0  # atno 10718 bound_to 10713
  154.7344  135.3054  154.8836 H   0  0  0  0  0  0  0  0  0  0  0  0  # atno 10763 bound_to 10752
  153.9669  135.6746  153.4750 H   0  0  0  0  0  0  0  0  0  0  0  0  # atno 10764 bound_to 10752
  153.0949  135.4941  154.8681 H   0  0  0  0  0  0  0  0  0  0  0  0  # atno 10765 bound_to 10752
  141.0361  133.6799  156.2687 H   0  0  0  0  0  0  0  0  0  0  0  0  # atno 11005 bound_to 11000
  144.8948  139.4726  143.6660 LP  0  0  0  0  0  0  0  0  0  0  0  0  # atno 17320 bound_to 7965
  146.3086  139.7668  142.9037 LP  0  0  0  0  0  0  0  0  0  0  0  0  # atno 17321 bound_to 7965
  140.1938  143.4014  152.1843 LP  0  0  0  0  0  0  0  0  0  0  0  0  # atno 17342 bound_to 10162
  139.5377  144.7226  151.4838 LP  0  0  0  0  0  0  0  0  0  0  0  0  # atno 17343 bound_to 10162
  157.2234  130.6492  149.5820 LP  0  0  0  0  0  0  0  0  0  0  0  0  # atno 17370 bound_to 10713
  155.9714  130.4622  150.6136 LP  0  0  0  0  0  0  0  0  0  0  0  0  # atno 17371 bound_to 10713
  140.6319  134.5255  157.5560 LP  0  0  0  0  0  0  0  0  0  0  0  0  # atno 17394 bound_to 11000
  139.9242  134.8089  156.1120 LP  0  0  0  0  0  0  0  0  0  0  0  0  # atno 17395 bound_to 11000

$$$$
