AV-unprocessed.smi:1512|AV-procd|sdf|6104|dock10
  -GOLD-   22720 6233D 1   1.00000     0.00000
 Structure written by MMmdl.
 44 46  0  0  0  0  0  0  0  0  3 V2000
  145.6233  135.5031  151.8444 C   0  0  0  0  0  0  0  0  0  0  0  0
  146.1605  134.5270  152.9049 C   0  0  2  0  0  0  0  0  0  0  0  0
  147.4586  134.9812  153.3903 N   0  0  0  0  0  0  0  0  0  0  0  0
  147.8354  135.0737  154.6767 C   0  0  0  0  0  0  0  0  0  0  0  0
  147.0656  134.8768  155.6157 O   0  0  0  0  0  0  0  0  0  0  0  0
  149.3092  135.4083  154.9684 C   0  0  0  0  0  0  0  0  0  0  0  0
  149.6423  136.8424  154.8627 N   0  0  0  0  0  0  0  0  0  0  0  0
  148.6384  137.6976  154.3712 C   0  0  0  0  0  0  0  0  0  0  0  0
  148.8465  139.0114  154.2038 C   0  0  0  0  0  0  0  0  0  0  0  0
  150.1478  139.5437  154.5269 C   0  0  0  0  0  0  0  0  0  0  0  0
  151.1278  138.7413  155.0018 C   0  0  0  0  0  0  0  0  0  0  0  0
  152.4182  139.3302  155.2724 N   0  3  0  0  0  0  0  0  0  0  0  0
  153.0795  139.7617  154.3331 O   0  0  0  0  0  0  0  0  0  0  0  0
  152.8001  139.3944  156.4370 O   0  5  0  0  0  0  0  0  0  0  0  0
  150.8838  137.3009  155.2177 C   0  0  0  0  0  0  0  0  0  0  0  0
  151.7372  136.5408  155.6791 O   0  0  0  0  0  0  0  0  0  0  0  0
  146.2968  133.0876  152.3535 C   0  0  2  0  0  0  0  0  0  0  0  0
  146.8540  132.9958  150.9154 C   0  0  0  0  0  0  0  0  0  0  0  0
  145.8421  132.0724  150.2104 C   0  0  2  0  0  0  0  0  0  0  0  0
  144.5351  132.8495  149.9666 C   0  0  0  0  0  0  0  0  0  0  0  0
  143.9335  132.9523  151.3800 C   0  0  0  0  0  0  0  0  0  0  0  0
  144.9944  132.2516  152.2526 C   0  0  1  0  0  0  0  0  0  0  0  0
  145.4379  131.1211  151.3305 C   0  0  0  0  0  0  0  0  0  0  0  0
  144.6480  135.1868  151.4748 H   0  0  0  0  0  0  0  0  0  0  0  0
  146.2970  135.5713  150.9894 H   0  0  0  0  0  0  0  0  0  0  0  0
  145.5047  136.5063  152.2548 H   0  0  0  0  0  0  0  0  0  0  0  0
  145.4595  134.5161  153.7412 H   0  0  0  0  0  0  0  0  0  0  0  0
  148.1556  135.1732  152.6856 H   0  0  0  0  0  0  0  0  0  0  0  0
  149.5463  135.0296  155.9634 H   0  0  0  0  0  0  0  0  0  0  0  0
  149.9391  134.8307  154.2897 H   0  0  0  0  0  0  0  0  0  0  0  0
  147.6971  137.2206  154.1391 H   0  0  0  0  0  0  0  0  0  0  0  0
  148.0641  139.6528  153.8255 H   0  0  0  0  0  0  0  0  0  0  0  0
  150.3357  140.5947  154.3615 H   0  0  0  0  0  0  0  0  0  0  0  0
  146.9732  132.5425  153.0147 H   0  0  0  0  0  0  0  0  0  0  0  0
  146.9264  133.9657  150.4214 H   0  0  0  0  0  0  0  0  0  0  0  0
  147.8508  132.5534  150.9200 H   0  0  0  0  0  0  0  0  0  0  0  0
  146.2380  131.5916  149.3154 H   0  0  0  0  0  0  0  0  0  0  0  0
  144.7126  133.8277  149.5183 H   0  0  0  0  0  0  0  0  0  0  0  0
  143.8677  132.2946  149.3058 H   0  0  0  0  0  0  0  0  0  0  0  0
  143.7351  133.9804  151.6819 H   0  0  0  0  0  0  0  0  0  0  0  0
  142.9864  132.4135  151.4287 H   0  0  0  0  0  0  0  0  0  0  0  0
  144.6128  131.9168  153.2174 H   0  0  0  0  0  0  0  0  0  0  0  0
  144.6277  130.4439  151.0539 H   0  0  0  0  0  0  0  0  0  0  0  0
  146.2717  130.5382  151.7261 H   0  0  0  0  0  0  0  0  0  0  0  0
  1  2  1  0  0  0  0
  1 24  1  0  0  0  0
  1 25  1  0  0  0  0
  1 26  1  0  0  0  0
  2  3  1  0  0  0  0
  2 17  1  0  0  0  0
  2 27  1  0  0  0  0
  3  4  1  0  0  0  0
  3 28  1  0  0  0  0
  4  5  2  0  0  0  0
  4  6  1  0  0  0  0
  6  7  1  0  0  0  0
  6 29  1  0  0  0  0
  6 30  1  0  0  0  0
  7 15  1  0  0  0  0
  7  8  1  0  0  0  0
  8  9  2  0  0  0  0
  8 31  1  0  0  0  0
  9 10  1  0  0  0  0
  9 32  1  0  0  0  0
 10 11  2  0  0  0  0
 10 33  1  0  0  0  0
 11 12  1  0  0  0  0
 11 15  1  0  0  0  0
 12 13  2  0  0  0  0
 12 14  1  0  0  0  0
 15 16  2  0  0  0  0
 17 22  1  0  0  0  0
 17 18  1  0  0  0  0
 17 34  1  0  0  0  0
 18 19  1  0  0  0  0
 18 35  1  0  0  0  0
 18 36  1  0  0  0  0
 19 23  1  0  0  0  0
 19 20  1  0  0  0  0
 19 37  1  0  0  0  0
 20 21  1  0  0  0  0
 20 38  1  0  0  0  0
 20 39  1  0  0  0  0
 21 22  1  0  0  0  0
 21 40  1  0  0  0  0
 21 41  1  0  0  0  0
 22 23  1  0  0  0  0
 22 42  1  0  0  0  0
 23 43  1  0  0  0  0
 23 44  1  0  0  0  0
M  CHG  1  12   1
M  CHG  1  14  -1
M  END
> <s_m_source_file>
AV-unprocessed.smi

> <i_m_source_file_index>
1512

> <i_lp_mmshare_version>
43012

> <i_f3d_flags>
0

> <s_epik_input>
W0NIMl0xW0NIMl1bQ0BIXShbQ0gyXTIpW0NAQEhdKFtDSDJdW0NAQEhdMTIpW0NASF0oW0NIM10pW05IXUMoPU8pW0NIMl1uM1tjSF1bY0hdW2NIXWMoW04rXSg9TylbTy1dKWMzPU8=

> <s_epik_cmdline>
J2VwaWtfcHl0aG9uJywgJy1waCcsICc3LjAnLCAnLXRuJywgJzgnLCAnLW1hJywgJzIwMCcsICctbWV0YWxfYmluZGluZycsICctaW1hZScsICc8aW5maWxlLm1hZT4nLCAnLW9tYWUnLCAnPG91dGZpbGUubWFlPic=

> <r_lp_tautomer_probability>
1

> <r_epik_Ionization_Penalty>
2.17697e-08

> <r_epik_Ionization_Penalty_Charging>
1.42735e-10

> <r_epik_Ionization_Penalty_Neutral>
2.16269e-08

> <r_epik_State_Penalty>
-0

> <r_epik_Charging_Adjusted_Penalty>
1.42735e-10

> <i_epik_Tot_Q>
0

> <i_epik_Tot_abs_Q>
2

> <r_epik_Metal_State_Penalty>
-0

> <b_epik_Metal_Only>
0

> <s_lp_Force_Field>
OPLS_2005

> <r_lp_Energy>
63.3532

> <b_lp_Chiralities_Consistent>
1

> <s_lp_Variant>
AV-unprocessed.smi:1512-5

> <Gold.Version>
5.8.1

> <Gold.Id.Protein>
6NUR|6NUR_protein|mol2

> <Gold.PLP.Fitness>
44.2554

> <Gold.PLP.PLP>
-38.6898

> <Gold.PLP.part.hbond>
-4.8435

> <Gold.PLP.part.metal>
0.0000

> <Gold.PLP.part.buried>
-3.0653

> <Gold.PLP.part.nonpolar>
-30.2087

> <Gold.PLP.part.repulsive>
0.0964

> <Gold.PLP.ligand.clash>
0.0000

> <Gold.PLP.ligand.torsion>
2.1372

> <Gold.PLP.Chemscore.Hbond>
3.2681

> <Gold.PLP.Chemscore.CHOScore>
0.0000

> <Gold.PLP.Chemscore.Metal>
0.0000

> <Gold.Chemscore.Hbonds>
donor molecule, donor type, donor heavy atom, donor atom, acceptor molecule, acceptor atom, score
      L1  H     3    28       P1  7948  1.00
      P1  H  7989  7998       L1    13  0.21
      P1  H  7997  8008       L1    14  0.16
      P1  H  7997  8009       L1    13  0.49
      P1  H 10752 10763       L1    16  1.00
      L1  C     8    31       P1  7948  0.05

> <Gold.PLP.Chemscore.Internal.Correction>
0.0357

> <Gold.Rescore>
     Score         DG    S(hbond)    S(metal)    S(lipo)     H(rot)  DE(clash)    DE(int)     intcor
     16.43     -20.31       2.89        0.00      82.51       1.75       0.03       3.86       ----

> <Gold.Chemscore.Fitness>
16.4252

> <Gold.Chemscore.DG>
-20.3083

> <Gold.Chemscore.ZeroCoef>
-5.4800

> <Gold.Chemscore.Hbond>
2.8887

> <Gold.Chemscore.Metal>
0.0000

> <Gold.Chemscore.Lipo>
82.5079

> <Gold.Chemscore.Internal_Hbond>
0.0000

> <Gold.Chemscore.DEClash>
0.0270

> <Gold.Chemscore.DEInternal>
3.8561

> <Gold.Chemscore.Rot>
1.7474

> <Gold.Chemscore.Internal.Correction>
   9.000000E+99

> <Gold.Chemscore.Hbonds>
donor molecule, donor type, donor heavy atom, donor atom, acceptor molecule, acceptor atom, score
      L1  H     3    28       P1  7948  0.83
      P1  H  7989  7998       L1    13  0.05
      P1  H  7997  8008       L1    14  0.16
      P1  H  7997  8009       L1    13  0.08
      P1  H 10752 10763       L1    16  0.98

> <Gold.Chemscore.Hbond.Weighted>
-9.6482

> <Gold.Chemscore.Metal.Weighted>
-0.0000

> <Gold.Chemscore.Lipo.Weighted>
-9.6534

> <Gold.Chemscore.Internal_Hbond.Weighted>
0.0000

> <Gold.Chemscore.DEClash.Weighted>
0.0270

> <Gold.Chemscore.DEInternal.Weighted>
3.8561

> <Gold.Chemscore.Rot.Weighted>
4.4733

> <Gold.Chemscore.Internal.Correction.Weighted>
   9.000000E+99

> <Gold.Protein.RotatedTorsions>
[ 6907 6896 6895 6894 ] final  -37.65 input  -60.11 | X-H torsion
[ 7974 7965 7964 7962 ] final  138.35 input  175.53 | X-H torsion
[ 8008 7997 7996 7995 ] final  -99.95 input   59.86 | X-H torsion
[ 10167 10162 10161 10158 ] final  124.16 input  -65.29 | X-H torsion
[ 10718 10713 10712 10709 ] final   84.86 input   66.30 | X-H torsion
[ 10763 10752 10751 10750 ] final   61.14 input  -60.55 | X-H torsion
[ 11005 11000 10999 10996 ] final   27.37 input  -57.11 | X-H torsion

> <Gold.Protein.ActiveResidues>
 VAL166  LYS551  ARG553  GLY616  TRP617  ASP618  TYR619  PRO620  LYS621  CYS622 
 ASP623  PHE694  ASN695  SER759  ASP760  ASP761  ALA762  ILE779  LEU786  VAL792 
 PHE793  MET794  SER795  GLU796  ALA797  LYS798  CYS799  TRP800  GLU811  SER814 

> <Gold.Protein.RotatedAtoms>
  151.0121  134.9405  159.8012 H   0  0  0  0  0  0  0  0  0  0  0  0  # atno 6907 bound_to 6896
  152.5305  134.3014  159.9090 H   0  0  0  0  0  0  0  0  0  0  0  0  # atno 6908 bound_to 6896
  151.3020  133.4076  159.2674 H   0  0  0  0  0  0  0  0  0  0  0  0  # atno 6909 bound_to 6896
  144.9381  139.4965  143.5585 H   0  0  0  0  0  0  0  0  0  0  0  0  # atno 7974 bound_to 7965
  154.8219  140.0444  157.1417 H   0  0  0  0  0  0  0  0  0  0  0  0  # atno 8008 bound_to 7997
  154.9249  140.3032  155.5177 H   0  0  0  0  0  0  0  0  0  0  0  0  # atno 8009 bound_to 7997
  156.2981  140.2333  156.4303 H   0  0  0  0  0  0  0  0  0  0  0  0  # atno 8010 bound_to 7997
  139.5758  144.6962  151.3658 H   0  0  0  0  0  0  0  0  0  0  0  0  # atno 10167 bound_to 10162
  157.6905  131.0151  150.2735 H   0  0  0  0  0  0  0  0  0  0  0  0  # atno 10718 bound_to 10713
  152.9941  135.5511  154.5986 H   0  0  0  0  0  0  0  0  0  0  0  0  # atno 10763 bound_to 10752
  154.5333  135.2815  155.1163 H   0  0  0  0  0  0  0  0  0  0  0  0  # atno 10764 bound_to 10752
  154.2470  135.6406  153.5279 H   0  0  0  0  0  0  0  0  0  0  0  0  # atno 10765 bound_to 10752
  140.3270  134.2480  155.7708 H   0  0  0  0  0  0  0  0  0  0  0  0  # atno 11005 bound_to 11000
  146.3274  139.8380  142.8896 LP  0  0  0  0  0  0  0  0  0  0  0  0  # atno 17320 bound_to 7965
  145.3035  141.0201  143.3595 LP  0  0  0  0  0  0  0  0  0  0  0  0  # atno 17321 bound_to 7965
  140.7040  143.7560  150.7451 LP  0  0  0  0  0  0  0  0  0  0  0  0  # atno 17342 bound_to 10162
  140.1079  143.4727  152.2387 LP  0  0  0  0  0  0  0  0  0  0  0  0  # atno 17343 bound_to 10162
  156.3294  130.3798  149.7504 LP  0  0  0  0  0  0  0  0  0  0  0  0  # atno 17370 bound_to 10713
  156.5049  130.8145  151.3147 LP  0  0  0  0  0  0  0  0  0  0  0  0  # atno 17371 bound_to 10713
  141.2073  133.7810  157.0128 LP  0  0  0  0  0  0  0  0  0  0  0  0  # atno 17394 bound_to 11000
  140.0893  134.9602  157.1750 LP  0  0  0  0  0  0  0  0  0  0  0  0  # atno 17395 bound_to 11000

$$$$
