AV-unprocessed.smi:148|AV-procd|sdf|1218|dock6
  -GOLD-   2262018403D 1   1.00000     0.00000
 Structure written by MMmdl.
 63 67  0  0  0  0  0  0  0  0  1 V2000
  152.6367  139.7523  154.9050 O   0  0  0  0  0  0  0  0  0  0  0  0
  151.6677  139.3623  155.8553 C   0  0  0  0  0  0  0  0  0  0  0  0
  150.8091  140.5679  156.3073 C   0  0  2  0  0  0  0  0  0  0  0  0
  150.1070  141.2635  155.1108 C   0  0  0  0  0  0  0  0  0  0  0  0
  148.6590  141.2367  155.2195 N   0  0  0  0  0  0  0  0  0  0  0  0
  147.7731  140.7906  154.2656 C   0  0  0  0  0  0  0  0  0  0  0  0
  146.5129  140.8766  154.5941 N   0  0  0  0  0  0  0  0  0  0  0  0
  146.5326  141.4229  155.8720 C   0  0  0  0  0  0  0  0  0  0  0  0
  145.5305  141.7952  156.8122 C   0  0  0  0  0  0  0  0  0  0  0  0
  144.1983  141.6805  156.6086 N   0  0  0  0  0  0  0  0  0  0  0  0
  143.8152  140.2689  156.6096 C   0  0  0  0  0  0  0  0  0  0  0  0
  142.2908  140.1026  156.6343 C   0  0  0  0  0  0  0  0  0  0  0  0
  141.6558  140.8638  155.4669 C   0  0  0  0  0  0  0  0  0  0  0  0
  142.0751  142.3394  155.5134 C   0  0  0  0  0  0  0  0  0  0  0  0
  143.6182  142.5009  155.5289 C   0  0  1  0  0  0  0  0  0  0  0  0
  144.0844  143.9906  155.5794 C   0  0  2  0  0  0  0  0  0  0  0  0
  144.0541  144.6677  156.9636 C   0  0  0  0  0  0  0  0  0  0  0  0
  143.8106  146.1646  156.7092 C   0  0  0  0  0  0  0  0  0  0  0  0
  143.7564  146.3393  155.1882 C   0  0  0  0  0  0  0  0  0  0  0  0
  143.3329  144.9681  154.6638 C   0  0  1  0  0  0  0  0  0  0  0  0
  143.6838  144.8038  153.3053 O   0  0  0  0  0  0  0  0  0  0  0  0
  145.9318  142.2980  158.0055 N   0  0  0  0  0  0  0  0  0  0  0  0
  147.2346  142.4505  158.2613 C   0  0  0  0  0  0  0  0  0  0  0  0
  148.2786  142.1651  157.4797 N   0  0  0  0  0  0  0  0  0  0  0  0
  147.8760  141.6451  156.2847 C   0  0  0  0  0  0  0  0  0  0  0  0
  151.6110  141.5511  157.2066 C   0  0  1  0  0  0  0  0  0  0  0  0
  151.0233  142.9597  157.3281 C   0  0  0  0  0  0  0  0  0  0  0  0
  151.1117  143.2659  158.8201 C   0  0  0  0  0  0  0  0  0  0  0  0
  150.9676  141.9895  159.4182 O   0  0  0  0  0  0  0  0  0  0  0  0
  151.7733  141.0955  158.6664 C   0  0  0  0  0  0  0  0  0  0  0  0
  152.8804  138.9939  154.3961 H   0  0  0  0  0  0  0  0  0  0  0  0
  151.0445  138.5731  155.4345 H   0  0  0  0  0  0  0  0  0  0  0  0
  152.2064  138.9244  156.6952 H   0  0  0  0  0  0  0  0  0  0  0  0
  150.0128  140.1633  156.9347 H   0  0  0  0  0  0  0  0  0  0  0  0
  150.4071  142.3080  155.0320 H   0  0  0  0  0  0  0  0  0  0  0  0
  150.3851  140.7969  154.1667 H   0  0  0  0  0  0  0  0  0  0  0  0
  148.0938  140.4034  153.3094 H   0  0  0  0  0  0  0  0  0  0  0  0
  144.2245  139.7838  155.7221 H   0  0  0  0  0  0  0  0  0  0  0  0
  144.2484  139.7644  157.4750 H   0  0  0  0  0  0  0  0  0  0  0  0
  142.0290  139.0455  156.5810 H   0  0  0  0  0  0  0  0  0  0  0  0
  141.8942  140.4768  157.5790 H   0  0  0  0  0  0  0  0  0  0  0  0
  141.9692  140.4197  154.5212 H   0  0  0  0  0  0  0  0  0  0  0  0
  140.5697  140.7791  155.5087 H   0  0  0  0  0  0  0  0  0  0  0  0
  141.6402  142.8420  154.6512 H   0  0  0  0  0  0  0  0  0  0  0  0
  141.6318  142.7990  156.3961 H   0  0  0  0  0  0  0  0  0  0  0  0
  143.9788  142.0852  154.5880 H   0  0  0  0  0  0  0  0  0  0  0  0
  145.1225  144.0357  155.2469 H   0  0  0  0  0  0  0  0  0  0  0  0
  143.2601  144.2736  157.5962 H   0  0  0  0  0  0  0  0  0  0  0  0
  144.9919  144.5037  157.4951 H   0  0  0  0  0  0  0  0  0  0  0  0
  142.8580  146.4594  157.1507 H   0  0  0  0  0  0  0  0  0  0  0  0
  144.5846  146.7887  157.1571 H   0  0  0  0  0  0  0  0  0  0  0  0
  143.0778  147.1354  154.8805 H   0  0  0  0  0  0  0  0  0  0  0  0
  144.7520  146.5910  154.8186 H   0  0  0  0  0  0  0  0  0  0  0  0
  142.2536  144.8738  154.7741 H   0  0  0  0  0  0  0  0  0  0  0  0
  143.5601  143.8966  153.0712 H   0  0  0  0  0  0  0  0  0  0  0  0
  147.4748  142.8623  159.2304 H   0  0  0  0  0  0  0  0  0  0  0  0
  152.6183  141.6373  156.7970 H   0  0  0  0  0  0  0  0  0  0  0  0
  151.5652  143.6906  156.7271 H   0  0  0  0  0  0  0  0  0  0  0  0
  149.9818  142.9931  157.0135 H   0  0  0  0  0  0  0  0  0  0  0  0
  152.0869  143.6834  159.0768 H   0  0  0  0  0  0  0  0  0  0  0  0
  150.3401  143.9593  159.1554 H   0  0  0  0  0  0  0  0  0  0  0  0
  151.4914  140.0571  158.8395 H   0  0  0  0  0  0  0  0  0  0  0  0
  152.8110  141.2071  158.9849 H   0  0  0  0  0  0  0  0  0  0  0  0
  1  2  1  0  0  0  0
  1 31  1  0  0  0  0
  2  3  1  0  0  0  0
  2 32  1  0  0  0  0
  2 33  1  0  0  0  0
  3  4  1  0  0  0  0
  3 26  1  0  0  0  0
  3 34  1  0  0  0  0
  4  5  1  0  0  0  0
  4 35  1  0  0  0  0
  4 36  1  0  0  0  0
  5 25  1  0  0  0  0
  5  6  1  0  0  0  0
  6  7  2  0  0  0  0
  6 37  1  0  0  0  0
  7  8  1  0  0  0  0
  8 25  2  0  0  0  0
  8  9  1  0  0  0  0
  9 10  1  0  0  0  0
  9 22  2  0  0  0  0
 10 15  1  0  0  0  0
 10 11  1  0  0  0  0
 11 12  1  0  0  0  0
 11 38  1  0  0  0  0
 11 39  1  0  0  0  0
 12 13  1  0  0  0  0
 12 40  1  0  0  0  0
 12 41  1  0  0  0  0
 13 14  1  0  0  0  0
 13 42  1  0  0  0  0
 13 43  1  0  0  0  0
 14 15  1  0  0  0  0
 14 44  1  0  0  0  0
 14 45  1  0  0  0  0
 15 16  1  0  0  0  0
 15 46  1  0  0  0  0
 16 20  1  0  0  0  0
 16 17  1  0  0  0  0
 16 47  1  0  0  0  0
 17 18  1  0  0  0  0
 17 48  1  0  0  0  0
 17 49  1  0  0  0  0
 18 19  1  0  0  0  0
 18 50  1  0  0  0  0
 18 51  1  0  0  0  0
 19 20  1  0  0  0  0
 19 52  1  0  0  0  0
 19 53  1  0  0  0  0
 20 21  1  0  0  0  0
 20 54  1  0  0  0  0
 21 55  1  0  0  0  0
 22 23  1  0  0  0  0
 23 24  2  0  0  0  0
 23 56  1  0  0  0  0
 24 25  1  0  0  0  0
 26 30  1  0  0  0  0
 26 27  1  0  0  0  0
 26 57  1  0  0  0  0
 27 28  1  0  0  0  0
 27 58  1  0  0  0  0
 27 59  1  0  0  0  0
 28 29  1  0  0  0  0
 28 60  1  0  0  0  0
 28 61  1  0  0  0  0
 29 30  1  0  0  0  0
 30 62  1  0  0  0  0
 30 63  1  0  0  0  0
M  END
> <s_m_source_file>
AV-unprocessed.smi

> <i_m_source_file_index>
148

> <i_lp_mmshare_version>
43012

> <i_f3d_flags>
0

> <s_epik_input>
W0NIMl0xT1tDSDJdW0NIMl1bQ0BIXTFbQ0BIXShbQ0gyXVtPSF0pW0NIMl1uKFtjSF1uMiljKGMyMyluW2NIXW5jM040W0NIMl1bQ0gyXVtDSDJdW0NIMl1bQ0BIXTRbQ0BASF01W0NIMl1bQ0gyXVtDSDJdW0NASF01W09IXQ==

> <s_epik_cmdline>
J2VwaWtfcHl0aG9uJywgJy1waCcsICc3LjAnLCAnLXRuJywgJzgnLCAnLW1hJywgJzIwMCcsICctbWV0YWxfYmluZGluZycsICctaW1hZScsICc8aW5maWxlLm1hZT4nLCAnLW9tYWUnLCAnPG91dGZpbGUubWFlPic=

> <r_lp_tautomer_probability>
1

> <r_epik_Ionization_Penalty>
0.00556303

> <r_epik_Ionization_Penalty_Charging>
0

> <r_epik_Ionization_Penalty_Neutral>
0.00556303

> <r_epik_State_Penalty>
0.00401767

> <r_epik_Charging_Adjusted_Penalty>
0.00401767

> <i_epik_Tot_Q>
0

> <i_epik_Tot_abs_Q>
0

> <r_epik_Metal_State_Penalty>
-0

> <b_epik_Metal_Only>
0

> <s_lp_Force_Field>
OPLS_2005

> <r_lp_Energy>
68.3578

> <b_lp_Chiralities_Consistent>
1

> <s_lp_Variant>
AV-unprocessed.smi:148-17

> <Gold.Version>
5.8.1

> <Gold.Id.Protein>
6NUR|6NUR_protein|mol2

> <Gold.PLP.Fitness>
46.0773

> <Gold.PLP.PLP>
-38.5766

> <Gold.PLP.part.hbond>
-4.9786

> <Gold.PLP.part.metal>
0.0000

> <Gold.PLP.part.buried>
-4.4447

> <Gold.PLP.part.nonpolar>
-28.9970

> <Gold.PLP.part.repulsive>
0.4097

> <Gold.PLP.ligand.clash>
0.0000

> <Gold.PLP.ligand.torsion>
1.6628

> <Gold.PLP.Chemscore.Hbond>
2.4777

> <Gold.PLP.Chemscore.CHOScore>
0.9842

> <Gold.PLP.Chemscore.Metal>
0.0000

> <Gold.Chemscore.Hbonds>
donor molecule, donor type, donor heavy atom, donor atom, acceptor molecule, acceptor atom, score
      L1  H    21    55       P1 10174  1.00
      P1  H  7989  7998       L1     1  0.56
      P1  H  7997  8010       L1     1  0.78
      L1  C     6    37       P1  7957  0.71

> <Gold.PLP.Chemscore.Internal.Correction>
0.4408

> <Gold.Rescore>
     Score         DG    S(hbond)    S(metal)    S(lipo)     H(rot)  DE(clash)    DE(int)     intcor
      9.09     -11.86       1.42        0.00      86.71       3.32       0.61       2.17       ----

> <Gold.Chemscore.Fitness>
9.0878

> <Gold.Chemscore.DG>
-11.8645

> <Gold.Chemscore.ZeroCoef>
-5.4800

> <Gold.Chemscore.Hbond>
1.4189

> <Gold.Chemscore.Metal>
0.0000

> <Gold.Chemscore.Lipo>
86.7126

> <Gold.Chemscore.Internal_Hbond>
0.0000

> <Gold.Chemscore.DEClash>
0.6088

> <Gold.Chemscore.DEInternal>
2.1679

> <Gold.Chemscore.Rot>
3.3203

> <Gold.Chemscore.Internal.Correction>
   9.000000E+99

> <Gold.Chemscore.Hbonds>
donor molecule, donor type, donor heavy atom, donor atom, acceptor molecule, acceptor atom, score
      L1  H    21    55       P1 10174  0.92
      P1  H  7989  7998       L1     1  0.10
      P1  H  7997  8010       L1     1  0.18

> <Gold.Chemscore.Hbond.Weighted>
-4.7391

> <Gold.Chemscore.Metal.Weighted>
-0.0000

> <Gold.Chemscore.Lipo.Weighted>
-10.1454

> <Gold.Chemscore.Internal_Hbond.Weighted>
0.0000

> <Gold.Chemscore.DEClash.Weighted>
0.6088

> <Gold.Chemscore.DEInternal.Weighted>
2.1679

> <Gold.Chemscore.Rot.Weighted>
8.5000

> <Gold.Chemscore.Internal.Correction.Weighted>
   9.000000E+99

> <Gold.Protein.RotatedTorsions>
[ 6907 6896 6895 6894 ] final   88.64 input  -60.11 | X-H torsion
[ 7974 7965 7964 7962 ] final  -70.01 input  175.53 | X-H torsion
[ 8008 7997 7996 7995 ] final  108.45 input   59.86 | X-H torsion
[ 10167 10162 10161 10158 ] final  -56.36 input  -65.29 | X-H torsion
[ 10718 10713 10712 10709 ] final  -34.98 input   66.30 | X-H torsion
[ 10763 10752 10751 10750 ] final  -29.06 input  -60.55 | X-H torsion
[ 11005 11000 10999 10996 ] final  175.89 input  -57.11 | X-H torsion

> <Gold.Protein.ActiveResidues>
 VAL166  LYS551  ARG553  GLY616  TRP617  ASP618  TYR619  PRO620  LYS621  CYS622 
 ASP623  PHE694  ASN695  SER759  ASP760  ASP761  ALA762  ILE779  LEU786  VAL792 
 PHE793  MET794  SER795  GLU796  ALA797  LYS798  CYS799  TRP800  GLU811  SER814 

> <Gold.Protein.RotatedAtoms>
  152.5427  134.2090  159.8742 H   0  0  0  0  0  0  0  0  0  0  0  0  # atno 6907 bound_to 6896
  151.2074  133.4569  159.2605 H   0  0  0  0  0  0  0  0  0  0  0  0  # atno 6908 bound_to 6896
  151.0930  134.9940  159.8467 H   0  0  0  0  0  0  0  0  0  0  0  0  # atno 6909 bound_to 6896
  145.6964  140.9133  143.0754 H   0  0  0  0  0  0  0  0  0  0  0  0  # atno 7974 bound_to 7965
  156.1904  140.3076  155.9320 H   0  0  0  0  0  0  0  0  0  0  0  0  # atno 8008 bound_to 7997
  155.3187  140.0454  157.3055 H   0  0  0  0  0  0  0  0  0  0  0  0  # atno 8009 bound_to 7997
  154.5445  140.2272  155.8595 H   0  0  0  0  0  0  0  0  0  0  0  0  # atno 8010 bound_to 7997
  140.6322  143.2464  151.5212 H   0  0  0  0  0  0  0  0  0  0  0  0  # atno 10167 bound_to 10162
  156.3441  130.4298  149.7761 H   0  0  0  0  0  0  0  0  0  0  0  0  # atno 10718 bound_to 10713
  153.7585  135.6921  153.4930 H   0  0  0  0  0  0  0  0  0  0  0  0  # atno 10763 bound_to 10752
  153.1954  135.4455  155.0200 H   0  0  0  0  0  0  0  0  0  0  0  0  # atno 10764 bound_to 10752
  154.8161  135.3400  154.7102 H   0  0  0  0  0  0  0  0  0  0  0  0  # atno 10765 bound_to 10752
  140.3671  134.7062  157.4369 H   0  0  0  0  0  0  0  0  0  0  0  0  # atno 11005 bound_to 11000
  144.6981  139.8890  143.7452 LP  0  0  0  0  0  0  0  0  0  0  0  0  # atno 17320 bound_to 7965
  146.0836  139.3824  143.0449 LP  0  0  0  0  0  0  0  0  0  0  0  0  # atno 17321 bound_to 7965
  139.5535  144.2335  152.1571 LP  0  0  0  0  0  0  0  0  0  0  0  0  # atno 17342 bound_to 10162
  140.1582  144.5051  150.6648 LP  0  0  0  0  0  0  0  0  0  0  0  0  # atno 17343 bound_to 10162
  156.4986  130.8118  151.3123 LP  0  0  0  0  0  0  0  0  0  0  0  0  # atno 17370 bound_to 10713
  157.7451  130.9952  150.2735 LP  0  0  0  0  0  0  0  0  0  0  0  0  # atno 17371 bound_to 10713
  140.0581  134.6035  155.8781 LP  0  0  0  0  0  0  0  0  0  0  0  0  # atno 17394 bound_to 11000
  141.1966  133.6592  156.5700 LP  0  0  0  0  0  0  0  0  0  0  0  0  # atno 17395 bound_to 11000

$$$$
