AV-unprocessed.smi:1328|AV-procd|sdf|5479|dock2
  -GOLD-   22720 5 53D 1   1.00000     0.00000
 Structure written by MMmdl.
 38 39  0  0  0  0  0  0  0  0  1 V2000
  147.4558  141.4073  154.6592 C   0  0  0  0  0  0  0  0  0  0  0  0
  148.7898  140.7232  154.7475 C   0  0  0  0  0  0  0  0  0  0  0  0
  149.8689  141.4369  155.0209 N   0  0  0  0  0  0  0  0  0  0  0  0
  150.9345  140.5319  155.0313 O   0  0  0  0  0  0  0  0  0  0  0  0
  150.4488  139.2933  154.7634 C   0  0  0  0  0  0  0  0  0  0  0  0
  151.4425  138.1820  154.7215 C   0  0  0  0  0  0  0  0  0  0  0  0
  149.0947  139.3421  154.5742 C   0  0  0  0  0  0  0  0  0  0  0  0
  148.1488  138.2139  154.2525 C   0  0  0  0  0  0  0  0  0  0  0  0
  148.4640  137.0150  155.1460 C   0  0  0  0  0  0  0  0  0  0  0  0
  148.4945  137.1513  156.3688 O   0  0  0  0  0  0  0  0  0  0  0  0
  148.7043  135.8529  154.5183 N   0  0  0  0  0  0  0  0  0  0  0  0
  149.0859  134.5934  155.1538 C   0  0  2  0  0  0  0  0  0  0  0  0
  150.4952  134.7537  155.7428 C   0  0  0  0  0  0  0  0  0  0  0  0
  149.0149  133.4291  154.1437 C   0  0  2  0  0  0  0  0  0  0  0  0
  147.6189  133.1362  153.5885 C   0  0  0  0  0  0  0  0  0  0  0  0
  147.7502  131.6880  153.1781 C   0  0  0  0  0  0  0  0  0  0  0  0
  148.6086  131.1255  154.3061 C   0  0  0  0  0  0  0  0  0  0  0  0
  149.4188  132.2071  154.7593 O   0  0  0  0  0  0  0  0  0  0  0  0
  146.9281  141.3534  155.6114 H   0  0  0  0  0  0  0  0  0  0  0  0
  146.8238  140.9431  153.9022 H   0  0  0  0  0  0  0  0  0  0  0  0
  147.5620  142.4601  154.3953 H   0  0  0  0  0  0  0  0  0  0  0  0
  151.9280  138.1378  153.7465 H   0  0  0  0  0  0  0  0  0  0  0  0
  150.9618  137.2206  154.9025 H   0  0  0  0  0  0  0  0  0  0  0  0
  152.2139  138.3203  155.4790 H   0  0  0  0  0  0  0  0  0  0  0  0
  147.1108  138.5097  154.4083 H   0  0  0  0  0  0  0  0  0  0  0  0
  148.2212  137.9142  153.2063 H   0  0  0  0  0  0  0  0  0  0  0  0
  148.6496  135.8476  153.5104 H   0  0  0  0  0  0  0  0  0  0  0  0
  148.4071  134.3763  155.9804 H   0  0  0  0  0  0  0  0  0  0  0  0
  150.8106  133.8495  156.2643 H   0  0  0  0  0  0  0  0  0  0  0  0
  150.5292  135.5736  156.4609 H   0  0  0  0  0  0  0  0  0  0  0  0
  151.2302  134.9619  154.9643 H   0  0  0  0  0  0  0  0  0  0  0  0
  149.6929  133.6158  153.3090 H   0  0  0  0  0  0  0  0  0  0  0  0
  146.8645  133.2328  154.3709 H   0  0  0  0  0  0  0  0  0  0  0  0
  147.3416  133.7910  152.7620 H   0  0  0  0  0  0  0  0  0  0  0  0
  146.7912  131.1793  153.0769 H   0  0  0  0  0  0  0  0  0  0  0  0
  148.2803  131.6144  152.2277 H   0  0  0  0  0  0  0  0  0  0  0  0
  147.9800  130.7953  155.1338 H   0  0  0  0  0  0  0  0  0  0  0  0
  149.2161  130.2796  153.9836 H   0  0  0  0  0  0  0  0  0  0  0  0
  1  2  1  0  0  0  0
  1 19  1  0  0  0  0
  1 20  1  0  0  0  0
  1 21  1  0  0  0  0
  2  7  1  0  0  0  0
  2  3  2  0  0  0  0
  3  4  1  0  0  0  0
  4  5  1  0  0  0  0
  5  6  1  0  0  0  0
  5  7  2  0  0  0  0
  6 22  1  0  0  0  0
  6 23  1  0  0  0  0
  6 24  1  0  0  0  0
  7  8  1  0  0  0  0
  8  9  1  0  0  0  0
  8 25  1  0  0  0  0
  8 26  1  0  0  0  0
  9 10  2  0  0  0  0
  9 11  1  0  0  0  0
 11 12  1  0  0  0  0
 11 27  1  0  0  0  0
 12 13  1  0  0  0  0
 12 14  1  0  0  0  0
 12 28  1  0  0  0  0
 13 29  1  0  0  0  0
 13 30  1  0  0  0  0
 13 31  1  0  0  0  0
 14 18  1  0  0  0  0
 14 15  1  0  0  0  0
 14 32  1  0  0  0  0
 15 16  1  0  0  0  0
 15 33  1  0  0  0  0
 15 34  1  0  0  0  0
 16 17  1  0  0  0  0
 16 35  1  0  0  0  0
 16 36  1  0  0  0  0
 17 18  1  0  0  0  0
 17 37  1  0  0  0  0
 17 38  1  0  0  0  0
M  END
> <s_m_source_file>
AV-unprocessed.smi

> <i_m_source_file_index>
1328

> <i_lp_mmshare_version>
43012

> <i_f3d_flags>
0

> <s_epik_input>
W0NIM11jMW5vYyhbQ0gzXSljMVtDSDJdQyg9TylbTkhdW0NASF0oW0NIM10pW0NAQEhdMltDSDJdW0NIMl1bQ0gyXU8y

> <s_epik_cmdline>
J2VwaWtfcHl0aG9uJywgJy1waCcsICc3LjAnLCAnLXRuJywgJzgnLCAnLW1hJywgJzIwMCcsICctbWV0YWxfYmluZGluZycsICctaW1hZScsICc8aW5maWxlLm1hZT4nLCAnLW9tYWUnLCAnPG91dGZpbGUubWFlPic=

> <r_lp_tautomer_probability>
1

> <r_epik_Ionization_Penalty>
2.66156e-08

> <r_epik_Ionization_Penalty_Charging>
0

> <r_epik_Ionization_Penalty_Neutral>
2.66156e-08

> <r_epik_State_Penalty>
-0

> <r_epik_Charging_Adjusted_Penalty>
0

> <i_epik_Tot_Q>
0

> <i_epik_Tot_abs_Q>
0

> <r_epik_Metal_State_Penalty>
-0

> <b_epik_Metal_Only>
0

> <s_lp_Force_Field>
OPLS_2005

> <r_lp_Energy>
12.1854

> <b_lp_Chiralities_Consistent>
1

> <s_lp_Variant>
AV-unprocessed.smi:1328-1

> <Gold.Version>
5.8.1

> <Gold.Id.Protein>
6NUR|6NUR_protein|mol2

> <Gold.PLP.Fitness>
34.0597

> <Gold.PLP.PLP>
-28.6668

> <Gold.PLP.part.hbond>
-2.8745

> <Gold.PLP.part.metal>
0.0000

> <Gold.PLP.part.buried>
-1.4925

> <Gold.PLP.part.nonpolar>
-24.6089

> <Gold.PLP.part.repulsive>
0.2445

> <Gold.PLP.ligand.clash>
0.0000

> <Gold.PLP.ligand.torsion>
0.3120

> <Gold.PLP.Chemscore.Hbond>
2.0000

> <Gold.PLP.Chemscore.CHOScore>
0.0000

> <Gold.PLP.Chemscore.Metal>
0.0000

> <Gold.Chemscore.Hbonds>
donor molecule, donor type, donor heavy atom, donor atom, acceptor molecule, acceptor atom, score
      L1  H    11    27       P1  7948  1.00
      P1  H  7989  7998       L1     4  0.95

> <Gold.PLP.Chemscore.Internal.Correction>
0.0169

> <Gold.Rescore>
     Score         DG    S(hbond)    S(metal)    S(lipo)     H(rot)  DE(clash)    DE(int)     intcor
     12.39     -12.92       0.98        0.00      68.86       1.52       0.19       0.34       ----

> <Gold.Chemscore.Fitness>
12.3903

> <Gold.Chemscore.DG>
-12.9209

> <Gold.Chemscore.ZeroCoef>
-5.4800

> <Gold.Chemscore.Hbond>
0.9775

> <Gold.Chemscore.Metal>
0.0000

> <Gold.Chemscore.Lipo>
68.8627

> <Gold.Chemscore.Internal_Hbond>
0.0000

> <Gold.Chemscore.DEClash>
0.1865

> <Gold.Chemscore.DEInternal>
0.3441

> <Gold.Chemscore.Rot>
1.5159

> <Gold.Chemscore.Internal.Correction>
   9.000000E+99

> <Gold.Chemscore.Hbonds>
donor molecule, donor type, donor heavy atom, donor atom, acceptor molecule, acceptor atom, score
      L1  H    11    27       P1  7948  0.99
      P1  H  7989  7998       L1     4  0.05

> <Gold.Chemscore.Hbond.Weighted>
-3.2647

> <Gold.Chemscore.Metal.Weighted>
-0.0000

> <Gold.Chemscore.Lipo.Weighted>
-8.0569

> <Gold.Chemscore.Internal_Hbond.Weighted>
0.0000

> <Gold.Chemscore.DEClash.Weighted>
0.1865

> <Gold.Chemscore.DEInternal.Weighted>
0.3441

> <Gold.Chemscore.Rot.Weighted>
3.8807

> <Gold.Chemscore.Internal.Correction.Weighted>
   9.000000E+99

> <Gold.Protein.RotatedTorsions>
[ 6907 6896 6895 6894 ] final  -25.89 input  -60.11 | X-H torsion
[ 7974 7965 7964 7962 ] final    1.72 input  175.53 | X-H torsion
[ 8008 7997 7996 7995 ] final -148.06 input   59.86 | X-H torsion
[ 10167 10162 10161 10158 ] final  -69.99 input  -65.29 | X-H torsion
[ 10718 10713 10712 10709 ] final  157.98 input   66.30 | X-H torsion
[ 10763 10752 10751 10750 ] final  101.16 input  -60.55 | X-H torsion
[ 11005 11000 10999 10996 ] final  156.76 input  -57.11 | X-H torsion

> <Gold.Protein.ActiveResidues>
 VAL166  LYS551  ARG553  GLY616  TRP617  ASP618  TYR619  PRO620  LYS621  CYS622 
 ASP623  PHE694  ASN695  SER759  ASP760  ASP761  ALA762  ILE779  LEU786  VAL792 
 PHE793  MET794  SER795  GLU796  ALA797  LYS798  CYS799  TRP800  GLU811  SER814 

> <Gold.Protein.RotatedAtoms>
  151.1687  135.0307  159.8741 H   0  0  0  0  0  0  0  0  0  0  0  0  # atno 6907 bound_to 6896
  152.5449  134.1196  159.8403 H   0  0  0  0  0  0  0  0  0  0  0  0  # atno 6908 bound_to 6896
  151.1299  133.4998  159.2632 H   0  0  0  0  0  0  0  0  0  0  0  0  # atno 6909 bound_to 6896
  146.2441  140.0944  142.8350 H   0  0  0  0  0  0  0  0  0  0  0  0  # atno 7974 bound_to 7965
  155.5856  140.0647  157.2772 H   0  0  0  0  0  0  0  0  0  0  0  0  # atno 8008 bound_to 7997
  154.4320  140.1844  156.1068 H   0  0  0  0  0  0  0  0  0  0  0  0  # atno 8009 bound_to 7997
  156.0272  140.3310  155.7104 H   0  0  0  0  0  0  0  0  0  0  0  0  # atno 8010 bound_to 7997
  140.5388  143.2316  151.7128 H   0  0  0  0  0  0  0  0  0  0  0  0  # atno 10167 bound_to 10162
  157.1841  131.0639  151.2115 H   0  0  0  0  0  0  0  0  0  0  0  0  # atno 10718 bound_to 10713
  153.3231  135.4054  155.1433 H   0  0  0  0  0  0  0  0  0  0  0  0  # atno 10763 bound_to 10752
  154.8605  135.3592  154.5570 H   0  0  0  0  0  0  0  0  0  0  0  0  # atno 10764 bound_to 10752
  153.6004  135.7071  153.5446 H   0  0  0  0  0  0  0  0  0  0  0  0  # atno 10765 bound_to 10752
  140.1705  134.8546  157.2685 H   0  0  0  0  0  0  0  0  0  0  0  0  # atno 11005 bound_to 11000
  145.0622  140.9096  143.4931 LP  0  0  0  0  0  0  0  0  0  0  0  0  # atno 17320 bound_to 7965
  145.1062  139.2788  143.5661 LP  0  0  0  0  0  0  0  0  0  0  0  0  # atno 17321 bound_to 7965
  139.4981  144.4002  152.0189 LP  0  0  0  0  0  0  0  0  0  0  0  0  # atno 17342 bound_to 10162
  140.3109  144.3539  150.6034 LP  0  0  0  0  0  0  0  0  0  0  0  0  # atno 17343 bound_to 10162
  157.3924  130.7289  149.6707 LP  0  0  0  0  0  0  0  0  0  0  0  0  # atno 17370 bound_to 10713
  155.9720  130.4143  150.4124 LP  0  0  0  0  0  0  0  0  0  0  0  0  # atno 17371 bound_to 10713
  140.2383  134.3826  155.7492 LP  0  0  0  0  0  0  0  0  0  0  0  0  # atno 17394 bound_to 11000
  141.2217  133.7251  156.8748 LP  0  0  0  0  0  0  0  0  0  0  0  0  # atno 17395 bound_to 11000

$$$$
