AV-unprocessed.smi:704|AV-procd|sdf|3445|dock4
  -GOLD-   22720 0433D 1   1.00000     0.00000
 Structure written by MMmdl.
 38 39  0  0  0  0  0  0  0  0  1 V2000
  151.7288  138.3347  154.6329 C   0  0  0  0  0  0  0  0  0  0  0  0
  150.3878  138.2287  154.1673 O   0  0  0  0  0  0  0  0  0  0  0  0
  149.5762  139.3455  154.2308 C   0  0  0  0  0  0  0  0  0  0  0  0
  150.0978  140.4946  154.7287 N   0  0  0  0  0  0  0  0  0  0  0  0
  149.3088  141.5870  154.7857 C   0  0  0  0  0  0  0  0  0  0  0  0
  147.9717  141.5947  154.3482 C   0  0  0  0  0  0  0  0  0  0  0  0
  147.4281  140.4041  153.8317 C   0  0  0  0  0  0  0  0  0  0  0  0
  148.2396  139.2446  153.7789 C   0  0  0  0  0  0  0  0  0  0  0  0
  147.8017  137.9942  153.2616 N   0  0  0  0  0  0  0  0  0  0  0  0
  146.5832  137.4327  153.3319 C   0  0  0  0  0  0  0  0  0  0  0  0
  145.5979  137.9296  153.8763 O   0  0  0  0  0  0  0  0  0  0  0  0
  146.5749  136.2285  152.7437 N   0  0  0  0  0  0  0  0  0  0  0  0
  145.4191  135.3383  152.6525 C   0  0  1  0  0  0  0  0  0  0  0  0
  144.3275  135.9610  151.7672 C   0  0  0  0  0  0  0  0  0  0  0  0
  144.4168  135.2285  150.4316 C   0  0  0  0  0  0  0  0  0  0  0  0
  144.8218  133.8082  150.8148 C   0  0  0  0  0  0  0  0  0  0  0  0
  145.7879  133.9765  152.0018 C   0  0  2  0  0  0  0  0  0  0  0  0
  145.7158  132.8069  152.9960 C   0  0  0  0  0  0  0  0  0  0  0  0
  145.3204  133.0897  154.2396 N   0  0  0  0  0  0  0  0  0  0  0  0
  146.0097  131.6646  152.6485 O   0  0  0  0  0  0  0  0  0  0  0  0
  152.2279  137.3733  154.5137 H   0  0  0  0  0  0  0  0  0  0  0  0
  151.7652  138.5971  155.6912 H   0  0  0  0  0  0  0  0  0  0  0  0
  152.2922  139.0728  154.0602 H   0  0  0  0  0  0  0  0  0  0  0  0
  149.7588  142.4833  155.1860 H   0  0  0  0  0  0  0  0  0  0  0  0
  147.3776  142.4948  154.4025 H   0  0  0  0  0  0  0  0  0  0  0  0
  146.4101  140.4104  153.4754 H   0  0  0  0  0  0  0  0  0  0  0  0
  148.5261  137.4262  152.8471 H   0  0  0  0  0  0  0  0  0  0  0  0
  147.4336  135.8976  152.3289 H   0  0  0  0  0  0  0  0  0  0  0  0
  145.0110  135.2137  153.6580 H   0  0  0  0  0  0  0  0  0  0  0  0
  143.3514  135.7670  152.2138 H   0  0  0  0  0  0  0  0  0  0  0  0
  144.4209  137.0421  151.6566 H   0  0  0  0  0  0  0  0  0  0  0  0
  143.4832  135.2625  149.8693 H   0  0  0  0  0  0  0  0  0  0  0  0
  145.1956  135.6806  149.8160 H   0  0  0  0  0  0  0  0  0  0  0  0
  143.9312  133.2456  151.0995 H   0  0  0  0  0  0  0  0  0  0  0  0
  145.2857  133.2826  149.9795 H   0  0  0  0  0  0  0  0  0  0  0  0
  146.7995  134.0326  151.5941 H   0  0  0  0  0  0  0  0  0  0  0  0
  145.2700  132.3576  154.9328 H   0  0  0  0  0  0  0  0  0  0  0  0
  145.0858  134.0402  154.4857 H   0  0  0  0  0  0  0  0  0  0  0  0
  1  2  1  0  0  0  0
  1 21  1  0  0  0  0
  1 22  1  0  0  0  0
  1 23  1  0  0  0  0
  2  3  1  0  0  0  0
  3  8  1  0  0  0  0
  3  4  2  0  0  0  0
  4  5  1  0  0  0  0
  5  6  2  0  0  0  0
  5 24  1  0  0  0  0
  6  7  1  0  0  0  0
  6 25  1  0  0  0  0
  7  8  2  0  0  0  0
  7 26  1  0  0  0  0
  8  9  1  0  0  0  0
  9 10  1  0  0  0  0
  9 27  1  0  0  0  0
 10 11  2  0  0  0  0
 10 12  1  0  0  0  0
 12 13  1  0  0  0  0
 12 28  1  0  0  0  0
 13 17  1  0  0  0  0
 13 14  1  0  0  0  0
 13 29  1  0  0  0  0
 14 15  1  0  0  0  0
 14 30  1  0  0  0  0
 14 31  1  0  0  0  0
 15 16  1  0  0  0  0
 15 32  1  0  0  0  0
 15 33  1  0  0  0  0
 16 17  1  0  0  0  0
 16 34  1  0  0  0  0
 16 35  1  0  0  0  0
 17 18  1  0  0  0  0
 17 36  1  0  0  0  0
 18 19  1  0  0  0  0
 18 20  2  0  0  0  0
 19 37  1  0  0  0  0
 19 38  1  0  0  0  0
M  END
> <s_m_source_file>
AV-unprocessed.smi

> <i_m_source_file_index>
704

> <i_lp_mmshare_version>
43012

> <i_f3d_flags>
0

> <s_epik_input>
W0NIM11PYzFuW2NIXVtjSF1bY0hdYzFbTkhdQyg9TylbTkhdW0NAQEhdMltDSDJdW0NIMl1bQ0gyXVtDQEhdMkMoPU8pW05IMl0=

> <s_epik_cmdline>
J2VwaWtfcHl0aG9uJywgJy1waCcsICc3LjAnLCAnLXRuJywgJzgnLCAnLW1hJywgJzIwMCcsICctbWV0YWxfYmluZGluZycsICctaW1hZScsICc8aW5maWxlLm1hZT4nLCAnLW9tYWUnLCAnPG91dGZpbGUubWFlPic=

> <r_lp_tautomer_probability>
1

> <r_epik_Ionization_Penalty>
9.09123e-05

> <r_epik_Ionization_Penalty_Charging>
0

> <r_epik_Ionization_Penalty_Neutral>
9.09123e-05

> <r_epik_State_Penalty>
-0

> <r_epik_Charging_Adjusted_Penalty>
0

> <i_epik_Tot_Q>
0

> <i_epik_Tot_abs_Q>
0

> <r_epik_Metal_State_Penalty>
-0

> <b_epik_Metal_Only>
0

> <s_lp_Force_Field>
OPLS_2005

> <r_lp_Energy>
17.389

> <b_lp_Chiralities_Consistent>
1

> <s_lp_Variant>
AV-unprocessed.smi:704-4

> <Gold.Version>
5.8.1

> <Gold.Id.Protein>
6NUR|6NUR_protein|mol2

> <Gold.PLP.Fitness>
42.1278

> <Gold.PLP.PLP>
-30.9032

> <Gold.PLP.part.hbond>
-4.0000

> <Gold.PLP.part.metal>
0.0000

> <Gold.PLP.part.buried>
-2.4913

> <Gold.PLP.part.nonpolar>
-25.2953

> <Gold.PLP.part.repulsive>
0.7031

> <Gold.PLP.ligand.clash>
0.0000

> <Gold.PLP.ligand.torsion>
0.2728

> <Gold.PLP.Chemscore.Hbond>
2.9200

> <Gold.PLP.Chemscore.CHOScore>
1.0000

> <Gold.PLP.Chemscore.Metal>
0.0000

> <Gold.Chemscore.Hbonds>
donor molecule, donor type, donor heavy atom, donor atom, acceptor molecule, acceptor atom, score
      L1  H     9    27       P1  7948  1.00
      L1  H    12    28       P1  7948  0.98
      P1  H  7989  7998       L1     4  0.93
      L1  C     5    24       P1  8028  1.00

> <Gold.PLP.Chemscore.Internal.Correction>
0.0101

> <Gold.Rescore>
     Score         DG    S(hbond)    S(metal)    S(lipo)     H(rot)  DE(clash)    DE(int)     intcor
     13.98     -15.01       2.33        0.00      55.84       1.86       0.09       0.94       ----

> <Gold.Chemscore.Fitness>
13.9811

> <Gold.Chemscore.DG>
-15.0133

> <Gold.Chemscore.ZeroCoef>
-5.4800

> <Gold.Chemscore.Hbond>
2.3275

> <Gold.Chemscore.Metal>
0.0000

> <Gold.Chemscore.Lipo>
55.8403

> <Gold.Chemscore.Internal_Hbond>
0.0000

> <Gold.Chemscore.DEClash>
0.0907

> <Gold.Chemscore.DEInternal>
0.9415

> <Gold.Chemscore.Rot>
1.8648

> <Gold.Chemscore.Internal.Correction>
   9.000000E+99

> <Gold.Chemscore.Hbonds>
donor molecule, donor type, donor heavy atom, donor atom, acceptor molecule, acceptor atom, score
      L1  H     9    27       P1  7948  0.93
      L1  H    12    28       P1  7948  0.92
      P1  H  7989  7998       L1     4  0.22

> <Gold.Chemscore.Hbond.Weighted>
-7.7739

> <Gold.Chemscore.Metal.Weighted>
-0.0000

> <Gold.Chemscore.Lipo.Weighted>
-6.5333

> <Gold.Chemscore.Internal_Hbond.Weighted>
0.0000

> <Gold.Chemscore.DEClash.Weighted>
0.0907

> <Gold.Chemscore.DEInternal.Weighted>
0.9415

> <Gold.Chemscore.Rot.Weighted>
4.7739

> <Gold.Chemscore.Internal.Correction.Weighted>
   9.000000E+99

> <Gold.Protein.RotatedTorsions>
[ 6907 6896 6895 6894 ] final  -96.64 input  -60.11 | X-H torsion
[ 7974 7965 7964 7962 ] final  107.48 input  175.53 | X-H torsion
[ 8008 7997 7996 7995 ] final  157.00 input   59.86 | X-H torsion
[ 10167 10162 10161 10158 ] final -129.67 input  -65.29 | X-H torsion
[ 10718 10713 10712 10709 ] final  158.09 input   66.30 | X-H torsion
[ 10763 10752 10751 10750 ] final  -92.63 input  -60.55 | X-H torsion
[ 11005 11000 10999 10996 ] final   48.66 input  -57.11 | X-H torsion

> <Gold.Protein.ActiveResidues>
 VAL166  LYS551  ARG553  GLY616  TRP617  ASP618  TYR619  PRO620  LYS621  CYS622 
 ASP623  PHE694  ASN695  SER759  ASP760  ASP761  ALA762  ILE779  LEU786  VAL792 
 PHE793  MET794  SER795  GLU796  ALA797  LYS798  CYS799  TRP800  GLU811  SER814 

> <Gold.Protein.RotatedAtoms>
  150.6994  134.1471  159.4126 H   0  0  0  0  0  0  0  0  0  0  0  0  # atno 6907 bound_to 6896
  151.9454  135.0191  160.0548 H   0  0  0  0  0  0  0  0  0  0  0  0  # atno 6908 bound_to 6896
  152.2057  133.4838  159.5119 H   0  0  0  0  0  0  0  0  0  0  0  0  # atno 6909 bound_to 6896
  145.2931  139.2594  143.3854 H   0  0  0  0  0  0  0  0  0  0  0  0  # atno 7974 bound_to 7965
  156.2389  140.1897  156.7042 H   0  0  0  0  0  0  0  0  0  0  0  0  # atno 8008 bound_to 7997
  154.6160  140.0615  156.9581 H   0  0  0  0  0  0  0  0  0  0  0  0  # atno 8009 bound_to 7997
  155.1939  140.3286  155.4356 H   0  0  0  0  0  0  0  0  0  0  0  0  # atno 8010 bound_to 7997
  139.9374  143.6202  152.2513 H   0  0  0  0  0  0  0  0  0  0  0  0  # atno 10167 bound_to 10162
  157.1825  131.0636  151.2124 H   0  0  0  0  0  0  0  0  0  0  0  0  # atno 10718 bound_to 10713
  154.6880  135.5224  153.8353 H   0  0  0  0  0  0  0  0  0  0  0  0  # atno 10763 bound_to 10752
  153.0611  135.6569  154.0469 H   0  0  0  0  0  0  0  0  0  0  0  0  # atno 10764 bound_to 10752
  154.0347  135.2982  155.3343 H   0  0  0  0  0  0  0  0  0  0  0  0  # atno 10765 bound_to 10752
  140.1171  134.4878  155.8628 H   0  0  0  0  0  0  0  0  0  0  0  0  # atno 11005 bound_to 11000
  146.3178  140.3427  142.8649 LP  0  0  0  0  0  0  0  0  0  0  0  0  # atno 17320 bound_to 7965
  144.9156  140.7809  143.5780 LP  0  0  0  0  0  0  0  0  0  0  0  0  # atno 17321 bound_to 7965
  139.6732  144.7660  151.1744 LP  0  0  0  0  0  0  0  0  0  0  0  0  # atno 17342 bound_to 10162
  140.7620  143.5833  150.8872 LP  0  0  0  0  0  0  0  0  0  0  0  0  # atno 17343 bound_to 10162
  157.3938  130.7296  149.6717 LP  0  0  0  0  0  0  0  0  0  0  0  0  # atno 17370 bound_to 10713
  155.9722  130.4139  150.4106 LP  0  0  0  0  0  0  0  0  0  0  0  0  # atno 17371 bound_to 10713
  141.2143  133.6747  156.6817 LP  0  0  0  0  0  0  0  0  0  0  0  0  # atno 17394 bound_to 11000
  140.3014  134.8161  157.4100 LP  0  0  0  0  0  0  0  0  0  0  0  0  # atno 17395 bound_to 11000

$$$$
