AV-unprocessed.smi:160|AV-procd|sdf|1372|dock5
  -GOLD-   2262019 93D 1   1.00000     0.00000
 Structure written by MMmdl.
 28 29  0  0  0  0  0  0  0  0  2 V2000
  153.4109  136.1679  159.3503 N   0  5  0  0  0  0  0  0  0  0  0  0
  153.4482  136.7048  158.1111 C   0  0  0  0  0  0  0  0  0  0  0  0
  154.0532  136.2520  157.1399 O   0  0  0  0  0  0  0  0  0  0  0  0
  152.6550  137.9813  157.9578 C   0  0  0  0  0  0  0  0  0  0  0  0
  151.9328  138.4840  159.0051 N   0  0  0  0  0  0  0  0  0  0  0  0
  151.4275  139.5607  158.4180 C   0  0  0  0  0  0  0  0  0  0  0  0
  151.8068  139.7191  157.1450 N   0  0  0  0  0  0  0  0  0  0  0  0
  151.4522  140.7572  156.1269 C   0  0  1  0  0  0  0  0  0  0  0  0
  150.8564  140.1129  155.0408 O   0  0  0  0  0  0  0  0  0  0  0  0
  149.4420  140.1328  155.1983 C   0  0  2  0  0  0  0  0  0  0  0  0
  148.7258  139.8093  153.8747 C   0  0  0  0  0  0  0  0  0  0  0  0
  149.3163  138.6811  153.2649 O   0  0  0  0  0  0  0  0  0  0  0  0
  149.2129  141.5455  155.7505 C   0  0  2  0  0  0  0  0  0  0  0  0
  149.2064  142.4964  154.6975 O   0  0  0  0  0  0  0  0  0  0  0  0
  150.3984  141.7257  156.7005 C   0  0  2  0  0  0  0  0  0  0  0  0
  150.8485  143.0661  156.7714 O   0  0  0  0  0  0  0  0  0  0  0  0
  152.6074  138.6765  156.8168 N   0  0  0  0  0  0  0  0  0  0  0  0
  152.4031  141.2156  155.8520 H   0  0  0  0  0  0  0  0  0  0  0  0
  149.1536  139.4119  155.9662 H   0  0  0  0  0  0  0  0  0  0  0  0
  148.2625  141.6220  156.2799 H   0  0  0  0  0  0  0  0  0  0  0  0
  150.1072  141.4011  157.7009 H   0  0  0  0  0  0  0  0  0  0  0  0
  154.0385  136.5509  160.0672 H   0  0  0  0  0  0  0  0  0  0  0  0
  150.7672  140.2463  158.9285 H   0  0  0  0  0  0  0  0  0  0  0  0
  147.6793  139.5673  154.0635 H   0  0  0  0  0  0  0  0  0  0  0  0
  148.7462  140.6597  153.1922 H   0  0  0  0  0  0  0  0  0  0  0  0
  149.4960  138.8887  152.3605 H   0  0  0  0  0  0  0  0  0  0  0  0
  149.3570  143.3517  155.0709 H   0  0  0  0  0  0  0  0  0  0  0  0
  150.3695  143.5739  156.1337 H   0  0  0  0  0  0  0  0  0  0  0  0
  1  2  1  0  0  0  0
  1 22  1  0  0  0  0
  2  3  2  0  0  0  0
  2  4  1  0  0  0  0
  4 17  2  0  0  0  0
  4  5  1  0  0  0  0
  5  6  2  0  0  0  0
  6  7  1  0  0  0  0
  6 23  1  0  0  0  0
  7  8  1  0  0  0  0
  7 17  1  0  0  0  0
  8 18  1  0  0  0  0
  8 15  1  0  0  0  0
  8  9  1  0  0  0  0
  9 10  1  0  0  0  0
 10 19  1  0  0  0  0
 10 11  1  0  0  0  0
 10 13  1  0  0  0  0
 11 12  1  0  0  0  0
 11 24  1  0  0  0  0
 11 25  1  0  0  0  0
 12 26  1  0  0  0  0
 13 20  1  0  0  0  0
 13 14  1  0  0  0  0
 13 15  1  0  0  0  0
 14 27  1  0  0  0  0
 15 21  1  0  0  0  0
 15 16  1  0  0  0  0
 16 28  1  0  0  0  0
M  CHG  1   1  -1
M  END
> <s_m_source_file>
AV-unprocessed.smi

> <i_m_source_file_index>
160

> <i_lp_mmshare_version>
43012

> <i_f3d_flags>
0

> <s_epik_input>
W05IMl1DKD1PKWMxbltjSF1uKG4xKVtDQEBIXTJPW0NASF0oW0NIMl1bT0hdKVtDQEBIXShbT0hdKVtDQEhdMltPSF0=

> <s_epik_cmdline>
J2VwaWtfcHl0aG9uJywgJy1waCcsICc3LjAnLCAnLXRuJywgJzgnLCAnLW1hJywgJzIwMCcsICctbWV0YWxfYmluZGluZycsICctaW1hZScsICc8aW5maWxlLm1hZT4nLCAnLW9tYWUnLCAnPG91dGZpbGUubWFlPic=

> <r_lp_tautomer_probability>
1

> <r_epik_Ionization_Penalty>
6.6993

> <r_epik_Ionization_Penalty_Charging>
6.6993

> <r_epik_Ionization_Penalty_Neutral>
6.01698e-06

> <r_epik_State_Penalty>
6.69929

> <r_epik_Charging_Adjusted_Penalty>
13.3986

> <i_epik_Tot_Q>
-1

> <i_epik_Tot_abs_Q>
1

> <r_epik_Metal_State_Penalty>
2.62798

> <b_epik_Metal_Only>
1

> <s_epik_Chemistry_Notes>
This compound contains an acetal/aminal-like group ( X-CH(R)-Y where X, Y are N, S, or O) that may be acid/base labile, releasing an aldehyde.

> <s_lp_Force_Field>
OPLS_2005

> <r_lp_Energy>
45.7221

> <b_lp_Chiralities_Consistent>
1

> <s_lp_Variant>
AV-unprocessed.smi:160-30

> <Gold.Version>
5.8.1

> <Gold.Id.Protein>
6NUR|6NUR_protein|mol2

> <Gold.PLP.Fitness>
46.4390

> <Gold.PLP.PLP>
-24.6463

> <Gold.PLP.part.hbond>
-8.3534

> <Gold.PLP.part.metal>
0.0000

> <Gold.PLP.part.buried>
-2.5745

> <Gold.PLP.part.nonpolar>
-13.5485

> <Gold.PLP.part.repulsive>
0.0469

> <Gold.PLP.ligand.clash>
0.0000

> <Gold.PLP.ligand.torsion>
0.1628

> <Gold.PLP.Chemscore.Hbond>
7.3625

> <Gold.PLP.Chemscore.CHOScore>
0.0000

> <Gold.PLP.Chemscore.Metal>
0.0000

> <Gold.Chemscore.Hbonds>
donor molecule, donor type, donor heavy atom, donor atom, acceptor molecule, acceptor atom, score
      L1  H    12    26       P1  7957  1.00
      L1  H    14    27       P1  8028  1.00
      L1  H    16    28       P1  8028  1.00
      P1  H  6896  6908       L1     1  1.89
      P1  H  7989  7998       L1     9  1.00
      P1  H  7997  8010       L1    17  0.19
      P1  H 10752 10765       L1     3  1.00

> <Gold.PLP.Chemscore.Internal.Correction>
0.0307

> <Gold.Rescore>
     Score         DG    S(hbond)    S(metal)    S(lipo)     H(rot)  DE(clash)    DE(int)     intcor
     15.15     -15.41       5.28        0.00      22.49       4.04       0.04       0.22       ----

> <Gold.Chemscore.Fitness>
15.1513

> <Gold.Chemscore.DG>
-15.4079

> <Gold.Chemscore.ZeroCoef>
-5.4800

> <Gold.Chemscore.Hbond>
5.2813

> <Gold.Chemscore.Metal>
0.0000

> <Gold.Chemscore.Lipo>
22.4904

> <Gold.Chemscore.Internal_Hbond>
0.0000

> <Gold.Chemscore.DEClash>
0.0354

> <Gold.Chemscore.DEInternal>
0.2212

> <Gold.Chemscore.Rot>
4.0403

> <Gold.Chemscore.Internal.Correction>
   9.000000E+99

> <Gold.Chemscore.Hbonds>
donor molecule, donor type, donor heavy atom, donor atom, acceptor molecule, acceptor atom, score
      L1  H    12    26       P1  7957  0.70
      L1  H    14    27       P1  8028  0.92
      L1  H    16    28       P1  8028  0.95
      P1  H  6896  6908       L1     1  0.75
      P1  H  7989  7998       L1     9  0.54
      P1  H  7997  8010       L1    17  0.01
      P1  H  8011  8017       L1    14  0.01
      P1  H 10752 10765       L1     3  0.98

> <Gold.Chemscore.Hbond.Weighted>
-17.6396

> <Gold.Chemscore.Metal.Weighted>
-0.0000

> <Gold.Chemscore.Lipo.Weighted>
-2.6314

> <Gold.Chemscore.Internal_Hbond.Weighted>
0.0000

> <Gold.Chemscore.DEClash.Weighted>
0.0354

> <Gold.Chemscore.DEInternal.Weighted>
0.2212

> <Gold.Chemscore.Rot.Weighted>
10.3431

> <Gold.Chemscore.Internal.Correction.Weighted>
   9.000000E+99

> <Gold.Protein.RotatedTorsions>
[ 6907 6896 6895 6894 ] final  -60.15 input  -60.11 | X-H torsion
[ 7974 7965 7964 7962 ] final  133.81 input  175.53 | X-H torsion
[ 8008 7997 7996 7995 ] final   48.33 input   59.86 | X-H torsion
[ 10167 10162 10161 10158 ] final  -51.85 input  -65.29 | X-H torsion
[ 10718 10713 10712 10709 ] final  -72.99 input   66.30 | X-H torsion
[ 10763 10752 10751 10750 ] final  -95.50 input  -60.55 | X-H torsion
[ 11005 11000 10999 10996 ] final  -50.95 input  -57.11 | X-H torsion

> <Gold.Protein.ActiveResidues>
 VAL166  LYS551  ARG553  GLY616  TRP617  ASP618  TYR619  PRO620  LYS621  CYS622 
 ASP623  PHE694  ASN695  SER759  ASP760  ASP761  ALA762  ILE779  LEU786  VAL792 
 PHE793  MET794  SER795  GLU796  ALA797  LYS798  CYS799  TRP800  GLU811  SER814 

> <Gold.Protein.RotatedAtoms>
  150.7878  134.6876  159.6478 H   0  0  0  0  0  0  0  0  0  0  0  0  # atno 6907 bound_to 6896
  152.3977  134.6335  160.0091 H   0  0  0  0  0  0  0  0  0  0  0  0  # atno 6908 bound_to 6896
  151.6615  133.3280  159.3211 H   0  0  0  0  0  0  0  0  0  0  0  0  # atno 6909 bound_to 6896
  144.9827  139.4487  143.5378 H   0  0  0  0  0  0  0  0  0  0  0  0  # atno 7974 bound_to 7965
  155.3839  140.3430  155.4248 H   0  0  0  0  0  0  0  0  0  0  0  0  # atno 8008 bound_to 7997
  156.1595  140.1596  156.8669 H   0  0  0  0  0  0  0  0  0  0  0  0  # atno 8009 bound_to 7997
  154.5126  140.0786  156.8002 H   0  0  0  0  0  0  0  0  0  0  0  0  # atno 8010 bound_to 7997
  140.6567  143.2605  151.4563 H   0  0  0  0  0  0  0  0  0  0  0  0  # atno 10167 bound_to 10162
  156.0298  130.4384  150.2675 H   0  0  0  0  0  0  0  0  0  0  0  0  # atno 10718 bound_to 10713
  154.7154  135.5118  153.8729 H   0  0  0  0  0  0  0  0  0  0  0  0  # atno 10763 bound_to 10752
  153.0816  135.6633  154.0043 H   0  0  0  0  0  0  0  0  0  0  0  0  # atno 10764 bound_to 10752
  153.9877  135.3023  155.3394 H   0  0  0  0  0  0  0  0  0  0  0  0  # atno 10765 bound_to 10752
  141.0844  133.6646  156.3807 H   0  0  0  0  0  0  0  0  0  0  0  0  # atno 11005 bound_to 11000
  146.3412  139.9110  142.8780 LP  0  0  0  0  0  0  0  0  0  0  0  0  # atno 17320 bound_to 7965
  145.2397  141.0005  143.3943 LP  0  0  0  0  0  0  0  0  0  0  0  0  # atno 17321 bound_to 7965
  139.5792  144.1749  152.1945 LP  0  0  0  0  0  0  0  0  0  0  0  0  # atno 17342 bound_to 10162
  140.1069  144.5491  150.6951 LP  0  0  0  0  0  0  0  0  0  0  0  0  # atno 17343 bound_to 10162
  157.0778  131.0135  151.3167 LP  0  0  0  0  0  0  0  0  0  0  0  0  # atno 17370 bound_to 10713
  157.4951  130.7845  149.7547 LP  0  0  0  0  0  0  0  0  0  0  0  0  # atno 17371 bound_to 10713
  140.5395  134.6134  157.5375 LP  0  0  0  0  0  0  0  0  0  0  0  0  # atno 17394 bound_to 11000
  139.9661  134.7370  156.0135 LP  0  0  0  0  0  0  0  0  0  0  0  0  # atno 17395 bound_to 11000

$$$$
