AV-unprocessed.smi:549|AV-procd|sdf|2893|dock4
  -GOLD-   2262023383D 1   1.00000     0.00000
 Structure written by MMmdl.
 44 45  0  0  0  0  0  0  0  0  2 V2000
  144.9154  132.6864  150.6084 C   0  0  0  0  0  0  0  0  0  0  0  0
  144.2071  132.8891  151.8608 N   0  0  0  0  0  0  0  0  0  0  0  0
  143.9023  134.1823  152.3046 C   0  0  0  0  0  0  0  0  0  0  0  0
  144.2361  135.3653  151.6042 C   0  0  0  0  0  0  0  0  0  0  0  0
  143.8760  136.6158  152.1473 C   0  0  0  0  0  0  0  0  0  0  0  0
  143.1964  136.6766  153.3828 C   0  0  0  0  0  0  0  0  0  0  0  0
  142.8430  137.9606  153.8808 N   0  0  0  0  0  0  0  0  0  0  0  0
  142.0210  138.2694  154.8989 C   0  0  0  0  0  0  0  0  0  0  0  0
  141.4438  137.4560  155.6197 O   0  0  0  0  0  0  0  0  0  0  0  0
  141.9156  139.5971  155.0529 N   0  0  0  0  0  0  0  0  0  0  0  0
  141.1043  140.2624  156.0687 C   0  0  0  0  0  0  0  0  0  0  0  0
  139.9824  141.0673  155.3967 C   0  0  0  0  0  0  0  0  0  0  0  0
  139.1385  141.8277  156.4350 C   0  0  0  0  0  0  0  0  0  0  0  0
  139.9782  142.6737  157.3069 N   0  0  0  0  0  0  0  0  0  0  0  0
  140.0767  144.3878  157.0218 S   0  0  0  0  0  0  0  0  0  0  0  0
  138.3267  144.9524  157.0705 C   0  0  0  0  0  0  0  0  0  0  0  0
  140.7855  144.9930  158.1598 O   0  0  0  0  0  0  0  0  0  0  0  0
  140.5855  144.5881  155.6562 O   0  0  0  0  0  0  0  0  0  0  0  0
  141.1031  141.9675  157.9527 C   0  0  0  0  0  0  0  0  0  0  0  0
  141.9622  141.2074  156.9272 C   0  0  0  0  0  0  0  0  0  0  0  0
  142.8806  135.4591  154.0342 C   0  0  0  0  0  0  0  0  0  0  0  0
  143.2422  134.2821  153.4788 N   0  3  0  0  0  0  0  0  0  0  0  0
  145.0531  131.6201  150.4292 H   0  0  0  0  0  0  0  0  0  0  0  0
  145.8988  133.1564  150.6394 H   0  0  0  0  0  0  0  0  0  0  0  0
  144.3518  133.1012  149.7723 H   0  0  0  0  0  0  0  0  0  0  0  0
  143.9590  132.0861  152.4208 H   0  0  0  0  0  0  0  0  0  0  0  0
  144.7595  135.3322  150.6602 H   0  0  0  0  0  0  0  0  0  0  0  0
  144.1260  137.5227  151.6159 H   0  0  0  0  0  0  0  0  0  0  0  0
  143.2982  138.7404  153.4292 H   0  0  0  0  0  0  0  0  0  0  0  0
  142.4283  140.1936  154.4201 H   0  0  0  0  0  0  0  0  0  0  0  0
  140.6479  139.5078  156.7126 H   0  0  0  0  0  0  0  0  0  0  0  0
  140.4063  141.7681  154.6782 H   0  0  0  0  0  0  0  0  0  0  0  0
  139.3367  140.3995  154.8252 H   0  0  0  0  0  0  0  0  0  0  0  0
  138.3783  142.4301  155.9383 H   0  0  0  0  0  0  0  0  0  0  0  0
  138.6028  141.1140  157.0621 H   0  0  0  0  0  0  0  0  0  0  0  0
  138.2959  146.0274  156.8946 H   0  0  0  0  0  0  0  0  0  0  0  0
  137.8958  144.7426  158.0478 H   0  0  0  0  0  0  0  0  0  0  0  0
  137.7530  144.4516  156.2929 H   0  0  0  0  0  0  0  0  0  0  0  0
  141.7175  142.6677  158.5180 H   0  0  0  0  0  0  0  0  0  0  0  0
  140.6952  141.2626  158.6782 H   0  0  0  0  0  0  0  0  0  0  0  0
  142.7320  140.6423  157.4538 H   0  0  0  0  0  0  0  0  0  0  0  0
  142.4901  141.9136  156.2871 H   0  0  0  0  0  0  0  0  0  0  0  0
  142.3453  135.3702  154.9672 H   0  0  0  0  0  0  0  0  0  0  0  0
  142.9999  133.4237  153.9744 H   0  0  0  0  0  0  0  0  0  0  0  0
  1  2  1  0  0  0  0
  1 23  1  0  0  0  0
  1 24  1  0  0  0  0
  1 25  1  0  0  0  0
  2  3  1  0  0  0  0
  2 26  1  0  0  0  0
  3 22  1  0  0  0  0
  3  4  2  0  0  0  0
  4  5  1  0  0  0  0
  4 27  1  0  0  0  0
  5  6  2  0  0  0  0
  5 28  1  0  0  0  0
  6  7  1  0  0  0  0
  6 21  1  0  0  0  0
  7  8  1  0  0  0  0
  7 29  1  0  0  0  0
  8  9  2  0  0  0  0
  8 10  1  0  0  0  0
 10 11  1  0  0  0  0
 10 30  1  0  0  0  0
 11 20  1  0  0  0  0
 11 12  1  0  0  0  0
 11 31  1  0  0  0  0
 12 13  1  0  0  0  0
 12 32  1  0  0  0  0
 12 33  1  0  0  0  0
 13 14  1  0  0  0  0
 13 34  1  0  0  0  0
 13 35  1  0  0  0  0
 14 15  1  0  0  0  0
 14 19  1  0  0  0  0
 15 16  1  0  0  0  0
 15 17  2  0  0  0  0
 15 18  2  0  0  0  0
 16 36  1  0  0  0  0
 16 37  1  0  0  0  0
 16 38  1  0  0  0  0
 19 20  1  0  0  0  0
 19 39  1  0  0  0  0
 19 40  1  0  0  0  0
 20 41  1  0  0  0  0
 20 42  1  0  0  0  0
 21 22  2  0  0  0  0
 21 43  1  0  0  0  0
 22 44  1  0  0  0  0
M  CHG  1  22   1
M  END
> <s_m_source_file>
AV-unprocessed.smi

> <i_m_source_file_index>
549

> <i_lp_mmshare_version>
43012

> <i_f3d_flags>
0

> <s_epik_input>
W0NIM11bTkhdYzFbY0hdW2NIXWMoW2NIXW4xKVtOSF1DKD1PKVtOSF1bQ0hdMltDSDJdW0NIMl1OKFMoPU8pKD1PKVtDSDNdKVtDSDJdW0NIMl0y

> <s_epik_cmdline>
J2VwaWtfcHl0aG9uJywgJy1waCcsICc3LjAnLCAnLXRuJywgJzgnLCAnLW1hJywgJzIwMCcsICctbWV0YWxfYmluZGluZycsICctaW1hZScsICc8aW5maWxlLm1hZT4nLCAnLW9tYWUnLCAnPG91dGZpbGUubWFlPic=

> <r_lp_tautomer_probability>
0.999994

> <r_epik_Ionization_Penalty>
0.450019

> <r_epik_Ionization_Penalty_Charging>
0.449999

> <r_epik_Ionization_Penalty_Neutral>
1.96337e-05

> <r_epik_State_Penalty>
0.452724

> <r_epik_Charging_Adjusted_Penalty>
0.902724

> <i_epik_Tot_Q>
1

> <i_epik_Tot_abs_Q>
1

> <r_epik_Metal_State_Penalty>
0.680753

> <b_epik_Metal_Only>
0

> <s_lp_Force_Field>
OPLS_2005

> <r_lp_Energy>
8.99887

> <b_lp_Chiralities_Consistent>
1

> <s_lp_Variant>
AV-unprocessed.smi:549-2

> <Gold.Version>
5.8.1

> <Gold.Id.Protein>
6NUR|6NUR_protein|mol2

> <Gold.PLP.Fitness>
41.1135

> <Gold.PLP.PLP>
-26.4185

> <Gold.PLP.part.hbond>
-4.0664

> <Gold.PLP.part.metal>
0.0000

> <Gold.PLP.part.buried>
-3.2735

> <Gold.PLP.part.nonpolar>
-19.3417

> <Gold.PLP.part.repulsive>
0.1832

> <Gold.PLP.ligand.clash>
0.0000

> <Gold.PLP.ligand.torsion>
1.1790

> <Gold.PLP.Chemscore.Hbond>
5.0000

> <Gold.PLP.Chemscore.CHOScore>
0.0000

> <Gold.PLP.Chemscore.Metal>
0.0000

> <Gold.Chemscore.Hbonds>
donor molecule, donor type, donor heavy atom, donor atom, acceptor molecule, acceptor atom, score
      L1  H     7    29       P1 10175  1.00
      L1  H    10    30       P1 10175  0.42
      L1  H    22    44       P1 10957  2.00

> <Gold.PLP.Chemscore.Internal.Correction>
2.0528

> <Gold.Rescore>
     Score         DG    S(hbond)    S(metal)    S(lipo)     H(rot)  DE(clash)    DE(int)     intcor
     18.08     -20.51       3.80        0.00      41.91       1.00       0.10       2.34       ----

> <Gold.Chemscore.Fitness>
18.0754

> <Gold.Chemscore.DG>
-20.5125

> <Gold.Chemscore.ZeroCoef>
-5.4800

> <Gold.Chemscore.Hbond>
3.7991

> <Gold.Chemscore.Metal>
0.0000

> <Gold.Chemscore.Lipo>
41.9115

> <Gold.Chemscore.Internal_Hbond>
0.0000

> <Gold.Chemscore.DEClash>
0.0998

> <Gold.Chemscore.DEInternal>
2.3373

> <Gold.Chemscore.Rot>
1.0000

> <Gold.Chemscore.Internal.Correction>
   9.000000E+99

> <Gold.Chemscore.Hbonds>
donor molecule, donor type, donor heavy atom, donor atom, acceptor molecule, acceptor atom, score
      L1  H     7    29       P1 10175  0.98
      L1  H    10    30       P1 10175  0.37
      L1  H    22    44       P1 10957  1.00

> <Gold.Chemscore.Hbond.Weighted>
-12.6889

> <Gold.Chemscore.Metal.Weighted>
-0.0000

> <Gold.Chemscore.Lipo.Weighted>
-4.9036

> <Gold.Chemscore.Internal_Hbond.Weighted>
0.0000

> <Gold.Chemscore.DEClash.Weighted>
0.0998

> <Gold.Chemscore.DEInternal.Weighted>
2.3373

> <Gold.Chemscore.Rot.Weighted>
2.5600

> <Gold.Chemscore.Internal.Correction.Weighted>
   9.000000E+99

> <Gold.Protein.RotatedTorsions>
[ 6907 6896 6895 6894 ] final  -31.90 input  -60.11 | X-H torsion
[ 7974 7965 7964 7962 ] final  100.21 input  175.53 | X-H torsion
[ 8008 7997 7996 7995 ] final   81.81 input   59.86 | X-H torsion
[ 10167 10162 10161 10158 ] final -151.52 input  -65.29 | X-H torsion
[ 10718 10713 10712 10709 ] final  144.69 input   66.30 | X-H torsion
[ 10763 10752 10751 10750 ] final -130.97 input  -60.55 | X-H torsion
[ 11005 11000 10999 10996 ] final  -89.73 input  -57.11 | X-H torsion

> <Gold.Protein.ActiveResidues>
 VAL166  LYS551  ARG553  GLY616  TRP617  ASP618  TYR619  PRO620  LYS621  CYS622 
 ASP623  PHE694  ASN695  SER759  ASP760  ASP761  ALA762  ILE779  LEU786  VAL792 
 PHE793  MET794  SER795  GLU796  ALA797  LYS798  CYS799  TRP800  GLU811  SER814 

> <Gold.Protein.RotatedAtoms>
  151.0859  134.9886  159.8378 H   0  0  0  0  0  0  0  0  0  0  0  0  # atno 6907 bound_to 6896
  152.5424  134.2125  159.8765 H   0  0  0  0  0  0  0  0  0  0  0  0  # atno 6908 bound_to 6896
  151.2158  133.4486  159.2633 H   0  0  0  0  0  0  0  0  0  0  0  0  # atno 6909 bound_to 6896
  145.3886  139.2367  143.3364 H   0  0  0  0  0  0  0  0  0  0  0  0  # atno 7974 bound_to 7965
  155.9022  140.3432  155.6035 H   0  0  0  0  0  0  0  0  0  0  0  0  # atno 8008 bound_to 7997
  155.7487  140.0817  157.2230 H   0  0  0  0  0  0  0  0  0  0  0  0  # atno 8009 bound_to 7997
  154.4045  140.1557  156.2686 H   0  0  0  0  0  0  0  0  0  0  0  0  # atno 8010 bound_to 7997
  139.7260  143.8882  152.2519 H   0  0  0  0  0  0  0  0  0  0  0  0  # atno 10167 bound_to 10162
  157.3542  131.0955  151.0973 H   0  0  0  0  0  0  0  0  0  0  0  0  # atno 10718 bound_to 10713
  154.8753  135.3845  154.4170 H   0  0  0  0  0  0  0  0  0  0  0  0  # atno 10763 bound_to 10752
  153.4878  135.7030  153.5906 H   0  0  0  0  0  0  0  0  0  0  0  0  # atno 10764 bound_to 10752
  153.4294  135.3882  155.2128 H   0  0  0  0  0  0  0  0  0  0  0  0  # atno 10765 bound_to 10752
  141.1579  133.7648  156.9636 H   0  0  0  0  0  0  0  0  0  0  0  0  # atno 11005 bound_to 11000
  146.2808  140.4565  142.8777 LP  0  0  0  0  0  0  0  0  0  0  0  0  # atno 17320 bound_to 7965
  144.8456  140.6924  143.6201 LP  0  0  0  0  0  0  0  0  0  0  0  0  # atno 17321 bound_to 7965
  139.8791  144.7027  150.8898 LP  0  0  0  0  0  0  0  0  0  0  0  0  # atno 17342 bound_to 10162
  140.7763  143.3675  151.1711 LP  0  0  0  0  0  0  0  0  0  0  0  0  # atno 17343 bound_to 10162
  157.2137  130.6449  149.5784 LP  0  0  0  0  0  0  0  0  0  0  0  0  # atno 17370 bound_to 10713
  155.9726  130.4651  150.6243 LP  0  0  0  0  0  0  0  0  0  0  0  0  # atno 17371 bound_to 10713
  140.1176  134.9437  157.2157 LP  0  0  0  0  0  0  0  0  0  0  0  0  # atno 17394 bound_to 11000
  140.3113  134.3020  155.7266 LP  0  0  0  0  0  0  0  0  0  0  0  0  # atno 17395 bound_to 11000

$$$$
