#       Name:                AV-unprocessed.smi:500
#       Creating user name   scv26
#       Creation time:       Thu Mar 26 23:20:08 2020


#       File generated by GOLD software.
#

@<TRIPOS>MOLECULE
AV-unprocessed.smi:500
    52    54     1
SMALL
NO_CHARGES


@<TRIPOS>ATOM
      1 ****        -3.4562   2.7922  -2.1201 C.3            1 S1                 0.0000
      2 ****        -2.0550   2.3688  -1.6586 C.3            1 S1                 0.0000
      3 ****        -1.8396   0.9739  -1.8204 O.3            1 S1                 0.0000
      4 ****        -2.5026   0.1634  -0.8600 C.3            1 S1                 0.0000
      5 ****        -2.0208  -1.2890  -0.9877 C.3            1 S1                 0.0000
      6 ****        -0.5530  -1.4049  -0.8556 N.pl3          1 S1                 0.0000
      7 ****         0.2543  -1.4896   0.2510 C.2            1 S1                 0.0000
      8 ****        -0.1394  -1.4826   1.7067 C.3            1 S1                 0.0000
      9 ****         0.0148  -2.8868   2.3068 C.3            1 S1                 0.0000
     10 ****         0.6670  -0.5378   2.4814 N.pl3          1 S1                -1.0000
     11 ****         0.5286   0.8176   2.4168 C.2            1 S1                 0.0000
     12 ****        -0.2313   1.5004   1.7215 O.2            1 S1                 0.0000
     13 ****         1.4840   1.5179   3.3056 C.2            1 S1                 0.0000
     14 ****         2.3124   1.0664   4.3019 C.2            1 S1                 0.0000
     15 ****         2.9878   2.2045   4.8229 C.2            1 S1                 0.0000
     16 ****         2.5203   3.2735   4.1149 C.2            1 S1                 0.0000
     17 ****         1.6031   2.8740   3.1929 O.3            1 S1                 0.0000
     18 ****         1.5389  -1.5715  -0.2004 N.pl3          1 S1                 1.0000
     19 ****         1.5642  -1.5213  -1.5920 C.ar           1 S1                 0.0000
     20 ****         2.6322  -1.5585  -2.4828 C.ar           1 S1                 0.0000
     21 ****         2.3153  -1.4738  -3.8539 C.ar           1 S1                 0.0000
     22 ****         0.9805  -1.3555  -4.2916 C.ar           1 S1                 0.0000
     23 ****        -0.0932  -1.3202  -3.3777 C.ar           1 S1                 0.0000
     24 ****         0.2267  -1.4088  -2.0219 C.ar           1 S1                 0.0000
     25 ****        -3.5635   3.8763  -2.0786 H              1 S1                 0.0000
     26 ****        -4.2363   2.3642  -1.4910 H              1 S1                 0.0000
     27 ****        -3.6406   2.4787  -3.1480 H              1 S1                 0.0000
     28 ****        -1.3126   2.8855  -2.2669 H              1 S1                 0.0000
     29 ****        -1.8728   2.6734  -0.6269 H              1 S1                 0.0000
     30 ****        -2.2967   0.5278   0.1469 H              1 S1                 0.0000
     31 ****        -3.5819   0.2048  -1.0043 H              1 S1                 0.0000
     32 ****        -2.4827  -1.9078  -0.2181 H              1 S1                 0.0000
     33 ****        -2.3357  -1.7192  -1.9377 H              1 S1                 0.0000
     34 ****        -1.1970  -1.2228   1.7629 H              1 S1                 0.0000
     35 ****        -0.5978  -3.6097   1.7670 H              1 S1                 0.0000
     36 ****        -0.3004  -2.9057   3.3507 H              1 S1                 0.0000
     37 ****         1.0490  -3.2311   2.2652 H              1 S1                 0.0000
     38 ****         2.4201   0.0391   4.6177 H              1 S1                 0.0000
     39 ****         3.7199   2.2364   5.6160 H              1 S1                 0.0000
     40 ****         2.7203   4.3345   4.1371 H              1 S1                 0.0000
     41 ****         3.6551  -1.6430  -2.1465 H              1 S1                 0.0000
     42 ****         3.1119  -1.4961  -4.5834 H              1 S1                 0.0000
     43 ****         0.7750  -1.2874  -5.3499 H              1 S1                 0.0000
     44 ****        -1.1096  -1.2195  -3.7277 H              1 S1                 0.0000
     45 ****         2.3374  -1.6319   0.4180 H              1 S1                 0.0000
     46 ****        -0.8573   0.7990  -1.7530 LP             1 S1                 0.0000
     47 ****        -2.1634   0.7106  -2.7292 LP             1 S1                 0.0000
     48 ****         1.3627  -0.9092   3.0962 LP             1 S1                 0.0000
     49 ****        -0.8660   1.0556   1.0896 LP             1 S1                 0.0000
     50 ****        -0.2115   2.4978   1.7907 LP             1 S1                 0.0000
     51 ****         0.7223   3.3118   3.3733 LP             1 S1                 0.0000
     52 ****         1.9133   3.1158   2.2734 LP             1 S1                 0.0000
@<TRIPOS>BOND
    1    1    2 1     
    2    1   25 1     
    3    1   26 1     
    4    1   27 1     
    5    2    3 1     
    6    2   28 1     
    7    2   29 1     
    8    3    4 1     
    9    4    5 1     
   10    4   30 1     
   11    4   31 1     
   12    5    6 1     
   13    5   32 1     
   14    5   33 1     
   15    6   24 1     
   16    6    7 1     
   17    7    8 1     
   18    7   18 2     
   19    8    9 1     
   20    8   10 1     
   21    8   34 1     
   22    9   35 1     
   23    9   36 1     
   24    9   37 1     
   25   10   11 1     
   26   11   12 2     
   27   11   13 1     
   28   13   17 1     
   29   13   14 2     
   30   14   15 1     
   31   14   38 1     
   32   15   16 2     
   33   15   39 1     
   34   16   17 1     
   35   16   40 1     
   36   18   19 1     
   37   18   45 1     
   38   19   24 ar    
   39   19   20 ar    
   40   20   21 ar    
   41   20   41 1     
   42   21   22 ar    
   43   21   42 1     
   44   22   23 ar    
   45   22   43 1     
   46   23   24 ar    
   47   23   44 1     
   48    3   46 1     
   49    3   47 1     
   50   10   48 1     
   51   12   49 1     
   52   12   50 1     
   53   17   51 1     
   54   17   52 1     
@<TRIPOS>SUBSTRUCTURE
      1 S1             1
@<TRIPOS>SET
LONE_PAIRS      STATIC     ATOMS    <user>   **** ""
7 46 47 48 49 50 51 52
DONOR_HYDROGENS      STATIC     ATOMS    <user>   **** ""
1 45
ATOM$BLUE        STATIC     ATOMS    COLORGROUP SYSTEM
7 46 47 48 49 50 51 52
ATOM$RED        STATIC     ATOMS    COLORGROUP SYSTEM
1 45
