#       Name:                AV-unprocessed.smi:496
#       Creating user name   scv26
#       Creation time:       Thu Mar 26 23:16:16 2020


#       File generated by GOLD software.
#

@<TRIPOS>MOLECULE
AV-unprocessed.smi:496
    49    51     1
SMALL
NO_CHARGES


@<TRIPOS>ATOM
      1 ****        -2.1229   4.8058   1.2512 C.3            1 S1                 0.0000
      2 ****        -2.0879   3.4256   1.5701 O.3            1 S1                 0.0000
      3 ****        -0.8800   2.8059   1.1640 C.3            1 S1                 0.0000
      4 ****        -0.9250   1.3256   1.5626 C.3            1 S1                 0.0000
      5 ****         0.2955   0.6266   1.1868 N.pl3          1 S1                 0.0000
      6 ****         0.6511   0.1269  -0.0267 C.2            1 S1                 0.0000
      7 ****        -0.2245   0.2401  -1.2480 C.3            1 S1                 0.0000
      8 ****         0.3873   1.1502  -2.3231 C.3            1 S1                 0.0000
      9 ****        -0.4232  -1.1097  -1.7699 N.am           1 S1                 0.0000
     10 ****        -1.5866  -1.6269  -2.1943 C.2            1 S1                 0.0000
     11 ****        -2.6452  -0.9990  -2.2143 O.2            1 S1                 0.0000
     12 ****        -1.5347  -3.0306  -2.6446 C.2            1 S1                 0.0000
     13 ****        -0.4895  -3.9109  -2.7489 C.2            1 S1                 0.0000
     14 ****        -1.0309  -5.1293  -3.2442 C.2            1 S1                 0.0000
     15 ****        -2.3676  -4.9062  -3.4096 C.2            1 S1                 0.0000
     16 ****        -2.6898  -3.6338  -3.0505 O.3            1 S1                 0.0000
     17 ****         1.8391  -0.4830  -0.0697 N.2            1 S1                 0.0000
     18 ****         2.3000  -0.3550   1.2247 C.ar           1 S1                 0.0000
     19 ****         3.5075  -0.7906   1.8159 C.ar           1 S1                 0.0000
     20 ****         3.7659  -0.5390   3.1792 C.ar           1 S1                 0.0000
     21 ****         2.8228   0.1502   3.9685 C.ar           1 S1                 0.0000
     22 ****         1.6132   0.5919   3.3987 C.ar           1 S1                 0.0000
     23 ****         1.3591   0.3374   2.0371 C.ar           1 S1                 0.0000
     24 ****        -3.0716   5.2329   1.5759 H              1 S1                 0.0000
     25 ****        -2.0322   4.9650   0.1758 H              1 S1                 0.0000
     26 ****        -1.3207   5.3471   1.7547 H              1 S1                 0.0000
     27 ****        -0.7555   2.9076   0.0851 H              1 S1                 0.0000
     28 ****        -0.0299   3.2956   1.6421 H              1 S1                 0.0000
     29 ****        -1.0591   1.2402   2.6412 H              1 S1                 0.0000
     30 ****        -1.7838   0.8228   1.1185 H              1 S1                 0.0000
     31 ****        -1.1869   0.6662  -0.9711 H              1 S1                 0.0000
     32 ****         0.5453   2.1578  -1.9385 H              1 S1                 0.0000
     33 ****        -0.2690   1.2272  -3.1905 H              1 S1                 0.0000
     34 ****         1.3501   0.7714  -2.6678 H              1 S1                 0.0000
     35 ****         0.3913  -1.7062  -1.7882 H              1 S1                 0.0000
     36 ****         0.5411  -3.7059  -2.4983 H              1 S1                 0.0000
     37 ****        -0.5089  -6.0515  -3.4531 H              1 S1                 0.0000
     38 ****        -3.1930  -5.5116  -3.7541 H              1 S1                 0.0000
     39 ****         4.2369  -1.3180   1.2190 H              1 S1                 0.0000
     40 ****         4.6923  -0.8755   3.6211 H              1 S1                 0.0000
     41 ****         3.0286   0.3398   5.0120 H              1 S1                 0.0000
     42 ****         0.8912   1.1212   4.0026 H              1 S1                 0.0000
     43 ****        -2.8516   2.9710   1.1117 LP             1 S1                 0.0000
     44 ****        -2.1843   3.3226   2.5601 LP             1 S1                 0.0000
     45 ****        -2.6690  -0.0490  -1.9028 LP             1 S1                 0.0000
     46 ****        -3.4813  -1.4388  -2.5421 LP             1 S1                 0.0000
     47 ****        -3.0773  -3.1439  -3.8315 LP             1 S1                 0.0000
     48 ****        -3.3529  -3.6453  -2.3021 LP             1 S1                 0.0000
     49 ****         2.2849  -0.9240  -0.8487 LP             1 S1                 0.0000
@<TRIPOS>BOND
    1    1    2 1     
    2    1   24 1     
    3    1   25 1     
    4    1   26 1     
    5    2    3 1     
    6    3    4 1     
    7    3   27 1     
    8    3   28 1     
    9    4    5 1     
   10    4   29 1     
   11    4   30 1     
   12    5   23 1     
   13    5    6 1     
   14    6    7 1     
   15    6   17 2     
   16    7    8 1     
   17    7    9 1     
   18    7   31 1     
   19    8   32 1     
   20    8   33 1     
   21    8   34 1     
   22    9   10 am    
   23    9   35 1     
   24   10   11 2     
   25   10   12 1     
   26   12   16 1     
   27   12   13 2     
   28   13   14 1     
   29   13   36 1     
   30   14   15 2     
   31   14   37 1     
   32   15   16 1     
   33   15   38 1     
   34   17   18 1     
   35   18   23 ar    
   36   18   19 ar    
   37   19   20 ar    
   38   19   39 1     
   39   20   21 ar    
   40   20   40 1     
   41   21   22 ar    
   42   21   41 1     
   43   22   23 ar    
   44   22   42 1     
   45    2   43 1     
   46    2   44 1     
   47   11   45 1     
   48   11   46 1     
   49   16   47 1     
   50   16   48 1     
   51   17   49 1     
@<TRIPOS>SUBSTRUCTURE
      1 S1             1
@<TRIPOS>SET
LONE_PAIRS      STATIC     ATOMS    <user>   **** ""
7 43 44 45 46 47 48 49
DONOR_HYDROGENS      STATIC     ATOMS    <user>   **** ""
1 35
ATOM$BLUE        STATIC     ATOMS    COLORGROUP SYSTEM
7 43 44 45 46 47 48 49
ATOM$RED        STATIC     ATOMS    COLORGROUP SYSTEM
1 35
