AV-unprocessed.smi:235|AV-procd|sdf|1801|dock4
  -GOLD-   2262020373D 1   1.00000     0.00000
 Structure written by MMmdl.
 54 58  0  0  0  0  0  0  0  0  1 V2000
  145.3770  132.5528  154.3754 O   0  0  0  0  0  0  0  0  0  0  0  0
  145.8617  133.4518  153.6871 C   0  0  0  0  0  0  0  0  0  0  0  0
  147.1608  133.7823  153.7110 N   0  0  0  0  0  0  0  0  0  0  0  0
  148.1638  133.1527  154.5065 C   0  0  0  0  0  0  0  0  0  0  0  0
  147.9122  133.0426  155.9948 C   0  0  0  0  0  0  0  0  0  0  0  0
  148.9328  134.0198  155.4799 C   0  0  0  0  0  0  0  0  0  0  0  0
  144.9762  134.2811  152.7458 C   0  0  2  0  0  0  0  0  0  0  0  0
  144.5298  133.4779  151.5179 C   0  0  0  0  0  0  0  0  0  0  0  0
  144.2168  134.5650  150.4972 C   0  0  0  0  0  0  0  0  0  0  0  0
  145.2735  135.6302  150.7904 C   0  0  0  0  0  0  0  0  0  0  0  0
  145.6860  135.4289  152.1765 N   0  0  0  0  0  0  0  0  0  0  0  0
  145.7172  136.5413  152.9431 C   0  0  0  0  0  0  0  0  0  0  0  0
  145.1227  136.4738  154.1591 N   0  0  0  0  0  0  0  0  0  0  0  0
  145.1193  137.5437  154.9601 C   0  0  0  0  0  0  0  0  0  0  0  0
  145.6425  138.7529  154.7423 N   0  0  0  0  0  0  0  0  0  0  0  0
  146.2414  138.8202  153.5188 C   0  0  0  0  0  0  0  0  0  0  0  0
  146.3267  137.7699  152.5631 C   0  0  0  0  0  0  0  0  0  0  0  0
  147.0129  138.2067  151.4358 N   0  0  0  0  0  0  0  0  0  0  0  0
  147.3131  139.4474  151.7086 C   0  0  0  0  0  0  0  0  0  0  0  0
  146.8899  139.8953  152.9400 N   0  0  0  0  0  0  0  0  0  0  0  0
  147.0910  141.2180  153.5026 C   0  0  0  0  0  0  0  0  0  0  0  0
  147.5584  141.1728  154.9711 C   0  0  2  0  0  0  0  0  0  0  0  0
  147.1550  142.3613  155.6214 O   0  0  0  0  0  0  0  0  0  0  0  0
  149.0762  140.9450  155.1532 C   0  0  2  0  0  0  0  0  0  0  0  0
  149.6194  139.5884  154.6716 C   0  0  0  0  0  0  0  0  0  0  0  0
  150.2614  138.9969  155.9141 C   0  0  0  0  0  0  0  0  0  0  0  0
  150.5667  140.2305  156.7537 C   0  0  0  0  0  0  0  0  0  0  0  0
  149.4367  141.0557  156.5272 O   0  0  0  0  0  0  0  0  0  0  0  0
  147.4640  134.5393  153.1156 H   0  0  0  0  0  0  0  0  0  0  0  0
  148.7200  132.3326  154.0541 H   0  0  0  0  0  0  0  0  0  0  0  0
  146.9814  133.4491  156.3859 H   0  0  0  0  0  0  0  0  0  0  0  0
  148.2801  132.1525  156.5012 H   0  0  0  0  0  0  0  0  0  0  0  0
  149.9824  133.7821  155.6408 H   0  0  0  0  0  0  0  0  0  0  0  0
  148.6834  135.0784  155.5259 H   0  0  0  0  0  0  0  0  0  0  0  0
  144.0913  134.6188  153.2885 H   0  0  0  0  0  0  0  0  0  0  0  0
  145.3382  132.8457  151.1454 H   0  0  0  0  0  0  0  0  0  0  0  0
  143.6698  132.8396  151.7230 H   0  0  0  0  0  0  0  0  0  0  0  0
  144.2461  134.2079  149.4674 H   0  0  0  0  0  0  0  0  0  0  0  0
  143.2219  134.9702  150.6869 H   0  0  0  0  0  0  0  0  0  0  0  0
  146.1479  135.4763  150.1573 H   0  0  0  0  0  0  0  0  0  0  0  0
  144.8958  136.6332  150.5842 H   0  0  0  0  0  0  0  0  0  0  0  0
  144.6265  137.4123  155.9122 H   0  0  0  0  0  0  0  0  0  0  0  0
  147.8617  140.0720  151.0184 H   0  0  0  0  0  0  0  0  0  0  0  0
  147.8206  141.7459  152.8868 H   0  0  0  0  0  0  0  0  0  0  0  0
  146.1553  141.7724  153.4193 H   0  0  0  0  0  0  0  0  0  0  0  0
  147.0365  140.3567  155.4723 H   0  0  0  0  0  0  0  0  0  0  0  0
  147.8400  143.0040  155.5181 H   0  0  0  0  0  0  0  0  0  0  0  0
  149.6191  141.7272  154.6202 H   0  0  0  0  0  0  0  0  0  0  0  0
  148.8562  138.9301  154.2561 H   0  0  0  0  0  0  0  0  0  0  0  0
  150.3707  139.7453  153.8967 H   0  0  0  0  0  0  0  0  0  0  0  0
  149.5430  138.3645  156.4372 H   0  0  0  0  0  0  0  0  0  0  0  0
  151.1465  138.3989  155.6963 H   0  0  0  0  0  0  0  0  0  0  0  0
  150.6930  140.0017  157.8120 H   0  0  0  0  0  0  0  0  0  0  0  0
  151.4662  140.7342  156.3965 H   0  0  0  0  0  0  0  0  0  0  0  0
  1  2  2  0  0  0  0
  2  3  1  0  0  0  0
  2  7  1  0  0  0  0
  3  4  1  0  0  0  0
  3 29  1  0  0  0  0
  4  6  1  0  0  0  0
  4  5  1  0  0  0  0
  4 30  1  0  0  0  0
  5  6  1  0  0  0  0
  5 31  1  0  0  0  0
  5 32  1  0  0  0  0
  6 33  1  0  0  0  0
  6 34  1  0  0  0  0
  7 11  1  0  0  0  0
  7  8  1  0  0  0  0
  7 35  1  0  0  0  0
  8  9  1  0  0  0  0
  8 36  1  0  0  0  0
  8 37  1  0  0  0  0
  9 10  1  0  0  0  0
  9 38  1  0  0  0  0
  9 39  1  0  0  0  0
 10 11  1  0  0  0  0
 10 40  1  0  0  0  0
 10 41  1  0  0  0  0
 11 12  1  0  0  0  0
 12 17  1  0  0  0  0
 12 13  2  0  0  0  0
 13 14  1  0  0  0  0
 14 15  2  0  0  0  0
 14 42  1  0  0  0  0
 15 16  1  0  0  0  0
 16 20  1  0  0  0  0
 16 17  2  0  0  0  0
 17 18  1  0  0  0  0
 18 19  2  0  0  0  0
 19 20  1  0  0  0  0
 19 43  1  0  0  0  0
 20 21  1  0  0  0  0
 21 22  1  0  0  0  0
 21 44  1  0  0  0  0
 21 45  1  0  0  0  0
 22 23  1  0  0  0  0
 22 24  1  0  0  0  0
 22 46  1  0  0  0  0
 23 47  1  0  0  0  0
 24 28  1  0  0  0  0
 24 25  1  0  0  0  0
 24 48  1  0  0  0  0
 25 26  1  0  0  0  0
 25 49  1  0  0  0  0
 25 50  1  0  0  0  0
 26 27  1  0  0  0  0
 26 51  1  0  0  0  0
 26 52  1  0  0  0  0
 27 28  1  0  0  0  0
 27 53  1  0  0  0  0
 27 54  1  0  0  0  0
M  END
> <s_m_source_file>
AV-unprocessed.smi

> <i_m_source_file_index>
235

> <i_lp_mmshare_version>
43012

> <i_f3d_flags>
0

> <s_epik_input>
W0NIMl0xW0NIMl1bQ0hdMVtOSF1DKD1PKVtDQEBIXTJbQ0gyXVtDSDJdW0NIMl1OMmMobltjSF1uMyljKGMzNCluW2NIXW40W0NIMl1bQ0BIXShbT0hdKVtDQEBIXTVbQ0gyXVtDSDJdW0NIMl1PNQ==

> <s_epik_cmdline>
J2VwaWtfcHl0aG9uJywgJy1waCcsICc3LjAnLCAnLXRuJywgJzgnLCAnLW1hJywgJzIwMCcsICctbWV0YWxfYmluZGluZycsICctaW1hZScsICc8aW5maWxlLm1hZT4nLCAnLW9tYWUnLCAnPG91dGZpbGUubWFlPic=

> <r_lp_tautomer_probability>
1

> <r_epik_Ionization_Penalty>
0.000526714

> <r_epik_Ionization_Penalty_Charging>
0

> <r_epik_Ionization_Penalty_Neutral>
0.000526714

> <r_epik_State_Penalty>
0.000272704

> <r_epik_Charging_Adjusted_Penalty>
0.000272704

> <i_epik_Tot_Q>
0

> <i_epik_Tot_abs_Q>
0

> <r_epik_Metal_State_Penalty>
-0

> <b_epik_Metal_Only>
0

> <s_lp_Force_Field>
OPLS_2005

> <r_lp_Energy>
63.4887

> <b_lp_Chiralities_Consistent>
1

> <s_lp_Variant>
AV-unprocessed.smi:235-1

> <Gold.Version>
5.8.1

> <Gold.Id.Protein>
6NUR|6NUR_protein|mol2

> <Gold.PLP.Fitness>
48.7572

> <Gold.PLP.PLP>
-40.1708

> <Gold.PLP.part.hbond>
-3.0000

> <Gold.PLP.part.metal>
0.0000

> <Gold.PLP.part.buried>
3.5645

> <Gold.PLP.part.nonpolar>
-42.3890

> <Gold.PLP.part.repulsive>
1.1279

> <Gold.PLP.ligand.clash>
0.0000

> <Gold.PLP.ligand.torsion>
0.8689

> <Gold.PLP.Chemscore.Hbond>
3.0000

> <Gold.PLP.Chemscore.CHOScore>
0.3586

> <Gold.PLP.Chemscore.Metal>
0.0000

> <Gold.Chemscore.Hbonds>
donor molecule, donor type, donor heavy atom, donor atom, acceptor molecule, acceptor atom, score
      L1  H    23    47       P1  8028  1.00
      P1  H  7954  7966       L1    18  1.00
      L1  C    19    43       P1  7957  0.12

> <Gold.PLP.Chemscore.Internal.Correction>
0.2484

> <Gold.Rescore>
     Score         DG    S(hbond)    S(metal)    S(lipo)     H(rot)  DE(clash)    DE(int)     intcor
     11.76     -16.01       2.48        0.00      84.66       3.00       2.41       1.84       ----

> <Gold.Chemscore.Fitness>
11.7574

> <Gold.Chemscore.DG>
-16.0072

> <Gold.Chemscore.ZeroCoef>
-5.4800

> <Gold.Chemscore.Hbond>
2.4848

> <Gold.Chemscore.Metal>
0.0000

> <Gold.Chemscore.Lipo>
84.6581

> <Gold.Chemscore.Internal_Hbond>
0.0000

> <Gold.Chemscore.DEClash>
2.4124

> <Gold.Chemscore.DEInternal>
1.8373

> <Gold.Chemscore.Rot>
2.9989

> <Gold.Chemscore.Internal.Correction>
   9.000000E+99

> <Gold.Chemscore.Hbonds>
donor molecule, donor type, donor heavy atom, donor atom, acceptor molecule, acceptor atom, score
      L1  H    23    47       P1  8028  0.63
      P1  H  7954  7966       L1    18  0.30

> <Gold.Chemscore.Hbond.Weighted>
-8.2994

> <Gold.Chemscore.Metal.Weighted>
-0.0000

> <Gold.Chemscore.Lipo.Weighted>
-9.9050

> <Gold.Chemscore.Internal_Hbond.Weighted>
0.0000

> <Gold.Chemscore.DEClash.Weighted>
2.4124

> <Gold.Chemscore.DEInternal.Weighted>
1.8373

> <Gold.Chemscore.Rot.Weighted>
7.6772

> <Gold.Chemscore.Internal.Correction.Weighted>
   9.000000E+99

> <Gold.Protein.RotatedTorsions>
[ 6907 6896 6895 6894 ] final   98.01 input  -60.11 | X-H torsion
[ 7974 7965 7964 7962 ] final -162.57 input  175.53 | X-H torsion
[ 8008 7997 7996 7995 ] final    4.59 input   59.86 | X-H torsion
[ 10167 10162 10161 10158 ] final   27.69 input  -65.29 | X-H torsion
[ 10718 10713 10712 10709 ] final   87.29 input   66.30 | X-H torsion
[ 10763 10752 10751 10750 ] final   76.92 input  -60.55 | X-H torsion
[ 11005 11000 10999 10996 ] final -176.26 input  -57.11 | X-H torsion

> <Gold.Protein.ActiveResidues>
 VAL166  LYS551  ARG553  GLY616  TRP617  ASP618  TYR619  PRO620  LYS621  CYS622 
 ASP623  PHE694  ASN695  SER759  ASP760  ASP761  ALA762  ILE779  LEU786  VAL792 
 PHE793  MET794  SER795  GLU796  ALA797  LYS798  CYS799  TRP800  GLU811  SER814 

> <Gold.Protein.RotatedAtoms>
  152.5415  134.0645  159.8166 H   0  0  0  0  0  0  0  0  0  0  0  0  # atno 6907 bound_to 6896
  151.0768  133.5414  159.2630 H   0  0  0  0  0  0  0  0  0  0  0  0  # atno 6908 bound_to 6896
  151.2256  135.0543  159.9021 H   0  0  0  0  0  0  0  0  0  0  0  0  # atno 6909 bound_to 6896
  144.7353  140.3234  143.6166 H   0  0  0  0  0  0  0  0  0  0  0  0  # atno 7974 bound_to 7965
  154.7179  140.2706  155.6569 H   0  0  0  0  0  0  0  0  0  0  0  0  # atno 8008 bound_to 7997
  156.2815  140.2740  156.1765 H   0  0  0  0  0  0  0  0  0  0  0  0  # atno 8009 bound_to 7997
  155.0547  140.0371  157.2546 H   0  0  0  0  0  0  0  0  0  0  0  0  # atno 8010 bound_to 7997
  140.4917  144.0457  150.6299 H   0  0  0  0  0  0  0  0  0  0  0  0  # atno 10167 bound_to 10162
  157.6938  131.0250  150.3101 H   0  0  0  0  0  0  0  0  0  0  0  0  # atno 10718 bound_to 10713
  153.0760  135.4933  154.8405 H   0  0  0  0  0  0  0  0  0  0  0  0  # atno 10763 bound_to 10752
  154.7088  135.3016  154.9232 H   0  0  0  0  0  0  0  0  0  0  0  0  # atno 10764 bound_to 10752
  153.9932  135.6775  153.4808 H   0  0  0  0  0  0  0  0  0  0  0  0  # atno 10765 bound_to 10752
  140.4541  134.6316  157.4814 H   0  0  0  0  0  0  0  0  0  0  0  0  # atno 11005 bound_to 11000
  145.7546  139.1804  143.2302 LP  0  0  0  0  0  0  0  0  0  0  0  0  # atno 17320 bound_to 7965
  146.1034  140.7516  142.9538 LP  0  0  0  0  0  0  0  0  0  0  0  0  # atno 17321 bound_to 7965
  140.3728  143.2845  152.0259 LP  0  0  0  0  0  0  0  0  0  0  0  0  # atno 17342 bound_to 10162
  139.4852  144.6217  151.7243 LP  0  0  0  0  0  0  0  0  0  0  0  0  # atno 17343 bound_to 10162
  156.3604  130.3846  149.7256 LP  0  0  0  0  0  0  0  0  0  0  0  0  # atno 17370 bound_to 10713
  156.4704  130.7994  151.3012 LP  0  0  0  0  0  0  0  0  0  0  0  0  # atno 17371 bound_to 10713
  139.9988  134.6869  155.9565 LP  0  0  0  0  0  0  0  0  0  0  0  0  # atno 17394 bound_to 11000
  141.1651  133.6537  156.4451 LP  0  0  0  0  0  0  0  0  0  0  0  0  # atno 17395 bound_to 11000

$$$$
