AV-unprocessed.smi:1254|AV-procd|sdf|5270|dock8
  -GOLD-   22720 4383D 1   1.00000     0.00000
 Structure written by MMmdl.
 46 47  0  0  0  0  0  0  0  0  2 V2000
  144.0603  132.2001  150.1066 C   0  0  0  0  0  0  0  0  0  0  0  0
  145.1901  132.4718  151.0396 C   0  0  0  0  0  0  0  0  0  0  0  0
  145.8780  133.6078  151.3627 C   0  0  0  0  0  0  0  0  0  0  0  0
  146.8271  133.1474  152.3137 C   0  0  0  0  0  0  0  0  0  0  0  0
  147.7585  134.0395  152.9040 N   0  0  0  0  0  0  0  0  0  0  0  0
  148.2800  133.9765  154.1409 C   0  0  0  0  0  0  0  0  0  0  0  0
  147.9983  133.1279  154.9874 O   0  0  0  0  0  0  0  0  0  0  0  0
  149.1656  134.9618  154.3481 N   0  0  0  0  0  0  0  0  0  0  0  0
  149.9280  135.1592  155.5773 C   0  0  0  0  0  0  0  0  0  0  0  0
  150.5734  136.5558  155.6301 C   0  0  1  0  0  0  0  0  0  0  0  0
  151.4768  136.7222  156.8703 C   0  0  0  0  0  0  0  0  0  0  0  0
  152.1415  138.0489  156.8821 N   0  3  2  0  0  0  0  0  0  0  0  0
  151.2473  139.1612  157.3043 C   0  0  0  0  0  0  0  0  0  0  0  0
  151.9055  140.5500  157.1576 C   0  0  0  0  0  0  0  0  0  0  0  0
  151.9809  141.2938  158.5015 C   0  0  0  0  0  0  0  0  0  0  0  0
  151.1544  141.3969  156.1194 C   0  0  0  0  0  0  0  0  0  0  0  0
  152.8605  138.2802  155.6031 C   0  0  0  0  0  0  0  0  0  0  0  0
  151.9456  138.0356  154.3882 C   0  0  0  0  0  0  0  0  0  0  0  0
  151.3794  136.7346  154.4697 O   0  0  0  0  0  0  0  0  0  0  0  0
  146.7261  131.8486  152.5515 N   0  0  0  0  0  0  0  0  0  0  0  0
  145.6763  131.4091  151.7364 O   0  0  0  0  0  0  0  0  0  0  0  0
  143.7305  133.1165  149.6164 H   0  0  0  0  0  0  0  0  0  0  0  0
  143.2100  131.7772  150.6415 H   0  0  0  0  0  0  0  0  0  0  0  0
  144.3601  131.4925  149.3334 H   0  0  0  0  0  0  0  0  0  0  0  0
  145.7260  134.6048  150.9767 H   0  0  0  0  0  0  0  0  0  0  0  0
  148.0751  134.7948  152.3143 H   0  0  0  0  0  0  0  0  0  0  0  0
  149.3314  135.6182  153.5993 H   0  0  0  0  0  0  0  0  0  0  0  0
  149.2338  135.0454  156.4101 H   0  0  0  0  0  0  0  0  0  0  0  0
  150.6821  134.3792  155.6979 H   0  0  0  0  0  0  0  0  0  0  0  0
  149.7813  137.3066  155.6453 H   0  0  0  0  0  0  0  0  0  0  0  0
  150.9100  136.5728  157.7901 H   0  0  0  0  0  0  0  0  0  0  0  0
  152.2506  135.9533  156.8622 H   0  0  0  0  0  0  0  0  0  0  0  0
  150.3142  139.1214  156.7423 H   0  0  0  0  0  0  0  0  0  0  0  0
  150.9705  139.0277  158.3512 H   0  0  0  0  0  0  0  0  0  0  0  0
  152.9223  140.4272  156.7859 H   0  0  0  0  0  0  0  0  0  0  0  0
  150.9876  141.4587  158.9205 H   0  0  0  0  0  0  0  0  0  0  0  0
  152.4563  142.2681  158.3830 H   0  0  0  0  0  0  0  0  0  0  0  0
  152.5641  140.7376  159.2356 H   0  0  0  0  0  0  0  0  0  0  0  0
  150.1208  141.5713  156.4202 H   0  0  0  0  0  0  0  0  0  0  0  0
  151.1392  140.9051  155.1462 H   0  0  0  0  0  0  0  0  0  0  0  0
  151.6303  142.3692  155.9866 H   0  0  0  0  0  0  0  0  0  0  0  0
  153.2908  139.2799  155.5632 H   0  0  0  0  0  0  0  0  0  0  0  0
  153.7016  137.5872  155.5588 H   0  0  0  0  0  0  0  0  0  0  0  0
  151.1573  138.7860  154.3207 H   0  0  0  0  0  0  0  0  0  0  0  0
  152.5241  138.1066  153.4670 H   0  0  0  0  0  0  0  0  0  0  0  0
  152.8463  137.9954  157.6039 H   0  0  0  0  0  0  0  0  0  0  0  0
  1  2  1  0  0  0  0
  1 22  1  0  0  0  0
  1 23  1  0  0  0  0
  1 24  1  0  0  0  0
  2 21  1  0  0  0  0
  2  3  2  0  0  0  0
  3  4  1  0  0  0  0
  3 25  1  0  0  0  0
  4  5  1  0  0  0  0
  4 20  2  0  0  0  0
  5  6  1  0  0  0  0
  5 26  1  0  0  0  0
  6  7  2  0  0  0  0
  6  8  1  0  0  0  0
  8  9  1  0  0  0  0
  8 27  1  0  0  0  0
  9 10  1  0  0  0  0
  9 28  1  0  0  0  0
  9 29  1  0  0  0  0
 10 19  1  0  0  0  0
 10 11  1  0  0  0  0
 10 30  1  0  0  0  0
 11 12  1  0  0  0  0
 11 31  1  0  0  0  0
 11 32  1  0  0  0  0
 12 13  1  0  0  0  0
 12 17  1  0  0  0  0
 12 46  1  0  0  0  0
 13 14  1  0  0  0  0
 13 33  1  0  0  0  0
 13 34  1  0  0  0  0
 14 15  1  0  0  0  0
 14 16  1  0  0  0  0
 14 35  1  0  0  0  0
 15 36  1  0  0  0  0
 15 37  1  0  0  0  0
 15 38  1  0  0  0  0
 16 39  1  0  0  0  0
 16 40  1  0  0  0  0
 16 41  1  0  0  0  0
 17 18  1  0  0  0  0
 17 42  1  0  0  0  0
 17 43  1  0  0  0  0
 18 19  1  0  0  0  0
 18 44  1  0  0  0  0
 18 45  1  0  0  0  0
 20 21  1  0  0  0  0
M  CHG  1  12   1
M  END
> <s_m_source_file>
AV-unprocessed.smi

> <i_m_source_file_index>
1254

> <i_lp_mmshare_version>
43012

> <i_f3d_flags>
0

> <s_epik_input>
W0NIM11jMVtjSF1jKG5vMSlbTkhdQyg9TylbTkhdW0NIMl1bQ0BASF0yW0NIMl1OKFtDSDJdW0NIMl1PMilbQ0gyXVtDSF0oW0NIM10pW0NIM10=

> <s_epik_cmdline>
J2VwaWtfcHl0aG9uJywgJy1waCcsICc3LjAnLCAnLXRuJywgJzgnLCAnLW1hJywgJzIwMCcsICctbWV0YWxfYmluZGluZycsICctaW1hZScsICc8aW5maWxlLm1hZT4nLCAnLW9tYWUnLCAnPG91dGZpbGUubWFlPic=

> <r_epik_Ionization_Penalty>
0.0986825

> <r_epik_Ionization_Penalty_Charging>
0.0986478

> <r_epik_Ionization_Penalty_Neutral>
3.46838e-05

> <r_epik_State_Penalty>
0.0887259

> <r_epik_Charging_Adjusted_Penalty>
0.187374

> <i_epik_Tot_Q>
1

> <i_epik_Tot_abs_Q>
1

> <r_epik_Metal_State_Penalty>
0.103424

> <b_epik_Metal_Only>
0

> <s_lp_Force_Field>
OPLS_2005

> <r_lp_Energy>
18.2179

> <b_lp_Chiralities_Consistent>
1

> <s_lp_Variant>
AV-unprocessed.smi:1254-2

> <Gold.Version>
5.8.1

> <Gold.Id.Protein>
6NUR|6NUR_protein|mol2

> <Gold.PLP.Fitness>
40.5201

> <Gold.PLP.PLP>
-33.7286

> <Gold.PLP.part.hbond>
-3.0000

> <Gold.PLP.part.metal>
0.0000

> <Gold.PLP.part.buried>
-6.2635

> <Gold.PLP.part.nonpolar>
-25.0887

> <Gold.PLP.part.repulsive>
0.8773

> <Gold.PLP.ligand.clash>
0.0000

> <Gold.PLP.ligand.torsion>
1.1201

> <Gold.PLP.Chemscore.Hbond>
3.0000

> <Gold.PLP.Chemscore.CHOScore>
0.0000

> <Gold.PLP.Chemscore.Metal>
0.0000

> <Gold.Chemscore.Hbonds>
donor molecule, donor type, donor heavy atom, donor atom, acceptor molecule, acceptor atom, score
      L1  H     5    26       P1  7948  1.00
      L1  H     8    27       P1  7948  1.00
      P1  H 10752 10765       L1    19  1.00

> <Gold.PLP.Chemscore.Internal.Correction>
0.0317

> <Gold.Rescore>
     Score         DG    S(hbond)    S(metal)    S(lipo)     H(rot)  DE(clash)    DE(int)     intcor
     15.44     -16.83       2.17        0.00      73.00       1.73       0.03       1.36       ----

> <Gold.Chemscore.Fitness>
15.4386

> <Gold.Chemscore.DG>
-16.8342

> <Gold.Chemscore.ZeroCoef>
-5.4800

> <Gold.Chemscore.Hbond>
2.1675

> <Gold.Chemscore.Metal>
0.0000

> <Gold.Chemscore.Lipo>
73.0026

> <Gold.Chemscore.Internal_Hbond>
0.0000

> <Gold.Chemscore.DEClash>
0.0331

> <Gold.Chemscore.DEInternal>
1.3625

> <Gold.Chemscore.Rot>
1.7291

> <Gold.Chemscore.Internal.Correction>
   9.000000E+99

> <Gold.Chemscore.Hbonds>
donor molecule, donor type, donor heavy atom, donor atom, acceptor molecule, acceptor atom, score
      L1  H     5    26       P1  7948  0.50
      L1  H     8    27       P1  7948  0.42
      P1  H 10752 10765       L1    19  0.25

> <Gold.Chemscore.Hbond.Weighted>
-7.2394

> <Gold.Chemscore.Metal.Weighted>
-0.0000

> <Gold.Chemscore.Lipo.Weighted>
-8.5413

> <Gold.Chemscore.Internal_Hbond.Weighted>
0.0000

> <Gold.Chemscore.DEClash.Weighted>
0.0331

> <Gold.Chemscore.DEInternal.Weighted>
1.3625

> <Gold.Chemscore.Rot.Weighted>
4.4265

> <Gold.Chemscore.Internal.Correction.Weighted>
   9.000000E+99

> <Gold.Protein.RotatedTorsions>
[ 6907 6896 6895 6894 ] final  -46.61 input  -60.11 | X-H torsion
[ 7974 7965 7964 7962 ] final -135.85 input  175.53 | X-H torsion
[ 8008 7997 7996 7995 ] final  161.84 input   59.86 | X-H torsion
[ 10167 10162 10161 10158 ] final  -63.24 input  -65.29 | X-H torsion
[ 10718 10713 10712 10709 ] final -168.06 input   66.30 | X-H torsion
[ 10763 10752 10751 10750 ] final  158.64 input  -60.55 | X-H torsion
[ 11005 11000 10999 10996 ] final -165.13 input  -57.11 | X-H torsion

> <Gold.Protein.ActiveResidues>
 VAL166  LYS551  ARG553  GLY616  TRP617  ASP618  TYR619  PRO620  LYS621  CYS622 
 ASP623  PHE694  ASN695  SER759  ASP760  ASP761  ALA762  ILE779  LEU786  VAL792 
 PHE793  MET794  SER795  GLU796  ALA797  LYS798  CYS799  TRP800  GLU811  SER814 

> <Gold.Protein.RotatedAtoms>
  150.9095  134.8511  159.7414 H   0  0  0  0  0  0  0  0  0  0  0  0  # atno 6907 bound_to 6896
  152.4936  134.4381  159.9544 H   0  0  0  0  0  0  0  0  0  0  0  0  # atno 6908 bound_to 6896
  151.4425  133.3600  159.2819 H   0  0  0  0  0  0  0  0  0  0  0  0  # atno 6909 bound_to 6896
  144.8978  140.6730  143.5104 H   0  0  0  0  0  0  0  0  0  0  0  0  # atno 7974 bound_to 7965
  156.2074  140.1766  156.7769 H   0  0  0  0  0  0  0  0  0  0  0  0  # atno 8008 bound_to 7997
  154.5675  140.0688  156.8943 H   0  0  0  0  0  0  0  0  0  0  0  0  # atno 8009 bound_to 7997
  155.2734  140.3344  155.4266 H   0  0  0  0  0  0  0  0  0  0  0  0  # atno 8010 bound_to 7997
  140.5884  143.2337  151.6192 H   0  0  0  0  0  0  0  0  0  0  0  0  # atno 10167 bound_to 10162
  156.6914  130.9161  151.3069 H   0  0  0  0  0  0  0  0  0  0  0  0  # atno 10718 bound_to 10713
  154.2192  135.2783  155.2931 H   0  0  0  0  0  0  0  0  0  0  0  0  # atno 10763 bound_to 10752
  154.5716  135.5617  153.7103 H   0  0  0  0  0  0  0  0  0  0  0  0  # atno 10764 bound_to 10752
  153.0046  135.6322  154.2332 H   0  0  0  0  0  0  0  0  0  0  0  0  # atno 10765 bound_to 10752
  140.5791  134.5159  157.5175 H   0  0  0  0  0  0  0  0  0  0  0  0  # atno 11005 bound_to 11000
  145.3669  139.1668  143.4353 LP  0  0  0  0  0  0  0  0  0  0  0  0  # atno 17320 bound_to 7965
  146.3091  140.3737  142.8677 LP  0  0  0  0  0  0  0  0  0  0  0  0  # atno 17321 bound_to 7965
  139.5212  144.3200  152.0919 LP  0  0  0  0  0  0  0  0  0  0  0  0  # atno 17342 bound_to 10162
  140.2360  144.4319  150.6280 LP  0  0  0  0  0  0  0  0  0  0  0  0  # atno 17343 bound_to 10162
  157.7007  130.9330  150.0777 LP  0  0  0  0  0  0  0  0  0  0  0  0  # atno 17370 bound_to 10713
  156.1794  130.3649  149.9055 LP  0  0  0  0  0  0  0  0  0  0  0  0  # atno 17371 bound_to 10713
  139.9325  134.7936  156.0891 LP  0  0  0  0  0  0  0  0  0  0  0  0  # atno 17394 bound_to 11000
  141.1007  133.6678  156.2749 LP  0  0  0  0  0  0  0  0  0  0  0  0  # atno 17395 bound_to 11000

$$$$
