AV-unprocessed.smi:3012|AV-procd|sdf|11462|dock3
  -GOLD-   2272016393D 1   1.00000     0.00000
 Structure written by MMmdl.
 16 16  0  0  0  0  0  0  0  0  3 V2000
  152.0260  145.0758  158.6478 O   0  0  0  0  0  0  0  0  0  0  0  0
  151.8519  143.8419  158.7559 C   0  0  0  0  0  0  0  0  0  0  0  0
  152.6717  143.0314  159.2408 O   0  5  0  0  0  0  0  0  0  0  0  0
  150.5169  143.2773  158.2671 C   0  0  0  0  0  0  0  0  0  0  0  0
  150.6723  142.2126  157.1931 C   0  0  0  0  0  0  0  0  0  0  0  0
  151.5769  141.2094  157.2198 C   0  0  0  0  0  0  0  0  0  0  0  0
  151.6281  140.2779  156.0945 C   0  0  0  0  0  0  0  0  0  0  0  0
  152.4451  139.3588  156.1134 O   0  0  0  0  0  0  0  0  0  0  0  0
  150.7566  140.4786  155.0602 N   0  5  0  0  0  0  0  0  0  0  0  0
  149.8512  141.5050  155.0393 C   0  0  0  0  0  0  0  0  0  0  0  0
  149.0620  141.7090  154.1192 O   0  0  0  0  0  0  0  0  0  0  0  0
  149.8182  142.3537  156.0915 N   0  0  0  0  0  0  0  0  0  0  0  0
  149.1593  143.1185  156.1001 H   0  0  0  0  0  0  0  0  0  0  0  0
  149.9661  142.8748  159.1188 H   0  0  0  0  0  0  0  0  0  0  0  0
  149.9101  144.0910  157.8681 H   0  0  0  0  0  0  0  0  0  0  0  0
  152.2529  141.0975  158.0549 H   0  0  0  0  0  0  0  0  0  0  0  0
  1  2  2  0  0  0  0
  2  3  1  0  0  0  0
  2  4  1  0  0  0  0
  4  5  1  0  0  0  0
  4 14  1  0  0  0  0
  4 15  1  0  0  0  0
  5 12  1  0  0  0  0
  5  6  2  0  0  0  0
  6  7  1  0  0  0  0
  6 16  1  0  0  0  0
  7  8  2  0  0  0  0
  7  9  1  0  0  0  0
  9 10  1  0  0  0  0
 10 11  2  0  0  0  0
 10 12  1  0  0  0  0
 12 13  1  0  0  0  0
M  CHG  1   3  -1
M  CHG  1   9  -1
M  END
> <s_m_source_file>
AV-unprocessed.smi

> <i_m_source_file_index>
3012

> <i_lp_mmshare_version>
43012

> <i_f3d_flags>
0

> <s_epik_input>
Tz1DKFtPSF0pW0NIMl1jMVtjSF1jKD1PKVtuSF1jKD1PKVtuSF0x

> <s_epik_cmdline>
J2VwaWtfcHl0aG9uJywgJy1waCcsICc3LjAnLCAnLXRuJywgJzgnLCAnLW1hJywgJzIwMCcsICctbWV0YWxfYmluZGluZycsICctaW1hZScsICc8aW5maWxlLm1hZT4nLCAnLW9tYWUnLCAnPG91dGZpbGUubWFlPic=

> <r_lp_tautomer_probability>
1

> <r_epik_Ionization_Penalty>
3.84851

> <r_epik_Ionization_Penalty_Charging>
0.000432965

> <r_epik_Ionization_Penalty_Neutral>
3.84808

> <r_epik_State_Penalty>
3.84718

> <r_epik_Charging_Adjusted_Penalty>
3.84761

> <i_epik_Tot_Q>
-2

> <i_epik_Tot_abs_Q>
2

> <r_epik_Metal_State_Penalty>
0.579588

> <b_epik_Metal_Only>
1

> <s_lp_Force_Field>
OPLS_2005

> <r_lp_Energy>
14.5502

> <b_lp_Chiralities_Consistent>
1

> <s_lp_Variant>
AV-unprocessed.smi:3012-2

> <Gold.Version>
5.8.1

> <Gold.Id.Protein>
6NUR|6NUR_protein|mol2

> <Gold.PLP.Fitness>
32.5416

> <Gold.PLP.PLP>
-22.5240

> <Gold.PLP.part.hbond>
-4.3115

> <Gold.PLP.part.metal>
0.0000

> <Gold.PLP.part.buried>
-4.2127

> <Gold.PLP.part.nonpolar>
-13.1869

> <Gold.PLP.part.repulsive>
0.4410

> <Gold.PLP.ligand.clash>
0.0000

> <Gold.PLP.ligand.torsion>
0.1933

> <Gold.PLP.Chemscore.Hbond>
3.4671

> <Gold.PLP.Chemscore.CHOScore>
0.0000

> <Gold.PLP.Chemscore.Metal>
0.0000

> <Gold.Chemscore.Hbonds>
donor molecule, donor type, donor heavy atom, donor atom, acceptor molecule, acceptor atom, score
      L1  H    12    13       P1  8028  0.91
      P1  H  7989  7998       L1     9  0.90
      P1  H  7997  8010       L1     8  0.94
      P1  H  8011  8017       L1    11  0.53

> <Gold.PLP.Chemscore.Internal.Correction>
0.0029

> <Gold.Rescore>
     Score         DG    S(hbond)    S(metal)    S(lipo)     H(rot)  DE(clash)    DE(int)     intcor
     11.69     -12.01       2.48        0.00      21.82       1.68       0.07       0.25       ----

> <Gold.Chemscore.Fitness>
11.6902

> <Gold.Chemscore.DG>
-12.0110

> <Gold.Chemscore.ZeroCoef>
-5.4800

> <Gold.Chemscore.Hbond>
2.4824

> <Gold.Chemscore.Metal>
0.0000

> <Gold.Chemscore.Lipo>
21.8154

> <Gold.Chemscore.Internal_Hbond>
0.0000

> <Gold.Chemscore.DEClash>
0.0673

> <Gold.Chemscore.DEInternal>
0.2535

> <Gold.Chemscore.Rot>
1.6846

> <Gold.Chemscore.Internal.Correction>
   9.000000E+99

> <Gold.Chemscore.Hbonds>
donor molecule, donor type, donor heavy atom, donor atom, acceptor molecule, acceptor atom, score
      L1  H    12    13       P1  8028  0.90
      P1  H  7989  7998       L1     9  0.14
      P1  H  7997  8010       L1     8  0.63
      P1  H  8011  8017       L1    11  0.49

> <Gold.Chemscore.Hbond.Weighted>
-8.2912

> <Gold.Chemscore.Metal.Weighted>
-0.0000

> <Gold.Chemscore.Lipo.Weighted>
-2.5524

> <Gold.Chemscore.Internal_Hbond.Weighted>
0.0000

> <Gold.Chemscore.DEClash.Weighted>
0.0673

> <Gold.Chemscore.DEInternal.Weighted>
0.2535

> <Gold.Chemscore.Rot.Weighted>
4.3126

> <Gold.Chemscore.Internal.Correction.Weighted>
   9.000000E+99

> <Gold.Protein.RotatedTorsions>
[ 6907 6896 6895 6894 ] final  120.97 input  -60.11 | X-H torsion
[ 7974 7965 7964 7962 ] final  156.74 input  175.53 | X-H torsion
[ 8008 7997 7996 7995 ] final   83.88 input   59.86 | X-H torsion
[ 10167 10162 10161 10158 ] final   56.95 input  -65.29 | X-H torsion
[ 10718 10713 10712 10709 ] final -145.71 input   66.30 | X-H torsion
[ 10763 10752 10751 10750 ] final  -78.83 input  -60.55 | X-H torsion
[ 11005 11000 10999 10996 ] final    3.46 input  -57.11 | X-H torsion

> <Gold.Protein.ActiveResidues>
 VAL166  LYS551  ARG553  GLY616  TRP617  ASP618  TYR619  PRO620  LYS621  CYS622 
 ASP623  PHE694  ASN695  SER759  ASP760  ASP761  ALA762  ILE779  LEU786  VAL792 
 PHE793  MET794  SER795  GLU796  ALA797  LYS798  CYS799  TRP800  GLU811  SER814 

> <Gold.Protein.RotatedAtoms>
  152.4357  133.7357  159.6612 H   0  0  0  0  0  0  0  0  0  0  0  0  # atno 6907 bound_to 6896
  150.8241  133.8191  159.3132 H   0  0  0  0  0  0  0  0  0  0  0  0  # atno 6908 bound_to 6896
  151.5865  135.1058  160.0081 H   0  0  0  0  0  0  0  0  0  0  0  0  # atno 6909 bound_to 6896
  144.7945  139.7244  143.6207 H   0  0  0  0  0  0  0  0  0  0  0  0  # atno 7974 bound_to 7965
  155.9298  140.3415  155.6240 H   0  0  0  0  0  0  0  0  0  0  0  0  # atno 8008 bound_to 7997
  155.7171  140.0779  157.2365 H   0  0  0  0  0  0  0  0  0  0  0  0  # atno 8009 bound_to 7997
  154.4083  140.1612  156.2348 H   0  0  0  0  0  0  0  0  0  0  0  0  # atno 8010 bound_to 7997
  140.2032  144.3966  150.6520 H   0  0  0  0  0  0  0  0  0  0  0  0  # atno 10167 bound_to 10162
  156.3858  130.7860  151.2057 H   0  0  0  0  0  0  0  0  0  0  0  0  # atno 10718 bound_to 10713
  154.5309  135.5716  153.6758 H   0  0  0  0  0  0  0  0  0  0  0  0  # atno 10763 bound_to 10752
  152.9939  135.6204  154.2631 H   0  0  0  0  0  0  0  0  0  0  0  0  # atno 10764 bound_to 10752
  154.2557  135.2857  155.2778 H   0  0  0  0  0  0  0  0  0  0  0  0  # atno 10765 bound_to 10752
  140.5929  133.9908  155.8097 H   0  0  0  0  0  0  0  0  0  0  0  0  # atno 11005 bound_to 11000
  146.2209  139.5633  142.9619 LP  0  0  0  0  0  0  0  0  0  0  0  0  # atno 17320 bound_to 7965
  145.5709  141.0394  143.2175 LP  0  0  0  0  0  0  0  0  0  0  0  0  # atno 17321 bound_to 7965
  140.6376  143.2197  151.6362 LP  0  0  0  0  0  0  0  0  0  0  0  0  # atno 17342 bound_to 10162
  139.5209  144.3210  152.0911 LP  0  0  0  0  0  0  0  0  0  0  0  0  # atno 17343 bound_to 10162
  157.7496  131.0330  150.4254 LP  0  0  0  0  0  0  0  0  0  0  0  0  # atno 17370 bound_to 10713
  156.4506  130.4011  149.6638 LP  0  0  0  0  0  0  0  0  0  0  0  0  # atno 17371 bound_to 10713
  141.0923  133.9897  157.3217 LP  0  0  0  0  0  0  0  0  0  0  0  0  # atno 17394 bound_to 11000
  139.9266  135.0201  156.8256 LP  0  0  0  0  0  0  0  0  0  0  0  0  # atno 17395 bound_to 11000

$$$$
