AV-unprocessed.smi:72|AV-procd|sdf|740|dock9
  -GOLD-   2262017 73D 1   1.00000     0.00000
 Structure written by MMmdl.
 28 29  0  0  0  0  0  0  0  0  2 V2000
  153.2779  137.0565  156.3822 N   0  0  0  0  0  0  0  0  0  0  0  0
  152.5305  138.0169  156.0523 C   0  0  0  0  0  0  0  0  0  0  0  0
  151.7255  137.9285  154.8541 N   0  0  0  0  0  0  0  0  0  0  0  0
  150.9451  138.9267  154.5738 C   0  0  0  0  0  0  0  0  0  0  0  0
  150.8537  140.1010  155.4356 N   0  0  0  0  0  0  0  0  0  0  0  0
  149.9429  141.2801  155.1242 C   0  0  1  0  0  0  0  0  0  0  0  0
  149.2861  141.0699  153.9061 O   0  0  0  0  0  0  0  0  0  0  0  0
  147.9761  140.5632  154.1448 C   0  0  2  0  0  0  0  0  0  0  0  0
  147.0835  140.7181  152.9015 C   0  0  0  0  0  0  0  0  0  0  0  0
  147.2526  139.6065  152.0479 O   0  0  0  0  0  0  0  0  0  0  0  0
  147.5481  141.3638  155.3779 C   0  0  2  0  0  0  0  0  0  0  0  0
  147.0845  142.6502  154.9995 O   0  0  0  0  0  0  0  0  0  0  0  0
  148.8385  141.4202  156.1956 C   0  0  2  0  0  0  0  0  0  0  0  0
  148.9436  142.6063  156.9610 O   0  0  0  0  0  0  0  0  0  0  0  0
  151.6941  140.1775  156.5795 C   0  0  0  0  0  0  0  0  0  0  0  0
  151.6437  141.1965  157.2691 O   0  0  0  0  0  0  0  0  0  0  0  0
  152.5156  139.1291  156.8639 N   0  5  0  0  0  0  0  0  0  0  0  0
  150.6067  142.1422  155.0368 H   0  0  0  0  0  0  0  0  0  0  0  0
  148.0373  139.5113  154.4298 H   0  0  0  0  0  0  0  0  0  0  0  0
  146.7490  140.8646  155.9268 H   0  0  0  0  0  0  0  0  0  0  0  0
  148.8732  140.5594  156.8655 H   0  0  0  0  0  0  0  0  0  0  0  0
  153.7897  137.2348  157.2338 H   0  0  0  0  0  0  0  0  0  0  0  0
  150.3193  138.9402  153.6818 H   0  0  0  0  0  0  0  0  0  0  0  0
  146.0336  140.7499  153.1940 H   0  0  0  0  0  0  0  0  0  0  0  0
  147.3019  141.6421  152.3651 H   0  0  0  0  0  0  0  0  0  0  0  0
  148.1299  139.6314  151.6970 H   0  0  0  0  0  0  0  0  0  0  0  0
  147.7953  143.2632  155.1119 H   0  0  0  0  0  0  0  0  0  0  0  0
  148.6928  143.3340  156.4111 H   0  0  0  0  0  0  0  0  0  0  0  0
  1  2  2  0  0  0  0
  1 22  1  0  0  0  0
  2 17  1  0  0  0  0
  2  3  1  0  0  0  0
  3  4  2  0  0  0  0
  4  5  1  0  0  0  0
  4 23  1  0  0  0  0
  5  6  1  0  0  0  0
  5 15  1  0  0  0  0
  6 18  1  0  0  0  0
  6 13  1  0  0  0  0
  6  7  1  0  0  0  0
  7  8  1  0  0  0  0
  8 19  1  0  0  0  0
  8  9  1  0  0  0  0
  8 11  1  0  0  0  0
  9 10  1  0  0  0  0
  9 24  1  0  0  0  0
  9 25  1  0  0  0  0
 10 26  1  0  0  0  0
 11 20  1  0  0  0  0
 11 12  1  0  0  0  0
 11 13  1  0  0  0  0
 12 27  1  0  0  0  0
 13 21  1  0  0  0  0
 13 14  1  0  0  0  0
 14 28  1  0  0  0  0
 15 16  2  0  0  0  0
 15 17  1  0  0  0  0
M  CHG  1  17  -1
M  END
> <s_m_source_file>
AV-unprocessed.smi

> <i_m_source_file_index>
72

> <i_lp_mmshare_version>
43012

> <i_f3d_flags>
0

> <s_epik_input>
W05IMl1jMW5bY0hdbihjKD1PKW4xKVtDQEBIXTJPW0NASF0oW0NIMl1bT0hdKVtDQEBIXShbT0hdKVtDQEhdMltPSF0=

> <s_epik_cmdline>
J2VwaWtfcHl0aG9uJywgJy1waCcsICc3LjAnLCAnLXRuJywgJzgnLCAnLW1hJywgJzIwMCcsICctbWV0YWxfYmluZGluZycsICctaW1hZScsICc8aW5maWxlLm1hZT4nLCAnLW9tYWUnLCAnPG91dGZpbGUubWFlPic=

> <r_lp_tautomer_probability>
7.17554e-07

> <r_epik_Ionization_Penalty>
12.8705

> <r_epik_Ionization_Penalty_Charging>
5.64144

> <r_epik_Ionization_Penalty_Neutral>
7.22905

> <r_epik_State_Penalty>
3.30104

> <r_epik_Charging_Adjusted_Penalty>
8.94249

> <i_epik_Tot_Q>
-1

> <i_epik_Tot_abs_Q>
1

> <r_epik_Metal_State_Penalty>
0.529074

> <b_epik_Metal_Only>
1

> <s_epik_Chemistry_Notes>
This compound contains an acetal/aminal-like group ( X-CH(R)-Y where X, Y are N, S, or O) that may be acid/base labile, releasing an aldehyde.

> <s_lp_Force_Field>
OPLS_2005

> <r_lp_Energy>
36.2844

> <b_lp_Chiralities_Consistent>
1

> <s_lp_Variant>
AV-unprocessed.smi:72-78

> <Gold.Version>
5.8.1

> <Gold.Id.Protein>
6NUR|6NUR_protein|mol2

> <Gold.PLP.Fitness>
46.4862

> <Gold.PLP.PLP>
-26.2564

> <Gold.PLP.part.hbond>
-6.8334

> <Gold.PLP.part.metal>
0.0000

> <Gold.PLP.part.buried>
-0.7403

> <Gold.PLP.part.nonpolar>
-17.3893

> <Gold.PLP.part.repulsive>
1.3756

> <Gold.PLP.ligand.clash>
0.0000

> <Gold.PLP.ligand.torsion>
0.3192

> <Gold.PLP.Chemscore.Hbond>
6.1797

> <Gold.PLP.Chemscore.CHOScore>
0.7693

> <Gold.PLP.Chemscore.Metal>
0.0000

> <Gold.Chemscore.Hbonds>
donor molecule, donor type, donor heavy atom, donor atom, acceptor molecule, acceptor atom, score
      L1  H    10    26       P1  7957  1.00
      L1  H    12    27       P1  8028  1.00
      L1  H    14    28       P1  8028  1.00
      P1  H  7997  8008       L1    17  1.37
      P1  H  8011  8017       L1     7  0.68
      P1  H 10752 10764       L1     1  0.46
      L1  C     4    23       P1  7957  0.25

> <Gold.PLP.Chemscore.Internal.Correction>
0.0213

> <Gold.Rescore>
     Score         DG    S(hbond)    S(metal)    S(lipo)     H(rot)  DE(clash)    DE(int)     intcor
      5.67      -9.14       3.40        0.00      22.67       4.04       0.77       2.70       ----

> <Gold.Chemscore.Fitness>
5.6666

> <Gold.Chemscore.DG>
-9.1388

> <Gold.Chemscore.ZeroCoef>
-5.4800

> <Gold.Chemscore.Hbond>
3.3979

> <Gold.Chemscore.Metal>
0.0000

> <Gold.Chemscore.Lipo>
22.6733

> <Gold.Chemscore.Internal_Hbond>
0.0000

> <Gold.Chemscore.DEClash>
0.7677

> <Gold.Chemscore.DEInternal>
2.7045

> <Gold.Chemscore.Rot>
4.0403

> <Gold.Chemscore.Internal.Correction>
   9.000000E+99

> <Gold.Chemscore.Hbonds>
donor molecule, donor type, donor heavy atom, donor atom, acceptor molecule, acceptor atom, score
      L1  H    10    26       P1  7957  0.98
      L1  H    12    27       P1  8028  0.55
      L1  H    14    28       P1  8028  0.85
      P1  H  7997  8008       L1    17  0.16
      P1  H  8011  8017       L1     7  0.61
      P1  H 10752 10764       L1     1  0.36

> <Gold.Chemscore.Hbond.Weighted>
-11.3491

> <Gold.Chemscore.Metal.Weighted>
-0.0000

> <Gold.Chemscore.Lipo.Weighted>
-2.6528

> <Gold.Chemscore.Internal_Hbond.Weighted>
0.0000

> <Gold.Chemscore.DEClash.Weighted>
0.7677

> <Gold.Chemscore.DEInternal.Weighted>
2.7045

> <Gold.Chemscore.Rot.Weighted>
10.3431

> <Gold.Chemscore.Internal.Correction.Weighted>
   9.000000E+99

> <Gold.Protein.RotatedTorsions>
[ 6907 6896 6895 6894 ] final -148.85 input  -60.11 | X-H torsion
[ 7974 7965 7964 7962 ] final -174.66 input  175.53 | X-H torsion
[ 8008 7997 7996 7995 ] final  -73.86 input   59.86 | X-H torsion
[ 10167 10162 10161 10158 ] final   -4.36 input  -65.29 | X-H torsion
[ 10718 10713 10712 10709 ] final   12.35 input   66.30 | X-H torsion
[ 10763 10752 10751 10750 ] final  -33.65 input  -60.55 | X-H torsion
[ 11005 11000 10999 10996 ] final   57.74 input  -57.11 | X-H torsion

> <Gold.Protein.ActiveResidues>
 VAL166  LYS551  ARG553  GLY616  TRP617  ASP618  TYR619  PRO620  LYS621  CYS622 
 ASP623  PHE694  ASN695  SER759  ASP760  ASP761  ALA762  ILE779  LEU786  VAL792 
 PHE793  MET794  SER795  GLU796  ALA797  LYS798  CYS799  TRP800  GLU811  SER814 

> <Gold.Protein.RotatedAtoms>
  151.1758  133.4756  159.2593 H   0  0  0  0  0  0  0  0  0  0  0  0  # atno 6907 bound_to 6896
  151.1310  135.0130  159.8592 H   0  0  0  0  0  0  0  0  0  0  0  0  # atno 6908 bound_to 6896
  152.5460  134.1660  159.8630 H   0  0  0  0  0  0  0  0  0  0  0  0  # atno 6909 bound_to 6896
  144.7131  140.1438  143.6389 H   0  0  0  0  0  0  0  0  0  0  0  0  # atno 7974 bound_to 7965
  154.5282  140.0771  156.8297 H   0  0  0  0  0  0  0  0  0  0  0  0  # atno 8008 bound_to 7997
  155.3431  140.3408  155.4221 H   0  0  0  0  0  0  0  0  0  0  0  0  # atno 8009 bound_to 7997
  156.1754  140.1634  156.8359 H   0  0  0  0  0  0  0  0  0  0  0  0  # atno 8010 bound_to 7997
  140.6925  143.6432  150.8416 H   0  0  0  0  0  0  0  0  0  0  0  0  # atno 10167 bound_to 10162
  157.0088  130.6109  149.5705 H   0  0  0  0  0  0  0  0  0  0  0  0  # atno 10718 bound_to 10713
  153.8338  135.6863  153.4811 H   0  0  0  0  0  0  0  0  0  0  0  0  # atno 10763 bound_to 10752
  153.1495  135.4624  154.9613 H   0  0  0  0  0  0  0  0  0  0  0  0  # atno 10764 bound_to 10752
  154.7875  135.3290  154.7798 H   0  0  0  0  0  0  0  0  0  0  0  0  # atno 10765 bound_to 10752
  140.0430  134.5846  155.9358 H   0  0  0  0  0  0  0  0  0  0  0  0  # atno 11005 bound_to 11000
  145.9178  139.2527  143.1399 LP  0  0  0  0  0  0  0  0  0  0  0  0  # atno 17320 bound_to 7965
  145.9651  140.8805  143.0191 LP  0  0  0  0  0  0  0  0  0  0  0  0  # atno 17321 bound_to 7965
  140.0146  143.5606  152.2825 LP  0  0  0  0  0  0  0  0  0  0  0  0  # atno 17342 bound_to 10162
  139.6342  144.7648  151.2472 LP  0  0  0  0  0  0  0  0  0  0  0  0  # atno 17343 bound_to 10162
  156.0143  130.5237  150.8088 LP  0  0  0  0  0  0  0  0  0  0  0  0  # atno 17370 bound_to 10713
  157.5336  131.0937  150.9923 LP  0  0  0  0  0  0  0  0  0  0  0  0  # atno 17371 bound_to 10713
  141.1893  133.6565  156.5360 LP  0  0  0  0  0  0  0  0  0  0  0  0  # atno 17394 bound_to 11000
  140.4038  134.7333  157.4796 LP  0  0  0  0  0  0  0  0  0  0  0  0  # atno 17395 bound_to 11000

$$$$
