#       Name:                AV-unprocessed.smi:1978
#       Creating user name   scv26
#       Creation time:       Fri Mar 27 10:18:04 2020


#       File generated by GOLD software.
#

@<TRIPOS>MOLECULE
AV-unprocessed.smi:1978
    50    51     1
SMALL
NO_CHARGES


@<TRIPOS>ATOM
      1 ****        -4.7179   6.6156  -1.5113 C.3            1 S1                 0.0000
      2 ****        -4.1055   5.2819  -1.2524 C.2            1 S1                 0.0000
      3 ****        -3.3002   4.8049  -0.2566 C.2            1 S1                 0.0000
      4 ****        -3.0896   3.4526  -0.6363 C.2            1 S1                 0.0000
      5 ****        -2.2843   2.5914   0.1517 N.am           1 S1                 0.0000
      6 ****        -1.9645   1.3114  -0.1037 C.2            1 S1                 0.0000
      7 ****        -2.3388   0.6684  -1.0849 O.2            1 S1                 0.0000
      8 ****        -1.1633   0.8085   0.8476 N.am           1 S1                 0.0000
      9 ****        -0.6284  -0.5511   0.8702 C.3            1 S1                 0.0000
     10 ****         0.8304  -0.6248   0.3535 C.3            1 S1                 0.0000
     11 ****         1.0051  -0.0935  -1.0866 C.3            1 S1                 0.0000
     12 ****         1.3977  -2.0020   0.5302 N.4            1 S1                 1.0000
     13 ****         0.8168  -3.0128  -0.4034 C.3            1 S1                 0.0000
     14 ****         1.2128  -4.4409  -0.0042 C.3            1 S1                 0.0000
     15 ****         2.7355  -4.5839   0.0262 C.3            1 S1                 0.0000
     16 ****         3.3322  -3.5253   0.9587 C.3            1 S1                 0.0000
     17 ****         2.8965  -2.0952   0.5675 C.3            1 S1                 0.0000
     18 ****         3.5604  -1.0939   1.5353 C.3            1 S1                 0.0000
     19 ****        -3.7117   3.1325  -1.7605 N.2            1 S1                 0.0000
     20 ****        -4.3662   4.3032  -2.1609 O.3            1 S1                 0.0000
     21 ****        -4.4885   7.3136  -0.7061 H              1 S1                 0.0000
     22 ****        -5.8021   6.5343  -1.5896 H              1 S1                 0.0000
     23 ****        -4.3414   7.0386  -2.4427 H              1 S1                 0.0000
     24 ****        -2.9230   5.3405   0.6018 H              1 S1                 0.0000
     25 ****        -1.9024   2.9979   0.9929 H              1 S1                 0.0000
     26 ****        -0.9073   1.4105   1.6167 H              1 S1                 0.0000
     27 ****        -0.6652  -0.8968   1.9038 H              1 S1                 0.0000
     28 ****        -1.2905  -1.2115   0.3114 H              1 S1                 0.0000
     29 ****         1.3678   0.0569   1.0078 H              1 S1                 0.0000
     30 ****         0.7544   0.9651  -1.1503 H              1 S1                 0.0000
     31 ****         0.3639  -0.6199  -1.7937 H              1 S1                 0.0000
     32 ****         2.0344  -0.1892  -1.4306 H              1 S1                 0.0000
     33 ****        -0.2696  -2.9560  -0.4220 H              1 S1                 0.0000
     34 ****         1.1565  -2.8164  -1.4211 H              1 S1                 0.0000
     35 ****         0.7961  -4.6812   0.9750 H              1 S1                 0.0000
     36 ****         0.7870  -5.1570  -0.7076 H              1 S1                 0.0000
     37 ****         3.0145  -5.5837   0.3602 H              1 S1                 0.0000
     38 ****         3.1410  -4.4636  -0.9793 H              1 S1                 0.0000
     39 ****         3.0276  -3.7345   1.9854 H              1 S1                 0.0000
     40 ****         4.4199  -3.6051   0.9397 H              1 S1                 0.0000
     41 ****         3.2771  -1.8924  -0.4346 H              1 S1                 0.0000
     42 ****         4.6224  -1.3119   1.6515 H              1 S1                 0.0000
     43 ****         3.1079  -1.1345   2.5266 H              1 S1                 0.0000
     44 ****         3.5046  -0.0684   1.1712 H              1 S1                 0.0000
     45 ****         1.0999  -2.2821   1.4537 H              1 S1                 0.0000
     46 ****        -2.9288   1.0978  -1.7687 LP             1 S1                 0.0000
     47 ****        -2.0529  -0.2832  -1.1979 LP             1 S1                 0.0000
     48 ****        -3.7136   2.2461  -2.2234 LP             1 S1                 0.0000
     49 ****        -4.0340   4.5831  -3.0616 LP             1 S1                 0.0000
     50 ****        -5.3517   4.1393  -2.2053 LP             1 S1                 0.0000
@<TRIPOS>BOND
    1    1    2 1     
    2    1   21 1     
    3    1   22 1     
    4    1   23 1     
    5    2   20 1     
    6    2    3 2     
    7    3    4 1     
    8    3   24 1     
    9    4    5 1     
   10    4   19 2     
   11    5    6 am    
   12    5   25 1     
   13    6    7 2     
   14    6    8 am    
   15    8    9 1     
   16    8   26 1     
   17    9   10 1     
   18    9   27 1     
   19    9   28 1     
   20   10   11 1     
   21   10   12 1     
   22   10   29 1     
   23   11   30 1     
   24   11   31 1     
   25   11   32 1     
   26   12   17 1     
   27   12   13 1     
   28   12   45 1     
   29   13   14 1     
   30   13   33 1     
   31   13   34 1     
   32   14   15 1     
   33   14   35 1     
   34   14   36 1     
   35   15   16 1     
   36   15   37 1     
   37   15   38 1     
   38   16   17 1     
   39   16   39 1     
   40   16   40 1     
   41   17   18 1     
   42   17   41 1     
   43   18   42 1     
   44   18   43 1     
   45   18   44 1     
   46   19   20 1     
   47    7   46 1     
   48    7   47 1     
   49   19   48 1     
   50   20   49 1     
   51   20   50 1     
@<TRIPOS>SUBSTRUCTURE
      1 S1             1
@<TRIPOS>SET
LONE_PAIRS      STATIC     ATOMS    <user>   **** ""
5 46 47 48 49 50
DONOR_HYDROGENS      STATIC     ATOMS    <user>   **** ""
3 25 26 45
ATOM$BLUE        STATIC     ATOMS    COLORGROUP SYSTEM
5 46 47 48 49 50
ATOM$RED        STATIC     ATOMS    COLORGROUP SYSTEM
3 25 26 45
