AV-unprocessed.smi:1007|AV-procd|sdf|4404|dock10
  -GOLD-   22720 2343D 1   1.00000     0.00000
 Structure written by MMmdl.
 57 59  0  0  0  0  0  0  0  0  3 V2000
  143.8816  145.1262  154.0813 C   0  0  0  0  0  0  0  0  0  0  0  0
  144.1942  144.4961  155.3113 O   0  0  0  0  0  0  0  0  0  0  0  0
  144.3370  143.0914  155.1818 C   0  0  0  0  0  0  0  0  0  0  0  0
  145.7127  142.7859  154.5703 C   0  0  0  0  0  0  0  0  0  0  0  0
  145.8705  141.3542  154.2110 N   0  3  0  0  0  0  0  0  0  0  0  0
  145.6658  140.4247  155.3542 C   0  0  0  0  0  0  0  0  0  0  0  0
  145.7956  138.9619  154.8833 C   0  0  0  0  0  0  0  0  0  0  0  0
  147.0776  138.6702  154.2363 N   0  0  0  0  0  0  0  0  0  0  0  0
  148.2332  138.6492  155.1411 C   0  0  0  0  0  0  0  0  0  0  0  0
  149.5906  138.3568  154.4727 C   0  0  2  0  0  0  0  0  0  0  0  0
  149.7534  136.9541  154.4107 O   0  0  0  0  0  0  0  0  0  0  0  0
  150.7777  138.9642  155.2474 C   0  0  0  0  0  0  0  0  0  0  0  0
  150.5317  140.3523  155.6573 N   0  0  0  0  0  0  0  0  0  0  0  0
  149.7287  141.3006  155.1034 C   0  0  0  0  0  0  0  0  0  0  0  0
  149.8387  142.4253  155.8638 N   0  3  0  0  0  0  0  0  0  0  0  0
  150.7249  142.1907  156.9177 C   0  0  0  0  0  0  0  0  0  0  0  0
  151.1554  143.0172  157.9489 C   0  0  0  0  0  0  0  0  0  0  0  0
  152.0710  142.4689  158.8757 C   0  0  0  0  0  0  0  0  0  0  0  0
  152.5578  143.3441  160.0180 C   0  0  0  0  0  0  0  0  0  0  0  0
  152.5274  141.1311  158.7476 C   0  0  0  0  0  0  0  0  0  0  0  0
  153.5131  140.5525  159.7485 C   0  0  0  0  0  0  0  0  0  0  0  0
  152.0781  140.3068  157.6912 C   0  0  0  0  0  0  0  0  0  0  0  0
  151.1745  140.8625  156.7894 C   0  0  0  0  0  0  0  0  0  0  0  0
  147.2527  139.5974  153.1187 C   0  0  0  0  0  0  0  0  0  0  0  0
  147.1655  141.0796  153.5370 C   0  0  0  0  0  0  0  0  0  0  0  0
  143.7845  146.2010  154.2343 H   0  0  0  0  0  0  0  0  0  0  0  0
  142.9378  144.7576  153.6774 H   0  0  0  0  0  0  0  0  0  0  0  0
  144.6673  144.9612  153.3427 H   0  0  0  0  0  0  0  0  0  0  0  0
  144.2708  142.6283  156.1675 H   0  0  0  0  0  0  0  0  0  0  0  0
  143.5293  142.6743  154.5802 H   0  0  0  0  0  0  0  0  0  0  0  0
  145.8311  143.4025  153.6781 H   0  0  0  0  0  0  0  0  0  0  0  0
  146.5087  143.0815  155.2554 H   0  0  0  0  0  0  0  0  0  0  0  0
  146.3807  140.6433  156.1482 H   0  0  0  0  0  0  0  0  0  0  0  0
  144.6740  140.5677  155.7808 H   0  0  0  0  0  0  0  0  0  0  0  0
  145.6223  138.2846  155.7180 H   0  0  0  0  0  0  0  0  0  0  0  0
  144.9918  138.7539  154.1757 H   0  0  0  0  0  0  0  0  0  0  0  0
  148.3086  139.6184  155.6366 H   0  0  0  0  0  0  0  0  0  0  0  0
  148.0684  137.9263  155.9397 H   0  0  0  0  0  0  0  0  0  0  0  0
  149.5919  138.7174  153.4446 H   0  0  0  0  0  0  0  0  0  0  0  0
  149.3678  136.6390  153.6071 H   0  0  0  0  0  0  0  0  0  0  0  0
  151.0092  138.3804  156.1389 H   0  0  0  0  0  0  0  0  0  0  0  0
  151.6783  138.9563  154.6318 H   0  0  0  0  0  0  0  0  0  0  0  0
  149.1112  141.1798  154.2249 H   0  0  0  0  0  0  0  0  0  0  0  0
  150.8042  144.0347  158.0398 H   0  0  0  0  0  0  0  0  0  0  0  0
  153.6398  143.4685  159.9710 H   0  0  0  0  0  0  0  0  0  0  0  0
  152.3014  142.8974  160.9789 H   0  0  0  0  0  0  0  0  0  0  0  0
  152.1065  144.3361  159.9815 H   0  0  0  0  0  0  0  0  0  0  0  0
  153.7741  139.5228  159.5020 H   0  0  0  0  0  0  0  0  0  0  0  0
  153.0872  140.5573  160.7520 H   0  0  0  0  0  0  0  0  0  0  0  0
  154.4347  141.1350  159.7599 H   0  0  0  0  0  0  0  0  0  0  0  0
  152.4242  139.2887  157.5920 H   0  0  0  0  0  0  0  0  0  0  0  0
  148.2064  139.4075  152.6246 H   0  0  0  0  0  0  0  0  0  0  0  0
  146.4864  139.3975  152.3683 H   0  0  0  0  0  0  0  0  0  0  0  0
  147.2528  141.7068  152.6491 H   0  0  0  0  0  0  0  0  0  0  0  0
  147.9929  141.3496  154.1944 H   0  0  0  0  0  0  0  0  0  0  0  0
  145.1528  141.1479  153.5302 H   0  0  0  0  0  0  0  0  0  0  0  0
  149.3413  143.2863  155.6766 H   0  0  0  0  0  0  0  0  0  0  0  0
  1  2  1  0  0  0  0
  1 26  1  0  0  0  0
  1 27  1  0  0  0  0
  1 28  1  0  0  0  0
  2  3  1  0  0  0  0
  3  4  1  0  0  0  0
  3 29  1  0  0  0  0
  3 30  1  0  0  0  0
  4  5  1  0  0  0  0
  4 31  1  0  0  0  0
  4 32  1  0  0  0  0
  5 25  1  0  0  0  0
  5  6  1  0  0  0  0
  5 56  1  0  0  0  0
  6  7  1  0  0  0  0
  6 33  1  0  0  0  0
  6 34  1  0  0  0  0
  7  8  1  0  0  0  0
  7 35  1  0  0  0  0
  7 36  1  0  0  0  0
  8  9  1  0  0  0  0
  8 24  1  0  0  0  0
  9 10  1  0  0  0  0
  9 37  1  0  0  0  0
  9 38  1  0  0  0  0
 10 11  1  0  0  0  0
 10 12  1  0  0  0  0
 10 39  1  0  0  0  0
 11 40  1  0  0  0  0
 12 13  1  0  0  0  0
 12 41  1  0  0  0  0
 12 42  1  0  0  0  0
 13 23  1  0  0  0  0
 13 14  1  0  0  0  0
 14 15  2  0  0  0  0
 14 43  1  0  0  0  0
 15 16  1  0  0  0  0
 15 57  1  0  0  0  0
 16 23  2  0  0  0  0
 16 17  1  0  0  0  0
 17 18  2  0  0  0  0
 17 44  1  0  0  0  0
 18 19  1  0  0  0  0
 18 20  1  0  0  0  0
 19 45  1  0  0  0  0
 19 46  1  0  0  0  0
 19 47  1  0  0  0  0
 20 21  1  0  0  0  0
 20 22  2  0  0  0  0
 21 48  1  0  0  0  0
 21 49  1  0  0  0  0
 21 50  1  0  0  0  0
 22 23  1  0  0  0  0
 22 51  1  0  0  0  0
 24 25  1  0  0  0  0
 24 52  1  0  0  0  0
 24 53  1  0  0  0  0
 25 54  1  0  0  0  0
 25 55  1  0  0  0  0
M  CHG  1   5   1
M  CHG  1  15   1
M  END
> <s_m_source_file>
AV-unprocessed.smi

> <i_m_source_file_index>
1007

> <i_lp_mmshare_version>
43012

> <i_f3d_flags>
0

> <s_epik_input>
W0NIM11PW0NIMl1bQ0gyXU4xW0NIMl1bQ0gyXU4oW0NIMl1bQ0gyXTEpW0NIMl1bQ0BIXShbT0hdKVtDSDJdbihbY0hdbjIpYyhjMjMpW2NIXWMoW0NIM10pYyhbY0hdMylbQ0gzXQ==

> <s_epik_cmdline>
J2VwaWtfcHl0aG9uJywgJy1waCcsICc3LjAnLCAnLXRuJywgJzgnLCAnLW1hJywgJzIwMCcsICctbWV0YWxfYmluZGluZycsICctaW1hZScsICc8aW5maWxlLm1hZT4nLCAnLW9tYWUnLCAnPG91dGZpbGUubWFlPic=

> <r_epik_Ionization_Penalty>
1.34507

> <r_epik_Ionization_Penalty_Charging>
1.29906

> <r_epik_Ionization_Penalty_Neutral>
0.0460038

> <r_epik_State_Penalty>
2.55679

> <r_epik_Charging_Adjusted_Penalty>
3.85586

> <i_epik_Tot_Q>
2

> <i_epik_Tot_abs_Q>
2

> <r_epik_Metal_State_Penalty>
6.56928

> <b_epik_Metal_Only>
0

> <s_lp_Force_Field>
OPLS_2005

> <r_lp_Energy>
40.0573

> <b_lp_Chiralities_Consistent>
1

> <s_lp_Variant>
AV-unprocessed.smi:1007-7

> <Gold.Version>
5.8.1

> <Gold.Id.Protein>
6NUR|6NUR_protein|mol2

> <Gold.PLP.Fitness>
59.9460

> <Gold.PLP.PLP>
-46.5785

> <Gold.PLP.part.hbond>
-2.9194

> <Gold.PLP.part.metal>
0.0000

> <Gold.PLP.part.buried>
-4.1656

> <Gold.PLP.part.nonpolar>
-39.8921

> <Gold.PLP.part.repulsive>
0.4239

> <Gold.PLP.ligand.clash>
0.0000

> <Gold.PLP.ligand.torsion>
0.8830

> <Gold.PLP.Chemscore.Hbond>
5.0000

> <Gold.PLP.Chemscore.CHOScore>
0.0000

> <Gold.PLP.Chemscore.Metal>
0.0000

> <Gold.Chemscore.Hbonds>
donor molecule, donor type, donor heavy atom, donor atom, acceptor molecule, acceptor atom, score
      L1  H     5    56       P1 10175  2.00
      L1  H    11    40       P1  7948  1.00
      L1  H    15    57       P1  8028  1.85

> <Gold.PLP.Chemscore.Internal.Correction>
0.1336

> <Gold.Rescore>
     Score         DG    S(hbond)    S(metal)    S(lipo)     H(rot)  DE(clash)    DE(int)     intcor
     21.15     -21.92       2.84        0.00     117.26       2.64       0.13       0.63       ----

> <Gold.Chemscore.Fitness>
21.1523

> <Gold.Chemscore.DG>
-21.9183

> <Gold.Chemscore.ZeroCoef>
-5.4800

> <Gold.Chemscore.Hbond>
2.8399

> <Gold.Chemscore.Metal>
0.0000

> <Gold.Chemscore.Lipo>
117.2595

> <Gold.Chemscore.Internal_Hbond>
0.0000

> <Gold.Chemscore.DEClash>
0.1342

> <Gold.Chemscore.DEInternal>
0.6317

> <Gold.Chemscore.Rot>
2.6432

> <Gold.Chemscore.Internal.Correction>
   9.000000E+99

> <Gold.Chemscore.Hbonds>
donor molecule, donor type, donor heavy atom, donor atom, acceptor molecule, acceptor atom, score
      L1  H     5    56       P1 10175  0.45
      L1  H    11    40       P1  7948  0.91
      L1  H    15    57       P1  8028  0.89

> <Gold.Chemscore.Hbond.Weighted>
-9.4854

> <Gold.Chemscore.Metal.Weighted>
-0.0000

> <Gold.Chemscore.Lipo.Weighted>
-13.7194

> <Gold.Chemscore.Internal_Hbond.Weighted>
0.0000

> <Gold.Chemscore.DEClash.Weighted>
0.1342

> <Gold.Chemscore.DEInternal.Weighted>
0.6317

> <Gold.Chemscore.Rot.Weighted>
6.7665

> <Gold.Chemscore.Internal.Correction.Weighted>
   9.000000E+99

> <Gold.Protein.RotatedTorsions>
[ 6907 6896 6895 6894 ] final   55.14 input  -60.11 | X-H torsion
[ 7974 7965 7964 7962 ] final  174.91 input  175.53 | X-H torsion
[ 8008 7997 7996 7995 ] final -142.06 input   59.86 | X-H torsion
[ 10167 10162 10161 10158 ] final  131.67 input  -65.29 | X-H torsion
[ 10718 10713 10712 10709 ] final    2.20 input   66.30 | X-H torsion
[ 10763 10752 10751 10750 ] final  -53.54 input  -60.55 | X-H torsion
[ 11005 11000 10999 10996 ] final   62.53 input  -57.11 | X-H torsion

> <Gold.Protein.ActiveResidues>
 VAL166  LYS551  ARG553  GLY616  TRP617  ASP618  TYR619  PRO620  LYS621  CYS622 
 ASP623  PHE694  ASN695  SER759  ASP760  ASP761  ALA762  ILE779  LEU786  VAL792 
 PHE793  MET794  SER795  GLU796  ALA797  LYS798  CYS799  TRP800  GLU811  SER814 

> <Gold.Protein.RotatedAtoms>
  152.3509  134.7006  160.0236 H   0  0  0  0  0  0  0  0  0  0  0  0  # atno 6907 bound_to 6896
  151.7360  133.3314  159.3361 H   0  0  0  0  0  0  0  0  0  0  0  0  # atno 6908 bound_to 6896
  150.7540  134.6254  159.6202 H   0  0  0  0  0  0  0  0  0  0  0  0  # atno 6909 bound_to 6896
  144.7212  139.9868  143.6439 H   0  0  0  0  0  0  0  0  0  0  0  0  # atno 7974 bound_to 7965
  155.4880  140.0565  157.2958 H   0  0  0  0  0  0  0  0  0  0  0  0  # atno 8008 bound_to 7997
  154.4634  140.2007  156.0134 H   0  0  0  0  0  0  0  0  0  0  0  0  # atno 8009 bound_to 7997
  156.0931  140.3230  155.7846 H   0  0  0  0  0  0  0  0  0  0  0  0  # atno 8010 bound_to 7997
  139.5373  144.6696  151.4741 H   0  0  0  0  0  0  0  0  0  0  0  0  # atno 10167 bound_to 10162
  156.8595  130.5581  149.5664 H   0  0  0  0  0  0  0  0  0  0  0  0  # atno 10718 bound_to 10713
  154.1604  135.6475  153.4984 H   0  0  0  0  0  0  0  0  0  0  0  0  # atno 10763 bound_to 10752
  153.0112  135.5359  154.6716 H   0  0  0  0  0  0  0  0  0  0  0  0  # atno 10764 bound_to 10752
  154.6028  135.2945  155.0488 H   0  0  0  0  0  0  0  0  0  0  0  0  # atno 10765 bound_to 10752
  140.0086  134.6331  155.9816 H   0  0  0  0  0  0  0  0  0  0  0  0  # atno 11005 bound_to 11000
  146.0444  139.3451  143.0678 LP  0  0  0  0  0  0  0  0  0  0  0  0  # atno 17320 bound_to 7965
  145.8294  140.9638  143.0857 LP  0  0  0  0  0  0  0  0  0  0  0  0  # atno 17321 bound_to 7965
  140.6586  143.8546  150.6863 LP  0  0  0  0  0  0  0  0  0  0  0  0  # atno 17342 bound_to 10162
  140.1933  143.4018  152.1847 LP  0  0  0  0  0  0  0  0  0  0  0  0  # atno 17343 bound_to 10162
  156.0784  130.5801  150.9518 LP  0  0  0  0  0  0  0  0  0  0  0  0  # atno 17370 bound_to 10713
  157.6258  131.0926  150.8536 LP  0  0  0  0  0  0  0  0  0  0  0  0  # atno 17371 bound_to 10713
  141.1695  133.6537  156.4598 LP  0  0  0  0  0  0  0  0  0  0  0  0  # atno 17394 bound_to 11000
  140.4596  134.6854  157.5079 LP  0  0  0  0  0  0  0  0  0  0  0  0  # atno 17395 bound_to 11000

$$$$
