AV-unprocessed.smi:1702|AV-procd|sdf|6850|dock1
  -GOLD-   22720 8 33D 1   1.00000     0.00000
 Structure written by MMmdl.
 45 47  0  0  0  0  0  0  0  0  3 V2000
  151.0498  145.4216  159.7273 C   0  0  0  0  0  0  0  0  0  0  0  0
  150.8786  144.0801  159.0005 C   0  0  2  0  0  0  0  0  0  0  0  0
  151.3995  144.1456  157.5550 C   0  0  0  0  0  0  0  0  0  0  0  0
  151.1921  142.8079  156.8251 C   0  0  0  0  0  0  0  0  0  0  0  0
  149.7623  142.4050  156.8406 N   0  3  1  0  0  0  0  0  0  0  0  0
  149.5073  141.1944  156.0176 C   0  0  0  0  0  0  0  0  0  0  0  0
  148.9097  141.5311  154.6366 C   0  0  1  0  0  0  0  0  0  0  0  0
  149.7731  141.0353  153.6310 O   0  0  0  0  0  0  0  0  0  0  0  0
  147.5089  140.9128  154.4525 C   0  0  0  0  0  0  0  0  0  0  0  0
  146.4966  141.5118  155.3333 N   0  0  0  0  0  0  0  0  0  0  0  0
  146.1636  141.2089  156.6179 C   0  0  0  0  0  0  0  0  0  0  0  0
  145.1604  142.0508  156.9922 N   0  3  0  0  0  0  0  0  0  0  0  0
  144.8487  142.9055  155.9323 C   0  0  0  0  0  0  0  0  0  0  0  0
  143.9073  143.9245  155.8283 C   0  0  0  0  0  0  0  0  0  0  0  0
  143.8439  144.6072  154.5957 C   0  0  0  0  0  0  0  0  0  0  0  0
  142.9427  145.6055  154.4392 F   0  0  0  0  0  0  0  0  0  0  0  0
  144.6990  144.2697  153.5249 C   0  0  0  0  0  0  0  0  0  0  0  0
  144.6049  144.9496  152.3577 F   0  0  0  0  0  0  0  0  0  0  0  0
  145.6517  143.2361  153.6433 C   0  0  0  0  0  0  0  0  0  0  0  0
  145.7047  142.5653  154.8641 C   0  0  0  0  0  0  0  0  0  0  0  0
  149.2456  142.2933  158.2306 C   0  0  0  0  0  0  0  0  0  0  0  0
  149.4107  143.6203  158.9904 C   0  0  0  0  0  0  0  0  0  0  0  0
  150.4836  146.2143  159.2374 H   0  0  0  0  0  0  0  0  0  0  0  0
  152.0967  145.7254  159.7494 H   0  0  0  0  0  0  0  0  0  0  0  0
  150.7048  145.3557  160.7594 H   0  0  0  0  0  0  0  0  0  0  0  0
  151.4650  143.3343  159.5393 H   0  0  0  0  0  0  0  0  0  0  0  0
  150.8860  144.9398  157.0111 H   0  0  0  0  0  0  0  0  0  0  0  0
  152.4588  144.4046  157.5506 H   0  0  0  0  0  0  0  0  0  0  0  0
  151.5366  142.9093  155.7951 H   0  0  0  0  0  0  0  0  0  0  0  0
  151.7975  142.0265  157.2874 H   0  0  0  0  0  0  0  0  0  0  0  0
  150.4391  140.6471  155.8646 H   0  0  0  0  0  0  0  0  0  0  0  0
  148.8488  140.5198  156.5670 H   0  0  0  0  0  0  0  0  0  0  0  0
  148.8334  142.6102  154.5102 H   0  0  0  0  0  0  0  0  0  0  0  0
  149.3102  140.3834  153.1266 H   0  0  0  0  0  0  0  0  0  0  0  0
  147.1672  141.0463  153.4250 H   0  0  0  0  0  0  0  0  0  0  0  0
  147.5293  139.8373  154.6335 H   0  0  0  0  0  0  0  0  0  0  0  0
  146.6109  140.4382  157.2295 H   0  0  0  0  0  0  0  0  0  0  0  0
  143.2512  144.1868  156.6454 H   0  0  0  0  0  0  0  0  0  0  0  0
  146.3019  142.9876  152.8183 H   0  0  0  0  0  0  0  0  0  0  0  0
  148.1914  142.0195  158.2248 H   0  0  0  0  0  0  0  0  0  0  0  0
  149.7744  141.4949  158.7539 H   0  0  0  0  0  0  0  0  0  0  0  0
  149.0490  143.5043  160.0127 H   0  0  0  0  0  0  0  0  0  0  0  0
  148.7854  144.3847  158.5268 H   0  0  0  0  0  0  0  0  0  0  0  0
  149.2560  143.1585  156.3969 H   0  0  0  0  0  0  0  0  0  0  0  0
  144.7224  142.0401  157.9047 H   0  0  0  0  0  0  0  0  0  0  0  0
  1  2  1  0  0  0  0
  1 23  1  0  0  0  0
  1 24  1  0  0  0  0
  1 25  1  0  0  0  0
  2 22  1  0  0  0  0
  2  3  1  0  0  0  0
  2 26  1  0  0  0  0
  3  4  1  0  0  0  0
  3 27  1  0  0  0  0
  3 28  1  0  0  0  0
  4  5  1  0  0  0  0
  4 29  1  0  0  0  0
  4 30  1  0  0  0  0
  5  6  1  0  0  0  0
  5 21  1  0  0  0  0
  5 44  1  0  0  0  0
  6  7  1  0  0  0  0
  6 31  1  0  0  0  0
  6 32  1  0  0  0  0
  7  8  1  0  0  0  0
  7  9  1  0  0  0  0
  7 33  1  0  0  0  0
  8 34  1  0  0  0  0
  9 10  1  0  0  0  0
  9 35  1  0  0  0  0
  9 36  1  0  0  0  0
 10 20  1  0  0  0  0
 10 11  1  0  0  0  0
 11 12  2  0  0  0  0
 11 37  1  0  0  0  0
 12 13  1  0  0  0  0
 12 45  1  0  0  0  0
 13 20  2  0  0  0  0
 13 14  1  0  0  0  0
 14 15  2  0  0  0  0
 14 38  1  0  0  0  0
 15 16  1  0  0  0  0
 15 17  1  0  0  0  0
 17 18  1  0  0  0  0
 17 19  2  0  0  0  0
 19 20  1  0  0  0  0
 19 39  1  0  0  0  0
 21 22  1  0  0  0  0
 21 40  1  0  0  0  0
 21 41  1  0  0  0  0
 22 42  1  0  0  0  0
 22 43  1  0  0  0  0
M  CHG  1   5   1
M  CHG  1  12   1
M  END
> <s_m_source_file>
AV-unprocessed.smi

> <i_m_source_file_index>
1702

> <i_lp_mmshare_version>
43012

> <i_f3d_flags>
0

> <s_epik_input>
W0NIM11bQ0hdMVtDSDJdW0NIMl1OKFtDSDJdW0NIMl0xKVtDSDJdW0NASF0oW09IXSlbQ0gyXW4oW2NIXW4yKWMoYzIzKVtjSF1jKEYpYyhGKVtjSF0z

> <s_epik_cmdline>
J2VwaWtfcHl0aG9uJywgJy1waCcsICc3LjAnLCAnLXRuJywgJzgnLCAnLW1hJywgJzIwMCcsICctbWV0YWxfYmluZGluZycsICctaW1hZScsICc8aW5maWxlLm1hZT4nLCAnLW9tYWUnLCAnPG91dGZpbGUubWFlPic=

> <r_epik_Ionization_Penalty>
2.33291

> <r_epik_Ionization_Penalty_Charging>
2.33291

> <r_epik_Ionization_Penalty_Neutral>
6.90208e-07

> <r_epik_State_Penalty>
2.4838

> <r_epik_Charging_Adjusted_Penalty>
4.81672

> <i_epik_Tot_Q>
2

> <i_epik_Tot_abs_Q>
2

> <r_epik_Metal_State_Penalty>
6.56754

> <b_epik_Metal_Only>
0

> <s_lp_Force_Field>
OPLS_2005

> <r_lp_Energy>
29.8556

> <b_lp_Chiralities_Consistent>
1

> <s_lp_Variant>
AV-unprocessed.smi:1702-6

> <Gold.Version>
5.8.1

> <Gold.Id.Protein>
6NUR|6NUR_protein|mol2

> <Gold.PLP.Fitness>
56.5859

> <Gold.PLP.PLP>
-48.9823

> <Gold.PLP.part.hbond>
-3.7603

> <Gold.PLP.part.metal>
0.0000

> <Gold.PLP.part.buried>
-5.0861

> <Gold.PLP.part.nonpolar>
-40.4915

> <Gold.PLP.part.repulsive>
0.0290

> <Gold.PLP.ligand.clash>
0.0000

> <Gold.PLP.ligand.torsion>
1.7627

> <Gold.PLP.Chemscore.Hbond>
3.6826

> <Gold.PLP.Chemscore.CHOScore>
0.0000

> <Gold.PLP.Chemscore.Metal>
0.0000

> <Gold.Chemscore.Hbonds>
donor molecule, donor type, donor heavy atom, donor atom, acceptor molecule, acceptor atom, score
      L1  H     5    44       P1  8028  2.00
      L1  H     8    34       P1  7957  0.48
      P1  H  7989  7998       L1     8  0.30
      P1  H  8011  8017       L1     8  0.88

> <Gold.PLP.Chemscore.Internal.Correction>
0.0811

> <Gold.Rescore>
     Score         DG    S(hbond)    S(metal)    S(lipo)     H(rot)  DE(clash)    DE(int)     intcor
     15.35     -17.24       1.68        0.00     103.41       2.32       0.19       1.69       ----

> <Gold.Chemscore.Fitness>
15.3542

> <Gold.Chemscore.DG>
-17.2425

> <Gold.Chemscore.ZeroCoef>
-5.4800

> <Gold.Chemscore.Hbond>
1.6783

> <Gold.Chemscore.Metal>
0.0000

> <Gold.Chemscore.Lipo>
103.4061

> <Gold.Chemscore.Internal_Hbond>
0.0000

> <Gold.Chemscore.DEClash>
0.1941

> <Gold.Chemscore.DEInternal>
1.6943

> <Gold.Chemscore.Rot>
2.3210

> <Gold.Chemscore.Internal.Correction>
   9.000000E+99

> <Gold.Chemscore.Hbonds>
donor molecule, donor type, donor heavy atom, donor atom, acceptor molecule, acceptor atom, score
      L1  H     5    44       P1  8028  1.00
      L1  H     8    34       P1  7957  0.45
      P1  H  7989  7998       L1     8  0.26
      P1  H  8011  8017       L1     8  0.07

> <Gold.Chemscore.Hbond.Weighted>
-5.6057

> <Gold.Chemscore.Metal.Weighted>
-0.0000

> <Gold.Chemscore.Lipo.Weighted>
-12.0985

> <Gold.Chemscore.Internal_Hbond.Weighted>
0.0000

> <Gold.Chemscore.DEClash.Weighted>
0.1941

> <Gold.Chemscore.DEInternal.Weighted>
1.6943

> <Gold.Chemscore.Rot.Weighted>
5.9416

> <Gold.Chemscore.Internal.Correction.Weighted>
   9.000000E+99

> <Gold.Protein.RotatedTorsions>
[ 6907 6896 6895 6894 ] final  156.74 input  -60.11 | X-H torsion
[ 7974 7965 7964 7962 ] final  -37.33 input  175.53 | X-H torsion
[ 8008 7997 7996 7995 ] final  -54.22 input   59.86 | X-H torsion
[ 10167 10162 10161 10158 ] final -174.60 input  -65.29 | X-H torsion
[ 10718 10713 10712 10709 ] final  -94.88 input   66.30 | X-H torsion
[ 10763 10752 10751 10750 ] final    6.97 input  -60.55 | X-H torsion
[ 11005 11000 10999 10996 ] final -134.12 input  -57.11 | X-H torsion

> <Gold.Protein.ActiveResidues>
 VAL166  LYS551  ARG553  GLY616  TRP617  ASP618  TYR619  PRO620  LYS621  CYS622 
 ASP623  PHE694  ASN695  SER759  ASP760  ASP761  ALA762  ILE779  LEU786  VAL792 
 PHE793  MET794  SER795  GLU796  ALA797  LYS798  CYS799  TRP800  GLU811  SER814 

> <Gold.Protein.RotatedAtoms>
  152.0253  133.3915  159.4274 H   0  0  0  0  0  0  0  0  0  0  0  0  # atno 6907 bound_to 6896
  150.6886  134.3581  159.4947 H   0  0  0  0  0  0  0  0  0  0  0  0  # atno 6908 bound_to 6896
  152.1360  134.9098  160.0607 H   0  0  0  0  0  0  0  0  0  0  0  0  # atno 6909 bound_to 6896
  146.0584  140.6383  142.9008 H   0  0  0  0  0  0  0  0  0  0  0  0  # atno 7974 bound_to 7965
  154.4156  140.1181  156.5280 H   0  0  0  0  0  0  0  0  0  0  0  0  # atno 8008 bound_to 7997
  155.6634  140.3496  155.4772 H   0  0  0  0  0  0  0  0  0  0  0  0  # atno 8009 bound_to 7997
  155.9694  140.1138  157.0816 H   0  0  0  0  0  0  0  0  0  0  0  0  # atno 8010 bound_to 7997
  139.5625  144.1835  152.1261 H   0  0  0  0  0  0  0  0  0  0  0  0  # atno 10167 bound_to 10162
  156.0034  130.5086  150.5993 H   0  0  0  0  0  0  0  0  0  0  0  0  # atno 10718 bound_to 10713
  153.2416  135.6904  153.7777 H   0  0  0  0  0  0  0  0  0  0  0  0  # atno 10763 bound_to 10752
  153.6904  135.3313  155.3201 H   0  0  0  0  0  0  0  0  0  0  0  0  # atno 10764 bound_to 10752
  154.8358  135.4544  154.1340 H   0  0  0  0  0  0  0  0  0  0  0  0  # atno 10765 bound_to 10752
  140.9019  134.1680  157.4454 H   0  0  0  0  0  0  0  0  0  0  0  0  # atno 11005 bound_to 11000
  144.7161  140.4214  143.7043 LP  0  0  0  0  0  0  0  0  0  0  0  0  # atno 17320 bound_to 7965
  145.6602  139.1580  143.2812 LP  0  0  0  0  0  0  0  0  0  0  0  0  # atno 17321 bound_to 7965
  140.1351  144.5253  150.6778 LP  0  0  0  0  0  0  0  0  0  0  0  0  # atno 17342 bound_to 10162
  140.6906  143.2374  151.5141 LP  0  0  0  0  0  0  0  0  0  0  0  0  # atno 17343 bound_to 10162
  157.3844  131.0786  151.1448 LP  0  0  0  0  0  0  0  0  0  0  0  0  # atno 17370 bound_to 10713
  157.2160  130.6459  149.5792 LP  0  0  0  0  0  0  0  0  0  0  0  0  # atno 17371 bound_to 10713
  139.8743  134.9901  156.5488 LP  0  0  0  0  0  0  0  0  0  0  0  0  # atno 17394 bound_to 11000
  140.8219  133.8346  155.8904 LP  0  0  0  0  0  0  0  0  0  0  0  0  # atno 17395 bound_to 11000

$$$$
