AV-unprocessed.smi:2568|AV-procd|sdf|10101|dock9
  -GOLD-   2272014113D 1   1.00000     0.00000
 Structure written by MMmdl.
 23 24  0  0  0  0  0  0  0  0  2 V2000
  152.6991  140.9246  159.4948 C   0  0  0  0  0  0  0  0  0  0  0  0
  152.1046  140.7008  158.1236 C   0  0  0  0  0  0  0  0  0  0  0  0
  152.4736  139.7482  157.2492 N   0  5  0  0  0  0  0  0  0  0  0  0
  151.7473  139.8443  156.1540 N   0  0  0  0  0  0  0  0  0  0  0  0
  150.9238  140.8841  156.3602 C   0  0  0  0  0  0  0  0  0  0  0  0
  149.8720  141.3523  155.3736 C   0  0  1  0  0  0  0  0  0  0  0  0
  149.8013  140.4144  154.1514 C   0  0  0  0  0  0  0  0  0  0  0  0
  148.7782  140.8692  153.2095 N   0  0  0  0  0  0  0  0  0  0  0  0
  147.4807  141.0140  153.8658 C   0  0  0  0  0  0  0  0  0  0  0  0
  147.6027  141.9376  155.0896 C   0  0  0  0  0  0  0  0  0  0  0  0
  148.5825  141.4168  155.9802 O   0  0  0  0  0  0  0  0  0  0  0  0
  151.1256  141.4135  157.5763 N   0  0  0  0  0  0  0  0  0  0  0  0
  153.4509  140.1671  159.7174 H   0  0  0  0  0  0  0  0  0  0  0  0
  151.9215  140.8747  160.2569 H   0  0  0  0  0  0  0  0  0  0  0  0
  153.1712  141.9057  159.5444 H   0  0  0  0  0  0  0  0  0  0  0  0
  150.1581  142.3551  155.0503 H   0  0  0  0  0  0  0  0  0  0  0  0
  150.7711  140.3747  153.6547 H   0  0  0  0  0  0  0  0  0  0  0  0
  149.5767  139.3991  154.4810 H   0  0  0  0  0  0  0  0  0  0  0  0
  148.7018  140.2048  152.4464 H   0  0  0  0  0  0  0  0  0  0  0  0
  146.7493  141.4152  153.1642 H   0  0  0  0  0  0  0  0  0  0  0  0
  147.1120  140.0368  154.1802 H   0  0  0  0  0  0  0  0  0  0  0  0
  147.8645  142.9539  154.7905 H   0  0  0  0  0  0  0  0  0  0  0  0
  146.6476  141.9958  155.6117 H   0  0  0  0  0  0  0  0  0  0  0  0
  1 13  1  0  0  0  0
  1 14  1  0  0  0  0
  1 15  1  0  0  0  0
  1  2  1  0  0  0  0
  2 12  2  0  0  0  0
  2  3  1  0  0  0  0
  3  4  1  0  0  0  0
  4  5  2  0  0  0  0
  5 12  1  0  0  0  0
  5  6  1  0  0  0  0
  6 11  1  0  0  0  0
  6  7  1  0  0  0  0
  6 16  1  0  0  0  0
  7  8  1  0  0  0  0
  7 17  1  0  0  0  0
  7 18  1  0  0  0  0
  8  9  1  0  0  0  0
  8 19  1  0  0  0  0
  9 10  1  0  0  0  0
  9 20  1  0  0  0  0
  9 21  1  0  0  0  0
 10 11  1  0  0  0  0
 10 22  1  0  0  0  0
 10 23  1  0  0  0  0
M  CHG  1   3  -1
M  END
> <s_m_source_file>
AV-unprocessed.smi

> <i_m_source_file_index>
2568

> <i_lp_mmshare_version>
43012

> <i_f3d_flags>
0

> <s_epik_input>
W0NIM11jMW5bbkhdYyhuMSlbQ0BASF0yW0NIMl1bTkhdW0NIMl1bQ0gyXU8y

> <s_epik_cmdline>
J2VwaWtfcHl0aG9uJywgJy1waCcsICc3LjAnLCAnLXRuJywgJzgnLCAnLW1hJywgJzIwMCcsICctbWV0YWxfYmluZGluZycsICctaW1hZScsICc8aW5maWxlLm1hZT4nLCAnLW9tYWUnLCAnPG91dGZpbGUubWFlPic=

> <r_epik_Ionization_Penalty>
17.7898

> <r_epik_Ionization_Penalty_Charging>
16.2165

> <r_epik_Ionization_Penalty_Neutral>
1.5733

> <r_epik_State_Penalty>
6.78491

> <r_epik_Charging_Adjusted_Penalty>
23.0014

> <i_epik_Tot_Q>
-1

> <i_epik_Tot_abs_Q>
1

> <r_epik_Metal_State_Penalty>
3.02615

> <b_epik_Metal_Only>
1

> <s_lp_Force_Field>
OPLS_2005

> <r_lp_Energy>
14.4772

> <b_lp_Chiralities_Consistent>
1

> <s_lp_Variant>
AV-unprocessed.smi:2568-14

> <Gold.Version>
5.8.1

> <Gold.Id.Protein>
6NUR|6NUR_protein|mol2

> <Gold.PLP.Fitness>
28.5275

> <Gold.PLP.PLP>
-17.7201

> <Gold.PLP.part.hbond>
-2.4929

> <Gold.PLP.part.metal>
0.0000

> <Gold.PLP.part.buried>
1.3778

> <Gold.PLP.part.nonpolar>
-16.7148

> <Gold.PLP.part.repulsive>
0.1247

> <Gold.PLP.ligand.clash>
0.0000

> <Gold.PLP.ligand.torsion>
0.0855

> <Gold.PLP.Chemscore.Hbond>
3.6560

> <Gold.PLP.Chemscore.CHOScore>
0.0000

> <Gold.PLP.Chemscore.Metal>
0.0000

> <Gold.Chemscore.Hbonds>
donor molecule, donor type, donor heavy atom, donor atom, acceptor molecule, acceptor atom, score
      L1  H     8    19       P1  7957  0.59
      P1  H  7997  8008       L1     3  2.00
      P1  H  8011  8017       L1     8  0.98

> <Gold.PLP.Chemscore.Internal.Correction>
0.0103

> <Gold.Rescore>
     Score         DG    S(hbond)    S(metal)    S(lipo)     H(rot)  DE(clash)    DE(int)     intcor
     11.86     -12.77       1.81        0.00      32.59       1.00       0.85       0.05       ----

> <Gold.Chemscore.Fitness>
11.8642

> <Gold.Chemscore.DG>
-12.7702

> <Gold.Chemscore.ZeroCoef>
-5.4800

> <Gold.Chemscore.Hbond>
1.8077

> <Gold.Chemscore.Metal>
0.0000

> <Gold.Chemscore.Lipo>
32.5862

> <Gold.Chemscore.Internal_Hbond>
0.0000

> <Gold.Chemscore.DEClash>
0.8530

> <Gold.Chemscore.DEInternal>
0.0530

> <Gold.Chemscore.Rot>
1.0000

> <Gold.Chemscore.Internal.Correction>
   9.000000E+99

> <Gold.Chemscore.Hbonds>
donor molecule, donor type, donor heavy atom, donor atom, acceptor molecule, acceptor atom, score
      L1  H     8    19       P1  7957  0.58
      P1  H  7997  8008       L1     3  0.33
      P1  H  8011  8017       L1     8  0.08

> <Gold.Chemscore.Hbond.Weighted>
-6.0376

> <Gold.Chemscore.Metal.Weighted>
-0.0000

> <Gold.Chemscore.Lipo.Weighted>
-3.8126

> <Gold.Chemscore.Internal_Hbond.Weighted>
0.0000

> <Gold.Chemscore.DEClash.Weighted>
0.8530

> <Gold.Chemscore.DEInternal.Weighted>
0.0530

> <Gold.Chemscore.Rot.Weighted>
2.5600

> <Gold.Chemscore.Internal.Correction.Weighted>
   9.000000E+99

> <Gold.Protein.RotatedTorsions>
[ 6907 6896 6895 6894 ] final -117.76 input  -60.11 | X-H torsion
[ 7974 7965 7964 7962 ] final  113.16 input  175.53 | X-H torsion
[ 8008 7997 7996 7995 ] final  -60.33 input   59.86 | X-H torsion
[ 10167 10162 10161 10158 ] final   70.80 input  -65.29 | X-H torsion
[ 10718 10713 10712 10709 ] final    6.52 input   66.30 | X-H torsion
[ 10763 10752 10751 10750 ] final  -21.54 input  -60.55 | X-H torsion
[ 11005 11000 10999 10996 ] final   40.14 input  -57.11 | X-H torsion

> <Gold.Protein.ActiveResidues>
 VAL166  LYS551  ARG553  GLY616  TRP617  ASP618  TYR619  PRO620  LYS621  CYS622 
 ASP623  PHE694  ASN695  SER759  ASP760  ASP761  ALA762  ILE779  LEU786  VAL792 
 PHE793  MET794  SER795  GLU796  ALA797  LYS798  CYS799  TRP800  GLU811  SER814 

> <Gold.Protein.RotatedAtoms>
  150.8163  133.8331  159.3158 H   0  0  0  0  0  0  0  0  0  0  0  0  # atno 6907 bound_to 6896
  151.6102  135.1039  160.0089 H   0  0  0  0  0  0  0  0  0  0  0  0  # atno 6908 bound_to 6896
  152.4254  133.7146  159.6555 H   0  0  0  0  0  0  0  0  0  0  0  0  # atno 6909 bound_to 6896
  145.2205  139.2864  143.4221 H   0  0  0  0  0  0  0  0  0  0  0  0  # atno 7974 bound_to 7965
  154.4394  140.1042  156.6256 H   0  0  0  0  0  0  0  0  0  0  0  0  # atno 8008 bound_to 7997
  155.5660  140.3488  155.4484 H   0  0  0  0  0  0  0  0  0  0  0  0  # atno 8009 bound_to 7997
  156.0425  140.1285  157.0129 H   0  0  0  0  0  0  0  0  0  0  0  0  # atno 8010 bound_to 7997
  140.0530  144.5296  150.7349 H   0  0  0  0  0  0  0  0  0  0  0  0  # atno 10167 bound_to 10162
  156.9233  130.5799  149.5648 H   0  0  0  0  0  0  0  0  0  0  0  0  # atno 10718 bound_to 10713
  153.6377  135.6986  153.5252 H   0  0  0  0  0  0  0  0  0  0  0  0  # atno 10763 bound_to 10752
  153.2808  135.4186  155.1076 H   0  0  0  0  0  0  0  0  0  0  0  0  # atno 10764 bound_to 10752
  154.8507  135.3601  154.5921 H   0  0  0  0  0  0  0  0  0  0  0  0  # atno 10765 bound_to 10752
  140.1959  134.3929  155.8121 H   0  0  0  0  0  0  0  0  0  0  0  0  # atno 11005 bound_to 11000
  146.3377  140.2509  142.8598 LP  0  0  0  0  0  0  0  0  0  0  0  0  # atno 17320 bound_to 7965
  144.9770  140.8423  143.5420 LP  0  0  0  0  0  0  0  0  0  0  0  0  # atno 17321 bound_to 7965
  140.7207  143.2586  151.4286 LP  0  0  0  0  0  0  0  0  0  0  0  0  # atno 17342 bound_to 10162
  139.5941  144.1436  152.2123 LP  0  0  0  0  0  0  0  0  0  0  0  0  # atno 17343 bound_to 10162
  156.0481  130.5554  150.8926 LP  0  0  0  0  0  0  0  0  0  0  0  0  # atno 17370 bound_to 10713
  157.5893  131.0945  150.9144 LP  0  0  0  0  0  0  0  0  0  0  0  0  # atno 17371 bound_to 10713
  141.2227  133.7069  156.8175 LP  0  0  0  0  0  0  0  0  0  0  0  0  # atno 17394 bound_to 11000
  140.2108  134.8829  157.3272 LP  0  0  0  0  0  0  0  0  0  0  0  0  # atno 17395 bound_to 11000

$$$$
