AV-unprocessed.smi:95|AV-procd|sdf|855|dock6
  -GOLD-   2262017303D 1   1.00000     0.00000
 Structure written by MMmdl.
 41 44  0  0  0  0  0  0  0  0  1 V2000
  150.1304  139.2410  155.8455 O   0  0  0  0  0  0  0  0  0  0  0  0
  149.7564  138.5357  156.7846 C   0  0  0  0  0  0  0  0  0  0  0  0
  148.3874  138.0555  156.9341 C   0  0  0  0  0  0  0  0  0  0  0  0
  147.4731  138.3495  155.9943 F   0  0  0  0  0  0  0  0  0  0  0  0
  148.0209  137.3177  158.0041 C   0  0  0  0  0  0  0  0  0  0  0  0
  148.8919  136.9778  159.0233 N   0  0  0  0  0  0  0  0  0  0  0  0
  148.3909  136.1329  160.1715 C   0  0  2  0  0  0  0  0  0  0  0  0
  146.8952  135.7762  160.0681 C   0  0  0  0  0  0  0  0  0  0  0  0
  146.3207  136.3441  161.3557 C   0  0  0  0  0  0  0  0  0  0  0  0
  147.5470  136.4535  162.2550 C   0  0  0  0  0  0  0  0  0  0  0  0
  148.5771  136.8398  161.3586 O   0  0  0  0  0  0  0  0  0  0  0  0
  150.2511  137.3598  158.9396 C   0  0  0  0  0  0  0  0  0  0  0  0
  151.0570  137.0379  159.8145 O   0  0  0  0  0  0  0  0  0  0  0  0
  150.6367  138.1336  157.8181 N   0  0  0  0  0  0  0  0  0  0  0  0
  152.0074  138.6180  157.7476 C   0  0  0  0  0  0  0  0  0  0  0  0
  152.2630  139.9469  158.4495 C   0  0  0  0  0  0  0  0  0  0  0  0
  153.0046  139.9812  159.6471 C   0  0  0  0  0  0  0  0  0  0  0  0
  153.2127  141.2242  160.2719 C   0  0  0  0  0  0  0  0  0  0  0  0
  152.6685  142.3828  159.6810 C   0  0  0  0  0  0  0  0  0  0  0  0
  152.8600  143.6436  160.2826 C   0  0  0  0  0  0  0  0  0  0  0  0
  152.3119  144.7958  159.6896 C   0  0  0  0  0  0  0  0  0  0  0  0
  151.5742  144.6862  158.4968 C   0  0  0  0  0  0  0  0  0  0  0  0
  151.3855  143.4258  157.8974 C   0  0  0  0  0  0  0  0  0  0  0  0
  151.9256  142.2571  158.4750 C   0  0  0  0  0  0  0  0  0  0  0  0
  151.7324  141.0562  157.8850 N   0  0  0  0  0  0  0  0  0  0  0  0
  146.9939  136.9876  158.0621 H   0  0  0  0  0  0  0  0  0  0  0  0
  149.0175  135.2399  160.1845 H   0  0  0  0  0  0  0  0  0  0  0  0
  146.4255  136.1875  159.1740 H   0  0  0  0  0  0  0  0  0  0  0  0
  146.7981  134.6905  160.0403 H   0  0  0  0  0  0  0  0  0  0  0  0
  145.9019  137.3348  161.1771 H   0  0  0  0  0  0  0  0  0  0  0  0
  145.5363  135.7194  161.7834 H   0  0  0  0  0  0  0  0  0  0  0  0
  147.4179  137.1791  163.0581 H   0  0  0  0  0  0  0  0  0  0  0  0
  147.7919  135.4869  162.6979 H   0  0  0  0  0  0  0  0  0  0  0  0
  152.6726  137.8514  158.1458 H   0  0  0  0  0  0  0  0  0  0  0  0
  152.2654  138.6798  156.6887 H   0  0  0  0  0  0  0  0  0  0  0  0
  153.4083  139.0764  160.0775 H   0  0  0  0  0  0  0  0  0  0  0  0
  153.7797  141.2827  161.1895 H   0  0  0  0  0  0  0  0  0  0  0  0
  153.4259  143.7317  161.1985 H   0  0  0  0  0  0  0  0  0  0  0  0
  152.4567  145.7626  160.1493 H   0  0  0  0  0  0  0  0  0  0  0  0
  151.1524  145.5695  158.0403 H   0  0  0  0  0  0  0  0  0  0  0  0
  150.8171  143.3556  156.9815 H   0  0  0  0  0  0  0  0  0  0  0  0
  1  2  2  0  0  0  0
  2 14  1  0  0  0  0
  2  3  1  0  0  0  0
  3  4  1  0  0  0  0
  3  5  2  0  0  0  0
  5  6  1  0  0  0  0
  5 26  1  0  0  0  0
  6  7  1  0  0  0  0
  6 12  1  0  0  0  0
  7 11  1  0  0  0  0
  7  8  1  0  0  0  0
  7 27  1  0  0  0  0
  8  9  1  0  0  0  0
  8 28  1  0  0  0  0
  8 29  1  0  0  0  0
  9 10  1  0  0  0  0
  9 30  1  0  0  0  0
  9 31  1  0  0  0  0
 10 11  1  0  0  0  0
 10 32  1  0  0  0  0
 10 33  1  0  0  0  0
 12 13  2  0  0  0  0
 12 14  1  0  0  0  0
 14 15  1  0  0  0  0
 15 16  1  0  0  0  0
 15 34  1  0  0  0  0
 15 35  1  0  0  0  0
 16 25  1  0  0  0  0
 16 17  2  0  0  0  0
 17 18  1  0  0  0  0
 17 36  1  0  0  0  0
 18 19  2  0  0  0  0
 18 37  1  0  0  0  0
 19 24  1  0  0  0  0
 19 20  1  0  0  0  0
 20 21  2  0  0  0  0
 20 38  1  0  0  0  0
 21 22  1  0  0  0  0
 21 39  1  0  0  0  0
 22 23  2  0  0  0  0
 22 40  1  0  0  0  0
 23 24  1  0  0  0  0
 23 41  1  0  0  0  0
 24 25  2  0  0  0  0
M  END
> <s_m_source_file>
AV-unprocessed.smi

> <i_m_source_file_index>
95

> <i_lp_mmshare_version>
43012

> <i_f3d_flags>
0

> <s_epik_input>
TzFbQ0gyXVtDSDJdW0NIMl1bQ0BIXTFuKFtjSF1jKEYpYzI9TyljKD1PKW4yW0NIMl1jKFtjSF1bY0hdMyluYyhjMzQpW2NIXVtjSF1bY0hdW2NIXTQ=

> <s_epik_cmdline>
J2VwaWtfcHl0aG9uJywgJy1waCcsICc3LjAnLCAnLXRuJywgJzgnLCAnLW1hJywgJzIwMCcsICctbWV0YWxfYmluZGluZycsICctaW1hZScsICc8aW5maWxlLm1hZT4nLCAnLW9tYWUnLCAnPG91dGZpbGUubWFlPic=

> <r_lp_tautomer_probability>
1

> <r_epik_Ionization_Penalty>
0.0274176

> <r_epik_Ionization_Penalty_Charging>
1.11818e-08

> <r_epik_Ionization_Penalty_Neutral>
0.0274176

> <r_epik_State_Penalty>
0.0224396

> <r_epik_Charging_Adjusted_Penalty>
0.0224396

> <i_epik_Tot_Q>
0

> <i_epik_Tot_abs_Q>
0

> <r_epik_Metal_State_Penalty>
2.28695e-05

> <b_epik_Metal_Only>
0

> <s_epik_Chemistry_Notes>
This compound contains an acetal/aminal-like group ( X-CH(R)-Y where X, Y are N, S, or O) that may be acid/base labile, releasing an aldehyde.

> <s_lp_Force_Field>
OPLS_2005

> <r_lp_Energy>
29.0351

> <b_lp_Chiralities_Consistent>
1

> <s_lp_Variant>
AV-unprocessed.smi:95-1

> <Gold.Version>
5.8.1

> <Gold.Id.Protein>
6NUR|6NUR_protein|mol2

> <Gold.PLP.Fitness>
50.2467

> <Gold.PLP.PLP>
-45.2274

> <Gold.PLP.part.hbond>
-2.1471

> <Gold.PLP.part.metal>
0.0000

> <Gold.PLP.part.buried>
-6.5816

> <Gold.PLP.part.nonpolar>
-36.4005

> <Gold.PLP.part.repulsive>
0.0122

> <Gold.PLP.ligand.clash>
0.0000

> <Gold.PLP.ligand.torsion>
0.4875

> <Gold.PLP.Chemscore.Hbond>
1.9913

> <Gold.PLP.Chemscore.CHOScore>
0.0000

> <Gold.PLP.Chemscore.Metal>
0.0000

> <Gold.Chemscore.Hbonds>
donor molecule, donor type, donor heavy atom, donor atom, acceptor molecule, acceptor atom, score
      P1  H  6896  6907       L1    13  1.00
      P1  H  6931  6943       L1    11  1.00

> <Gold.PLP.Chemscore.Internal.Correction>
0.0205

> <Gold.Rescore>
     Score         DG    S(hbond)    S(metal)    S(lipo)     H(rot)  DE(clash)    DE(int)     intcor
     20.23     -21.07       1.87        0.00     112.51       1.50       0.00       0.84       ----

> <Gold.Chemscore.Fitness>
20.2310

> <Gold.Chemscore.DG>
-21.0664

> <Gold.Chemscore.ZeroCoef>
-5.4800

> <Gold.Chemscore.Hbond>
1.8739

> <Gold.Chemscore.Metal>
0.0000

> <Gold.Chemscore.Lipo>
112.5118

> <Gold.Chemscore.Internal_Hbond>
0.0000

> <Gold.Chemscore.DEClash>
0.0000

> <Gold.Chemscore.DEInternal>
0.8353

> <Gold.Chemscore.Rot>
1.4985

> <Gold.Chemscore.Internal.Correction>
   9.000000E+99

> <Gold.Chemscore.Hbonds>
donor molecule, donor type, donor heavy atom, donor atom, acceptor molecule, acceptor atom, score
      P1  H  6896  6907       L1    13  0.59
      P1  H  6931  6943       L1    11  0.44

> <Gold.Chemscore.Hbond.Weighted>
-6.2587

> <Gold.Chemscore.Metal.Weighted>
-0.0000

> <Gold.Chemscore.Lipo.Weighted>
-13.1639

> <Gold.Chemscore.Internal_Hbond.Weighted>
0.0000

> <Gold.Chemscore.DEClash.Weighted>
0.0000

> <Gold.Chemscore.DEInternal.Weighted>
0.8353

> <Gold.Chemscore.Rot.Weighted>
3.8362

> <Gold.Chemscore.Internal.Correction.Weighted>
   9.000000E+99

> <Gold.Protein.RotatedTorsions>
[ 6907 6896 6895 6894 ] final  -29.19 input  -60.11 | X-H torsion
[ 7974 7965 7964 7962 ] final  -79.19 input  175.53 | X-H torsion
[ 8008 7997 7996 7995 ] final   64.18 input   59.86 | X-H torsion
[ 10167 10162 10161 10158 ] final   52.35 input  -65.29 | X-H torsion
[ 10718 10713 10712 10709 ] final  -90.57 input   66.30 | X-H torsion
[ 10763 10752 10751 10750 ] final  155.21 input  -60.55 | X-H torsion
[ 11005 11000 10999 10996 ] final   48.73 input  -57.11 | X-H torsion

> <Gold.Protein.ActiveResidues>
 VAL166  LYS551  ARG553  GLY616  TRP617  ASP618  TYR619  PRO620  LYS621  CYS622 
 ASP623  PHE694  ASN695  SER759  ASP760  ASP761  ALA762  ILE779  LEU786  VAL792 
 PHE793  MET794  SER795  GLU796  ALA797  LYS798  CYS799  TRP800  GLU811  SER814 

> <Gold.Protein.RotatedAtoms>
  151.1226  135.0087  159.8545 H   0  0  0  0  0  0  0  0  0  0  0  0  # atno 6907 bound_to 6896
  152.5448  134.1704  159.8604 H   0  0  0  0  0  0  0  0  0  0  0  0  # atno 6908 bound_to 6896
  151.1764  133.4707  159.2627 H   0  0  0  0  0  0  0  0  0  0  0  0  # atno 6909 bound_to 6896
  145.5765  140.9456  143.1367 H   0  0  0  0  0  0  0  0  0  0  0  0  # atno 7974 bound_to 7965
  155.6420  140.3497  155.4718 H   0  0  0  0  0  0  0  0  0  0  0  0  # atno 8008 bound_to 7997
  155.9918  140.1195  157.0654 H   0  0  0  0  0  0  0  0  0  0  0  0  # atno 8009 bound_to 7997
  154.4221  140.1118  156.5562 H   0  0  0  0  0  0  0  0  0  0  0  0  # atno 8010 bound_to 7997
  140.2523  144.3465  150.6344 H   0  0  0  0  0  0  0  0  0  0  0  0  # atno 10167 bound_to 10162
  155.9988  130.4915  150.5343 H   0  0  0  0  0  0  0  0  0  0  0  0  # atno 10718 bound_to 10713
  154.1647  135.2808  155.3098 H   0  0  0  0  0  0  0  0  0  0  0  0  # atno 10763 bound_to 10752
  154.6120  135.5495  153.7487 H   0  0  0  0  0  0  0  0  0  0  0  0  # atno 10764 bound_to 10752
  153.0182  135.6418  154.1788 H   0  0  0  0  0  0  0  0  0  0  0  0  # atno 10765 bound_to 10752
  140.1165  134.4885  155.8633 H   0  0  0  0  0  0  0  0  0  0  0  0  # atno 11005 bound_to 11000
  144.7414  139.7439  143.7309 LP  0  0  0  0  0  0  0  0  0  0  0  0  # atno 17320 bound_to 7965
  146.1747  139.4913  142.9905 LP  0  0  0  0  0  0  0  0  0  0  0  0  # atno 17321 bound_to 7965
  140.6031  143.2167  151.7034 LP  0  0  0  0  0  0  0  0  0  0  0  0  # atno 17342 bound_to 10162
  139.5042  144.3762  152.0421 LP  0  0  0  0  0  0  0  0  0  0  0  0  # atno 17343 bound_to 10162
  157.3288  131.0695  151.1876 LP  0  0  0  0  0  0  0  0  0  0  0  0  # atno 17370 bound_to 10713
  157.2764  130.6729  149.6044 LP  0  0  0  0  0  0  0  0  0  0  0  0  # atno 17371 bound_to 10713
  141.2142  133.6745  156.6807 LP  0  0  0  0  0  0  0  0  0  0  0  0  # atno 17394 bound_to 11000
  140.3021  134.8155  157.4106 LP  0  0  0  0  0  0  0  0  0  0  0  0  # atno 17395 bound_to 11000

$$$$
