AV-unprocessed.smi:598|AV-procd|sdf|3026|dock9
  -GOLD-   2262023533D 1   1.00000     0.00000
 Structure written by MMmdl.
 43 44  0  0  0  0  0  0  0  0  3 V2000
  153.3938  142.6186  161.8829 C   0  0  0  0  0  0  0  0  0  0  0  0
  152.2018  143.0720  161.0201 C   0  0  1  0  0  0  0  0  0  0  0  0
  152.1983  144.6103  160.9168 C   0  0  0  0  0  0  0  0  0  0  0  0
  151.0117  145.1241  160.0950 C   0  0  0  0  0  0  0  0  0  0  0  0
  151.0212  144.5085  158.6931 C   0  0  0  0  0  0  0  0  0  0  0  0
  151.0091  142.9689  158.7557 C   0  0  1  0  0  0  0  0  0  0  0  0
  151.0636  142.4325  157.3966 N   0  0  0  0  0  0  0  0  0  0  0  0
  150.1692  141.5922  156.8543 C   0  0  0  0  0  0  0  0  0  0  0  0
  149.1730  141.1864  157.4547 O   0  0  0  0  0  0  0  0  0  0  0  0
  150.4423  141.1685  155.4042 C   0  0  0  0  0  0  0  0  0  0  0  0
  150.5723  139.7110  155.2385 N   0  0  0  0  0  0  0  0  0  0  0  0
  149.4042  138.9412  155.4062 C   0  0  0  0  0  0  0  0  0  0  0  0
  149.4077  137.5992  155.2860 C   0  0  0  0  0  0  0  0  0  0  0  0
  148.2005  136.8240  155.4700 N   0  3  0  0  0  0  0  0  0  0  0  0
  147.1623  137.4107  155.7583 O   0  0  0  0  0  0  0  0  0  0  0  0
  148.2489  135.6052  155.3326 O   0  5  0  0  0  0  0  0  0  0  0  0
  150.6677  136.9540  154.9712 C   0  0  0  0  0  0  0  0  0  0  0  0
  151.7894  137.6841  154.8145 C   0  0  0  0  0  0  0  0  0  0  0  0
  151.7844  139.1443  154.9520 C   0  0  0  0  0  0  0  0  0  0  0  0
  152.8073  139.8164  154.8178 O   0  0  0  0  0  0  0  0  0  0  0  0
  152.1815  142.4145  159.6104 C   0  0  2  0  0  0  0  0  0  0  0  0
  152.1255  140.8729  159.6933 C   0  0  0  0  0  0  0  0  0  0  0  0
  154.3422  142.8023  161.3775 H   0  0  0  0  0  0  0  0  0  0  0  0
  153.3409  141.5581  162.1267 H   0  0  0  0  0  0  0  0  0  0  0  0
  153.4160  143.1560  162.8314 H   0  0  0  0  0  0  0  0  0  0  0  0
  151.2902  142.7773  161.5421 H   0  0  0  0  0  0  0  0  0  0  0  0
  152.1612  145.0515  161.9135 H   0  0  0  0  0  0  0  0  0  0  0  0
  153.1294  144.9533  160.4637 H   0  0  0  0  0  0  0  0  0  0  0  0
  150.0767  144.8792  160.6003 H   0  0  0  0  0  0  0  0  0  0  0  0
  151.0519  146.2113  160.0242 H   0  0  0  0  0  0  0  0  0  0  0  0
  150.1576  144.8701  158.1333 H   0  0  0  0  0  0  0  0  0  0  0  0
  151.9047  144.8513  158.1524 H   0  0  0  0  0  0  0  0  0  0  0  0
  150.0761  142.6514  159.2260 H   0  0  0  0  0  0  0  0  0  0  0  0
  151.8483  142.7180  156.8288 H   0  0  0  0  0  0  0  0  0  0  0  0
  149.6337  141.5524  154.7805 H   0  0  0  0  0  0  0  0  0  0  0  0
  151.3418  141.6714  155.0441 H   0  0  0  0  0  0  0  0  0  0  0  0
  148.5205  139.5150  155.6459 H   0  0  0  0  0  0  0  0  0  0  0  0
  150.7213  135.8809  154.8600 H   0  0  0  0  0  0  0  0  0  0  0  0
  152.7175  137.1824  154.5819 H   0  0  0  0  0  0  0  0  0  0  0  0
  153.1129  142.6809  159.1078 H   0  0  0  0  0  0  0  0  0  0  0  0
  151.2404  140.5393  160.2357 H   0  0  0  0  0  0  0  0  0  0  0  0
  153.0004  140.4618  160.1950 H   0  0  0  0  0  0  0  0  0  0  0  0
  152.0988  140.4118  158.7061 H   0  0  0  0  0  0  0  0  0  0  0  0
  1  2  1  0  0  0  0
  1 23  1  0  0  0  0
  1 24  1  0  0  0  0
  1 25  1  0  0  0  0
  2 21  1  0  0  0  0
  2  3  1  0  0  0  0
  2 26  1  0  0  0  0
  3  4  1  0  0  0  0
  3 27  1  0  0  0  0
  3 28  1  0  0  0  0
  4  5  1  0  0  0  0
  4 29  1  0  0  0  0
  4 30  1  0  0  0  0
  5  6  1  0  0  0  0
  5 31  1  0  0  0  0
  5 32  1  0  0  0  0
  6  7  1  0  0  0  0
  6 21  1  0  0  0  0
  6 33  1  0  0  0  0
  7  8  1  0  0  0  0
  7 34  1  0  0  0  0
  8  9  2  0  0  0  0
  8 10  1  0  0  0  0
 10 11  1  0  0  0  0
 10 35  1  0  0  0  0
 10 36  1  0  0  0  0
 11 19  1  0  0  0  0
 11 12  1  0  0  0  0
 12 13  2  0  0  0  0
 12 37  1  0  0  0  0
 13 14  1  0  0  0  0
 13 17  1  0  0  0  0
 14 15  2  0  0  0  0
 14 16  1  0  0  0  0
 17 18  2  0  0  0  0
 17 38  1  0  0  0  0
 18 19  1  0  0  0  0
 18 39  1  0  0  0  0
 19 20  2  0  0  0  0
 21 22  1  0  0  0  0
 21 40  1  0  0  0  0
 22 41  1  0  0  0  0
 22 42  1  0  0  0  0
 22 43  1  0  0  0  0
M  CHG  1  14   1
M  CHG  1  16  -1
M  END
> <s_m_source_file>
AV-unprocessed.smi

> <i_m_source_file_index>
598

> <i_lp_mmshare_version>
43012

> <i_f3d_flags>
0

> <s_epik_input>
W0NIM11bQ0BASF0xW0NIMl1bQ0gyXVtDSDJdW0NASF0oW0NASF0xW0NIM10pW05IXUMoPU8pW0NIMl1uMltjSF1jKFtOK10oPU8pW08tXSlbY0hdW2NIXWMyPU8=

> <s_epik_cmdline>
J2VwaWtfcHl0aG9uJywgJy1waCcsICc3LjAnLCAnLXRuJywgJzgnLCAnLW1hJywgJzIwMCcsICctbWV0YWxfYmluZGluZycsICctaW1hZScsICc8aW5maWxlLm1hZT4nLCAnLW9tYWUnLCAnPG91dGZpbGUubWFlPic=

> <r_lp_tautomer_probability>
1

> <r_epik_Ionization_Penalty>
1.91291e-08

> <r_epik_Ionization_Penalty_Charging>
8.21931e-11

> <r_epik_Ionization_Penalty_Neutral>
1.90469e-08

> <r_epik_State_Penalty>
-0

> <r_epik_Charging_Adjusted_Penalty>
8.21931e-11

> <i_epik_Tot_Q>
0

> <i_epik_Tot_abs_Q>
2

> <r_epik_Metal_State_Penalty>
-0

> <b_epik_Metal_Only>
0

> <s_lp_Force_Field>
OPLS_2005

> <r_lp_Energy>
23.592

> <b_lp_Chiralities_Consistent>
1

> <s_lp_Variant>
AV-unprocessed.smi:598-6

> <Gold.Version>
5.8.1

> <Gold.Id.Protein>
6NUR|6NUR_protein|mol2

> <Gold.PLP.Fitness>
44.2362

> <Gold.PLP.PLP>
-41.1199

> <Gold.PLP.part.hbond>
-2.0000

> <Gold.PLP.part.metal>
0.0000

> <Gold.PLP.part.buried>
-4.6461

> <Gold.PLP.part.nonpolar>
-34.7398

> <Gold.PLP.part.repulsive>
0.2233

> <Gold.PLP.ligand.clash>
0.0000

> <Gold.PLP.ligand.torsion>
0.1201

> <Gold.PLP.Chemscore.Hbond>
1.1160

> <Gold.PLP.Chemscore.CHOScore>
0.0000

> <Gold.PLP.Chemscore.Metal>
0.0000

> <Gold.Chemscore.Hbonds>
donor molecule, donor type, donor heavy atom, donor atom, acceptor molecule, acceptor atom, score
      P1  H  7989  7998       L1    20  0.09
      P1  H  7997  8008       L1    20  1.00

> <Gold.PLP.Chemscore.Internal.Correction>
0.0086

> <Gold.Rescore>
     Score         DG    S(hbond)    S(metal)    S(lipo)     H(rot)  DE(clash)    DE(int)     intcor
     17.51     -17.74       1.00        0.00     109.94       1.54       0.04       0.19       ----

> <Gold.Chemscore.Fitness>
17.5145

> <Gold.Chemscore.DG>
-17.7406

> <Gold.Chemscore.ZeroCoef>
-5.4800

> <Gold.Chemscore.Hbond>
0.9994

> <Gold.Chemscore.Metal>
0.0000

> <Gold.Chemscore.Lipo>
109.9422

> <Gold.Chemscore.Internal_Hbond>
0.0000

> <Gold.Chemscore.DEClash>
0.0366

> <Gold.Chemscore.DEInternal>
0.1895

> <Gold.Chemscore.Rot>
1.5393

> <Gold.Chemscore.Internal.Correction>
   9.000000E+99

> <Gold.Chemscore.Hbonds>
donor molecule, donor type, donor heavy atom, donor atom, acceptor molecule, acceptor atom, score
      P1  H  7997  8008       L1    20  0.94

> <Gold.Chemscore.Hbond.Weighted>
-3.3381

> <Gold.Chemscore.Metal.Weighted>
-0.0000

> <Gold.Chemscore.Lipo.Weighted>
-12.8632

> <Gold.Chemscore.Internal_Hbond.Weighted>
0.0000

> <Gold.Chemscore.DEClash.Weighted>
0.0366

> <Gold.Chemscore.DEInternal.Weighted>
0.1895

> <Gold.Chemscore.Rot.Weighted>
3.9407

> <Gold.Chemscore.Internal.Correction.Weighted>
   9.000000E+99

> <Gold.Protein.RotatedTorsions>
[ 6907 6896 6895 6894 ] final   64.89 input  -60.11 | X-H torsion
[ 7974 7965 7964 7962 ] final -119.28 input  175.53 | X-H torsion
[ 8008 7997 7996 7995 ] final  -24.97 input   59.86 | X-H torsion
[ 10167 10162 10161 10158 ] final -165.93 input  -65.29 | X-H torsion
[ 10718 10713 10712 10709 ] final -175.25 input   66.30 | X-H torsion
[ 10763 10752 10751 10750 ] final  145.12 input  -60.55 | X-H torsion
[ 11005 11000 10999 10996 ] final   34.74 input  -57.11 | X-H torsion

> <Gold.Protein.ActiveResidues>
 VAL166  LYS551  ARG553  GLY616  TRP617  ASP618  TYR619  PRO620  LYS621  CYS622 
 ASP623  PHE694  ASN695  SER759  ASP760  ASP761  ALA762  ILE779  LEU786  VAL792 
 PHE793  MET794  SER795  GLU796  ALA797  LYS798  CYS799  TRP800  GLU811  SER814 

> <Gold.Protein.RotatedAtoms>
  152.4366  134.5675  159.9911 H   0  0  0  0  0  0  0  0  0  0  0  0  # atno 6907 bound_to 6896
  151.5783  133.3375  159.3011 H   0  0  0  0  0  0  0  0  0  0  0  0  # atno 6908 bound_to 6896
  150.8265  134.7533  159.6881 H   0  0  0  0  0  0  0  0  0  0  0  0  # atno 6909 bound_to 6896
  145.0643  140.8313  143.4134 H   0  0  0  0  0  0  0  0  0  0  0  0  # atno 7974 bound_to 7965
  154.4500  140.1939  156.0547 H   0  0  0  0  0  0  0  0  0  0  0  0  # atno 8008 bound_to 7997
  156.0628  140.3294  155.7454 H   0  0  0  0  0  0  0  0  0  0  0  0  # atno 8009 bound_to 7997
  155.5385  140.0584  157.2865 H   0  0  0  0  0  0  0  0  0  0  0  0  # atno 8010 bound_to 7997
  139.6149  144.0740  152.1878 H   0  0  0  0  0  0  0  0  0  0  0  0  # atno 10167 bound_to 10162
  156.7971  130.9539  151.3119 H   0  0  0  0  0  0  0  0  0  0  0  0  # atno 10718 bound_to 10713
  154.0001  135.2924  155.3403 H   0  0  0  0  0  0  0  0  0  0  0  0  # atno 10763 bound_to 10752
  154.7164  135.5127  153.8748 H   0  0  0  0  0  0  0  0  0  0  0  0  # atno 10764 bound_to 10752
  153.0770  135.6666  154.0243 H   0  0  0  0  0  0  0  0  0  0  0  0  # atno 10765 bound_to 10752
  140.2497  134.3317  155.7895 H   0  0  0  0  0  0  0  0  0  0  0  0  # atno 11005 bound_to 11000
  145.1371  139.2595  143.5509 LP  0  0  0  0  0  0  0  0  0  0  0  0  # atno 17320 bound_to 7965
  146.3526  140.1037  142.8607 LP  0  0  0  0  0  0  0  0  0  0  0  0  # atno 17321 bound_to 7965
  140.0368  144.6038  150.7443 LP  0  0  0  0  0  0  0  0  0  0  0  0  # atno 17342 bound_to 10162
  140.7344  143.2728  151.3834 LP  0  0  0  0  0  0  0  0  0  0  0  0  # atno 17343 bound_to 10162
  157.6572  130.8935  149.9754 LP  0  0  0  0  0  0  0  0  0  0  0  0  # atno 17370 bound_to 10713
  156.1124  130.3649  150.0026 LP  0  0  0  0  0  0  0  0  0  0  0  0  # atno 17371 bound_to 10713
  141.2202  133.7346  156.9018 LP  0  0  0  0  0  0  0  0  0  0  0  0  # atno 17394 bound_to 11000
  140.1570  134.9191  157.2666 LP  0  0  0  0  0  0  0  0  0  0  0  0  # atno 17395 bound_to 11000

$$$$
