AV-unprocessed.smi:3152|AV-procd|sdf|12018|dock8
  -GOLD-   2272017433D 1   1.00000     0.00000
 Structure written by MMmdl.
 40 41  0  0  0  0  0  0  0  0  1 V2000
  153.1007  142.6481  161.2301 C   0  0  0  0  0  0  0  0  0  0  0  0
  152.3937  142.6908  159.9058 C   0  0  0  0  0  0  0  0  0  0  0  0
  152.3472  143.7668  158.9741 C   0  0  0  0  0  0  0  0  0  0  0  0
  151.6378  143.4822  157.8941 N   0  0  0  0  0  0  0  0  0  0  0  0
  151.2068  142.2192  158.0974 N   0  0  0  0  0  0  0  0  0  0  0  0
  150.3875  141.5675  157.0944 C   0  0  0  0  0  0  0  0  0  0  0  0
  151.2440  140.9546  155.9784 C   0  0  0  0  0  0  0  0  0  0  0  0
  150.4115  140.5099  154.8667 N   0  0  0  0  0  0  0  0  0  0  0  0
  149.3305  141.4390  154.5426 C   0  0  0  0  0  0  0  0  0  0  0  0
  147.9835  140.7188  154.2840 C   0  0  0  0  0  0  0  0  0  0  0  0
  148.2806  139.5426  153.5544 O   0  0  0  0  0  0  0  0  0  0  0  0
  147.3379  140.2527  155.6106 C   0  0  0  0  0  0  0  0  0  0  0  0
  146.7609  141.4198  156.4334 C   0  0  0  0  0  0  0  0  0  0  0  0
  145.7713  142.2549  155.6062 C   0  0  0  0  0  0  0  0  0  0  0  0
  146.4073  142.7384  154.2936 C   0  0  0  0  0  0  0  0  0  0  0  0
  146.9601  141.5571  153.4782 C   0  0  0  0  0  0  0  0  0  0  0  0
  151.6493  141.7168  159.3024 C   0  0  0  0  0  0  0  0  0  0  0  0
  153.2207  143.6440  161.6571 H   0  0  0  0  0  0  0  0  0  0  0  0
  154.0970  142.2153  161.1385 H   0  0  0  0  0  0  0  0  0  0  0  0
  152.5553  142.0506  161.9607 H   0  0  0  0  0  0  0  0  0  0  0  0
  152.8072  144.7408  159.0501 H   0  0  0  0  0  0  0  0  0  0  0  0
  149.7902  140.7964  157.5827 H   0  0  0  0  0  0  0  0  0  0  0  0
  149.6881  142.2984  156.6853 H   0  0  0  0  0  0  0  0  0  0  0  0
  151.9667  141.6927  155.6279 H   0  0  0  0  0  0  0  0  0  0  0  0
  151.8180  140.1156  156.3737 H   0  0  0  0  0  0  0  0  0  0  0  0
  150.0179  139.5978  155.0764 H   0  0  0  0  0  0  0  0  0  0  0  0
  149.2047  142.1575  155.3538 H   0  0  0  0  0  0  0  0  0  0  0  0
  149.6165  142.0213  153.6670 H   0  0  0  0  0  0  0  0  0  0  0  0
  148.6887  139.7907  152.7391 H   0  0  0  0  0  0  0  0  0  0  0  0
  146.5282  139.5530  155.3958 H   0  0  0  0  0  0  0  0  0  0  0  0
  148.0615  139.6999  156.2113 H   0  0  0  0  0  0  0  0  0  0  0  0
  146.2614  141.0311  157.3212 H   0  0  0  0  0  0  0  0  0  0  0  0
  147.5667  142.0583  156.7957 H   0  0  0  0  0  0  0  0  0  0  0  0
  144.8880  141.6552  155.3827 H   0  0  0  0  0  0  0  0  0  0  0  0
  145.4252  143.1085  156.1896 H   0  0  0  0  0  0  0  0  0  0  0  0
  145.6675  143.2797  153.7033 H   0  0  0  0  0  0  0  0  0  0  0  0
  147.2067  143.4482  154.5086 H   0  0  0  0  0  0  0  0  0  0  0  0
  147.3933  141.9192  152.5455 H   0  0  0  0  0  0  0  0  0  0  0  0
  146.1236  140.9208  153.1851 H   0  0  0  0  0  0  0  0  0  0  0  0
  151.4015  140.7166  159.6267 H   0  0  0  0  0  0  0  0  0  0  0  0
  1  2  1  0  0  0  0
  1 18  1  0  0  0  0
  1 19  1  0  0  0  0
  1 20  1  0  0  0  0
  2 17  2  0  0  0  0
  2  3  1  0  0  0  0
  3  4  2  0  0  0  0
  3 21  1  0  0  0  0
  4  5  1  0  0  0  0
  5  6  1  0  0  0  0
  5 17  1  0  0  0  0
  6  7  1  0  0  0  0
  6 22  1  0  0  0  0
  6 23  1  0  0  0  0
  7  8  1  0  0  0  0
  7 24  1  0  0  0  0
  7 25  1  0  0  0  0
  8  9  1  0  0  0  0
  8 26  1  0  0  0  0
  9 10  1  0  0  0  0
  9 27  1  0  0  0  0
  9 28  1  0  0  0  0
 10 16  1  0  0  0  0
 10 11  1  0  0  0  0
 10 12  1  0  0  0  0
 11 29  1  0  0  0  0
 12 13  1  0  0  0  0
 12 30  1  0  0  0  0
 12 31  1  0  0  0  0
 13 14  1  0  0  0  0
 13 32  1  0  0  0  0
 13 33  1  0  0  0  0
 14 15  1  0  0  0  0
 14 34  1  0  0  0  0
 14 35  1  0  0  0  0
 15 16  1  0  0  0  0
 15 36  1  0  0  0  0
 15 37  1  0  0  0  0
 16 38  1  0  0  0  0
 16 39  1  0  0  0  0
 17 40  1  0  0  0  0
M  END
> <s_m_source_file>
AV-unprocessed.smi

> <i_m_source_file_index>
3152

> <i_lp_mmshare_version>
43012

> <i_f3d_flags>
0

> <s_epik_input>
W0NIM11jMVtjSF1ubihbY0hdMSlbQ0gyXVtDSDJdW05IXVtDSDJdQzIoW09IXSlbQ0gyXVtDSDJdW0NIMl1bQ0gyXVtDSDJdMg==

> <s_epik_cmdline>
J2VwaWtfcHl0aG9uJywgJy1waCcsICc3LjAnLCAnLXRuJywgJzgnLCAnLW1hJywgJzIwMCcsICctbWV0YWxfYmluZGluZycsICctaW1hZScsICc8aW5maWxlLm1hZT4nLCAnLW9tYWUnLCAnPG91dGZpbGUubWFlPic=

> <r_lp_tautomer_probability>
1

> <r_epik_Ionization_Penalty>
1.91403

> <r_epik_Ionization_Penalty_Charging>
0

> <r_epik_Ionization_Penalty_Neutral>
1.91403

> <r_epik_State_Penalty>
2.0334

> <r_epik_Charging_Adjusted_Penalty>
2.0334

> <i_epik_Tot_Q>
0

> <i_epik_Tot_abs_Q>
0

> <r_epik_Metal_State_Penalty>
2.03082

> <b_epik_Metal_Only>
0

> <s_lp_Force_Field>
OPLS_2005

> <r_lp_Energy>
20.9393

> <b_lp_Chiralities_Consistent>
1

> <s_lp_Variant>
AV-unprocessed.smi:3152-2

> <Gold.Version>
5.8.1

> <Gold.Id.Protein>
6NUR|6NUR_protein|mol2

> <Gold.PLP.Fitness>
41.3203

> <Gold.PLP.PLP>
-37.6046

> <Gold.PLP.part.hbond>
-2.0000

> <Gold.PLP.part.metal>
0.0000

> <Gold.PLP.part.buried>
-4.2835

> <Gold.PLP.part.nonpolar>
-30.1086

> <Gold.PLP.part.repulsive>
0.0948

> <Gold.PLP.ligand.clash>
0.0000

> <Gold.PLP.ligand.torsion>
1.0042

> <Gold.PLP.Chemscore.Hbond>
1.9000

> <Gold.PLP.Chemscore.CHOScore>
0.0000

> <Gold.PLP.Chemscore.Metal>
0.0000

> <Gold.Chemscore.Hbonds>
donor molecule, donor type, donor heavy atom, donor atom, acceptor molecule, acceptor atom, score
      L1  H    11    29       P1  7957  1.00
      P1  H  7989  7998       L1     8  0.84

> <Gold.PLP.Chemscore.Internal.Correction>
0.0241

> <Gold.Rescore>
     Score         DG    S(hbond)    S(metal)    S(lipo)     H(rot)  DE(clash)    DE(int)     intcor
     14.12     -14.99       1.12        0.00      94.99       2.09       0.04       0.83       ----

> <Gold.Chemscore.Fitness>
14.1207

> <Gold.Chemscore.DG>
-14.9860

> <Gold.Chemscore.ZeroCoef>
-5.4800

> <Gold.Chemscore.Hbond>
1.1193

> <Gold.Chemscore.Metal>
0.0000

> <Gold.Chemscore.Lipo>
94.9900

> <Gold.Chemscore.Internal_Hbond>
0.0000

> <Gold.Chemscore.DEClash>
0.0368

> <Gold.Chemscore.DEInternal>
0.8285

> <Gold.Chemscore.Rot>
2.0883

> <Gold.Chemscore.Internal.Correction>
   9.000000E+99

> <Gold.Chemscore.Hbonds>
donor molecule, donor type, donor heavy atom, donor atom, acceptor molecule, acceptor atom, score
      L1  H    11    29       P1  7957  1.00
      P1  H  7989  7998       L1     8  0.04

> <Gold.Chemscore.Hbond.Weighted>
-3.7383

> <Gold.Chemscore.Metal.Weighted>
-0.0000

> <Gold.Chemscore.Lipo.Weighted>
-11.1138

> <Gold.Chemscore.Internal_Hbond.Weighted>
0.0000

> <Gold.Chemscore.DEClash.Weighted>
0.0368

> <Gold.Chemscore.DEInternal.Weighted>
0.8285

> <Gold.Chemscore.Rot.Weighted>
5.3461

> <Gold.Chemscore.Internal.Correction.Weighted>
   9.000000E+99

> <Gold.Protein.RotatedTorsions>
[ 6907 6896 6895 6894 ] final   -3.32 input  -60.11 | X-H torsion
[ 7974 7965 7964 7962 ] final   86.04 input  175.53 | X-H torsion
[ 8008 7997 7996 7995 ] final   84.46 input   59.86 | X-H torsion
[ 10167 10162 10161 10158 ] final  150.59 input  -65.29 | X-H torsion
[ 10718 10713 10712 10709 ] final -128.27 input   66.30 | X-H torsion
[ 10763 10752 10751 10750 ] final -113.04 input  -60.55 | X-H torsion
[ 11005 11000 10999 10996 ] final   -6.12 input  -57.11 | X-H torsion

> <Gold.Protein.ActiveResidues>
 VAL166  LYS551  ARG553  GLY616  TRP617  ASP618  TYR619  PRO620  LYS621  CYS622 
 ASP623  PHE694  ASN695  SER759  ASP760  ASP761  ALA762  ILE779  LEU786  VAL792 
 PHE793  MET794  SER795  GLU796  ALA797  LYS798  CYS799  TRP800  GLU811  SER814 

> <Gold.Protein.RotatedAtoms>
  151.5156  135.1066  159.9865 H   0  0  0  0  0  0  0  0  0  0  0  0  # atno 6907 bound_to 6896
  152.4642  133.7884  159.6899 H   0  0  0  0  0  0  0  0  0  0  0  0  # atno 6908 bound_to 6896
  150.8619  133.7568  159.3015 H   0  0  0  0  0  0  0  0  0  0  0  0  # atno 6909 bound_to 6896
  145.5775  139.2321  143.2371 H   0  0  0  0  0  0  0  0  0  0  0  0  # atno 7974 bound_to 7965
  155.9374  140.3410  155.6298 H   0  0  0  0  0  0  0  0  0  0  0  0  # atno 8008 bound_to 7997
  155.7083  140.0768  157.2400 H   0  0  0  0  0  0  0  0  0  0  0  0  # atno 8009 bound_to 7997
  154.4096  140.1627  156.2255 H   0  0  0  0  0  0  0  0  0  0  0  0  # atno 8010 bound_to 7997
  139.4848  144.5509  151.7402 H   0  0  0  0  0  0  0  0  0  0  0  0  # atno 10167 bound_to 10162
  156.1935  130.6811  151.0453 H   0  0  0  0  0  0  0  0  0  0  0  0  # atno 10718 bound_to 10713
  154.8378  135.4469  154.1288 H   0  0  0  0  0  0  0  0  0  0  0  0  # atno 10763 bound_to 10752
  153.2504  135.6926  153.7692 H   0  0  0  0  0  0  0  0  0  0  0  0  # atno 10764 bound_to 10752
  153.7006  135.3372  155.3199 H   0  0  0  0  0  0  0  0  0  0  0  0  # atno 10765 bound_to 10752
  140.6985  133.9010  155.8667 H   0  0  0  0  0  0  0  0  0  0  0  0  # atno 11005 bound_to 11000
  146.1740  140.6602  142.9220 LP  0  0  0  0  0  0  0  0  0  0  0  0  # atno 17320 bound_to 7965
  144.7409  140.4939  143.6870 LP  0  0  0  0  0  0  0  0  0  0  0  0  # atno 17321 bound_to 7965
  140.5063  144.1093  150.5983 LP  0  0  0  0  0  0  0  0  0  0  0  0  # atno 17342 bound_to 10162
  140.4003  143.2707  151.9955 LP  0  0  0  0  0  0  0  0  0  0  0  0  # atno 17343 bound_to 10162
  157.6943  131.0799  150.7015 LP  0  0  0  0  0  0  0  0  0  0  0  0  # atno 17370 bound_to 10713
  156.7071  130.4641  149.5557 LP  0  0  0  0  0  0  0  0  0  0  0  0  # atno 17371 bound_to 10713
  141.0183  134.0924  157.4148 LP  0  0  0  0  0  0  0  0  0  0  0  0  # atno 17394 bound_to 11000
  139.8903  135.0111  156.6730 LP  0  0  0  0  0  0  0  0  0  0  0  0  # atno 17395 bound_to 11000

$$$$
