AV-unprocessed.smi:240|AV-procd|sdf|1826|dock1
  -GOLD-   2262020423D 1   1.00000     0.00000
 Structure written by MMmdl.
 55 59  0  0  0  0  0  0  0  0  1 V2000
  149.0407  138.6225  153.2808 O   0  0  0  0  0  0  0  0  0  0  0  0
  148.1300  139.2744  154.1417 C   0  0  2  0  0  0  0  0  0  0  0  0
  147.4093  140.3969  153.3713 C   0  0  0  0  0  0  0  0  0  0  0  0
  147.3988  141.6070  154.3070 C   0  0  0  0  0  0  0  0  0  0  0  0
  148.6880  141.4584  155.1107 C   0  0  0  0  0  0  0  0  0  0  0  0
  148.7724  139.9503  155.3817 C   0  0  2  0  0  0  0  0  0  0  0  0
  150.1394  139.4221  155.9242 C   0  0  2  0  0  0  0  0  0  0  0  0
  151.3773  140.2020  155.4073 C   0  0  0  0  0  0  0  0  0  0  0  0
  152.5706  139.6673  155.9686 O   0  0  0  0  0  0  0  0  0  0  0  0
  152.7657  138.3076  155.6061 C   0  0  0  0  0  0  0  0  0  0  0  0
  151.6121  137.4743  156.1775 C   0  0  0  0  0  0  0  0  0  0  0  0
  150.3334  137.9826  155.6960 N   0  0  0  0  0  0  0  0  0  0  0  0
  149.3265  137.1531  156.0510 C   0  0  0  0  0  0  0  0  0  0  0  0
  148.5946  136.6140  155.0454 N   0  0  0  0  0  0  0  0  0  0  0  0
  147.5860  135.7834  155.3250 C   0  0  0  0  0  0  0  0  0  0  0  0
  147.1546  135.3651  156.5167 N   0  0  0  0  0  0  0  0  0  0  0  0
  147.8944  135.9008  157.5300 C   0  0  0  0  0  0  0  0  0  0  0  0
  148.9945  136.7926  157.3880 C   0  0  0  0  0  0  0  0  0  0  0  0
  149.5090  137.1117  158.6387 N   0  0  0  0  0  0  0  0  0  0  0  0
  148.7524  136.4519  159.4723 C   0  0  0  0  0  0  0  0  0  0  0  0
  147.7509  135.7059  158.8928 N   0  0  0  0  0  0  0  0  0  0  0  0
  146.7697  134.8783  159.5783 C   0  0  0  0  0  0  0  0  0  0  0  0
  146.4964  135.3175  161.0363 C   0  0  1  0  0  0  0  0  0  0  0  0
  145.3307  134.6641  161.5080 O   0  0  0  0  0  0  0  0  0  0  0  0
  147.6460  134.9857  161.9790 C   0  0  0  0  0  0  0  0  0  0  0  0
  147.5207  136.0593  163.0513 C   0  0  0  0  0  0  0  0  0  0  0  0
  147.1753  137.2147  162.3062 O   0  0  0  0  0  0  0  0  0  0  0  0
  146.3174  136.8370  161.2329 C   0  0  0  0  0  0  0  0  0  0  0  0
  149.3926  139.2618  152.6797 H   0  0  0  0  0  0  0  0  0  0  0  0
  147.4062  138.5298  154.4758 H   0  0  0  0  0  0  0  0  0  0  0  0
  147.9647  140.6588  152.4690 H   0  0  0  0  0  0  0  0  0  0  0  0
  146.4055  140.1075  153.0591 H   0  0  0  0  0  0  0  0  0  0  0  0
  147.3463  142.5534  153.7682 H   0  0  0  0  0  0  0  0  0  0  0  0
  146.5374  141.5529  154.9741 H   0  0  0  0  0  0  0  0  0  0  0  0
  149.5201  141.8010  154.4972 H   0  0  0  0  0  0  0  0  0  0  0  0
  148.6798  142.0489  156.0273 H   0  0  0  0  0  0  0  0  0  0  0  0
  148.0506  139.7963  156.1852 H   0  0  0  0  0  0  0  0  0  0  0  0
  150.1290  139.5747  157.0034 H   0  0  0  0  0  0  0  0  0  0  0  0
  151.4553  140.1884  154.3211 H   0  0  0  0  0  0  0  0  0  0  0  0
  151.3274  141.2477  155.7062 H   0  0  0  0  0  0  0  0  0  0  0  0
  152.8245  138.2069  154.5210 H   0  0  0  0  0  0  0  0  0  0  0  0
  153.7162  137.9629  156.0131 H   0  0  0  0  0  0  0  0  0  0  0  0
  151.7344  136.4297  155.8876 H   0  0  0  0  0  0  0  0  0  0  0  0
  151.6329  137.5106  157.2679 H   0  0  0  0  0  0  0  0  0  0  0  0
  147.0471  135.3988  154.4718 H   0  0  0  0  0  0  0  0  0  0  0  0
  148.9070  136.4930  160.5406 H   0  0  0  0  0  0  0  0  0  0  0  0
  145.8444  134.8938  159.0010 H   0  0  0  0  0  0  0  0  0  0  0  0
  147.1245  133.8470  159.5579 H   0  0  0  0  0  0  0  0  0  0  0  0
  144.6414  134.7840  160.8729 H   0  0  0  0  0  0  0  0  0  0  0  0
  147.6082  133.9715  162.3792 H   0  0  0  0  0  0  0  0  0  0  0  0
  148.6022  135.1046  161.4672 H   0  0  0  0  0  0  0  0  0  0  0  0
  146.7193  135.8214  163.7525 H   0  0  0  0  0  0  0  0  0  0  0  0
  148.4422  136.2042  163.6152 H   0  0  0  0  0  0  0  0  0  0  0  0
  146.6177  137.4048  160.3528 H   0  0  0  0  0  0  0  0  0  0  0  0
  145.2849  137.1075  161.4589 H   0  0  0  0  0  0  0  0  0  0  0  0
  1  2  1  0  0  0  0
  1 29  1  0  0  0  0
  2  6  1  0  0  0  0
  2  3  1  0  0  0  0
  2 30  1  0  0  0  0
  3  4  1  0  0  0  0
  3 31  1  0  0  0  0
  3 32  1  0  0  0  0
  4  5  1  0  0  0  0
  4 33  1  0  0  0  0
  4 34  1  0  0  0  0
  5  6  1  0  0  0  0
  5 35  1  0  0  0  0
  5 36  1  0  0  0  0
  6  7  1  0  0  0  0
  6 37  1  0  0  0  0
  7 12  1  0  0  0  0
  7  8  1  0  0  0  0
  7 38  1  0  0  0  0
  8  9  1  0  0  0  0
  8 39  1  0  0  0  0
  8 40  1  0  0  0  0
  9 10  1  0  0  0  0
 10 11  1  0  0  0  0
 10 41  1  0  0  0  0
 10 42  1  0  0  0  0
 11 12  1  0  0  0  0
 11 43  1  0  0  0  0
 11 44  1  0  0  0  0
 12 13  1  0  0  0  0
 13 18  1  0  0  0  0
 13 14  2  0  0  0  0
 14 15  1  0  0  0  0
 15 16  2  0  0  0  0
 15 45  1  0  0  0  0
 16 17  1  0  0  0  0
 17 21  1  0  0  0  0
 17 18  2  0  0  0  0
 18 19  1  0  0  0  0
 19 20  2  0  0  0  0
 20 21  1  0  0  0  0
 20 46  1  0  0  0  0
 21 22  1  0  0  0  0
 22 23  1  0  0  0  0
 22 47  1  0  0  0  0
 22 48  1  0  0  0  0
 23 28  1  0  0  0  0
 23 24  1  0  0  0  0
 23 25  1  0  0  0  0
 24 49  1  0  0  0  0
 25 26  1  0  0  0  0
 25 50  1  0  0  0  0
 25 51  1  0  0  0  0
 26 27  1  0  0  0  0
 26 52  1  0  0  0  0
 26 53  1  0  0  0  0
 27 28  1  0  0  0  0
 28 54  1  0  0  0  0
 28 55  1  0  0  0  0
M  END
> <s_m_source_file>
AV-unprocessed.smi

> <i_m_source_file_index>
240

> <i_lp_mmshare_version>
43012

> <i_f3d_flags>
0

> <s_epik_input>
W09IXVtDQEBIXTFbQ0gyXVtDSDJdW0NIMl1bQ0BIXTFbQ0BASF0yW0NIMl1PW0NIMl1bQ0gyXU4yYyhuW2NIXW4zKWMoYzM0KW5bY0hdbjRbQ0gyXVtDQEBdNShbT0hdKVtDSDJdW0NIMl1PW0NIMl01

> <s_epik_cmdline>
J2VwaWtfcHl0aG9uJywgJy1waCcsICc3LjAnLCAnLXRuJywgJzgnLCAnLW1hJywgJzIwMCcsICctbWV0YWxfYmluZGluZycsICctaW1hZScsICc8aW5maWxlLm1hZT4nLCAnLW9tYWUnLCAnPG91dGZpbGUubWFlPic=

> <r_lp_tautomer_probability>
1

> <r_epik_Ionization_Penalty>
0.000130618

> <r_epik_Ionization_Penalty_Charging>
0

> <r_epik_Ionization_Penalty_Neutral>
0.000130618

> <r_epik_State_Penalty>
-0

> <r_epik_Charging_Adjusted_Penalty>
0

> <i_epik_Tot_Q>
0

> <i_epik_Tot_abs_Q>
0

> <r_epik_Metal_State_Penalty>
-0

> <b_epik_Metal_Only>
0

> <s_lp_Force_Field>
OPLS_2005

> <r_lp_Energy>
64.3211

> <b_lp_Chiralities_Consistent>
1

> <s_lp_Variant>
AV-unprocessed.smi:240-3

> <Gold.Version>
5.8.1

> <Gold.Id.Protein>
6NUR|6NUR_protein|mol2

> <Gold.PLP.Fitness>
41.7622

> <Gold.PLP.PLP>
-35.7278

> <Gold.PLP.part.hbond>
-4.9199

> <Gold.PLP.part.metal>
0.0000

> <Gold.PLP.part.buried>
-3.2866

> <Gold.PLP.part.nonpolar>
-28.5279

> <Gold.PLP.part.repulsive>
0.1810

> <Gold.PLP.ligand.clash>
0.0000

> <Gold.PLP.ligand.torsion>
1.3511

> <Gold.PLP.Chemscore.Hbond>
2.8320

> <Gold.PLP.Chemscore.CHOScore>
0.0000

> <Gold.PLP.Chemscore.Metal>
0.0000

> <Gold.Chemscore.Hbonds>
donor molecule, donor type, donor heavy atom, donor atom, acceptor molecule, acceptor atom, score
      L1  H     1    29       P1  7957  1.00
      P1  H  6931  6943       L1    27  0.55
      P1  H  7997  8009       L1     9  0.78

> <Gold.PLP.Chemscore.Internal.Correction>
0.2406

> <Gold.Rescore>
     Score         DG    S(hbond)    S(metal)    S(lipo)     H(rot)  DE(clash)    DE(int)     intcor
     10.88     -17.29       2.70        0.00      89.45       3.00       0.26       6.14       ----

> <Gold.Chemscore.Fitness>
10.8813

> <Gold.Chemscore.DG>
-17.2901

> <Gold.Chemscore.ZeroCoef>
-5.4800

> <Gold.Chemscore.Hbond>
2.7047

> <Gold.Chemscore.Metal>
0.0000

> <Gold.Chemscore.Lipo>
89.4548

> <Gold.Chemscore.Internal_Hbond>
0.0000

> <Gold.Chemscore.DEClash>
0.2641

> <Gold.Chemscore.DEInternal>
6.1446

> <Gold.Chemscore.Rot>
3.0039

> <Gold.Chemscore.Internal.Correction>
   9.000000E+99

> <Gold.Chemscore.Hbonds>
donor molecule, donor type, donor heavy atom, donor atom, acceptor molecule, acceptor atom, score
      L1  H     1    29       P1  7957  0.98
      P1  H  6931  6943       L1    27  0.29
      P1  H  7997  8009       L1     9  0.13

> <Gold.Chemscore.Hbond.Weighted>
-9.0338

> <Gold.Chemscore.Metal.Weighted>
-0.0000

> <Gold.Chemscore.Lipo.Weighted>
-10.4662

> <Gold.Chemscore.Internal_Hbond.Weighted>
0.0000

> <Gold.Chemscore.DEClash.Weighted>
0.2641

> <Gold.Chemscore.DEInternal.Weighted>
6.1446

> <Gold.Chemscore.Rot.Weighted>
7.6899

> <Gold.Chemscore.Internal.Correction.Weighted>
   9.000000E+99

> <Gold.Protein.RotatedTorsions>
[ 6907 6896 6895 6894 ] final  149.00 input  -60.11 | X-H torsion
[ 7974 7965 7964 7962 ] final   63.37 input  175.53 | X-H torsion
[ 8008 7997 7996 7995 ] final -133.31 input   59.86 | X-H torsion
[ 10167 10162 10161 10158 ] final    8.96 input  -65.29 | X-H torsion
[ 10718 10713 10712 10709 ] final   96.92 input   66.30 | X-H torsion
[ 10763 10752 10751 10750 ] final  116.32 input  -60.55 | X-H torsion
[ 11005 11000 10999 10996 ] final  132.96 input  -57.11 | X-H torsion

> <Gold.Protein.ActiveResidues>
 VAL166  LYS551  ARG553  GLY616  TRP617  ASP618  TYR619  PRO620  LYS621  CYS622 
 ASP623  PHE694  ASN695  SER759  ASP760  ASP761  ALA762  ILE779  LEU786  VAL792 
 PHE793  MET794  SER795  GLU796  ALA797  LYS798  CYS799  TRP800  GLU811  SER814 

> <Gold.Protein.RotatedAtoms>
  152.1339  133.4424  159.4733 H   0  0  0  0  0  0  0  0  0  0  0  0  # atno 6907 bound_to 6896
  150.6880  134.2387  159.4473 H   0  0  0  0  0  0  0  0  0  0  0  0  # atno 6908 bound_to 6896
  152.0273  134.9788  160.0622 H   0  0  0  0  0  0  0  0  0  0  0  0  # atno 6909 bound_to 6896
  145.8626  139.3325  143.0810 H   0  0  0  0  0  0  0  0  0  0  0  0  # atno 7974 bound_to 7965
  155.3433  140.0473  157.3045 H   0  0  0  0  0  0  0  0  0  0  0  0  # atno 8008 bound_to 7997
  154.5266  140.2243  155.8844 H   0  0  0  0  0  0  0  0  0  0  0  0  # atno 8009 bound_to 7997
  156.1745  140.3088  155.9040 H   0  0  0  0  0  0  0  0  0  0  0  0  # atno 8010 bound_to 7997
  140.6283  143.8050  150.7262 H   0  0  0  0  0  0  0  0  0  0  0  0  # atno 10167 bound_to 10162
  157.6920  131.0593  150.4565 H   0  0  0  0  0  0  0  0  0  0  0  0  # atno 10718 bound_to 10713
  153.5355  135.3569  155.2695 H   0  0  0  0  0  0  0  0  0  0  0  0  # atno 10763 bound_to 10752
  154.8722  135.4078  154.3103 H   0  0  0  0  0  0  0  0  0  0  0  0  # atno 10764 bound_to 10752
  153.3800  135.7068  153.6641 H   0  0  0  0  0  0  0  0  0  0  0  0  # atno 10765 bound_to 10752
  139.9822  134.9544  156.9656 H   0  0  0  0  0  0  0  0  0  0  0  0  # atno 11005 bound_to 11000
  145.9230  140.9102  143.0395 LP  0  0  0  0  0  0  0  0  0  0  0  0  # atno 17320 bound_to 7965
  144.6726  140.1314  143.7443 LP  0  0  0  0  0  0  0  0  0  0  0  0  # atno 17321 bound_to 7965
  140.1656  143.4238  152.2037 LP  0  0  0  0  0  0  0  0  0  0  0  0  # atno 17342 bound_to 10162
  139.5501  144.7330  151.4462 LP  0  0  0  0  0  0  0  0  0  0  0  0  # atno 17343 bound_to 10162
  156.4913  130.4096  149.6405 LP  0  0  0  0  0  0  0  0  0  0  0  0  # atno 17370 bound_to 10713
  156.3415  130.7384  151.2330 LP  0  0  0  0  0  0  0  0  0  0  0  0  # atno 17371 bound_to 10713
  140.5074  134.1036  155.7263 LP  0  0  0  0  0  0  0  0  0  0  0  0  # atno 17394 bound_to 11000
  141.1492  133.8999  157.2140 LP  0  0  0  0  0  0  0  0  0  0  0  0  # atno 17395 bound_to 11000

$$$$
