#       Name:                AV-unprocessed.smi:1086
#       Creating user name   scv26
#       Creation time:       Fri Mar 27 03:25:17 2020


#       File generated by GOLD software.
#

@<TRIPOS>MOLECULE
AV-unprocessed.smi:1086
    48    49     1
SMALL
NO_CHARGES


@<TRIPOS>ATOM
      1 ****        -7.3470   3.6225  -0.1121 C.3            1 S1                 0.0000
      2 ****        -6.7780   2.3181  -0.1472 O.3            1 S1                 0.0000
      3 ****        -5.4029   2.2036  -0.1368 C.ar           1 S1                 0.0000
      4 ****        -4.8331   0.9151  -0.1577 C.ar           1 S1                 0.0000
      5 ****        -3.4306   0.7892  -0.1413 C.ar           1 S1                 0.0000
      6 ****        -2.6396   1.9620  -0.0960 C.ar           1 S1                 0.0000
      7 ****        -1.2185   1.9715  -0.0847 N.am           1 S1                 0.0000
      8 ****        -0.3775   0.9928   0.2911 C.2            1 S1                 0.0000
      9 ****        -0.7130  -0.1228   0.6887 O.2            1 S1                 0.0000
     10 ****         0.9004   1.3891   0.1958 N.am           1 S1                 0.0000
     11 ****         2.0624   0.5649   0.5253 C.3            1 S1                 0.0000
     12 ****         2.5201  -0.3404  -0.6344 C.2            1 S1                 0.0000
     13 ****         1.9898  -0.2102  -1.7397 O.2            1 S1                 0.0000
     14 ****         3.4966  -1.2525  -0.4067 N.am           1 S1                 0.0000
     15 ****         4.1560  -1.4953   0.8838 C.3            1 S1                 0.0000
     16 ****         3.6827  -2.8546   1.4295 C.3            1 S1                 0.0000
     17 ****         3.9671  -3.9804   0.4163 C.3            1 S1                 0.0000
     18 ****         3.4521  -3.6259  -0.9924 C.3            1 S1                 0.0000
     19 ****         3.9265  -2.2243  -1.4206 C.3            1 S1                 0.0000
     20 ****        -3.3076   3.2039  -0.0962 C.ar           1 S1                 0.0000
     21 ****        -4.6510   3.3315  -0.1107 N.ar           1 S1                 0.0000
     22 ****        -8.4339   3.5427  -0.1223 H              1 S1                 0.0000
     23 ****        -7.0506   4.2107  -0.9819 H              1 S1                 0.0000
     24 ****        -7.0635   4.1570   0.7958 H              1 S1                 0.0000
     25 ****        -5.4616   0.0373  -0.1885 H              1 S1                 0.0000
     26 ****        -2.9957  -0.1974  -0.1758 H              1 S1                 0.0000
     27 ****        -0.7910   2.8541  -0.3241 H              1 S1                 0.0000
     28 ****         1.0864   2.3215  -0.1433 H              1 S1                 0.0000
     29 ****         2.8810   1.2316   0.7971 H              1 S1                 0.0000
     30 ****         1.8354  -0.0405   1.4044 H              1 S1                 0.0000
     31 ****         5.2366  -1.5126   0.7346 H              1 S1                 0.0000
     32 ****         3.9833  -0.7131   1.6213 H              1 S1                 0.0000
     33 ****         4.1756  -3.0720   2.3774 H              1 S1                 0.0000
     34 ****         2.6128  -2.8104   1.6384 H              1 S1                 0.0000
     35 ****         5.0432  -4.1517   0.3685 H              1 S1                 0.0000
     36 ****         3.5213  -4.9156   0.7565 H              1 S1                 0.0000
     37 ****         3.7884  -4.3729  -1.7120 H              1 S1                 0.0000
     38 ****         2.3616  -3.6570  -1.0001 H              1 S1                 0.0000
     39 ****         3.5480  -1.9943  -2.4174 H              1 S1                 0.0000
     40 ****         5.0139  -2.2036  -1.5053 H              1 S1                 0.0000
     41 ****        -2.7475   4.1275  -0.0767 H              1 S1                 0.0000
     42 ****        -7.1057   1.8745  -0.9814 LP             1 S1                 0.0000
     43 ****        -7.1223   1.8234   0.6507 LP             1 S1                 0.0000
     44 ****        -1.6823  -0.3604   0.7520 LP             1 S1                 0.0000
     45 ****        -0.0162  -0.7915   0.9483 LP             1 S1                 0.0000
     46 ****         1.2740   0.4752  -1.8732 LP             1 S1                 0.0000
     47 ****         2.2755  -0.7900  -2.5028 LP             1 S1                 0.0000
     48 ****        -5.0807   4.2345  -0.1024 LP             1 S1                 0.0000
@<TRIPOS>BOND
    1    1    2 1     
    2    1   22 1     
    3    1   23 1     
    4    1   24 1     
    5    2    3 1     
    6    3   21 ar    
    7    3    4 ar    
    8    4    5 ar    
    9    4   25 1     
   10    5    6 ar    
   11    5   26 1     
   12    6    7 1     
   13    6   20 ar    
   14    7    8 am    
   15    7   27 1     
   16    8    9 2     
   17    8   10 am    
   18   10   11 1     
   19   10   28 1     
   20   11   12 1     
   21   11   29 1     
   22   11   30 1     
   23   12   13 2     
   24   12   14 am    
   25   14   19 1     
   26   14   15 1     
   27   15   16 1     
   28   15   31 1     
   29   15   32 1     
   30   16   17 1     
   31   16   33 1     
   32   16   34 1     
   33   17   18 1     
   34   17   35 1     
   35   17   36 1     
   36   18   19 1     
   37   18   37 1     
   38   18   38 1     
   39   19   39 1     
   40   19   40 1     
   41   20   21 ar    
   42   20   41 1     
   43    2   42 1     
   44    2   43 1     
   45    9   44 1     
   46    9   45 1     
   47   13   46 1     
   48   13   47 1     
   49   21   48 1     
@<TRIPOS>SUBSTRUCTURE
      1 S1             1
@<TRIPOS>SET
LONE_PAIRS      STATIC     ATOMS    <user>   **** ""
7 42 43 44 45 46 47 48
DONOR_HYDROGENS      STATIC     ATOMS    <user>   **** ""
2 27 28
ATOM$BLUE        STATIC     ATOMS    COLORGROUP SYSTEM
7 42 43 44 45 46 47 48
ATOM$RED        STATIC     ATOMS    COLORGROUP SYSTEM
2 27 28
