AV-unprocessed.smi:1966|AV-procd|sdf|7950|dock7
  -GOLD-   2272010113D 1   1.00000     0.00000
 Structure written by MMmdl.
 53 54  0  0  0  0  0  0  0  0  1 V2000
  145.7697  136.5209  152.7575 C   0  0  0  0  0  0  0  0  0  0  0  0
  146.3303  135.7376  153.9393 C   0  0  0  0  0  0  0  0  0  0  0  0
  145.5687  135.1888  154.7350 O   0  0  0  0  0  0  0  0  0  0  0  0
  147.6683  135.6947  154.0415 N   0  0  0  0  0  0  0  0  0  0  0  0
  148.4188  135.0177  155.1015 C   0  0  2  0  0  0  0  0  0  0  0  0
  148.9149  136.0750  156.1080 C   0  0  0  0  0  0  0  0  0  0  0  0
  148.6548  135.9501  157.3053 O   0  0  0  0  0  0  0  0  0  0  0  0
  149.5901  137.1104  155.5750 N   0  0  0  0  0  0  0  0  0  0  0  0
  150.1890  138.2219  156.2282 C   0  0  0  0  0  0  0  0  0  0  0  0
  151.3339  138.9081  155.7601 C   0  0  0  0  0  0  0  0  0  0  0  0
  151.8156  140.0103  156.4920 C   0  0  0  0  0  0  0  0  0  0  0  0
  151.1397  140.4114  157.6682 C   0  0  0  0  0  0  0  0  0  0  0  0
  151.6047  141.5183  158.4114 N   0  0  0  0  0  0  0  0  0  0  0  0
  152.2508  141.2598  159.6952 C   0  0  0  0  0  0  0  0  0  0  0  0
  152.9810  142.5198  160.1930 C   0  0  2  0  0  0  0  0  0  0  0  0
  153.5576  142.3282  161.5994 C   0  0  0  0  0  0  0  0  0  0  0  0
  152.0685  143.6160  160.2361 O   0  0  0  0  0  0  0  0  0  0  0  0
  151.4400  143.9204  158.9892 C   0  0  1  0  0  0  0  0  0  0  0  0
  152.4185  144.5532  157.9835 C   0  0  0  0  0  0  0  0  0  0  0  0
  150.7149  142.6762  158.4391 C   0  0  0  0  0  0  0  0  0  0  0  0
  150.0401  139.7541  158.1112 N   0  0  0  0  0  0  0  0  0  0  0  0
  149.5816  138.6983  157.4071 C   0  0  0  0  0  0  0  0  0  0  0  0
  149.6268  134.2703  154.4625 C   0  0  0  0  0  0  0  0  0  0  0  0
  149.1716  133.2489  153.4013 C   0  0  0  0  0  0  0  0  0  0  0  0
  150.5161  133.5552  155.5011 C   0  0  0  0  0  0  0  0  0  0  0  0
  146.0937  137.5611  152.8029 H   0  0  0  0  0  0  0  0  0  0  0  0
  144.6794  136.5026  152.7616 H   0  0  0  0  0  0  0  0  0  0  0  0
  146.1153  136.0912  151.8170 H   0  0  0  0  0  0  0  0  0  0  0  0
  148.2119  136.1800  153.3429 H   0  0  0  0  0  0  0  0  0  0  0  0
  147.7717  134.2960  155.6049 H   0  0  0  0  0  0  0  0  0  0  0  0
  149.6569  137.1171  154.5673 H   0  0  0  0  0  0  0  0  0  0  0  0
  151.8465  138.6249  154.8545 H   0  0  0  0  0  0  0  0  0  0  0  0
  152.6994  140.5268  156.1483 H   0  0  0  0  0  0  0  0  0  0  0  0
  151.4965  140.9489  160.4197 H   0  0  0  0  0  0  0  0  0  0  0  0
  152.9675  140.4432  159.5990 H   0  0  0  0  0  0  0  0  0  0  0  0
  153.8060  142.7541  159.5202 H   0  0  0  0  0  0  0  0  0  0  0  0
  154.2737  141.5063  161.6215 H   0  0  0  0  0  0  0  0  0  0  0  0
  152.7711  142.1073  162.3217 H   0  0  0  0  0  0  0  0  0  0  0  0
  154.0739  143.2284  161.9337 H   0  0  0  0  0  0  0  0  0  0  0  0
  150.6834  144.6745  159.2079 H   0  0  0  0  0  0  0  0  0  0  0  0
  151.8877  144.9047  157.0986 H   0  0  0  0  0  0  0  0  0  0  0  0
  153.1773  143.8480  157.6447 H   0  0  0  0  0  0  0  0  0  0  0  0
  152.9292  145.4099  158.4235 H   0  0  0  0  0  0  0  0  0  0  0  0
  150.3057  142.9032  157.4556 H   0  0  0  0  0  0  0  0  0  0  0  0
  149.8661  142.4357  159.0805 H   0  0  0  0  0  0  0  0  0  0  0  0
  148.6989  138.2168  157.8024 H   0  0  0  0  0  0  0  0  0  0  0  0
  150.2550  135.0019  153.9510 H   0  0  0  0  0  0  0  0  0  0  0  0
  148.5099  132.4984  153.8348 H   0  0  0  0  0  0  0  0  0  0  0  0
  150.0248  132.7265  152.9677 H   0  0  0  0  0  0  0  0  0  0  0  0
  148.6400  133.7242  152.5768 H   0  0  0  0  0  0  0  0  0  0  0  0
  149.9386  132.8428  156.0910 H   0  0  0  0  0  0  0  0  0  0  0  0
  150.9886  134.2549  156.1905 H   0  0  0  0  0  0  0  0  0  0  0  0
  151.3215  133.0046  155.0139 H   0  0  0  0  0  0  0  0  0  0  0  0
  1  2  1  0  0  0  0
  1 26  1  0  0  0  0
  1 27  1  0  0  0  0
  1 28  1  0  0  0  0
  2  3  2  0  0  0  0
  2  4  1  0  0  0  0
  4  5  1  0  0  0  0
  4 29  1  0  0  0  0
  5  6  1  0  0  0  0
  5 23  1  0  0  0  0
  5 30  1  0  0  0  0
  6  7  2  0  0  0  0
  6  8  1  0  0  0  0
  8  9  1  0  0  0  0
  8 31  1  0  0  0  0
  9 22  1  0  0  0  0
  9 10  2  0  0  0  0
 10 11  1  0  0  0  0
 10 32  1  0  0  0  0
 11 12  2  0  0  0  0
 11 33  1  0  0  0  0
 12 13  1  0  0  0  0
 12 21  1  0  0  0  0
 13 20  1  0  0  0  0
 13 14  1  0  0  0  0
 14 15  1  0  0  0  0
 14 34  1  0  0  0  0
 14 35  1  0  0  0  0
 15 16  1  0  0  0  0
 15 17  1  0  0  0  0
 15 36  1  0  0  0  0
 16 37  1  0  0  0  0
 16 38  1  0  0  0  0
 16 39  1  0  0  0  0
 17 18  1  0  0  0  0
 18 19  1  0  0  0  0
 18 20  1  0  0  0  0
 18 40  1  0  0  0  0
 19 41  1  0  0  0  0
 19 42  1  0  0  0  0
 19 43  1  0  0  0  0
 20 44  1  0  0  0  0
 20 45  1  0  0  0  0
 21 22  2  0  0  0  0
 22 46  1  0  0  0  0
 23 24  1  0  0  0  0
 23 25  1  0  0  0  0
 23 47  1  0  0  0  0
 24 48  1  0  0  0  0
 24 49  1  0  0  0  0
 24 50  1  0  0  0  0
 25 51  1  0  0  0  0
 25 52  1  0  0  0  0
 25 53  1  0  0  0  0
M  END
> <s_m_source_file>
AV-unprocessed.smi

> <i_m_source_file_index>
1966

> <i_lp_mmshare_version>
43012

> <i_f3d_flags>
0

> <s_epik_input>
W0NIM11DKD1PKVtOSF1bQ0BASF0oW0NIXShbQ0gzXSlbQ0gzXSlDKD1PKVtOSF1jMVtjSF1bY0hdYyhuW2NIXTEpTjJbQ0gyXVtDQEBIXShbQ0gzXSlPW0NAQEhdKFtDSDNdKVtDSDJdMg==

> <s_epik_cmdline>
J2VwaWtfcHl0aG9uJywgJy1waCcsICc3LjAnLCAnLXRuJywgJzgnLCAnLW1hJywgJzIwMCcsICctbWV0YWxfYmluZGluZycsICctaW1hZScsICc8aW5maWxlLm1hZT4nLCAnLW9tYWUnLCAnPG91dGZpbGUubWFlPic=

> <r_lp_tautomer_probability>
1

> <r_epik_Ionization_Penalty>
0.000679699

> <r_epik_Ionization_Penalty_Charging>
0

> <r_epik_Ionization_Penalty_Neutral>
0.000679699

> <r_epik_State_Penalty>
0.000430485

> <r_epik_Charging_Adjusted_Penalty>
0.000430485

> <i_epik_Tot_Q>
0

> <i_epik_Tot_abs_Q>
0

> <r_epik_Metal_State_Penalty>
-0

> <b_epik_Metal_Only>
0

> <s_lp_Force_Field>
OPLS_2005

> <r_lp_Energy>
28.7238

> <b_lp_Chiralities_Consistent>
1

> <s_lp_Variant>
AV-unprocessed.smi:1966-3

> <Gold.Version>
5.8.1

> <Gold.Id.Protein>
6NUR|6NUR_protein|mol2

> <Gold.PLP.Fitness>
40.9089

> <Gold.PLP.PLP>
-38.9997

> <Gold.PLP.part.hbond>
-0.9395

> <Gold.PLP.part.metal>
0.0000

> <Gold.PLP.part.buried>
-5.0103

> <Gold.PLP.part.nonpolar>
-33.4879

> <Gold.PLP.part.repulsive>
0.0973

> <Gold.PLP.ligand.clash>
0.0000

> <Gold.PLP.ligand.torsion>
0.7012

> <Gold.PLP.Chemscore.Hbond>
0.9920

> <Gold.PLP.Chemscore.CHOScore>
0.0000

> <Gold.PLP.Chemscore.Metal>
0.0000

> <Gold.Chemscore.Hbonds>
donor molecule, donor type, donor heavy atom, donor atom, acceptor molecule, acceptor atom, score
      L1  H     4    29       P1  7948  1.00

> <Gold.PLP.Chemscore.Internal.Correction>
0.3356

> <Gold.Rescore>
     Score         DG    S(hbond)    S(metal)    S(lipo)     H(rot)  DE(clash)    DE(int)     intcor
     16.93     -19.61       1.86        0.00     104.37       1.68       0.75       1.93       ----

> <Gold.Chemscore.Fitness>
16.9338

> <Gold.Chemscore.DG>
-19.6082

> <Gold.Chemscore.ZeroCoef>
-5.4800

> <Gold.Chemscore.Hbond>
1.8584

> <Gold.Chemscore.Metal>
0.0000

> <Gold.Chemscore.Lipo>
104.3689

> <Gold.Chemscore.Internal_Hbond>
0.0000

> <Gold.Chemscore.DEClash>
0.7453

> <Gold.Chemscore.DEInternal>
1.9290

> <Gold.Chemscore.Rot>
1.6759

> <Gold.Chemscore.Internal.Correction>
   9.000000E+99

> <Gold.Chemscore.Hbonds>
donor molecule, donor type, donor heavy atom, donor atom, acceptor molecule, acceptor atom, score
      L1  H     4    29       P1  7948  0.95

> <Gold.Chemscore.Hbond.Weighted>
-6.2072

> <Gold.Chemscore.Metal.Weighted>
-0.0000

> <Gold.Chemscore.Lipo.Weighted>
-12.2112

> <Gold.Chemscore.Internal_Hbond.Weighted>
0.0000

> <Gold.Chemscore.DEClash.Weighted>
0.7453

> <Gold.Chemscore.DEInternal.Weighted>
1.9290

> <Gold.Chemscore.Rot.Weighted>
4.2902

> <Gold.Chemscore.Internal.Correction.Weighted>
   9.000000E+99

> <Gold.Protein.RotatedTorsions>
[ 6907 6896 6895 6894 ] final  -81.27 input  -60.11 | X-H torsion
[ 7974 7965 7964 7962 ] final   13.51 input  175.53 | X-H torsion
[ 8008 7997 7996 7995 ] final   54.25 input   59.86 | X-H torsion
[ 10167 10162 10161 10158 ] final -154.95 input  -65.29 | X-H torsion
[ 10718 10713 10712 10709 ] final   37.98 input   66.30 | X-H torsion
[ 10763 10752 10751 10750 ] final   44.81 input  -60.55 | X-H torsion
[ 11005 11000 10999 10996 ] final  111.19 input  -57.11 | X-H torsion

> <Gold.Protein.ActiveResidues>
 VAL166  LYS551  ARG553  GLY616  TRP617  ASP618  TYR619  PRO620  LYS621  CYS622 
 ASP623  PHE694  ASN695  SER759  ASP760  ASP761  ALA762  ILE779  LEU786  VAL792 
 PHE793  MET794  SER795  GLU796  ALA797  LYS798  CYS799  TRP800  GLU811  SER814 

> <Gold.Protein.RotatedAtoms>
  150.6915  134.3843  159.5047 H   0  0  0  0  0  0  0  0  0  0  0  0  # atno 6907 bound_to 6896
  152.1641  134.8885  160.0548 H   0  0  0  0  0  0  0  0  0  0  0  0  # atno 6908 bound_to 6896
  151.9936  133.3765  159.4191 H   0  0  0  0  0  0  0  0  0  0  0  0  # atno 6909 bound_to 6896
  146.2327  139.9177  142.8514 H   0  0  0  0  0  0  0  0  0  0  0  0  # atno 7974 bound_to 7965
  155.4816  140.3468  155.4341 H   0  0  0  0  0  0  0  0  0  0  0  0  # atno 8008 bound_to 7997
  156.1035  140.1442  156.9464 H   0  0  0  0  0  0  0  0  0  0  0  0  # atno 8009 bound_to 7997
  154.4709  140.0901  156.7120 H   0  0  0  0  0  0  0  0  0  0  0  0  # atno 8010 bound_to 7997
  139.6971  143.9324  152.2412 H   0  0  0  0  0  0  0  0  0  0  0  0  # atno 10167 bound_to 10162
  157.3534  130.7611  149.6995 H   0  0  0  0  0  0  0  0  0  0  0  0  # atno 10718 bound_to 10713
  152.9835  135.6059  154.3334 H   0  0  0  0  0  0  0  0  0  0  0  0  # atno 10763 bound_to 10752
  154.3036  135.2772  155.2601 H   0  0  0  0  0  0  0  0  0  0  0  0  # atno 10764 bound_to 10752
  154.4843  135.5909  153.6468 H   0  0  0  0  0  0  0  0  0  0  0  0  # atno 10765 bound_to 10752
  139.8898  134.9502  156.6394 H   0  0  0  0  0  0  0  0  0  0  0  0  # atno 11005 bound_to 11000
  145.2167  140.9918  143.4069 LP  0  0  0  0  0  0  0  0  0  0  0  0  # atno 17320 bound_to 7965
  144.9645  139.3945  143.6339 LP  0  0  0  0  0  0  0  0  0  0  0  0  # atno 17321 bound_to 7965
  139.9156  144.6830  150.8515 LP  0  0  0  0  0  0  0  0  0  0  0  0  # atno 17342 bound_to 10162
  140.7699  143.3411  151.2205 LP  0  0  0  0  0  0  0  0  0  0  0  0  # atno 17343 bound_to 10162
  155.9725  130.4134  150.4080 LP  0  0  0  0  0  0  0  0  0  0  0  0  # atno 17370 bound_to 10713
  157.2146  131.0468  151.2580 LP  0  0  0  0  0  0  0  0  0  0  0  0  # atno 17371 bound_to 10713
  140.7605  133.8821  155.8415 LP  0  0  0  0  0  0  0  0  0  0  0  0  # atno 17394 bound_to 11000
  140.9926  134.1258  157.4394 LP  0  0  0  0  0  0  0  0  0  0  0  0  # atno 17395 bound_to 11000

$$$$
