AV-unprocessed.smi:1252|AV-procd|sdf|5267|dock9
  -GOLD-   22720 4383D 1   1.00000     0.00000
 Structure written by MMmdl.
 44 45  0  0  0  0  0  0  0  0  2 V2000
  149.6044  137.2944  158.7302 C   0  0  0  0  0  0  0  0  0  0  0  0
  148.4241  136.3038  158.7898 C   0  0  1  0  0  0  0  0  0  0  0  0
  148.6981  135.0190  157.9934 C   0  0  0  0  0  0  0  0  0  0  0  0
  149.5993  134.2513  158.3324 O   0  0  0  0  0  0  0  0  0  0  0  0
  147.9098  134.7992  156.9285 N   0  0  0  0  0  0  0  0  0  0  0  0
  147.9819  133.6408  156.0388 C   0  0  0  0  0  0  0  0  0  0  0  0
  148.7205  133.9301  154.6964 C   0  0  0  0  0  0  0  0  0  0  0  0
  149.7434  135.0760  154.9005 C   0  0  0  0  0  0  0  0  0  0  0  0
  149.5442  132.6956  154.2512 C   0  0  0  0  0  0  0  0  0  0  0  0
  147.7488  134.2989  153.6041 N   0  3  0  0  0  0  0  0  0  0  0  0
  147.0798  133.1564  152.9184 C   0  0  0  0  0  0  0  0  0  0  0  0
  146.2694  133.6507  151.7089 C   0  0  0  0  0  0  0  0  0  0  0  0
  145.3113  134.6084  152.1358 O   0  0  0  0  0  0  0  0  0  0  0  0
  145.9314  135.7489  152.7120 C   0  0  0  0  0  0  0  0  0  0  0  0
  146.7329  135.3312  153.9566 C   0  0  0  0  0  0  0  0  0  0  0  0
  148.0459  135.9747  160.1585 N   0  0  0  0  0  0  0  0  0  0  0  0
  147.8062  134.7871  160.7190 C   0  0  0  0  0  0  0  0  0  0  0  0
  147.5284  134.8481  162.0137 N   0  0  0  0  0  0  0  0  0  0  0  0
  147.6319  136.1967  162.2056 C   0  0  0  0  0  0  0  0  0  0  0  0
  147.9509  136.9166  161.1302 N   0  0  0  0  0  0  0  0  0  0  0  0
  149.8270  137.5775  157.7009 H   0  0  0  0  0  0  0  0  0  0  0  0
  150.5150  136.8765  159.1614 H   0  0  0  0  0  0  0  0  0  0  0  0
  149.3716  138.2087  159.2768 H   0  0  0  0  0  0  0  0  0  0  0  0
  147.5659  136.8001  158.3330 H   0  0  0  0  0  0  0  0  0  0  0  0
  147.1949  135.4824  156.7241 H   0  0  0  0  0  0  0  0  0  0  0  0
  148.4406  132.8049  156.5677 H   0  0  0  0  0  0  0  0  0  0  0  0
  146.9524  133.3400  155.8484 H   0  0  0  0  0  0  0  0  0  0  0  0
  150.5763  134.7659  155.5324 H   0  0  0  0  0  0  0  0  0  0  0  0
  149.3015  135.9442  155.3893 H   0  0  0  0  0  0  0  0  0  0  0  0
  150.1686  135.4040  153.9512 H   0  0  0  0  0  0  0  0  0  0  0  0
  150.4001  132.5219  154.9041 H   0  0  0  0  0  0  0  0  0  0  0  0
  149.9368  132.8221  153.2415 H   0  0  0  0  0  0  0  0  0  0  0  0
  148.9582  131.7770  154.2713 H   0  0  0  0  0  0  0  0  0  0  0  0
  147.8009  132.4252  152.5587 H   0  0  0  0  0  0  0  0  0  0  0  0
  146.4124  132.6390  153.6075 H   0  0  0  0  0  0  0  0  0  0  0  0
  146.9240  134.0825  150.9499 H   0  0  0  0  0  0  0  0  0  0  0  0
  145.7474  132.8158  151.2408 H   0  0  0  0  0  0  0  0  0  0  0  0
  146.5752  136.2386  151.9796 H   0  0  0  0  0  0  0  0  0  0  0  0
  145.1589  136.4675  152.9866 H   0  0  0  0  0  0  0  0  0  0  0  0
  146.0491  134.9461  154.7135 H   0  0  0  0  0  0  0  0  0  0  0  0
  147.1953  136.2273  154.3658 H   0  0  0  0  0  0  0  0  0  0  0  0
  147.8386  133.8580  160.1690 H   0  0  0  0  0  0  0  0  0  0  0  0
  147.4728  136.6612  163.1676 H   0  0  0  0  0  0  0  0  0  0  0  0
  148.3225  134.7304  152.8935 H   0  0  0  0  0  0  0  0  0  0  0  0
  1  2  1  0  0  0  0
  1 21  1  0  0  0  0
  1 22  1  0  0  0  0
  1 23  1  0  0  0  0
  2  3  1  0  0  0  0
  2 16  1  0  0  0  0
  2 24  1  0  0  0  0
  3  4  2  0  0  0  0
  3  5  1  0  0  0  0
  5  6  1  0  0  0  0
  5 25  1  0  0  0  0
  6  7  1  0  0  0  0
  6 26  1  0  0  0  0
  6 27  1  0  0  0  0
  7  8  1  0  0  0  0
  7  9  1  0  0  0  0
  7 10  1  0  0  0  0
  8 28  1  0  0  0  0
  8 29  1  0  0  0  0
  8 30  1  0  0  0  0
  9 31  1  0  0  0  0
  9 32  1  0  0  0  0
  9 33  1  0  0  0  0
 10 15  1  0  0  0  0
 10 11  1  0  0  0  0
 10 44  1  0  0  0  0
 11 12  1  0  0  0  0
 11 34  1  0  0  0  0
 11 35  1  0  0  0  0
 12 13  1  0  0  0  0
 12 36  1  0  0  0  0
 12 37  1  0  0  0  0
 13 14  1  0  0  0  0
 14 15  1  0  0  0  0
 14 38  1  0  0  0  0
 14 39  1  0  0  0  0
 15 40  1  0  0  0  0
 15 41  1  0  0  0  0
 16 20  1  0  0  0  0
 16 17  1  0  0  0  0
 17 18  2  0  0  0  0
 17 42  1  0  0  0  0
 18 19  1  0  0  0  0
 19 20  2  0  0  0  0
 19 43  1  0  0  0  0
M  CHG  1  10   1
M  END
> <s_m_source_file>
AV-unprocessed.smi

> <i_m_source_file_index>
1252

> <i_lp_mmshare_version>
43012

> <i_f3d_flags>
0

> <s_epik_input>
bjFbY0hdbltjSF1uMVtDQEhdKFtDSDNdKUMoPU8pW05IXVtDSDJdQyhbQ0gzXSkoW0NIM10pTjJbQ0gyXVtDSDJdT1tDSDJdW0NIMl0y

> <s_epik_cmdline>
J2VwaWtfcHl0aG9uJywgJy1waCcsICc3LjAnLCAnLXRuJywgJzgnLCAnLW1hJywgJzIwMCcsICctbWV0YWxfYmluZGluZycsICctaW1hZScsICc8aW5maWxlLm1hZT4nLCAnLW9tYWUnLCAnPG91dGZpbGUubWFlPic=

> <r_lp_tautomer_probability>
1

> <r_epik_Ionization_Penalty>
0.71326

> <r_epik_Ionization_Penalty_Charging>
0.713252

> <r_epik_Ionization_Penalty_Neutral>
8.22342e-06

> <r_epik_State_Penalty>
0.737017

> <r_epik_Charging_Adjusted_Penalty>
1.45027

> <i_epik_Tot_Q>
1

> <i_epik_Tot_abs_Q>
1

> <r_epik_Metal_State_Penalty>
0.73702

> <b_epik_Metal_Only>
0

> <s_lp_Force_Field>
OPLS_2005

> <r_lp_Energy>
31.3962

> <b_lp_Chiralities_Consistent>
1

> <s_lp_Variant>
AV-unprocessed.smi:1252-4

> <Gold.Version>
5.8.1

> <Gold.Id.Protein>
6NUR|6NUR_protein|mol2

> <Gold.PLP.Fitness>
38.9287

> <Gold.PLP.PLP>
-27.2716

> <Gold.PLP.part.hbond>
-4.0000

> <Gold.PLP.part.metal>
0.0000

> <Gold.PLP.part.buried>
-3.4393

> <Gold.PLP.part.nonpolar>
-20.1093

> <Gold.PLP.part.repulsive>
0.1008

> <Gold.PLP.ligand.clash>
0.0735

> <Gold.PLP.ligand.torsion>
1.5381

> <Gold.PLP.Chemscore.Hbond>
4.8656

> <Gold.PLP.Chemscore.CHOScore>
0.0000

> <Gold.PLP.Chemscore.Metal>
0.0000

> <Gold.Chemscore.Hbonds>
donor molecule, donor type, donor heavy atom, donor atom, acceptor molecule, acceptor atom, score
      L1  H    10    44       P1  7948  2.00
      P1  H  6896  6908       L1     4  0.96
      P1  H  6931  6943       L1    20  1.00
      P1  H  6934  6947       L1    20  0.36

> <Gold.PLP.Chemscore.Internal.Correction>
0.2099

> <Gold.Rescore>
     Score         DG    S(hbond)    S(metal)    S(lipo)     H(rot)  DE(clash)    DE(int)     intcor
     13.75     -15.26       3.61        0.00      37.00       2.59       0.03       1.48       ----

> <Gold.Chemscore.Fitness>
13.7507

> <Gold.Chemscore.DG>
-15.2575

> <Gold.Chemscore.ZeroCoef>
-5.4800

> <Gold.Chemscore.Hbond>
3.6137

> <Gold.Chemscore.Metal>
0.0000

> <Gold.Chemscore.Lipo>
36.9978

> <Gold.Chemscore.Internal_Hbond>
0.0000

> <Gold.Chemscore.DEClash>
0.0253

> <Gold.Chemscore.DEInternal>
1.4815

> <Gold.Chemscore.Rot>
2.5864

> <Gold.Chemscore.Internal.Correction>
   9.000000E+99

> <Gold.Chemscore.Hbonds>
donor molecule, donor type, donor heavy atom, donor atom, acceptor molecule, acceptor atom, score
      L1  H    10    44       P1  7948  0.54
      P1  H  6896  6908       L1     4  0.90
      P1  H  6931  6943       L1    20  0.29
      P1  H  6934  6947       L1    20  0.35

> <Gold.Chemscore.Hbond.Weighted>
-12.0699

> <Gold.Chemscore.Metal.Weighted>
-0.0000

> <Gold.Chemscore.Lipo.Weighted>
-4.3287

> <Gold.Chemscore.Internal_Hbond.Weighted>
0.0000

> <Gold.Chemscore.DEClash.Weighted>
0.0253

> <Gold.Chemscore.DEInternal.Weighted>
1.4815

> <Gold.Chemscore.Rot.Weighted>
6.6211

> <Gold.Chemscore.Internal.Correction.Weighted>
   9.000000E+99

> <Gold.Protein.RotatedTorsions>
[ 6907 6896 6895 6894 ] final  126.93 input  -60.11 | X-H torsion
[ 7974 7965 7964 7962 ] final   83.70 input  175.53 | X-H torsion
[ 8008 7997 7996 7995 ] final  -61.75 input   59.86 | X-H torsion
[ 10167 10162 10161 10158 ] final  121.79 input  -65.29 | X-H torsion
[ 10718 10713 10712 10709 ] final -153.69 input   66.30 | X-H torsion
[ 10763 10752 10751 10750 ] final  108.55 input  -60.55 | X-H torsion
[ 11005 11000 10999 10996 ] final -120.64 input  -57.11 | X-H torsion

> <Gold.Protein.ActiveResidues>
 VAL166  LYS551  ARG553  GLY616  TRP617  ASP618  TYR619  PRO620  LYS621  CYS622 
 ASP623  PHE694  ASN695  SER759  ASP760  ASP761  ALA762  ILE779  LEU786  VAL792 
 PHE793  MET794  SER795  GLU796  ALA797  LYS798  CYS799  TRP800  GLU811  SER814 

> <Gold.Protein.RotatedAtoms>
  152.3859  133.6610  159.6198 H   0  0  0  0  0  0  0  0  0  0  0  0  # atno 6907 bound_to 6896
  150.7778  133.9036  159.3357 H   0  0  0  0  0  0  0  0  0  0  0  0  # atno 6908 bound_to 6896
  151.6832  135.0960  160.0271 H   0  0  0  0  0  0  0  0  0  0  0  0  # atno 6909 bound_to 6896
  145.6084  139.2364  143.2206 H   0  0  0  0  0  0  0  0  0  0  0  0  # atno 7974 bound_to 7965
  154.4464  140.1011  156.6480 H   0  0  0  0  0  0  0  0  0  0  0  0  # atno 8008 bound_to 7997
  155.5429  140.3484  155.4432 H   0  0  0  0  0  0  0  0  0  0  0  0  # atno 8009 bound_to 7997
  156.0584  140.1320  156.9958 H   0  0  0  0  0  0  0  0  0  0  0  0  # atno 8010 bound_to 7997
  139.5898  144.7021  151.3319 H   0  0  0  0  0  0  0  0  0  0  0  0  # atno 10167 bound_to 10162
  156.4892  130.8339  151.2563 H   0  0  0  0  0  0  0  0  0  0  0  0  # atno 10718 bound_to 10713
  153.4222  135.3808  155.2118 H   0  0  0  0  0  0  0  0  0  0  0  0  # atno 10763 bound_to 10752
  154.8745  135.3820  154.4370 H   0  0  0  0  0  0  0  0  0  0  0  0  # atno 10764 bound_to 10752
  153.4891  135.7088  153.5957 H   0  0  0  0  0  0  0  0  0  0  0  0  # atno 10765 bound_to 10752
  141.0129  134.0238  157.3389 H   0  0  0  0  0  0  0  0  0  0  0  0  # atno 11005 bound_to 11000
  146.1523  140.6908  142.9316 LP  0  0  0  0  0  0  0  0  0  0  0  0  # atno 17320 bound_to 7965
  144.7280  140.4585  143.6959 LP  0  0  0  0  0  0  0  0  0  0  0  0  # atno 17321 bound_to 7965
  140.7163  143.7257  150.7662 LP  0  0  0  0  0  0  0  0  0  0  0  0  # atno 17342 bound_to 10162
  140.0810  143.4969  152.2530 LP  0  0  0  0  0  0  0  0  0  0  0  0  # atno 17343 bound_to 10162
  157.7475  131.0019  150.2981 LP  0  0  0  0  0  0  0  0  0  0  0  0  # atno 17370 bound_to 10713
  156.3443  130.3820  149.7382 LP  0  0  0  0  0  0  0  0  0  0  0  0  # atno 17371 bound_to 10713
  139.9100  135.0188  156.7651 LP  0  0  0  0  0  0  0  0  0  0  0  0  # atno 17394 bound_to 11000
  140.6703  133.9565  155.7853 LP  0  0  0  0  0  0  0  0  0  0  0  0  # atno 17395 bound_to 11000

$$$$
