AV-unprocessed.smi:80|AV-procd|sdf|785|dock9
  -GOLD-   2262017153D 1   1.00000     0.00000
 Structure written by MMmdl.
 51 54  0  0  0  0  0  0  0  0  1 V2000
  147.3239  132.7462  160.5722 N   0  0  0  0  0  0  0  0  0  0  0  0
  147.0855  133.7234  161.1447 C   0  0  0  0  0  0  0  0  0  0  0  0
  146.7857  134.9674  161.8730 C   0  0  0  0  0  0  0  0  0  0  0  0
  146.7667  136.2136  160.9780 C   0  0  0  0  0  0  0  0  0  0  0  0
  147.6033  137.0972  161.1687 O   0  0  0  0  0  0  0  0  0  0  0  0
  145.8258  136.3017  160.0090 N   0  0  0  0  0  0  0  0  0  0  0  0
  145.7119  137.3955  159.0364 C   0  0  0  0  0  0  0  0  0  0  0  0
  146.0654  136.8519  157.6403 C   0  0  0  0  0  0  0  0  0  0  0  0
  145.2352  135.6929  157.3167 N   0  0  0  0  0  0  0  0  0  0  0  0
  145.4112  135.2371  156.0596 C   0  0  0  0  0  0  0  0  0  0  0  0
  146.6709  134.8950  155.6960 N   0  0  0  0  0  0  0  0  0  0  0  0
  146.9065  134.4343  154.4636 C   0  0  0  0  0  0  0  0  0  0  0  0
  146.0421  134.2413  153.4645 N   0  0  0  0  0  0  0  0  0  0  0  0
  144.7727  134.5832  153.8304 C   0  0  0  0  0  0  0  0  0  0  0  0
  144.3721  135.0897  155.0986 C   0  0  0  0  0  0  0  0  0  0  0  0
  143.0047  135.3346  155.1022 N   0  0  0  0  0  0  0  0  0  0  0  0
  142.6194  134.9971  153.9017 C   0  0  0  0  0  0  0  0  0  0  0  0
  143.6134  134.5192  153.0756 N   0  0  0  0  0  0  0  0  0  0  0  0
  143.4783  134.0987  151.7091 C   0  0  0  0  0  0  0  0  0  0  0  0
  143.7361  132.6428  151.3180 C   0  0  0  0  0  0  0  0  0  0  0  0
  144.3596  133.1004  149.9794 C   0  0  0  0  0  0  0  0  0  0  0  0
  145.6863  132.4082  149.6320 C   0  0  0  0  0  0  0  0  0  0  0  0
  146.4051  132.0534  150.7958 O   0  0  0  0  0  0  0  0  0  0  0  0
  143.4535  132.9979  148.7323 C   0  0  0  0  0  0  0  0  0  0  0  0
  143.5774  134.1026  147.8598 O   0  0  0  0  0  0  0  0  0  0  0  0
  144.4971  134.4934  150.6352 C   0  0  0  0  0  0  0  0  0  0  0  0
  145.2006  134.6367  158.3277 C   0  0  0  0  0  0  0  0  0  0  0  0
  144.8741  135.2231  159.7145 C   0  0  0  0  0  0  0  0  0  0  0  0
  145.8153  134.8382  162.3531 H   0  0  0  0  0  0  0  0  0  0  0  0
  147.5424  135.0768  162.6505 H   0  0  0  0  0  0  0  0  0  0  0  0
  144.6869  137.7690  159.0408 H   0  0  0  0  0  0  0  0  0  0  0  0
  146.3377  138.2557  159.2674 H   0  0  0  0  0  0  0  0  0  0  0  0
  145.9176  137.6296  156.8899 H   0  0  0  0  0  0  0  0  0  0  0  0
  147.1194  136.5728  157.6104 H   0  0  0  0  0  0  0  0  0  0  0  0
  147.9344  134.1829  154.2469 H   0  0  0  0  0  0  0  0  0  0  0  0
  141.5903  135.0922  153.5880 H   0  0  0  0  0  0  0  0  0  0  0  0
  142.4806  134.4037  151.3910 H   0  0  0  0  0  0  0  0  0  0  0  0
  144.4548  132.1589  151.9814 H   0  0  0  0  0  0  0  0  0  0  0  0
  142.8327  132.0396  151.2225 H   0  0  0  0  0  0  0  0  0  0  0  0
  145.5110  131.4961  149.0607 H   0  0  0  0  0  0  0  0  0  0  0  0
  146.3139  133.0462  149.0089 H   0  0  0  0  0  0  0  0  0  0  0  0
  147.1668  131.5567  150.5386 H   0  0  0  0  0  0  0  0  0  0  0  0
  143.6837  132.1021  148.1551 H   0  0  0  0  0  0  0  0  0  0  0  0
  142.4050  132.9208  149.0219 H   0  0  0  0  0  0  0  0  0  0  0  0
  144.4958  134.2625  147.7053 H   0  0  0  0  0  0  0  0  0  0  0  0
  144.1810  135.3250  150.0045 H   0  0  0  0  0  0  0  0  0  0  0  0
  145.4967  134.6712  151.0331 H   0  0  0  0  0  0  0  0  0  0  0  0
  144.4529  133.8913  158.0543 H   0  0  0  0  0  0  0  0  0  0  0  0
  146.1637  134.1261  158.3621 H   0  0  0  0  0  0  0  0  0  0  0  0
  144.8840  134.4300  160.4633 H   0  0  0  0  0  0  0  0  0  0  0  0
  143.8611  135.6281  159.7207 H   0  0  0  0  0  0  0  0  0  0  0  0
  1  2  3  0  0  0  0
  2  3  1  0  0  0  0
  3  4  1  0  0  0  0
  3 29  1  0  0  0  0
  3 30  1  0  0  0  0
  4  5  2  0  0  0  0
  4  6  1  0  0  0  0
  6 28  1  0  0  0  0
  6  7  1  0  0  0  0
  7  8  1  0  0  0  0
  7 31  1  0  0  0  0
  7 32  1  0  0  0  0
  8  9  1  0  0  0  0
  8 33  1  0  0  0  0
  8 34  1  0  0  0  0
  9 10  1  0  0  0  0
  9 27  1  0  0  0  0
 10 15  1  0  0  0  0
 10 11  2  0  0  0  0
 11 12  1  0  0  0  0
 12 13  2  0  0  0  0
 12 35  1  0  0  0  0
 13 14  1  0  0  0  0
 14 18  1  0  0  0  0
 14 15  2  0  0  0  0
 15 16  1  0  0  0  0
 16 17  2  0  0  0  0
 17 18  1  0  0  0  0
 17 36  1  0  0  0  0
 18 19  1  0  0  0  0
 19 26  1  0  0  0  0
 19 20  1  0  0  0  0
 19 37  1  0  0  0  0
 20 21  1  0  0  0  0
 20 38  1  0  0  0  0
 20 39  1  0  0  0  0
 21 22  1  0  0  0  0
 21 24  1  0  0  0  0
 21 26  1  0  0  0  0
 22 23  1  0  0  0  0
 22 40  1  0  0  0  0
 22 41  1  0  0  0  0
 23 42  1  0  0  0  0
 24 25  1  0  0  0  0
 24 43  1  0  0  0  0
 24 44  1  0  0  0  0
 25 45  1  0  0  0  0
 26 46  1  0  0  0  0
 26 47  1  0  0  0  0
 27 28  1  0  0  0  0
 27 48  1  0  0  0  0
 27 49  1  0  0  0  0
 28 50  1  0  0  0  0
 28 51  1  0  0  0  0
M  END
> <s_m_source_file>
AV-unprocessed.smi

> <i_m_source_file_index>
80

> <i_lp_mmshare_version>
43012

> <i_f3d_flags>
0

> <s_epik_input>
TiNDW0NIMl1DKD1PKU4xW0NIMl1bQ0gyXU4oW0NIMl1bQ0gyXTEpYyhuW2NIXW4yKWMoYzIzKW5bY0hdbjNbQ0hdKFtDSDJdNClbQ0gyXUM0KFtDSDJdW09IXSlbQ0gyXVtPSF0=

> <s_epik_cmdline>
J2VwaWtfcHl0aG9uJywgJy1waCcsICc3LjAnLCAnLXRuJywgJzgnLCAnLW1hJywgJzIwMCcsICctbWV0YWxfYmluZGluZycsICctaW1hZScsICc8aW5maWxlLm1hZT4nLCAnLW9tYWUnLCAnPG91dGZpbGUubWFlPic=

> <r_lp_tautomer_probability>
1

> <r_epik_Ionization_Penalty>
0.000827394

> <r_epik_Ionization_Penalty_Charging>
0

> <r_epik_Ionization_Penalty_Neutral>
0.000827394

> <r_epik_State_Penalty>
0.000406949

> <r_epik_Charging_Adjusted_Penalty>
0.000406949

> <i_epik_Tot_Q>
0

> <i_epik_Tot_abs_Q>
0

> <r_epik_Metal_State_Penalty>
-0

> <b_epik_Metal_Only>
0

> <s_lp_Force_Field>
OPLS_2005

> <r_lp_Energy>
60.4217

> <b_lp_Chiralities_Consistent>
1

> <s_lp_Variant>
AV-unprocessed.smi:80-1

> <Gold.Version>
5.8.1

> <Gold.Id.Protein>
6NUR|6NUR_protein|mol2

> <Gold.PLP.Fitness>
50.1294

> <Gold.PLP.PLP>
-37.9584

> <Gold.PLP.part.hbond>
-6.7736

> <Gold.PLP.part.metal>
0.0000

> <Gold.PLP.part.buried>
-4.2505

> <Gold.PLP.part.nonpolar>
-26.4956

> <Gold.PLP.part.repulsive>
0.1829

> <Gold.PLP.ligand.clash>
0.0000

> <Gold.PLP.ligand.torsion>
1.4414

> <Gold.PLP.Chemscore.Hbond>
4.8080

> <Gold.PLP.Chemscore.CHOScore>
0.0000

> <Gold.PLP.Chemscore.Metal>
0.0000

> <Gold.Chemscore.Hbonds>
donor molecule, donor type, donor heavy atom, donor atom, acceptor molecule, acceptor atom, score
      L1  H    23    42       P1 10747  1.00
      L1  H    25    45       P1  7921  1.00
      P1  H  6931  6943       L1     5  0.96
      P1  H  6934  6947       L1     5  0.91
      P1  H 10192 10197       L1    25  1.00

> <Gold.PLP.Chemscore.Internal.Correction>
0.6298

> <Gold.Rescore>
     Score         DG    S(hbond)    S(metal)    S(lipo)     H(rot)  DE(clash)    DE(int)     intcor
     17.06     -19.12       4.73        0.00      65.10       3.82       0.28       1.78       ----

> <Gold.Chemscore.Fitness>
17.0556

> <Gold.Chemscore.DG>
-19.1168

> <Gold.Chemscore.ZeroCoef>
-5.4800

> <Gold.Chemscore.Hbond>
4.7274

> <Gold.Chemscore.Metal>
0.0000

> <Gold.Chemscore.Lipo>
65.1032

> <Gold.Chemscore.Internal_Hbond>
0.0000

> <Gold.Chemscore.DEClash>
0.2811

> <Gold.Chemscore.DEInternal>
1.7801

> <Gold.Chemscore.Rot>
3.8164

> <Gold.Chemscore.Internal.Correction>
   9.000000E+99

> <Gold.Chemscore.Hbonds>
donor molecule, donor type, donor heavy atom, donor atom, acceptor molecule, acceptor atom, score
      L1  H    23    42       P1 10747  0.99
      L1  H    25    45       P1  7921  1.00
      P1  H  6931  6943       L1     5  0.90
      P1  H  6934  6947       L1     5  0.87
      P1  H 10192 10197       L1    25  0.95

> <Gold.Chemscore.Hbond.Weighted>
-15.7896

> <Gold.Chemscore.Metal.Weighted>
-0.0000

> <Gold.Chemscore.Lipo.Weighted>
-7.6171

> <Gold.Chemscore.Internal_Hbond.Weighted>
0.0000

> <Gold.Chemscore.DEClash.Weighted>
0.2811

> <Gold.Chemscore.DEInternal.Weighted>
1.7801

> <Gold.Chemscore.Rot.Weighted>
9.7699

> <Gold.Chemscore.Internal.Correction.Weighted>
   9.000000E+99

> <Gold.Protein.RotatedTorsions>
[ 6907 6896 6895 6894 ] final  133.95 input  -60.11 | X-H torsion
[ 7974 7965 7964 7962 ] final  125.42 input  175.53 | X-H torsion
[ 8008 7997 7996 7995 ] final -144.79 input   59.86 | X-H torsion
[ 10167 10162 10161 10158 ] final  131.44 input  -65.29 | X-H torsion
[ 10718 10713 10712 10709 ] final -105.10 input   66.30 | X-H torsion
[ 10763 10752 10751 10750 ] final  -45.80 input  -60.55 | X-H torsion
[ 11005 11000 10999 10996 ] final   90.04 input  -57.11 | X-H torsion

> <Gold.Protein.ActiveResidues>
 VAL166  LYS551  ARG553  GLY616  TRP617  ASP618  TYR619  PRO620  LYS621  CYS622 
 ASP623  PHE694  ASN695  SER759  ASP760  ASP761  ALA762  ILE779  LEU786  VAL792 
 PHE793  MET794  SER795  GLU796  ALA797  LYS798  CYS799  TRP800  GLU811  SER814 

> <Gold.Protein.RotatedAtoms>
  152.3165  133.5808  159.5715 H   0  0  0  0  0  0  0  0  0  0  0  0  # atno 6907 bound_to 6896
  150.7349  134.0074  159.3667 H   0  0  0  0  0  0  0  0  0  0  0  0  # atno 6908 bound_to 6896
  151.7962  135.0722  160.0445 H   0  0  0  0  0  0  0  0  0  0  0  0  # atno 6909 bound_to 6896
  145.0732  139.3714  143.4947 H   0  0  0  0  0  0  0  0  0  0  0  0  # atno 7974 bound_to 7965
  155.5326  140.0601  157.2886 H   0  0  0  0  0  0  0  0  0  0  0  0  # atno 8008 bound_to 7997
  154.4479  140.1933  156.0554 H   0  0  0  0  0  0  0  0  0  0  0  0  # atno 8009 bound_to 7997
  156.0641  140.3268  155.7501 H   0  0  0  0  0  0  0  0  0  0  0  0  # atno 8010 bound_to 7997
  139.5384  144.6706  151.4708 H   0  0  0  0  0  0  0  0  0  0  0  0  # atno 10167 bound_to 10162
  156.0332  130.5547  150.7491 H   0  0  0  0  0  0  0  0  0  0  0  0  # atno 10718 bound_to 10713
  154.0345  135.6652  153.4784 H   0  0  0  0  0  0  0  0  0  0  0  0  # atno 10763 bound_to 10752
  153.0527  135.5075  154.7901 H   0  0  0  0  0  0  0  0  0  0  0  0  # atno 10764 bound_to 10752
  154.6857  135.3052  154.9516 H   0  0  0  0  0  0  0  0  0  0  0  0  # atno 10765 bound_to 10752
  139.8863  134.8589  156.3228 H   0  0  0  0  0  0  0  0  0  0  0  0  # atno 11005 bound_to 11000
  146.3529  140.0487  142.8637 LP  0  0  0  0  0  0  0  0  0  0  0  0  # atno 17320 bound_to 7965
  145.1267  140.9494  143.4568 LP  0  0  0  0  0  0  0  0  0  0  0  0  # atno 17321 bound_to 7965
  140.6602  143.8515  150.6879 LP  0  0  0  0  0  0  0  0  0  0  0  0  # atno 17342 bound_to 10162
  140.1907  143.4039  152.1865 LP  0  0  0  0  0  0  0  0  0  0  0  0  # atno 17343 bound_to 10162
  157.5040  131.0920  151.0280 LP  0  0  0  0  0  0  0  0  0  0  0  0  # atno 17370 bound_to 10713
  157.0653  130.5842  149.5393 LP  0  0  0  0  0  0  0  0  0  0  0  0  # atno 17371 bound_to 10713
  140.9775  133.7288  156.0624 LP  0  0  0  0  0  0  0  0  0  0  0  0  # atno 17394 bound_to 11000
  140.7792  134.3745  157.5491 LP  0  0  0  0  0  0  0  0  0  0  0  0  # atno 17395 bound_to 11000

$$$$
