AV-unprocessed.smi:2477|AV-procd|sdf|9762|dock7
  -GOLD-   2272013403D 1   1.00000     0.00000
 Structure written by MMmdl.
 51 53  0  0  0  0  0  0  0  0  1 V2000
  154.6230  140.4084  160.8192 C   0  0  0  0  0  0  0  0  0  0  0  0
  153.6177  141.3424  160.3055 N   0  0  0  0  0  0  0  0  0  0  0  0
  153.3325  142.4806  161.0784 C   0  0  0  0  0  0  0  0  0  0  0  0
  152.4295  143.3894  160.6849 C   0  0  0  0  0  0  0  0  0  0  0  0
  151.7437  143.1782  159.4327 C   0  0  0  0  0  0  0  0  0  0  0  0
  151.9973  142.0815  158.6749 C   0  0  0  0  0  0  0  0  0  0  0  0
  151.3843  141.7995  157.4415 N   0  0  0  0  0  0  0  0  0  0  0  0
  150.1147  141.4409  157.1784 C   0  0  0  0  0  0  0  0  0  0  0  0
  149.2208  141.2870  158.0100 O   0  0  0  0  0  0  0  0  0  0  0  0
  149.9444  141.2274  155.8655 N   0  0  0  0  0  0  0  0  0  0  0  0
  148.7178  140.7433  155.2363 C   0  0  1  0  0  0  0  0  0  0  0  0
  148.0943  141.8860  154.4114 C   0  0  0  0  0  0  0  0  0  0  0  0
  146.8324  141.4253  153.6652 C   0  0  0  0  0  0  0  0  0  0  0  0
  147.1259  140.2067  152.7779 C   0  0  0  0  0  0  0  0  0  0  0  0
  147.7383  139.0629  153.5996 C   0  0  0  0  0  0  0  0  0  0  0  0
  149.0090  139.5163  154.3396 C   0  0  2  0  0  0  0  0  0  0  0  0
  149.4366  138.4229  155.1443 O   0  0  0  0  0  0  0  0  0  0  0  0
  150.4398  137.6007  154.5578 C   0  0  0  0  0  0  0  0  0  0  0  0
  150.9618  136.5843  155.5772 C   0  0  0  0  0  0  0  0  0  0  0  0
  151.9209  137.3825  156.4644 C   0  0  0  0  0  0  0  0  0  0  0  0
  152.4381  138.5413  155.5976 C   0  0  0  0  0  0  0  0  0  0  0  0
  151.6629  138.4736  154.2749 C   0  0  0  0  0  0  0  0  0  0  0  0
  152.9948  141.0872  159.1165 C   0  0  0  0  0  0  0  0  0  0  0  0
  153.2623  140.0771  158.4607 O   0  0  0  0  0  0  0  0  0  0  0  0
  155.0684  140.7415  161.7572 H   0  0  0  0  0  0  0  0  0  0  0  0
  155.4356  140.2852  160.1018 H   0  0  0  0  0  0  0  0  0  0  0  0
  154.1771  139.4293  160.9998 H   0  0  0  0  0  0  0  0  0  0  0  0
  153.8871  142.5676  162.0012 H   0  0  0  0  0  0  0  0  0  0  0  0
  152.2198  144.2590  161.2900 H   0  0  0  0  0  0  0  0  0  0  0  0
  151.0403  143.9349  159.1263 H   0  0  0  0  0  0  0  0  0  0  0  0
  152.0111  141.8276  156.6503 H   0  0  0  0  0  0  0  0  0  0  0  0
  150.7353  141.3761  155.2561 H   0  0  0  0  0  0  0  0  0  0  0  0
  147.9969  140.4549  156.0041 H   0  0  0  0  0  0  0  0  0  0  0  0
  147.8475  142.7249  155.0632 H   0  0  0  0  0  0  0  0  0  0  0  0
  148.8216  142.2607  153.6892 H   0  0  0  0  0  0  0  0  0  0  0  0
  146.0533  141.1742  154.3862 H   0  0  0  0  0  0  0  0  0  0  0  0
  146.4406  142.2417  153.0579 H   0  0  0  0  0  0  0  0  0  0  0  0
  146.2084  139.8686  152.2955 H   0  0  0  0  0  0  0  0  0  0  0  0
  147.8107  140.4908  151.9779 H   0  0  0  0  0  0  0  0  0  0  0  0
  147.0037  138.7015  154.3207 H   0  0  0  0  0  0  0  0  0  0  0  0
  147.9688  138.2205  152.9469 H   0  0  0  0  0  0  0  0  0  0  0  0
  149.7614  139.7821  153.5936 H   0  0  0  0  0  0  0  0  0  0  0  0
  150.0767  137.1298  153.6430 H   0  0  0  0  0  0  0  0  0  0  0  0
  150.1719  136.0940  156.1466 H   0  0  0  0  0  0  0  0  0  0  0  0
  151.5184  135.8053  155.0545 H   0  0  0  0  0  0  0  0  0  0  0  0
  151.3782  137.7832  157.3215 H   0  0  0  0  0  0  0  0  0  0  0  0
  152.7292  136.7610  156.8509 H   0  0  0  0  0  0  0  0  0  0  0  0
  152.2546  139.4919  156.0999 H   0  0  0  0  0  0  0  0  0  0  0  0
  153.5118  138.4659  155.4231 H   0  0  0  0  0  0  0  0  0  0  0  0
  152.2823  137.9869  153.5204 H   0  0  0  0  0  0  0  0  0  0  0  0
  151.3973  139.4588  153.8896 H   0  0  0  0  0  0  0  0  0  0  0  0
  1  2  1  0  0  0  0
  1 25  1  0  0  0  0
  1 26  1  0  0  0  0
  1 27  1  0  0  0  0
  2 23  1  0  0  0  0
  2  3  1  0  0  0  0
  3  4  2  0  0  0  0
  3 28  1  0  0  0  0
  4  5  1  0  0  0  0
  4 29  1  0  0  0  0
  5  6  2  0  0  0  0
  5 30  1  0  0  0  0
  6  7  1  0  0  0  0
  6 23  1  0  0  0  0
  7  8  1  0  0  0  0
  7 31  1  0  0  0  0
  8  9  2  0  0  0  0
  8 10  1  0  0  0  0
 10 11  1  0  0  0  0
 10 32  1  0  0  0  0
 11 16  1  0  0  0  0
 11 12  1  0  0  0  0
 11 33  1  0  0  0  0
 12 13  1  0  0  0  0
 12 34  1  0  0  0  0
 12 35  1  0  0  0  0
 13 14  1  0  0  0  0
 13 36  1  0  0  0  0
 13 37  1  0  0  0  0
 14 15  1  0  0  0  0
 14 38  1  0  0  0  0
 14 39  1  0  0  0  0
 15 16  1  0  0  0  0
 15 40  1  0  0  0  0
 15 41  1  0  0  0  0
 16 17  1  0  0  0  0
 16 42  1  0  0  0  0
 17 18  1  0  0  0  0
 18 22  1  0  0  0  0
 18 19  1  0  0  0  0
 18 43  1  0  0  0  0
 19 20  1  0  0  0  0
 19 44  1  0  0  0  0
 19 45  1  0  0  0  0
 20 21  1  0  0  0  0
 20 46  1  0  0  0  0
 20 47  1  0  0  0  0
 21 22  1  0  0  0  0
 21 48  1  0  0  0  0
 21 49  1  0  0  0  0
 22 50  1  0  0  0  0
 22 51  1  0  0  0  0
 23 24  2  0  0  0  0
M  END
> <s_m_source_file>
AV-unprocessed.smi

> <i_m_source_file_index>
2477

> <i_lp_mmshare_version>
43012

> <i_f3d_flags>
0

> <s_epik_input>
W0NIM11uMVtjSF1bY0hdW2NIXWMoYzE9TylbTkhdQyg9TylbTkhdW0NAQEhdMltDSDJdW0NIMl1bQ0gyXVtDSDJdW0NASF0yT1tDSF0zW0NIMl1bQ0gyXVtDSDJdW0NIMl0z

> <s_epik_cmdline>
J2VwaWtfcHl0aG9uJywgJy1waCcsICc3LjAnLCAnLXRuJywgJzgnLCAnLW1hJywgJzIwMCcsICctbWV0YWxfYmluZGluZycsICctaW1hZScsICc8aW5maWxlLm1hZT4nLCAnLW9tYWUnLCAnPG91dGZpbGUubWFlPic=

> <r_lp_tautomer_probability>
1

> <r_epik_Ionization_Penalty>
2.40753e-05

> <r_epik_Ionization_Penalty_Charging>
4.84018e-06

> <r_epik_Ionization_Penalty_Neutral>
1.92352e-05

> <r_epik_State_Penalty>
-0

> <r_epik_Charging_Adjusted_Penalty>
4.84018e-06

> <i_epik_Tot_Q>
0

> <i_epik_Tot_abs_Q>
0

> <r_epik_Metal_State_Penalty>
-0

> <b_epik_Metal_Only>
0

> <s_lp_Force_Field>
OPLS_2005

> <r_lp_Energy>
41.4138

> <b_lp_Chiralities_Consistent>
1

> <s_lp_Variant>
AV-unprocessed.smi:2477-4

> <Gold.Version>
5.8.1

> <Gold.Id.Protein>
6NUR|6NUR_protein|mol2

> <Gold.PLP.Fitness>
46.2968

> <Gold.PLP.PLP>
-45.7232

> <Gold.PLP.part.hbond>
-1.0000

> <Gold.PLP.part.metal>
0.0000

> <Gold.PLP.part.buried>
-3.4339

> <Gold.PLP.part.nonpolar>
-41.5292

> <Gold.PLP.part.repulsive>
0.3009

> <Gold.PLP.ligand.clash>
0.0000

> <Gold.PLP.ligand.torsion>
1.2388

> <Gold.PLP.Chemscore.Hbond>
1.0000

> <Gold.PLP.Chemscore.CHOScore>
0.0000

> <Gold.PLP.Chemscore.Metal>
0.0000

> <Gold.Chemscore.Hbonds>
donor molecule, donor type, donor heavy atom, donor atom, acceptor molecule, acceptor atom, score
      P1  H  7997  8009       L1    24  1.00

> <Gold.PLP.Chemscore.Internal.Correction>
0.0511

> <Gold.Rescore>
     Score         DG    S(hbond)    S(metal)    S(lipo)     H(rot)  DE(clash)    DE(int)     intcor
     18.00     -19.30       0.89        0.00     122.27       1.36       0.05       1.24       ----

> <Gold.Chemscore.Fitness>
18.0045

> <Gold.Chemscore.DG>
-19.2962

> <Gold.Chemscore.ZeroCoef>
-5.4800

> <Gold.Chemscore.Hbond>
0.8932

> <Gold.Chemscore.Metal>
0.0000

> <Gold.Chemscore.Lipo>
122.2681

> <Gold.Chemscore.Internal_Hbond>
0.0000

> <Gold.Chemscore.DEClash>
0.0494

> <Gold.Chemscore.DEInternal>
1.2422

> <Gold.Chemscore.Rot>
1.3564

> <Gold.Chemscore.Internal.Correction>
   9.000000E+99

> <Gold.Chemscore.Hbonds>
donor molecule, donor type, donor heavy atom, donor atom, acceptor molecule, acceptor atom, score
      P1  H  7997  8009       L1    24  0.93

> <Gold.Chemscore.Hbond.Weighted>
-2.9832

> <Gold.Chemscore.Metal.Weighted>
-0.0000

> <Gold.Chemscore.Lipo.Weighted>
-14.3054

> <Gold.Chemscore.Internal_Hbond.Weighted>
0.0000

> <Gold.Chemscore.DEClash.Weighted>
0.0494

> <Gold.Chemscore.DEInternal.Weighted>
1.2422

> <Gold.Chemscore.Rot.Weighted>
3.4724

> <Gold.Chemscore.Internal.Correction.Weighted>
   9.000000E+99

> <Gold.Protein.RotatedTorsions>
[ 6907 6896 6895 6894 ] final  -52.70 input  -60.11 | X-H torsion
[ 7974 7965 7964 7962 ] final -172.46 input  175.53 | X-H torsion
[ 8008 7997 7996 7995 ] final  147.49 input   59.86 | X-H torsion
[ 10167 10162 10161 10158 ] final  174.84 input  -65.29 | X-H torsion
[ 10718 10713 10712 10709 ] final   16.75 input   66.30 | X-H torsion
[ 10763 10752 10751 10750 ] final  172.32 input  -60.55 | X-H torsion
[ 11005 11000 10999 10996 ] final -126.87 input  -57.11 | X-H torsion

> <Gold.Protein.ActiveResidues>
 VAL166  LYS551  ARG553  GLY616  TRP617  ASP618  TYR619  PRO620  LYS621  CYS622 
 ASP623  PHE694  ASN695  SER759  ASP760  ASP761  ALA762  ILE779  LEU786  VAL792 
 PHE793  MET794  SER795  GLU796  ALA797  LYS798  CYS799  TRP800  GLU811  SER814 

> <Gold.Protein.RotatedAtoms>
  150.8494  134.7814  159.6996 H   0  0  0  0  0  0  0  0  0  0  0  0  # atno 6907 bound_to 6896
  152.4563  134.5282  159.9813 H   0  0  0  0  0  0  0  0  0  0  0  0  # atno 6908 bound_to 6896
  151.5406  133.3395  159.2970 H   0  0  0  0  0  0  0  0  0  0  0  0  # atno 6909 bound_to 6896
  144.7146  140.1768  143.6362 H   0  0  0  0  0  0  0  0  0  0  0  0  # atno 7974 bound_to 7965
  156.2823  140.2154  156.5546 H   0  0  0  0  0  0  0  0  0  0  0  0  # atno 8008 bound_to 7997
  154.7263  140.0499  157.0708 H   0  0  0  0  0  0  0  0  0  0  0  0  # atno 8009 bound_to 7997
  155.0412  140.3146  155.4727 H   0  0  0  0  0  0  0  0  0  0  0  0  # atno 8010 bound_to 7997
  139.5156  144.3100  152.0300 H   0  0  0  0  0  0  0  0  0  0  0  0  # atno 10167 bound_to 10162
  157.0723  130.6353  149.5808 H   0  0  0  0  0  0  0  0  0  0  0  0  # atno 10718 bound_to 10713
  154.4244  135.2758  155.1954 H   0  0  0  0  0  0  0  0  0  0  0  0  # atno 10763 bound_to 10752
  154.3887  135.6071  153.5834 H   0  0  0  0  0  0  0  0  0  0  0  0  # atno 10764 bound_to 10752
  152.9834  135.5898  154.4545 H   0  0  0  0  0  0  0  0  0  0  0  0  # atno 10765 bound_to 10752
  140.9646  134.0890  157.3934 H   0  0  0  0  0  0  0  0  0  0  0  0  # atno 11005 bound_to 11000
  145.8893  139.2366  143.1559 LP  0  0  0  0  0  0  0  0  0  0  0  0  # atno 17320 bound_to 7965
  145.9919  140.8595  143.0062 LP  0  0  0  0  0  0  0  0  0  0  0  0  # atno 17321 bound_to 7965
  140.2545  144.4133  150.6209 LP  0  0  0  0  0  0  0  0  0  0  0  0  # atno 17342 bound_to 10162
  140.6201  143.2175  151.6711 LP  0  0  0  0  0  0  0  0  0  0  0  0  # atno 17343 bound_to 10162
  155.9947  130.5011  150.7429 LP  0  0  0  0  0  0  0  0  0  0  0  0  # atno 17370 bound_to 10713
  157.4868  131.0907  151.0473 LP  0  0  0  0  0  0  0  0  0  0  0  0  # atno 17371 bound_to 10713
  139.8890  135.0102  156.6652 LP  0  0  0  0  0  0  0  0  0  0  0  0  # atno 17394 bound_to 11000
  140.7418  133.8971  155.8284 LP  0  0  0  0  0  0  0  0  0  0  0  0  # atno 17395 bound_to 11000

$$$$
