#       Name:                AV-unprocessed.smi:703
#       Creating user name   scv26
#       Creation time:       Fri Mar 27 00:42:25 2020


#       File generated by GOLD software.
#

@<TRIPOS>MOLECULE
AV-unprocessed.smi:703
    41    42     1
SMALL
NO_CHARGES


@<TRIPOS>ATOM
      1 ****        -2.7697  -1.9898  -3.5424 C.3            1 S1                 0.0000
      2 ****        -2.6959  -2.4729  -2.0878 C.3            1 S1                 0.0000
      3 ****        -2.3620  -1.3753  -1.1490 N.4            1 S1                 1.0000
      4 ****        -2.5283  -1.7235   0.2839 C.3            1 S1                 0.0000
      5 ****        -1.2687  -1.2302   1.0176 C.3            1 S1                 0.0000
      6 ****        -1.5529  -0.7212   2.4443 C.3            1 S1                 0.0000
      7 ****        -0.6748  -0.1976   0.0486 C.3            1 S1                 0.0000
      8 ****         0.7608  -0.0459   0.2239 N.pl3          1 S1                -1.0000
      9 ****         1.3538   1.3927   0.6784 S.o2           1 S1                 0.0000
     10 ****         1.2055   2.4146  -0.3708 O.2            1 S1                 0.0000
     11 ****         0.9397   1.7698   2.0396 O.2            1 S1                 0.0000
     12 ****         3.1545   1.0090   0.7752 C.3            1 S1                 0.0000
     13 ****         3.9123   2.2107   1.2664 C.2            1 S1                 0.0000
     14 ****         4.1929   3.4236   0.5774 C.2            1 S1                 0.0000
     15 ****         4.9049   4.1504   1.4872 C.2            1 S1                 0.0000
     16 ****         5.0631   3.4482   2.6375 O.3            1 S1                 0.0000
     17 ****         4.4289   2.2099   2.4859 N.2            1 S1                 0.0000
     18 ****        -1.0121  -0.7944  -1.3154 C.3            1 S1                 0.0000
     19 ****        -3.0730  -2.8025  -4.2028 H              1 S1                 0.0000
     20 ****        -1.8047  -1.6250  -3.8951 H              1 S1                 0.0000
     21 ****        -3.4956  -1.1838  -3.6539 H              1 S1                 0.0000
     22 ****        -3.6653  -2.8873  -1.8083 H              1 S1                 0.0000
     23 ****        -1.9684  -3.2801  -1.9904 H              1 S1                 0.0000
     24 ****        -3.4314  -1.2333   0.6525 H              1 S1                 0.0000
     25 ****        -2.6607  -2.7964   0.4342 H              1 S1                 0.0000
     26 ****        -0.5809  -2.0755   1.0869 H              1 S1                 0.0000
     27 ****        -2.2465   0.1218   2.4536 H              1 S1                 0.0000
     28 ****        -0.6393  -0.4067   2.9520 H              1 S1                 0.0000
     29 ****        -1.9972  -1.5118   3.0494 H              1 S1                 0.0000
     30 ****        -1.2201   0.7419   0.1549 H              1 S1                 0.0000
     31 ****         3.2854   0.1567   1.4426 H              1 S1                 0.0000
     32 ****         3.4957   0.7106  -0.2157 H              1 S1                 0.0000
     33 ****         3.9085   3.7149  -0.4228 H              1 S1                 0.0000
     34 ****         5.3490   5.1346   1.4670 H              1 S1                 0.0000
     35 ****        -0.3038  -1.5848  -1.5729 H              1 S1                 0.0000
     36 ****        -0.9902  -0.0484  -2.1106 H              1 S1                 0.0000
     37 ****        -3.0136  -0.6232  -1.3217 H              1 S1                 0.0000
     38 ****         1.3746  -0.8194   0.0660 LP             1 S1                 0.0000
     39 ****         4.6507   3.9486   3.3988 LP             1 S1                 0.0000
     40 ****         6.0369   3.3097   2.8182 LP             1 S1                 0.0000
     41 ****         4.3765   1.4741   3.1611 LP             1 S1                 0.0000
@<TRIPOS>BOND
    1    1    2 1     
    2    1   19 1     
    3    1   20 1     
    4    1   21 1     
    5    2    3 1     
    6    2   22 1     
    7    2   23 1     
    8    3   18 1     
    9    3    4 1     
   10    3   37 1     
   11    4    5 1     
   12    4   24 1     
   13    4   25 1     
   14    5    6 1     
   15    5    7 1     
   16    5   26 1     
   17    6   27 1     
   18    6   28 1     
   19    6   29 1     
   20    7    8 1     
   21    7   18 1     
   22    7   30 1     
   23    8    9 1     
   24    9   10 2     
   25    9   11 2     
   26    9   12 1     
   27   12   13 1     
   28   12   31 1     
   29   12   32 1     
   30   13   17 2     
   31   13   14 1     
   32   14   15 2     
   33   14   33 1     
   34   15   16 1     
   35   15   34 1     
   36   16   17 1     
   37   18   35 1     
   38   18   36 1     
   39    8   38 1     
   40   16   39 1     
   41   16   40 1     
   42   17   41 1     
@<TRIPOS>SUBSTRUCTURE
      1 S1             1
@<TRIPOS>SET
LONE_PAIRS      STATIC     ATOMS    <user>   **** ""
6 38 10 11 39 40 41
DONOR_HYDROGENS      STATIC     ATOMS    <user>   **** ""
1 37
ATOM$BLUE        STATIC     ATOMS    COLORGROUP SYSTEM
6 38 10 11 39 40 41
ATOM$RED        STATIC     ATOMS    COLORGROUP SYSTEM
1 37
