AV-unprocessed.smi:50|AV-procd|sdf|497|dock9
  -GOLD-   2262016373D 1   1.00000     0.00000
 Structure written by MMmdl.
 42 43  0  0  0  0  0  0  0  0  2 V2000
  153.2233  142.6697  159.3339 C   0  0  0  0  0  0  0  0  0  0  0  0
  152.9625  141.7897  160.5689 C   0  0  0  0  0  0  0  0  0  0  0  0
  152.9706  142.6485  161.8488 C   0  0  0  0  0  0  0  0  0  0  0  0
  153.9045  140.5540  160.6098 C   0  0  2  0  0  0  0  0  0  0  0  0
  155.3047  140.9699  160.7049 N   0  0  0  0  0  0  0  0  0  0  0  0
  153.6607  139.5344  159.4801 C   0  0  0  0  0  0  0  0  0  0  0  0
  154.5630  139.0601  158.7894 O   0  0  0  0  0  0  0  0  0  0  0  0
  152.3545  139.2273  159.3635 O   0  0  0  0  0  0  0  0  0  0  0  0
  151.9723  137.9381  158.9140 C   0  0  0  0  0  0  0  0  0  0  0  0
  151.8939  137.9370  157.3856 C   0  0  0  0  0  0  0  0  0  0  0  0
  152.7761  138.9271  156.8850 O   0  0  0  0  0  0  0  0  0  0  0  0
  152.4510  139.3384  155.5995 C   0  0  0  0  0  0  0  0  0  0  0  0
  151.2964  140.2093  155.6930 N   0  0  0  0  0  0  0  0  0  0  0  0
  151.1774  141.3260  156.4369 C   0  0  0  0  0  0  0  0  0  0  0  0
  150.0039  141.9506  156.3453 N   0  0  0  0  0  0  0  0  0  0  0  0
  149.3126  141.1404  155.4513 C   0  0  0  0  0  0  0  0  0  0  0  0
  147.9423  141.2324  154.8918 C   0  0  0  0  0  0  0  0  0  0  0  0
  147.2186  142.1668  155.2313 O   0  0  0  0  0  0  0  0  0  0  0  0
  147.5951  140.2373  154.0197 N   0  5  0  0  0  0  0  0  0  0  0  0
  148.5041  139.2158  153.7094 C   0  0  0  0  0  0  0  0  0  0  0  0
  147.9907  138.2965  152.8209 N   0  0  0  0  0  0  0  0  0  0  0  0
  149.7246  139.0712  154.1649 N   0  0  0  0  0  0  0  0  0  0  0  0
  150.0754  140.0799  155.0428 C   0  0  0  0  0  0  0  0  0  0  0  0
  153.6873  140.0373  161.5453 H   0  0  0  0  0  0  0  0  0  0  0  0
  154.2049  143.1427  159.3751 H   0  0  0  0  0  0  0  0  0  0  0  0
  152.4796  143.4629  159.2555 H   0  0  0  0  0  0  0  0  0  0  0  0
  153.1743  142.0840  158.4156 H   0  0  0  0  0  0  0  0  0  0  0  0
  151.9473  141.4052  160.4568 H   0  0  0  0  0  0  0  0  0  0  0  0
  153.9187  143.1689  161.9840 H   0  0  0  0  0  0  0  0  0  0  0  0
  152.7895  142.0436  162.7375 H   0  0  0  0  0  0  0  0  0  0  0  0
  152.1888  143.4075  161.8094 H   0  0  0  0  0  0  0  0  0  0  0  0
  155.8915  140.4467  160.0712 H   0  0  0  0  0  0  0  0  0  0  0  0
  155.4186  141.9435  160.4612 H   0  0  0  0  0  0  0  0  0  0  0  0
  152.6971  137.1958  159.2513 H   0  0  0  0  0  0  0  0  0  0  0  0
  151.0039  137.6723  159.3400 H   0  0  0  0  0  0  0  0  0  0  0  0
  152.1725  136.9560  156.9970 H   0  0  0  0  0  0  0  0  0  0  0  0
  150.8716  138.1440  157.0649 H   0  0  0  0  0  0  0  0  0  0  0  0
  153.2756  139.8935  155.1493 H   0  0  0  0  0  0  0  0  0  0  0  0
  152.1994  138.4836  154.9697 H   0  0  0  0  0  0  0  0  0  0  0  0
  151.9761  141.6918  157.0651 H   0  0  0  0  0  0  0  0  0  0  0  0
  147.0598  138.3534  152.4355 H   0  0  0  0  0  0  0  0  0  0  0  0
  148.5133  137.4984  152.4909 H   0  0  0  0  0  0  0  0  0  0  0  0
  1  2  1  0  0  0  0
  1 25  1  0  0  0  0
  1 26  1  0  0  0  0
  1 27  1  0  0  0  0
  2  3  1  0  0  0  0
  2  4  1  0  0  0  0
  2 28  1  0  0  0  0
  3 29  1  0  0  0  0
  3 30  1  0  0  0  0
  3 31  1  0  0  0  0
  4 24  1  0  0  0  0
  4  5  1  0  0  0  0
  4  6  1  0  0  0  0
  5 32  1  0  0  0  0
  5 33  1  0  0  0  0
  6  7  2  0  0  0  0
  6  8  1  0  0  0  0
  8  9  1  0  0  0  0
  9 10  1  0  0  0  0
  9 34  1  0  0  0  0
  9 35  1  0  0  0  0
 10 11  1  0  0  0  0
 10 36  1  0  0  0  0
 10 37  1  0  0  0  0
 11 12  1  0  0  0  0
 12 13  1  0  0  0  0
 12 38  1  0  0  0  0
 12 39  1  0  0  0  0
 13 23  1  0  0  0  0
 13 14  1  0  0  0  0
 14 15  2  0  0  0  0
 14 40  1  0  0  0  0
 15 16  1  0  0  0  0
 16 23  2  0  0  0  0
 16 17  1  0  0  0  0
 17 18  2  0  0  0  0
 17 19  1  0  0  0  0
 19 20  1  0  0  0  0
 20 21  1  0  0  0  0
 20 22  2  0  0  0  0
 21 41  1  0  0  0  0
 21 42  1  0  0  0  0
 22 23  1  0  0  0  0
M  CHG  1  19  -1
M  END
> <s_m_source_file>
AV-unprocessed.smi

> <i_m_source_file_index>
50

> <i_lp_mmshare_version>
43012

> <i_f3d_flags>
0

> <s_epik_input>
W0NIM11bQ0hdKFtDSDNdKVtDQEhdKFtOSDJdKUMoPU8pT1tDSDJdW0NIMl1PW0NIMl1uKFtjSF1uMSljKGMxMiluYyhbTkgyXSlbbkhdYzI9Tw==

> <s_epik_cmdline>
J2VwaWtfcHl0aG9uJywgJy1waCcsICc3LjAnLCAnLXRuJywgJzgnLCAnLW1hJywgJzIwMCcsICctbWV0YWxfYmluZGluZycsICctaW1hZScsICc8aW5maWxlLm1hZT4nLCAnLW9tYWUnLCAnPG91dGZpbGUubWFlPic=

> <r_lp_tautomer_probability>
0.99994

> <r_epik_Ionization_Penalty>
4.26118

> <r_epik_Ionization_Penalty_Charging>
1.23364e-10

> <r_epik_Ionization_Penalty_Neutral>
4.26118

> <r_epik_State_Penalty>
4.27372

> <r_epik_Charging_Adjusted_Penalty>
4.27372

> <i_epik_Tot_Q>
-1

> <i_epik_Tot_abs_Q>
1

> <r_epik_Metal_State_Penalty>
1.24306

> <b_epik_Metal_Only>
1

> <s_epik_Chemistry_Notes>
This compound has an ester and may undergo hydrolysis at high or low pH. This compound contains an acetal/aminal-like group ( X-CH(R)-Y where X, Y are N, S, or O) that may be acid/base labile, releasing an aldehyde.

> <s_lp_Force_Field>
OPLS_2005

> <r_lp_Energy>
24.4723

> <b_lp_Chiralities_Consistent>
1

> <s_lp_Variant>
AV-unprocessed.smi:50-7

> <Gold.Version>
5.8.1

> <Gold.Id.Protein>
6NUR|6NUR_protein|mol2

> <Gold.PLP.Fitness>
43.9856

> <Gold.PLP.PLP>
-40.0349

> <Gold.PLP.part.hbond>
-5.0000

> <Gold.PLP.part.metal>
0.0000

> <Gold.PLP.part.buried>
-2.9997

> <Gold.PLP.part.nonpolar>
-33.5783

> <Gold.PLP.part.repulsive>
2.9179

> <Gold.PLP.ligand.clash>
0.0000

> <Gold.PLP.ligand.torsion>
1.1457

> <Gold.PLP.Chemscore.Hbond>
2.0000

> <Gold.PLP.Chemscore.CHOScore>
0.0000

> <Gold.PLP.Chemscore.Metal>
0.0000

> <Gold.Chemscore.Hbonds>
donor molecule, donor type, donor heavy atom, donor atom, acceptor molecule, acceptor atom, score
      L1  H    21    42       P1  7948  0.83
      P1  H  7997  8009       L1     7  1.00

> <Gold.PLP.Chemscore.Internal.Correction>
0.2421

> <Gold.Rescore>
     Score         DG    S(hbond)    S(metal)    S(lipo)     H(rot)  DE(clash)    DE(int)     intcor
      1.06      -6.82       1.96        0.00      58.69       4.72       1.69       4.07       ----

> <Gold.Chemscore.Fitness>
1.0576

> <Gold.Chemscore.DG>
-6.8156

> <Gold.Chemscore.ZeroCoef>
-5.4800

> <Gold.Chemscore.Hbond>
1.9646

> <Gold.Chemscore.Metal>
0.0000

> <Gold.Chemscore.Lipo>
58.6929

> <Gold.Chemscore.Internal_Hbond>
0.0000

> <Gold.Chemscore.DEClash>
1.6929

> <Gold.Chemscore.DEInternal>
4.0651

> <Gold.Chemscore.Rot>
4.7239

> <Gold.Chemscore.Internal.Correction>
   9.000000E+99

> <Gold.Chemscore.Hbonds>
donor molecule, donor type, donor heavy atom, donor atom, acceptor molecule, acceptor atom, score
      L1  H    21    42       P1  7948  0.80
      P1  H  7997  8009       L1     7  0.97

> <Gold.Chemscore.Hbond.Weighted>
-6.5618

> <Gold.Chemscore.Metal.Weighted>
-0.0000

> <Gold.Chemscore.Lipo.Weighted>
-6.8671

> <Gold.Chemscore.Internal_Hbond.Weighted>
0.0000

> <Gold.Chemscore.DEClash.Weighted>
1.6929

> <Gold.Chemscore.DEInternal.Weighted>
4.0651

> <Gold.Chemscore.Rot.Weighted>
12.0933

> <Gold.Chemscore.Internal.Correction.Weighted>
   9.000000E+99

> <Gold.Protein.RotatedTorsions>
[ 6907 6896 6895 6894 ] final  125.34 input  -60.11 | X-H torsion
[ 7974 7965 7964 7962 ] final -168.63 input  175.53 | X-H torsion
[ 8008 7997 7996 7995 ] final  117.24 input   59.86 | X-H torsion
[ 10167 10162 10161 10158 ] final  114.19 input  -65.29 | X-H torsion
[ 10718 10713 10712 10709 ] final  -33.05 input   66.30 | X-H torsion
[ 10763 10752 10751 10750 ] final  -67.85 input  -60.55 | X-H torsion
[ 11005 11000 10999 10996 ] final    1.94 input  -57.11 | X-H torsion

> <Gold.Protein.ActiveResidues>
 VAL166  LYS551  ARG553  GLY616  TRP617  ASP618  TYR619  PRO620  LYS621  CYS622 
 ASP623  PHE694  ASN695  SER759  ASP760  ASP761  ALA762  ILE779  LEU786  VAL792 
 PHE793  MET794  SER795  GLU796  ALA797  LYS798  CYS799  TRP800  GLU811  SER814 

> <Gold.Protein.RotatedAtoms>
  152.4000  133.6803  159.6308 H   0  0  0  0  0  0  0  0  0  0  0  0  # atno 6907 bound_to 6896
  150.7893  133.8808  159.3294 H   0  0  0  0  0  0  0  0  0  0  0  0  # atno 6908 bound_to 6896
  151.6575  135.0995  160.0224 H   0  0  0  0  0  0  0  0  0  0  0  0  # atno 6909 bound_to 6896
  144.7199  140.2341  143.6300 H   0  0  0  0  0  0  0  0  0  0  0  0  # atno 7974 bound_to 7965
  156.2483  140.2900  156.0647 H   0  0  0  0  0  0  0  0  0  0  0  0  # atno 8008 bound_to 7997
  155.1737  140.0402  157.2885 H   0  0  0  0  0  0  0  0  0  0  0  0  # atno 8009 bound_to 7997
  154.6308  140.2499  155.7443 H   0  0  0  0  0  0  0  0  0  0  0  0  # atno 8010 bound_to 7997
  139.6406  144.7123  151.2244 H   0  0  0  0  0  0  0  0  0  0  0  0  # atno 10167 bound_to 10162
  156.3674  130.4334  149.7573 H   0  0  0  0  0  0  0  0  0  0  0  0  # atno 10718 bound_to 10713
  154.3804  135.6075  153.5788 H   0  0  0  0  0  0  0  0  0  0  0  0  # atno 10763 bound_to 10752
  152.9788  135.5859  154.4416 H   0  0  0  0  0  0  0  0  0  0  0  0  # atno 10764 bound_to 10752
  154.4185  135.2845  155.1969 H   0  0  0  0  0  0  0  0  0  0  0  0  # atno 10765 bound_to 10752
  140.6098  133.9759  155.8172 H   0  0  0  0  0  0  0  0  0  0  0  0  # atno 11005 bound_to 11000
  145.8382  139.2117  143.1843 LP  0  0  0  0  0  0  0  0  0  0  0  0  # atno 17320 bound_to 7965
  146.0370  140.8202  142.9847 LP  0  0  0  0  0  0  0  0  0  0  0  0  # atno 17321 bound_to 7965
  140.7489  143.6318  150.8416 LP  0  0  0  0  0  0  0  0  0  0  0  0  # atno 17342 bound_to 10162
  139.9955  143.5800  152.2895 LP  0  0  0  0  0  0  0  0  0  0  0  0  # atno 17343 bound_to 10162
  156.4714  130.7998  151.3016 LP  0  0  0  0  0  0  0  0  0  0  0  0  # atno 17370 bound_to 10713
  157.7480  131.0034  150.3039 LP  0  0  0  0  0  0  0  0  0  0  0  0  # atno 17371 bound_to 10713
  141.0816  134.0054  157.3378 LP  0  0  0  0  0  0  0  0  0  0  0  0  # atno 17394 bound_to 11000
  139.9197  135.0199  156.8017 LP  0  0  0  0  0  0  0  0  0  0  0  0  # atno 17395 bound_to 11000

$$$$
