AV-unprocessed.smi:2062|AV-procd|sdf|8398|dock1
  -GOLD-   2272011 83D 1   1.00000     0.00000
 Structure written by MMmdl.
 43 44  0  0  0  0  0  0  0  0  2 V2000
  153.0305  138.5484  155.0283 C   0  0  0  0  0  0  0  0  0  0  0  0
  151.7651  139.2598  155.5363 C   0  0  0  0  0  0  0  0  0  0  0  0
  151.4802  138.8696  156.9944 C   0  0  0  0  0  0  0  0  0  0  0  0
  150.5375  138.9638  154.6467 C   0  0  0  0  0  0  0  0  0  0  0  0
  149.2401  139.2592  155.3150 N   0  3  1  0  0  0  0  0  0  0  0  0
  148.9818  140.7091  155.4895 C   0  0  0  0  0  0  0  0  0  0  0  0
  148.5094  141.3510  154.1733 C   0  0  0  0  0  0  0  0  0  0  0  0
  147.3526  140.6698  153.7067 O   0  0  0  0  0  0  0  0  0  0  0  0
  147.5993  139.2975  153.4149 C   0  0  2  0  0  0  0  0  0  0  0  0
  146.3100  138.6711  152.8545 C   0  0  0  0  0  0  0  0  0  0  0  0
  146.5549  137.3575  152.2681 N   0  0  0  0  0  0  0  0  0  0  0  0
  145.6051  136.4925  151.8850 C   0  0  0  0  0  0  0  0  0  0  0  0
  144.3993  136.7198  151.9870 O   0  0  0  0  0  0  0  0  0  0  0  0
  146.1455  135.3685  151.3829 N   0  0  0  0  0  0  0  0  0  0  0  0
  145.4771  134.2240  150.8744 C   0  0  0  0  0  0  0  0  0  0  0  0
  144.2033  134.2130  150.4647 N   0  0  0  0  0  0  0  0  0  0  0  0
  143.8089  132.9510  150.0132 C   0  0  0  0  0  0  0  0  0  0  0  0
  144.8024  132.0066  150.0866 C   0  0  0  0  0  0  0  0  0  0  0  0
  146.2818  132.6685  150.7284 S   0  0  0  0  0  0  0  0  0  0  0  0
  148.0555  138.5938  154.7126 C   0  0  0  0  0  0  0  0  0  0  0  0
  152.8995  137.4659  155.0120 H   0  0  0  0  0  0  0  0  0  0  0  0
  153.8862  138.7684  155.6676 H   0  0  0  0  0  0  0  0  0  0  0  0
  153.2916  138.8681  154.0194 H   0  0  0  0  0  0  0  0  0  0  0  0
  151.9609  140.3312  155.5349 H   0  0  0  0  0  0  0  0  0  0  0  0
  151.2832  137.8013  157.0895 H   0  0  0  0  0  0  0  0  0  0  0  0
  150.6124  139.4037  157.3825 H   0  0  0  0  0  0  0  0  0  0  0  0
  152.3264  139.1097  157.6390 H   0  0  0  0  0  0  0  0  0  0  0  0
  150.6212  139.5717  153.7446 H   0  0  0  0  0  0  0  0  0  0  0  0
  150.5563  137.9277  154.3093 H   0  0  0  0  0  0  0  0  0  0  0  0
  148.2056  140.8307  156.2463 H   0  0  0  0  0  0  0  0  0  0  0  0
  149.8661  141.2168  155.8757 H   0  0  0  0  0  0  0  0  0  0  0  0
  148.2561  142.3985  154.3376 H   0  0  0  0  0  0  0  0  0  0  0  0
  149.2936  141.3306  153.4151 H   0  0  0  0  0  0  0  0  0  0  0  0
  148.3788  139.2213  152.6556 H   0  0  0  0  0  0  0  0  0  0  0  0
  145.5897  138.5330  153.6612 H   0  0  0  0  0  0  0  0  0  0  0  0
  145.8371  139.3388  152.1321 H   0  0  0  0  0  0  0  0  0  0  0  0
  147.5200  137.0852  152.1507 H   0  0  0  0  0  0  0  0  0  0  0  0
  147.1537  135.3234  151.3653 H   0  0  0  0  0  0  0  0  0  0  0  0
  142.7993  132.8130  149.6549 H   0  0  0  0  0  0  0  0  0  0  0  0
  144.7538  130.9660  149.8027 H   0  0  0  0  0  0  0  0  0  0  0  0
  148.2477  137.5376  154.5303 H   0  0  0  0  0  0  0  0  0  0  0  0
  147.2458  138.6281  155.4428 H   0  0  0  0  0  0  0  0  0  0  0  0
  149.3379  138.8844  156.2481 H   0  0  0  0  0  0  0  0  0  0  0  0
  1  2  1  0  0  0  0
  1 21  1  0  0  0  0
  1 22  1  0  0  0  0
  1 23  1  0  0  0  0
  2  3  1  0  0  0  0
  2  4  1  0  0  0  0
  2 24  1  0  0  0  0
  3 25  1  0  0  0  0
  3 26  1  0  0  0  0
  3 27  1  0  0  0  0
  4  5  1  0  0  0  0
  4 28  1  0  0  0  0
  4 29  1  0  0  0  0
  5 20  1  0  0  0  0
  5  6  1  0  0  0  0
  5 43  1  0  0  0  0
  6  7  1  0  0  0  0
  6 30  1  0  0  0  0
  6 31  1  0  0  0  0
  7  8  1  0  0  0  0
  7 32  1  0  0  0  0
  7 33  1  0  0  0  0
  8  9  1  0  0  0  0
  9 10  1  0  0  0  0
  9 20  1  0  0  0  0
  9 34  1  0  0  0  0
 10 11  1  0  0  0  0
 10 35  1  0  0  0  0
 10 36  1  0  0  0  0
 11 12  1  0  0  0  0
 11 37  1  0  0  0  0
 12 13  2  0  0  0  0
 12 14  1  0  0  0  0
 14 15  1  0  0  0  0
 14 38  1  0  0  0  0
 15 19  1  0  0  0  0
 15 16  2  0  0  0  0
 16 17  1  0  0  0  0
 17 18  2  0  0  0  0
 17 39  1  0  0  0  0
 18 19  1  0  0  0  0
 18 40  1  0  0  0  0
 20 41  1  0  0  0  0
 20 42  1  0  0  0  0
M  CHG  1   5   1
M  END
> <s_m_source_file>
AV-unprocessed.smi

> <i_m_source_file_index>
2062

> <i_lp_mmshare_version>
43012

> <i_f3d_flags>
0

> <s_epik_input>
W0NIM11bQ0hdKFtDSDNdKVtDSDJdTjFbQ0gyXVtDSDJdT1tDQEhdKFtDSDJdMSlbQ0gyXVtOSF1DKD1PKVtOSF1jMm5bY0hdW2NIXXMy

> <s_epik_cmdline>
J2VwaWtfcHl0aG9uJywgJy1waCcsICc3LjAnLCAnLXRuJywgJzgnLCAnLW1hJywgJzIwMCcsICctbWV0YWxfYmluZGluZycsICctaW1hZScsICc8aW5maWxlLm1hZT4nLCAnLW9tYWUnLCAnPG91dGZpbGUubWFlPic=

> <r_lp_tautomer_probability>
0.999

> <r_epik_Ionization_Penalty>
0.0985527

> <r_epik_Ionization_Penalty_Charging>
0.098413

> <r_epik_Ionization_Penalty_Neutral>
0.000139681

> <r_epik_State_Penalty>
0.0884988

> <r_epik_Charging_Adjusted_Penalty>
0.186912

> <i_epik_Tot_Q>
1

> <i_epik_Tot_abs_Q>
1

> <r_epik_Metal_State_Penalty>
0.141792

> <b_epik_Metal_Only>
0

> <s_lp_Force_Field>
OPLS_2005

> <r_lp_Energy>
18.2091

> <b_lp_Chiralities_Consistent>
1

> <s_lp_Variant>
AV-unprocessed.smi:2062-3

> <Gold.Version>
5.8.1

> <Gold.Id.Protein>
6NUR|6NUR_protein|mol2

> <Gold.PLP.Fitness>
43.1238

> <Gold.PLP.PLP>
-35.2077

> <Gold.PLP.part.hbond>
-2.0000

> <Gold.PLP.part.metal>
0.0000

> <Gold.PLP.part.buried>
-3.2038

> <Gold.PLP.part.nonpolar>
-31.2789

> <Gold.PLP.part.repulsive>
1.1356

> <Gold.PLP.ligand.clash>
0.0000

> <Gold.PLP.ligand.torsion>
0.5203

> <Gold.PLP.Chemscore.Hbond>
1.9760

> <Gold.PLP.Chemscore.CHOScore>
0.9586

> <Gold.PLP.Chemscore.Metal>
0.0000

> <Gold.Chemscore.Hbonds>
donor molecule, donor type, donor heavy atom, donor atom, acceptor molecule, acceptor atom, score
      L1  H    11    37       P1  7948  1.00
      L1  H    14    38       P1  7948  0.98
      L1  C    17    39       P1 10186  0.98

> <Gold.PLP.Chemscore.Internal.Correction>
0.1530

> <Gold.Rescore>
     Score         DG    S(hbond)    S(metal)    S(lipo)     H(rot)  DE(clash)    DE(int)     intcor
     15.71     -17.45       1.91        0.00      86.19       1.76       0.12       1.62       ----

> <Gold.Chemscore.Fitness>
15.7058

> <Gold.Chemscore.DG>
-17.4497

> <Gold.Chemscore.ZeroCoef>
-5.4800

> <Gold.Chemscore.Hbond>
1.9134

> <Gold.Chemscore.Metal>
0.0000

> <Gold.Chemscore.Lipo>
86.1909

> <Gold.Chemscore.Internal_Hbond>
0.0000

> <Gold.Chemscore.DEClash>
0.1230

> <Gold.Chemscore.DEInternal>
1.6209

> <Gold.Chemscore.Rot>
1.7599

> <Gold.Chemscore.Internal.Correction>
   9.000000E+99

> <Gold.Chemscore.Hbonds>
donor molecule, donor type, donor heavy atom, donor atom, acceptor molecule, acceptor atom, score
      L1  H    11    37       P1  7948  1.00
      L1  H    14    38       P1  7948  0.79

> <Gold.Chemscore.Hbond.Weighted>
-6.3909

> <Gold.Chemscore.Metal.Weighted>
-0.0000

> <Gold.Chemscore.Lipo.Weighted>
-10.0843

> <Gold.Chemscore.Internal_Hbond.Weighted>
0.0000

> <Gold.Chemscore.DEClash.Weighted>
0.1230

> <Gold.Chemscore.DEInternal.Weighted>
1.6209

> <Gold.Chemscore.Rot.Weighted>
4.5054

> <Gold.Chemscore.Internal.Correction.Weighted>
   9.000000E+99

> <Gold.Protein.RotatedTorsions>
[ 6907 6896 6895 6894 ] final  -58.87 input  -60.11 | X-H torsion
[ 7974 7965 7964 7962 ] final   93.97 input  175.53 | X-H torsion
[ 8008 7997 7996 7995 ] final  104.21 input   59.86 | X-H torsion
[ 10167 10162 10161 10158 ] final -146.49 input  -65.29 | X-H torsion
[ 10718 10713 10712 10709 ] final  -98.70 input   66.30 | X-H torsion
[ 10763 10752 10751 10750 ] final  109.32 input  -60.55 | X-H torsion
[ 11005 11000 10999 10996 ] final  124.53 input  -57.11 | X-H torsion

> <Gold.Protein.ActiveResidues>
 VAL166  LYS551  ARG553  GLY616  TRP617  ASP618  TYR619  PRO620  LYS621  CYS622 
 ASP623  PHE694  ASN695  SER759  ASP760  ASP761  ALA762  ILE779  LEU786  VAL792 
 PHE793  MET794  SER795  GLU796  ALA797  LYS798  CYS799  TRP800  GLU811  SER814 

> <Gold.Protein.RotatedAtoms>
  150.7973  134.7042  159.6566 H   0  0  0  0  0  0  0  0  0  0  0  0  # atno 6907 bound_to 6896
  152.4087  134.6159  160.0048 H   0  0  0  0  0  0  0  0  0  0  0  0  # atno 6908 bound_to 6896
  151.6409  133.3289  159.3166 H   0  0  0  0  0  0  0  0  0  0  0  0  # atno 6909 bound_to 6896
  145.4719  139.2281  143.2930 H   0  0  0  0  0  0  0  0  0  0  0  0  # atno 7974 bound_to 7965
  156.1552  140.3152  155.8714 H   0  0  0  0  0  0  0  0  0  0  0  0  # atno 8008 bound_to 7997
  155.3892  140.0492  157.3058 H   0  0  0  0  0  0  0  0  0  0  0  0  # atno 8009 bound_to 7997
  154.5095  140.2159  155.9196 H   0  0  0  0  0  0  0  0  0  0  0  0  # atno 8010 bound_to 7997
  139.7709  143.8239  152.2624 H   0  0  0  0  0  0  0  0  0  0  0  0  # atno 10167 bound_to 10162
  156.0114  130.5250  150.6561 H   0  0  0  0  0  0  0  0  0  0  0  0  # atno 10718 bound_to 10713
  153.4331  135.3784  155.2182 H   0  0  0  0  0  0  0  0  0  0  0  0  # atno 10763 bound_to 10752
  154.8751  135.3845  154.4244 H   0  0  0  0  0  0  0  0  0  0  0  0  # atno 10764 bound_to 10752
  153.4779  135.7088  153.6018 H   0  0  0  0  0  0  0  0  0  0  0  0  # atno 10765 bound_to 10752
  139.9363  134.9639  156.8423 H   0  0  0  0  0  0  0  0  0  0  0  0  # atno 11005 bound_to 11000
  146.2392  140.5497  142.8941 LP  0  0  0  0  0  0  0  0  0  0  0  0  # atno 17320 bound_to 7965
  144.7940  140.6087  143.6522 LP  0  0  0  0  0  0  0  0  0  0  0  0  # atno 17321 bound_to 7965
  139.8273  144.7269  150.9495 LP  0  0  0  0  0  0  0  0  0  0  0  0  # atno 17342 bound_to 10162
  140.7814  143.4102  151.1005 LP  0  0  0  0  0  0  0  0  0  0  0  0  # atno 17343 bound_to 10162
  157.4313  131.0849  151.1036 LP  0  0  0  0  0  0  0  0  0  0  0  0  # atno 17370 bound_to 10713
  157.1608  130.6224  149.5610 LP  0  0  0  0  0  0  0  0  0  0  0  0  # atno 17371 bound_to 10713
  140.6067  134.0121  155.7559 LP  0  0  0  0  0  0  0  0  0  0  0  0  # atno 17394 bound_to 11000
  141.0978  133.9816  157.3130 LP  0  0  0  0  0  0  0  0  0  0  0  0  # atno 17395 bound_to 11000

$$$$
