AV-unprocessed.smi:2204|AV-procd|sdf|8937|dock2
  -GOLD-   2272012153D 1   1.00000     0.00000
 Structure written by MMmdl.
 39 40  0  0  0  0  0  0  0  0  1 V2000
  151.1177  145.1513  159.0508 C   0  0  0  0  0  0  0  0  0  0  0  0
  151.7508  143.8120  159.2862 C   0  0  0  0  0  0  0  0  0  0  0  0
  152.9061  143.5070  160.0587 C   0  0  0  0  0  0  0  0  0  0  0  0
  153.0488  142.1539  159.9334 C   0  0  0  0  0  0  0  0  0  0  0  0
  154.0787  141.2373  160.5075 C   0  0  0  0  0  0  0  0  0  0  0  0
  152.0130  141.7143  159.1273 N   0  0  0  0  0  0  0  0  0  0  0  0
  151.7035  140.3641  158.6811 C   0  0  0  0  0  0  0  0  0  0  0  0
  151.4888  140.2955  157.1657 C   0  0  0  0  0  0  0  0  0  0  0  0
  152.4205  139.9996  156.4169 O   0  0  0  0  0  0  0  0  0  0  0  0
  150.2457  140.5580  156.7314 N   0  0  0  0  0  0  0  0  0  0  0  0
  149.8015  140.5481  155.3383 C   0  0  2  0  0  0  0  0  0  0  0  0
  148.3578  141.0688  155.2790 C   0  0  0  0  0  0  0  0  0  0  0  0
  149.9233  139.1314  154.7369 C   0  0  2  0  0  0  0  0  0  0  0  0
  149.3752  138.0016  155.6122 C   0  0  0  0  0  0  0  0  0  0  0  0
  150.1401  136.8087  155.0890 C   0  0  0  0  0  0  0  0  0  0  0  0
  151.5165  137.4136  154.8326 C   0  0  0  0  0  0  0  0  0  0  0  0
  151.2931  138.7895  154.5334 O   0  0  0  0  0  0  0  0  0  0  0  0
  151.2192  142.7341  158.7331 N   0  0  0  0  0  0  0  0  0  0  0  0
  151.6183  145.9302  159.6262 H   0  0  0  0  0  0  0  0  0  0  0  0
  150.0671  145.1472  159.3427 H   0  0  0  0  0  0  0  0  0  0  0  0
  151.1715  145.4301  157.9982 H   0  0  0  0  0  0  0  0  0  0  0  0
  153.5375  144.1811  160.6182 H   0  0  0  0  0  0  0  0  0  0  0  0
  154.8504  141.7996  161.0335 H   0  0  0  0  0  0  0  0  0  0  0  0
  154.5648  140.6564  159.7238 H   0  0  0  0  0  0  0  0  0  0  0  0
  153.6279  140.5426  161.2163 H   0  0  0  0  0  0  0  0  0  0  0  0
  152.5207  139.6982  158.9582 H   0  0  0  0  0  0  0  0  0  0  0  0
  150.8166  140.0123  159.2108 H   0  0  0  0  0  0  0  0  0  0  0  0
  149.5480  140.7892  157.4236 H   0  0  0  0  0  0  0  0  0  0  0  0
  150.4199  141.2287  154.7503 H   0  0  0  0  0  0  0  0  0  0  0  0
  147.9943  141.1092  154.2520 H   0  0  0  0  0  0  0  0  0  0  0  0
  148.2864  142.0765  155.6898 H   0  0  0  0  0  0  0  0  0  0  0  0
  147.6803  140.4290  155.8457 H   0  0  0  0  0  0  0  0  0  0  0  0
  149.4276  139.0940  153.7652 H   0  0  0  0  0  0  0  0  0  0  0  0
  149.6243  138.1700  156.6610 H   0  0  0  0  0  0  0  0  0  0  0  0
  148.2942  137.8845  155.5308 H   0  0  0  0  0  0  0  0  0  0  0  0
  150.1646  135.9723  155.7883 H   0  0  0  0  0  0  0  0  0  0  0  0
  149.6993  136.4622  154.1533 H   0  0  0  0  0  0  0  0  0  0  0  0
  152.1328  137.3520  155.7301 H   0  0  0  0  0  0  0  0  0  0  0  0
  152.0456  136.9104  154.0229 H   0  0  0  0  0  0  0  0  0  0  0  0
  1  2  1  0  0  0  0
  1 19  1  0  0  0  0
  1 20  1  0  0  0  0
  1 21  1  0  0  0  0
  2 18  2  0  0  0  0
  2  3  1  0  0  0  0
  3  4  2  0  0  0  0
  3 22  1  0  0  0  0
  4  5  1  0  0  0  0
  4  6  1  0  0  0  0
  5 23  1  0  0  0  0
  5 24  1  0  0  0  0
  5 25  1  0  0  0  0
  6  7  1  0  0  0  0
  6 18  1  0  0  0  0
  7  8  1  0  0  0  0
  7 26  1  0  0  0  0
  7 27  1  0  0  0  0
  8  9  2  0  0  0  0
  8 10  1  0  0  0  0
 10 11  1  0  0  0  0
 10 28  1  0  0  0  0
 11 12  1  0  0  0  0
 11 13  1  0  0  0  0
 11 29  1  0  0  0  0
 12 30  1  0  0  0  0
 12 31  1  0  0  0  0
 12 32  1  0  0  0  0
 13 17  1  0  0  0  0
 13 14  1  0  0  0  0
 13 33  1  0  0  0  0
 14 15  1  0  0  0  0
 14 34  1  0  0  0  0
 14 35  1  0  0  0  0
 15 16  1  0  0  0  0
 15 36  1  0  0  0  0
 15 37  1  0  0  0  0
 16 17  1  0  0  0  0
 16 38  1  0  0  0  0
 16 39  1  0  0  0  0
M  END
> <s_m_source_file>
AV-unprocessed.smi

> <i_m_source_file_index>
2204

> <i_lp_mmshare_version>
43012

> <i_f3d_flags>
0

> <s_epik_input>
W0NIM11jMVtjSF1jKFtDSDNdKW4objEpW0NIMl1DKD1PKVtOSF1bQ0BIXShbQ0gzXSlbQ0BASF0yW0NIMl1bQ0gyXVtDSDJdTzI=

> <s_epik_cmdline>
J2VwaWtfcHl0aG9uJywgJy1waCcsICc3LjAnLCAnLXRuJywgJzgnLCAnLW1hJywgJzIwMCcsICctbWV0YWxfYmluZGluZycsICctaW1hZScsICc8aW5maWxlLm1hZT4nLCAnLW9tYWUnLCAnPG91dGZpbGUubWFlPic=

> <r_lp_tautomer_probability>
1

> <r_epik_Ionization_Penalty>
0.000433354

> <r_epik_Ionization_Penalty_Charging>
0

> <r_epik_Ionization_Penalty_Neutral>
0.000433354

> <r_epik_State_Penalty>
-0

> <r_epik_Charging_Adjusted_Penalty>
0

> <i_epik_Tot_Q>
0

> <i_epik_Tot_abs_Q>
0

> <r_epik_Metal_State_Penalty>
-0

> <b_epik_Metal_Only>
0

> <s_lp_Force_Field>
OPLS_2005

> <r_lp_Energy>
17.0674

> <b_lp_Chiralities_Consistent>
1

> <s_lp_Variant>
AV-unprocessed.smi:2204-1

> <Gold.Version>
5.8.1

> <Gold.Id.Protein>
6NUR|6NUR_protein|mol2

> <Gold.PLP.Fitness>
40.3656

> <Gold.PLP.PLP>
-38.6425

> <Gold.PLP.part.hbond>
-1.2892

> <Gold.PLP.part.metal>
0.0000

> <Gold.PLP.part.buried>
-3.9676

> <Gold.PLP.part.nonpolar>
-33.9065

> <Gold.PLP.part.repulsive>
0.2112

> <Gold.PLP.ligand.clash>
0.0000

> <Gold.PLP.ligand.torsion>
0.6467

> <Gold.PLP.Chemscore.Hbond>
1.0000

> <Gold.PLP.Chemscore.CHOScore>
0.0000

> <Gold.PLP.Chemscore.Metal>
0.0000

> <Gold.Chemscore.Hbonds>
donor molecule, donor type, donor heavy atom, donor atom, acceptor molecule, acceptor atom, score
      P1  H  7989  7998       L1    17  0.11
      P1  H  7997  8010       L1     9  1.00

> <Gold.PLP.Chemscore.Internal.Correction>
0.0165

> <Gold.Rescore>
     Score         DG    S(hbond)    S(metal)    S(lipo)     H(rot)  DE(clash)    DE(int)     intcor
     14.18     -16.65       1.00        0.00      99.80       1.50       0.11       2.36       ----

> <Gold.Chemscore.Fitness>
14.1820

> <Gold.Chemscore.DG>
-16.6503

> <Gold.Chemscore.ZeroCoef>
-5.4800

> <Gold.Chemscore.Hbond>
0.9986

> <Gold.Chemscore.Metal>
0.0000

> <Gold.Chemscore.Lipo>
99.7974

> <Gold.Chemscore.Internal_Hbond>
0.0000

> <Gold.Chemscore.DEClash>
0.1087

> <Gold.Chemscore.DEInternal>
2.3596

> <Gold.Chemscore.Rot>
1.5005

> <Gold.Chemscore.Internal.Correction>
   9.000000E+99

> <Gold.Chemscore.Hbonds>
donor molecule, donor type, donor heavy atom, donor atom, acceptor molecule, acceptor atom, score
      P1  H  7989  7998       L1    17  0.01
      P1  H  7997  8010       L1     9  0.96

> <Gold.Chemscore.Hbond.Weighted>
-3.3352

> <Gold.Chemscore.Metal.Weighted>
-0.0000

> <Gold.Chemscore.Lipo.Weighted>
-11.6763

> <Gold.Chemscore.Internal_Hbond.Weighted>
0.0000

> <Gold.Chemscore.DEClash.Weighted>
0.1087

> <Gold.Chemscore.DEInternal.Weighted>
2.3596

> <Gold.Chemscore.Rot.Weighted>
3.8412

> <Gold.Chemscore.Internal.Correction.Weighted>
   9.000000E+99

> <Gold.Protein.RotatedTorsions>
[ 6907 6896 6895 6894 ] final -114.28 input  -60.11 | X-H torsion
[ 7974 7965 7964 7962 ] final  -53.08 input  175.53 | X-H torsion
[ 8008 7997 7996 7995 ] final   61.46 input   59.86 | X-H torsion
[ 10167 10162 10161 10158 ] final  168.66 input  -65.29 | X-H torsion
[ 10718 10713 10712 10709 ] final   -9.50 input   66.30 | X-H torsion
[ 10763 10752 10751 10750 ] final  115.45 input  -60.55 | X-H torsion
[ 11005 11000 10999 10996 ] final -134.44 input  -57.11 | X-H torsion

> <Gold.Protein.ActiveResidues>
 VAL166  LYS551  ARG553  GLY616  TRP617  ASP618  TYR619  PRO620  LYS621  CYS622 
 ASP623  PHE694  ASN695  SER759  ASP760  ASP761  ALA762  ILE779  LEU786  VAL792 
 PHE793  MET794  SER795  GLU796  ALA797  LYS798  CYS799  TRP800  GLU811  SER814 

> <Gold.Protein.RotatedAtoms>
  150.7890  133.8824  159.3289 H   0  0  0  0  0  0  0  0  0  0  0  0  # atno 6907 bound_to 6896
  151.6667  135.0980  160.0199 H   0  0  0  0  0  0  0  0  0  0  0  0  # atno 6908 bound_to 6896
  152.3960  133.6709  159.6312 H   0  0  0  0  0  0  0  0  0  0  0  0  # atno 6909 bound_to 6896
  145.9009  140.7995  142.9744 H   0  0  0  0  0  0  0  0  0  0  0  0  # atno 7974 bound_to 7965
  155.5987  140.3493  155.4587 H   0  0  0  0  0  0  0  0  0  0  0  0  # atno 8008 bound_to 7997
  156.0245  140.1261  157.0347 H   0  0  0  0  0  0  0  0  0  0  0  0  # atno 8009 bound_to 7997
  154.4328  140.1056  156.5997 H   0  0  0  0  0  0  0  0  0  0  0  0  # atno 8010 bound_to 7997
  139.4973  144.3790  151.9642 H   0  0  0  0  0  0  0  0  0  0  0  0  # atno 10167 bound_to 10162
  156.6871  130.5054  149.5954 H   0  0  0  0  0  0  0  0  0  0  0  0  # atno 10718 bound_to 10713
  153.5224  135.3595  155.2638 H   0  0  0  0  0  0  0  0  0  0  0  0  # atno 10763 bound_to 10752
  154.8734  135.4049  154.3244 H   0  0  0  0  0  0  0  0  0  0  0  0  # atno 10764 bound_to 10752
  153.3917  135.7072  153.6557 H   0  0  0  0  0  0  0  0  0  0  0  0  # atno 10765 bound_to 10752
  140.8989  134.1716  157.4474 H   0  0  0  0  0  0  0  0  0  0  0  0  # atno 11005 bound_to 11000
  144.6736  140.1675  143.7417 LP  0  0  0  0  0  0  0  0  0  0  0  0  # atno 17320 bound_to 7965
  145.8792  139.2314  143.1615 LP  0  0  0  0  0  0  0  0  0  0  0  0  # atno 17321 bound_to 7965
  140.3227  144.3409  150.6006 LP  0  0  0  0  0  0  0  0  0  0  0  0  # atno 17342 bound_to 10162
  140.5710  143.2181  151.7600 LP  0  0  0  0  0  0  0  0  0  0  0  0  # atno 17343 bound_to 10162
  156.1824  130.6507  151.0967 LP  0  0  0  0  0  0  0  0  0  0  0  0  # atno 17370 bound_to 10713
  157.7022  131.0771  150.6783 LP  0  0  0  0  0  0  0  0  0  0  0  0  # atno 17371 bound_to 10713
  139.8739  134.9890  156.5437 LP  0  0  0  0  0  0  0  0  0  0  0  0  # atno 17394 bound_to 11000
  140.8254  133.8320  155.8934 LP  0  0  0  0  0  0  0  0  0  0  0  0  # atno 17395 bound_to 11000

$$$$
