#       Name:                AV-unprocessed.smi:738
#       Creating user name   scv26
#       Creation time:       Fri Mar 27 00:53:28 2020


#       File generated by GOLD software.
#

@<TRIPOS>MOLECULE
AV-unprocessed.smi:738
    41    43     1
SMALL
NO_CHARGES


@<TRIPOS>ATOM
      1 ****        -5.3792  -1.4610   0.7457 N.am           1 S1                 0.0000
      2 ****        -4.8251  -0.2556   0.9078 C.2            1 S1                 0.0000
      3 ****        -5.4964   0.7657   1.0417 O.2            1 S1                 0.0000
      4 ****        -3.3258  -0.2012   0.8501 C.ar           1 S1                 0.0000
      5 ****        -2.6667   0.9574   0.3840 C.ar           1 S1                 0.0000
      6 ****        -1.3237   1.0788   0.3253 N.ar           1 S1                 0.0000
      7 ****        -0.5608   0.0411   0.7452 C.ar           1 S1                 0.0000
      8 ****         0.8354   0.1800   0.6762 N.3            1 S1                 0.0000
      9 ****         1.3506   1.2236   1.5637 C.3            1 S1                 0.0000
     10 ****         2.8953   1.3085   1.4914 C.3            1 S1                 0.0000
     11 ****         3.3422   1.4411   0.1380 O.3            1 S1                 0.0000
     12 ****         2.8786   0.3434  -0.6361 C.3            1 S1                 0.0000
     13 ****         3.2396   0.3526  -2.1190 C.3            1 S1                 0.0000
     14 ****         2.1402  -0.5096  -2.7760 C.3            1 S1                 0.0000
     15 ****         1.0294  -0.6868  -1.7198 C.3            1 S1                 0.0000
     16 ****         1.3581   0.3762  -0.6696 C.3            1 S1                 0.0000
     17 ****        -1.1228  -1.1583   1.2411 C.ar           1 S1                 0.0000
     18 ****        -0.1305  -2.4705   1.7725 Cl             1 S1                 0.0000
     19 ****        -2.5251  -1.2762   1.2968 C.ar           1 S1                 0.0000
     20 ****        -6.3842  -1.5559   0.7695 H              1 S1                 0.0000
     21 ****        -4.7959  -2.2708   0.5947 H              1 S1                 0.0000
     22 ****        -3.2272   1.8149   0.0411 H              1 S1                 0.0000
     23 ****         0.9241   2.1874   1.2816 H              1 S1                 0.0000
     24 ****         1.0353   1.0232   2.5885 H              1 S1                 0.0000
     25 ****         3.2500   2.1636   2.0667 H              1 S1                 0.0000
     26 ****         3.3456   0.4216   1.9400 H              1 S1                 0.0000
     27 ****         3.2316  -0.5933  -0.1977 H              1 S1                 0.0000
     28 ****         3.1908   1.3708  -2.5073 H              1 S1                 0.0000
     29 ****         4.2441  -0.0280  -2.3057 H              1 S1                 0.0000
     30 ****         1.7574  -0.0170  -3.6705 H              1 S1                 0.0000
     31 ****         2.5309  -1.4808  -3.0814 H              1 S1                 0.0000
     32 ****         0.0296  -0.5671  -2.1378 H              1 S1                 0.0000
     33 ****         1.0925  -1.6841  -1.2815 H              1 S1                 0.0000
     34 ****         1.0323   1.3501  -1.0411 H              1 S1                 0.0000
     35 ****        -2.9700  -2.1822   1.6815 H              1 S1                 0.0000
     36 ****        -6.4949   0.7126   1.0316 LP             1 S1                 0.0000
     37 ****        -5.0439   1.6494   1.1607 LP             1 S1                 0.0000
     38 ****        -0.9011   1.9164  -0.0206 LP             1 S1                 0.0000
     39 ****         1.1708  -0.7070   0.9939 LP             1 S1                 0.0000
     40 ****         4.3418   1.4606   0.1197 LP             1 S1                 0.0000
     41 ****         2.9850   2.2921  -0.2469 LP             1 S1                 0.0000
@<TRIPOS>BOND
    1    1    2 am    
    2    1   20 1     
    3    1   21 1     
    4    2    3 2     
    5    2    4 1     
    6    4   19 ar    
    7    4    5 ar    
    8    5    6 ar    
    9    5   22 1     
   10    6    7 ar    
   11    7    8 1     
   12    7   17 ar    
   13    8   16 1     
   14    8    9 1     
   15    9   10 1     
   16    9   23 1     
   17    9   24 1     
   18   10   11 1     
   19   10   25 1     
   20   10   26 1     
   21   11   12 1     
   22   12   16 1     
   23   12   13 1     
   24   12   27 1     
   25   13   14 1     
   26   13   28 1     
   27   13   29 1     
   28   14   15 1     
   29   14   30 1     
   30   14   31 1     
   31   15   16 1     
   32   15   32 1     
   33   15   33 1     
   34   16   34 1     
   35   17   18 1     
   36   17   19 ar    
   37   19   35 1     
   38    3   36 1     
   39    3   37 1     
   40    6   38 1     
   41    8   39 1     
   42   11   40 1     
   43   11   41 1     
@<TRIPOS>SUBSTRUCTURE
      1 S1             1
@<TRIPOS>SET
LONE_PAIRS      STATIC     ATOMS    <user>   **** ""
6 36 37 38 39 40 41
DONOR_HYDROGENS      STATIC     ATOMS    <user>   **** ""
2 20 21
ATOM$BLUE        STATIC     ATOMS    COLORGROUP SYSTEM
6 36 37 38 39 40 41
ATOM$RED        STATIC     ATOMS    COLORGROUP SYSTEM
2 20 21
