AV-unprocessed.smi:2214|AV-procd|sdf|8959|dock4
  -GOLD-   2272012173D 1   1.00000     0.00000
 Structure written by MMmdl.
 41 42  0  0  0  0  0  0  0  0  1 V2000
  154.0449  140.3940  161.8993 C   0  0  0  0  0  0  0  0  0  0  0  0
  153.2544  141.5700  161.3633 C   0  0  0  0  0  0  0  0  0  0  0  0
  153.0288  142.7031  162.1697 C   0  0  0  0  0  0  0  0  0  0  0  0
  152.2958  143.7913  161.6622 C   0  0  0  0  0  0  0  0  0  0  0  0
  151.7867  143.7514  160.3499 C   0  0  0  0  0  0  0  0  0  0  0  0
  150.8859  145.0986  159.7504 Cl  0  0  0  0  0  0  0  0  0  0  0  0
  152.0033  142.6220  159.5299 C   0  0  0  0  0  0  0  0  0  0  0  0
  151.4752  142.6560  158.2572 O   0  0  0  0  0  0  0  0  0  0  0  0
  151.6431  141.5205  157.4197 C   0  0  0  0  0  0  0  0  0  0  0  0
  150.4517  141.4629  156.4522 C   0  0  1  0  0  0  0  0  0  0  0  0
  150.7619  140.5079  155.4579 O   0  0  0  0  0  0  0  0  0  0  0  0
  149.1408  141.0482  157.1615 C   0  0  0  0  0  0  0  0  0  0  0  0
  148.0026  141.8760  156.7319 N   0  0  0  0  0  0  0  0  0  0  0  0
  147.2943  142.5378  157.7496 C   0  0  0  0  0  0  0  0  0  0  0  0
  146.2846  143.3015  157.4875 N   0  0  0  0  0  0  0  0  0  0  0  0
  145.8773  143.4877  156.1632 C   0  0  0  0  0  0  0  0  0  0  0  0
  144.6825  144.4042  155.9679 C   0  0  0  0  0  0  0  0  0  0  0  0
  146.5259  142.8808  155.1315 C   0  0  0  0  0  0  0  0  0  0  0  0
  146.1281  143.0479  153.6702 C   0  0  0  0  0  0  0  0  0  0  0  0
  147.6798  142.0117  155.4141 C   0  0  0  0  0  0  0  0  0  0  0  0
  148.3187  141.4404  154.5282 O   0  0  0  0  0  0  0  0  0  0  0  0
  152.7441  141.5302  160.0495 C   0  0  0  0  0  0  0  0  0  0  0  0
  154.2990  140.5310  162.9507 H   0  0  0  0  0  0  0  0  0  0  0  0
  154.9711  140.2745  161.3369 H   0  0  0  0  0  0  0  0  0  0  0  0
  153.4657  139.4749  161.8072 H   0  0  0  0  0  0  0  0  0  0  0  0
  153.4158  142.7434  163.1775 H   0  0  0  0  0  0  0  0  0  0  0  0
  152.1236  144.6584  162.2827 H   0  0  0  0  0  0  0  0  0  0  0  0
  152.5737  141.6178  156.8579 H   0  0  0  0  0  0  0  0  0  0  0  0
  151.6941  140.6042  158.0105 H   0  0  0  0  0  0  0  0  0  0  0  0
  150.3468  142.4363  155.9707 H   0  0  0  0  0  0  0  0  0  0  0  0
  150.0772  139.8568  155.4412 H   0  0  0  0  0  0  0  0  0  0  0  0
  148.9424  139.9832  157.0257 H   0  0  0  0  0  0  0  0  0  0  0  0
  149.2562  141.1497  158.2426 H   0  0  0  0  0  0  0  0  0  0  0  0
  147.6593  142.3662  158.7641 H   0  0  0  0  0  0  0  0  0  0  0  0
  143.8638  143.8690  155.4861 H   0  0  0  0  0  0  0  0  0  0  0  0
  144.9548  145.2585  155.3477 H   0  0  0  0  0  0  0  0  0  0  0  0
  144.3158  144.7873  156.9210 H   0  0  0  0  0  0  0  0  0  0  0  0
  146.9525  143.4829  153.1042 H   0  0  0  0  0  0  0  0  0  0  0  0
  145.2595  143.6897  153.5320 H   0  0  0  0  0  0  0  0  0  0  0  0
  145.8915  142.0775  153.2318 H   0  0  0  0  0  0  0  0  0  0  0  0
  152.9369  140.6501  159.4548 H   0  0  0  0  0  0  0  0  0  0  0  0
  1  2  1  0  0  0  0
  1 23  1  0  0  0  0
  1 24  1  0  0  0  0
  1 25  1  0  0  0  0
  2 22  1  0  0  0  0
  2  3  2  0  0  0  0
  3  4  1  0  0  0  0
  3 26  1  0  0  0  0
  4  5  2  0  0  0  0
  4 27  1  0  0  0  0
  5  6  1  0  0  0  0
  5  7  1  0  0  0  0
  7  8  1  0  0  0  0
  7 22  2  0  0  0  0
  8  9  1  0  0  0  0
  9 10  1  0  0  0  0
  9 28  1  0  0  0  0
  9 29  1  0  0  0  0
 10 11  1  0  0  0  0
 10 12  1  0  0  0  0
 10 30  1  0  0  0  0
 11 31  1  0  0  0  0
 12 13  1  0  0  0  0
 12 32  1  0  0  0  0
 12 33  1  0  0  0  0
 13 20  1  0  0  0  0
 13 14  1  0  0  0  0
 14 15  2  0  0  0  0
 14 34  1  0  0  0  0
 15 16  1  0  0  0  0
 16 17  1  0  0  0  0
 16 18  2  0  0  0  0
 17 35  1  0  0  0  0
 17 36  1  0  0  0  0
 17 37  1  0  0  0  0
 18 19  1  0  0  0  0
 18 20  1  0  0  0  0
 19 38  1  0  0  0  0
 19 39  1  0  0  0  0
 19 40  1  0  0  0  0
 20 21  2  0  0  0  0
 22 41  1  0  0  0  0
M  END
> <s_m_source_file>
AV-unprocessed.smi

> <i_m_source_file_index>
2214

> <i_lp_mmshare_version>
43012

> <i_f3d_flags>
0

> <s_epik_input>
W0NIM11jMVtjSF1bY0hdYyhDbCljKFtjSF0xKU9bQ0gyXVtDQEhdKFtPSF0pW0NIMl1uMltjSF1uYyhbQ0gzXSljKFtDSDNdKWMyPU8=

> <s_epik_cmdline>
J2VwaWtfcHl0aG9uJywgJy1waCcsICc3LjAnLCAnLXRuJywgJzgnLCAnLW1hJywgJzIwMCcsICctbWV0YWxfYmluZGluZycsICctaW1hZScsICc8aW5maWxlLm1hZT4nLCAnLW9tYWUnLCAnPG91dGZpbGUubWFlPic=

> <r_lp_tautomer_probability>
1

> <r_epik_Ionization_Penalty>
3.50205e-05

> <r_epik_Ionization_Penalty_Charging>
7.87908e-08

> <r_epik_Ionization_Penalty_Neutral>
3.49418e-05

> <r_epik_State_Penalty>
-0

> <r_epik_Charging_Adjusted_Penalty>
7.87908e-08

> <i_epik_Tot_Q>
0

> <i_epik_Tot_abs_Q>
0

> <r_epik_Metal_State_Penalty>
-0

> <b_epik_Metal_Only>
0

> <s_lp_Force_Field>
OPLS_2005

> <r_lp_Energy>
22.3765

> <b_lp_Chiralities_Consistent>
1

> <s_lp_Variant>
AV-unprocessed.smi:2214-2

> <Gold.Version>
5.8.1

> <Gold.Id.Protein>
6NUR|6NUR_protein|mol2

> <Gold.PLP.Fitness>
47.9275

> <Gold.PLP.PLP>
-46.8330

> <Gold.PLP.part.hbond>
-1.0000

> <Gold.PLP.part.metal>
0.0000

> <Gold.PLP.part.buried>
-7.7722

> <Gold.PLP.part.nonpolar>
-37.5388

> <Gold.PLP.part.repulsive>
0.3381

> <Gold.PLP.ligand.clash>
0.0000

> <Gold.PLP.ligand.torsion>
0.9054

> <Gold.PLP.Chemscore.Hbond>
0.9440

> <Gold.PLP.Chemscore.CHOScore>
0.0000

> <Gold.PLP.Chemscore.Metal>
0.0000

> <Gold.Chemscore.Hbonds>
donor molecule, donor type, donor heavy atom, donor atom, acceptor molecule, acceptor atom, score
      P1  H  7989  7998       L1    11  0.62

> <Gold.PLP.Chemscore.Internal.Correction>
0.0732

> <Gold.Rescore>
     Score         DG    S(hbond)    S(metal)    S(lipo)     H(rot)  DE(clash)    DE(int)     intcor
     12.55     -16.35       0.84        0.00     120.34       2.35       0.65       3.14       ----

> <Gold.Chemscore.Fitness>
12.5546

> <Gold.Chemscore.DG>
-16.3493

> <Gold.Chemscore.ZeroCoef>
-5.4800

> <Gold.Chemscore.Hbond>
0.8391

> <Gold.Chemscore.Metal>
0.0000

> <Gold.Chemscore.Lipo>
120.3432

> <Gold.Chemscore.Internal_Hbond>
0.0000

> <Gold.Chemscore.DEClash>
0.6522

> <Gold.Chemscore.DEInternal>
3.1424

> <Gold.Chemscore.Rot>
2.3490

> <Gold.Chemscore.Internal.Correction>
   9.000000E+99

> <Gold.Chemscore.Hbonds>
donor molecule, donor type, donor heavy atom, donor atom, acceptor molecule, acceptor atom, score
      P1  H  7989  7998       L1    11  0.51

> <Gold.Chemscore.Hbond.Weighted>
-2.8027

> <Gold.Chemscore.Metal.Weighted>
-0.0000

> <Gold.Chemscore.Lipo.Weighted>
-14.0802

> <Gold.Chemscore.Internal_Hbond.Weighted>
0.0000

> <Gold.Chemscore.DEClash.Weighted>
0.6522

> <Gold.Chemscore.DEInternal.Weighted>
3.1424

> <Gold.Chemscore.Rot.Weighted>
6.0136

> <Gold.Chemscore.Internal.Correction.Weighted>
   9.000000E+99

> <Gold.Protein.RotatedTorsions>
[ 6907 6896 6895 6894 ] final -122.78 input  -60.11 | X-H torsion
[ 7974 7965 7964 7962 ] final  -49.55 input  175.53 | X-H torsion
[ 8008 7997 7996 7995 ] final  151.20 input   59.86 | X-H torsion
[ 10167 10162 10161 10158 ] final -119.17 input  -65.29 | X-H torsion
[ 10718 10713 10712 10709 ] final  120.66 input   66.30 | X-H torsion
[ 10763 10752 10751 10750 ] final  -49.69 input  -60.55 | X-H torsion
[ 11005 11000 10999 10996 ] final   -9.64 input  -57.11 | X-H torsion

> <Gold.Protein.ActiveResidues>
 VAL166  LYS551  ARG553  GLY616  TRP617  ASP618  TYR619  PRO620  LYS621  CYS622 
 ASP623  PHE694  ASN695  SER759  ASP760  ASP761  ALA762  ILE779  LEU786  VAL792 
 PHE793  MET794  SER795  GLU796  ALA797  LYS798  CYS799  TRP800  GLU811  SER814 

> <Gold.Protein.RotatedAtoms>
  150.8608  133.7646  159.2992 H   0  0  0  0  0  0  0  0  0  0  0  0  # atno 6907 bound_to 6896
  151.5289  135.1066  159.9907 H   0  0  0  0  0  0  0  0  0  0  0  0  # atno 6908 bound_to 6896
  152.4625  133.7808  159.6905 H   0  0  0  0  0  0  0  0  0  0  0  0  # atno 6909 bound_to 6896
  145.9394  140.7676  142.9560 H   0  0  0  0  0  0  0  0  0  0  0  0  # atno 7974 bound_to 7965
  156.2684  140.2054  156.6137 H   0  0  0  0  0  0  0  0  0  0  0  0  # atno 8008 bound_to 7997
  154.6811  140.0540  157.0290 H   0  0  0  0  0  0  0  0  0  0  0  0  # atno 8009 bound_to 7997
  155.0999  140.3205  155.4553 H   0  0  0  0  0  0  0  0  0  0  0  0  # atno 8010 bound_to 7997
  140.0495  143.5074  152.2089 H   0  0  0  0  0  0  0  0  0  0  0  0  # atno 10167 bound_to 10162
  157.5874  131.1068  150.8066 H   0  0  0  0  0  0  0  0  0  0  0  0  # atno 10718 bound_to 10713
  154.0982  135.6567  153.4864 H   0  0  0  0  0  0  0  0  0  0  0  0  # atno 10763 bound_to 10752
  153.0298  135.5218  154.7313 H   0  0  0  0  0  0  0  0  0  0  0  0  # atno 10764 bound_to 10752
  154.6457  135.2994  155.0018 H   0  0  0  0  0  0  0  0  0  0  0  0  # atno 10765 bound_to 10752
  140.7363  133.8707  155.8932 H   0  0  0  0  0  0  0  0  0  0  0  0  # atno 11005 bound_to 11000
  144.6776  140.2255  143.7361 LP  0  0  0  0  0  0  0  0  0  0  0  0  # atno 17320 bound_to 7965
  145.8320  139.2090  143.1877 LP  0  0  0  0  0  0  0  0  0  0  0  0  # atno 17321 bound_to 7965
  139.5962  144.7567  151.3281 LP  0  0  0  0  0  0  0  0  0  0  0  0  # atno 17342 bound_to 10162
  140.7223  143.7101  150.7776 LP  0  0  0  0  0  0  0  0  0  0  0  0  # atno 17343 bound_to 10162
  156.8497  130.5076  149.5313 LP  0  0  0  0  0  0  0  0  0  0  0  0  # atno 17370 bound_to 10713
  156.0925  130.5907  150.9757 LP  0  0  0  0  0  0  0  0  0  0  0  0  # atno 17371 bound_to 10713
  140.9876  134.1321  157.4437 LP  0  0  0  0  0  0  0  0  0  0  0  0  # atno 17394 bound_to 11000
  139.8815  135.0030  156.6163 LP  0  0  0  0  0  0  0  0  0  0  0  0  # atno 17395 bound_to 11000

$$$$
