#       Name:                AV-unprocessed.smi:110
#       Creating user name   scv26
#       Creation time:       Thu Mar 26 18:14:17 2020


#       File generated by GOLD software.
#

@<TRIPOS>MOLECULE
AV-unprocessed.smi:110
    57    61     1
SMALL
NO_CHARGES


@<TRIPOS>ATOM
      1 ****        -2.3301   0.5968  -4.2397 O.3            1 S1                 0.0000
      2 ****        -1.5948  -0.5729  -3.9518 C.3            1 S1                 0.0000
      3 ****        -0.1972  -0.4917  -4.5977 C.3            1 S1                 0.0000
      4 ****         0.6654   0.3509  -3.8323 O.3            1 S1                 0.0000
      5 ****         1.3991  -0.3766  -2.8893 C.3            1 S1                 0.0000
      6 ****         0.8705  -0.0367  -1.5293 N.pl3          1 S1                 0.0000
      7 ****        -0.0764   0.8996  -1.1721 C.2            1 S1                 0.0000
      8 ****        -0.3228   0.9829   0.1067 N.2            1 S1                 0.0000
      9 ****         0.5510   0.0704   0.6860 C.ar           1 S1                 0.0000
     10 ****         0.8263  -0.3452   2.0206 C.ar           1 S1                 0.0000
     11 ****         0.2018   0.1317   3.1228 N.pl3          1 S1                 0.0000
     12 ****        -0.4245  -0.8275   4.0444 C.3            1 S1                 0.0000
     13 ****        -1.4760  -0.0649   4.8721 C.3            1 S1                 0.0000
     14 ****        -1.2834   1.3272   4.3648 C.ar           1 S1                 0.0000
     15 ****        -1.9480   2.4895   4.7930 C.ar           1 S1                 0.0000
     16 ****        -1.5948   3.7169   4.1925 C.ar           1 S1                 0.0000
     17 ****        -0.5916   3.7628   3.1969 C.ar           1 S1                 0.0000
     18 ****         0.0637   2.5820   2.7835 C.ar           1 S1                 0.0000
     19 ****        -0.3104   1.3558   3.3709 C.ar           1 S1                 0.0000
     20 ****         1.7467  -1.3274   2.1958 N.ar           1 S1                 0.0000
     21 ****         2.3891  -1.8420   1.1439 C.ar           1 S1                 0.0000
     22 ****         2.2513  -1.5375  -0.1478 N.ar           1 S1                 0.0000
     23 ****         1.3028  -0.5749  -0.3358 C.ar           1 S1                 0.0000
     24 ****         1.1841  -1.8677  -3.2013 C.3            1 S1                 0.0000
     25 ****         2.3797  -2.6251  -3.1952 O.3            1 S1                 0.0000
     26 ****         0.5371  -1.8349  -4.5828 C.3            1 S1                 0.0000
     27 ****         1.4825  -1.8417  -5.6387 O.3            1 S1                 0.0000
     28 ****        -0.2947  -0.1110  -5.6160 H              1 S1                 0.0000
     29 ****         2.4422  -0.0576  -2.8750 H              1 S1                 0.0000
     30 ****         0.4789  -2.2925  -2.4848 H              1 S1                 0.0000
     31 ****        -0.1347  -2.6807  -4.7336 H              1 S1                 0.0000
     32 ****        -3.1941   0.5096  -3.8666 H              1 S1                 0.0000
     33 ****        -1.5475  -0.7378  -2.8762 H              1 S1                 0.0000
     34 ****        -2.1496  -1.4112  -4.3738 H              1 S1                 0.0000
     35 ****        -0.5940   1.5189  -1.8904 H              1 S1                 0.0000
     36 ****        -0.8872  -1.6465   3.4915 H              1 S1                 0.0000
     37 ****         0.3388  -1.2550   4.6952 H              1 S1                 0.0000
     38 ****        -2.4895  -0.4112   4.6678 H              1 S1                 0.0000
     39 ****        -1.2803  -0.1238   5.9430 H              1 S1                 0.0000
     40 ****        -2.7048   2.4455   5.5621 H              1 S1                 0.0000
     41 ****        -2.0874   4.6272   4.5009 H              1 S1                 0.0000
     42 ****        -0.3215   4.7088   2.7515 H              1 S1                 0.0000
     43 ****         0.8379   2.6259   2.0320 H              1 S1                 0.0000
     44 ****         3.1149  -2.6094   1.3693 H              1 S1                 0.0000
     45 ****         2.7520  -2.5837  -2.3270 H              1 S1                 0.0000
     46 ****         2.0213  -2.6133  -5.5492 H              1 S1                 0.0000
     47 ****        -2.4013   0.7146  -5.2302 LP             1 S1                 0.0000
     48 ****        -1.8699   1.3904  -3.8418 LP             1 S1                 0.0000
     49 ****         0.1115   1.0331  -3.3551 LP             1 S1                 0.0000
     50 ****         1.3010   0.8116  -4.4517 LP             1 S1                 0.0000
     51 ****        -0.9894   1.5702   0.5659 LP             1 S1                 0.0000
     52 ****         1.9444  -1.6669   3.1154 LP             1 S1                 0.0000
     53 ****         2.7770  -1.9615  -0.8852 LP             1 S1                 0.0000
     54 ****         3.0244  -2.2449  -3.8583 LP             1 S1                 0.0000
     55 ****         2.1792  -3.5757  -3.4325 LP             1 S1                 0.0000
     56 ****         2.0535  -1.0225  -5.5868 LP             1 S1                 0.0000
     57 ****         1.0071  -1.8614  -6.5183 LP             1 S1                 0.0000
@<TRIPOS>BOND
    1    1    2 1     
    2    1   32 1     
    3    2    3 1     
    4    2   33 1     
    5    2   34 1     
    6    3   28 1     
    7    3   26 1     
    8    3    4 1     
    9    4    5 1     
   10    5   29 1     
   11    5    6 1     
   12    5   24 1     
   13    6   23 1     
   14    6    7 1     
   15    7    8 2     
   16    7   35 1     
   17    8    9 1     
   18    9   23 ar    
   19    9   10 ar    
   20   10   11 1     
   21   10   20 ar    
   22   11   19 1     
   23   11   12 1     
   24   12   13 1     
   25   12   36 1     
   26   12   37 1     
   27   13   14 1     
   28   13   38 1     
   29   13   39 1     
   30   14   19 ar    
   31   14   15 ar    
   32   15   16 ar    
   33   15   40 1     
   34   16   17 ar    
   35   16   41 1     
   36   17   18 ar    
   37   17   42 1     
   38   18   19 ar    
   39   18   43 1     
   40   20   21 ar    
   41   21   22 ar    
   42   21   44 1     
   43   22   23 ar    
   44   24   30 1     
   45   24   25 1     
   46   24   26 1     
   47   25   45 1     
   48   26   31 1     
   49   26   27 1     
   50   27   46 1     
   51    1   47 1     
   52    1   48 1     
   53    4   49 1     
   54    4   50 1     
   55    8   51 1     
   56   20   52 1     
   57   22   53 1     
   58   25   54 1     
   59   25   55 1     
   60   27   56 1     
   61   27   57 1     
@<TRIPOS>SUBSTRUCTURE
      1 S1             1
@<TRIPOS>SET
LONE_PAIRS      STATIC     ATOMS    <user>   **** ""
11 47 48 49 50 51 52 53 54 55 56 57
DONOR_HYDROGENS      STATIC     ATOMS    <user>   **** ""
3 32 45 46
ATOM$BLUE        STATIC     ATOMS    COLORGROUP SYSTEM
11 47 48 49 50 51 52 53 54 55 56 57
ATOM$RED        STATIC     ATOMS    COLORGROUP SYSTEM
3 32 45 46
