AV-unprocessed.smi:2078|AV-procd|sdf|8467|dock7
  -GOLD-   2272011163D 1   1.00000     0.00000
 Structure written by MMmdl.
 41 42  0  0  0  0  0  0  0  0  3 V2000
  146.8986  136.0067  163.1229 C   0  0  0  0  0  0  0  0  0  0  0  0
  147.4309  135.8731  161.7372 C   0  0  0  0  0  0  0  0  0  0  0  0
  147.8754  134.8035  161.0132 C   0  0  0  0  0  0  0  0  0  0  0  0
  148.2422  135.3835  159.7683 C   0  0  0  0  0  0  0  0  0  0  0  0
  148.7318  134.7267  158.7053 N   0  5  0  0  0  0  0  0  0  0  0  0
  148.6697  135.2822  157.4740 C   0  0  0  0  0  0  0  0  0  0  0  0
  148.2760  136.4190  157.2015 O   0  0  0  0  0  0  0  0  0  0  0  0
  149.0870  134.4683  156.4939 N   0  0  0  0  0  0  0  0  0  0  0  0
  149.1188  134.7967  155.0739 C   0  0  0  0  0  0  0  0  0  0  0  0
  148.6505  133.6071  154.2149 C   0  0  0  0  0  0  0  0  0  0  0  0
  147.7189  134.0224  153.1371 N   0  3  1  0  0  0  0  0  0  0  0  0
  147.3325  132.8858  152.2622 C   0  0  0  0  0  0  0  0  0  0  0  0
  146.4780  133.3633  151.0770 C   0  0  0  0  0  0  0  0  0  0  0  0
  145.2372  134.1218  151.5644 C   0  0  0  0  0  0  0  0  0  0  0  0
  145.6490  135.2775  152.4919 C   0  0  1  0  0  0  0  0  0  0  0  0
  144.4235  136.0378  153.0184 C   0  0  0  0  0  0  0  0  0  0  0  0
  146.5249  134.7500  153.6465 C   0  0  0  0  0  0  0  0  0  0  0  0
  148.0248  136.6875  159.7341 N   0  0  0  0  0  0  0  0  0  0  0  0
  147.5088  137.0104  160.9950 O   0  0  0  0  0  0  0  0  0  0  0  0
  145.8539  135.6986  163.1653 H   0  0  0  0  0  0  0  0  0  0  0  0
  146.9620  137.0383  163.4700 H   0  0  0  0  0  0  0  0  0  0  0  0
  147.4640  135.3831  163.8157 H   0  0  0  0  0  0  0  0  0  0  0  0
  147.9328  133.7714  161.3247 H   0  0  0  0  0  0  0  0  0  0  0  0
  149.4032  133.5469  156.7602 H   0  0  0  0  0  0  0  0  0  0  0  0
  148.5130  135.6861  154.8992 H   0  0  0  0  0  0  0  0  0  0  0  0
  150.1428  135.0637  154.8121 H   0  0  0  0  0  0  0  0  0  0  0  0
  149.5350  133.1466  153.7725 H   0  0  0  0  0  0  0  0  0  0  0  0
  148.1793  132.8366  154.8272 H   0  0  0  0  0  0  0  0  0  0  0  0
  148.2273  132.3934  151.8796 H   0  0  0  0  0  0  0  0  0  0  0  0
  146.7867  132.1437  152.8472 H   0  0  0  0  0  0  0  0  0  0  0  0
  147.0741  134.0102  150.4319 H   0  0  0  0  0  0  0  0  0  0  0  0
  146.1774  132.5107  150.4673 H   0  0  0  0  0  0  0  0  0  0  0  0
  144.6756  134.5021  150.7103 H   0  0  0  0  0  0  0  0  0  0  0  0
  144.5737  133.4365  152.0941 H   0  0  0  0  0  0  0  0  0  0  0  0
  146.2466  135.9812  151.9101 H   0  0  0  0  0  0  0  0  0  0  0  0
  143.7792  135.3892  153.6129 H   0  0  0  0  0  0  0  0  0  0  0  0
  143.8270  136.4377  152.1980 H   0  0  0  0  0  0  0  0  0  0  0  0
  144.7217  136.8769  153.6477 H   0  0  0  0  0  0  0  0  0  0  0  0
  145.9430  134.0863  154.2886 H   0  0  0  0  0  0  0  0  0  0  0  0
  146.8354  135.5903  154.2665 H   0  0  0  0  0  0  0  0  0  0  0  0
  148.2314  134.6664  152.5517 H   0  0  0  0  0  0  0  0  0  0  0  0
  1  2  1  0  0  0  0
  1 20  1  0  0  0  0
  1 21  1  0  0  0  0
  1 22  1  0  0  0  0
  2 19  1  0  0  0  0
  2  3  2  0  0  0  0
  3  4  1  0  0  0  0
  3 23  1  0  0  0  0
  4  5  1  0  0  0  0
  4 18  2  0  0  0  0
  5  6  1  0  0  0  0
  6  7  2  0  0  0  0
  6  8  1  0  0  0  0
  8  9  1  0  0  0  0
  8 24  1  0  0  0  0
  9 10  1  0  0  0  0
  9 25  1  0  0  0  0
  9 26  1  0  0  0  0
 10 11  1  0  0  0  0
 10 27  1  0  0  0  0
 10 28  1  0  0  0  0
 11 17  1  0  0  0  0
 11 12  1  0  0  0  0
 11 41  1  0  0  0  0
 12 13  1  0  0  0  0
 12 29  1  0  0  0  0
 12 30  1  0  0  0  0
 13 14  1  0  0  0  0
 13 31  1  0  0  0  0
 13 32  1  0  0  0  0
 14 15  1  0  0  0  0
 14 33  1  0  0  0  0
 14 34  1  0  0  0  0
 15 16  1  0  0  0  0
 15 17  1  0  0  0  0
 15 35  1  0  0  0  0
 16 36  1  0  0  0  0
 16 37  1  0  0  0  0
 16 38  1  0  0  0  0
 17 39  1  0  0  0  0
 17 40  1  0  0  0  0
 18 19  1  0  0  0  0
M  CHG  1   5  -1
M  CHG  1  11   1
M  END
> <s_m_source_file>
AV-unprocessed.smi

> <i_m_source_file_index>
2078

> <i_lp_mmshare_version>
43012

> <i_f3d_flags>
0

> <s_epik_input>
W0NIM11jMVtjSF1jKG5vMSlbTkhdQyg9TylbTkhdW0NIMl1bQ0gyXU4yW0NIMl1bQ0gyXVtDSDJdW0NAQEhdKFtDSDNdKVtDSDJdMg==

> <s_epik_cmdline>
J2VwaWtfcHl0aG9uJywgJy1waCcsICc3LjAnLCAnLXRuJywgJzgnLCAnLW1hJywgJzIwMCcsICctbWV0YWxfYmluZGluZycsICctaW1hZScsICc8aW5maWxlLm1hZT4nLCAnLW9tYWUnLCAnPG91dGZpbGUubWFlPic=

> <r_epik_Ionization_Penalty>
6.22434

> <r_epik_Ionization_Penalty_Charging>
6.22425

> <r_epik_Ionization_Penalty_Neutral>
9.37855e-05

> <r_epik_State_Penalty>
6.22423

> <r_epik_Charging_Adjusted_Penalty>
12.4485

> <i_epik_Tot_Q>
0

> <i_epik_Tot_abs_Q>
2

> <r_epik_Metal_State_Penalty>
2.16764

> <b_epik_Metal_Only>
1

> <s_lp_Force_Field>
OPLS_2005

> <r_lp_Energy>
3.15807

> <b_lp_Chiralities_Consistent>
1

> <s_lp_Variant>
AV-unprocessed.smi:2078-5

> <Gold.Version>
5.8.1

> <Gold.Id.Protein>
6NUR|6NUR_protein|mol2

> <Gold.PLP.Fitness>
43.8385

> <Gold.PLP.PLP>
-27.4058

> <Gold.PLP.part.hbond>
-4.0000

> <Gold.PLP.part.metal>
0.0000

> <Gold.PLP.part.buried>
-1.8208

> <Gold.PLP.part.nonpolar>
-20.0751

> <Gold.PLP.part.repulsive>
0.0484

> <Gold.PLP.ligand.clash>
0.0000

> <Gold.PLP.ligand.torsion>
0.5378

> <Gold.PLP.Chemscore.Hbond>
5.8240

> <Gold.PLP.Chemscore.CHOScore>
0.0000

> <Gold.PLP.Chemscore.Metal>
0.0000

> <Gold.Chemscore.Hbonds>
donor molecule, donor type, donor heavy atom, donor atom, acceptor molecule, acceptor atom, score
      L1  H    11    41       P1  7948  2.00
      P1  H  6896  6908       L1     5  1.72
      P1  H  6931  6943       L1    19  0.62
      P1  H  6934  6947       L1    19  0.98

> <Gold.PLP.Chemscore.Internal.Correction>
0.0363

> <Gold.Rescore>
     Score         DG    S(hbond)    S(metal)    S(lipo)     H(rot)  DE(clash)    DE(int)     intcor
     13.89     -16.21       2.40        0.00      56.97       1.54       0.02       2.30       ----

> <Gold.Chemscore.Fitness>
13.8939

> <Gold.Chemscore.DG>
-16.2080

> <Gold.Chemscore.ZeroCoef>
-5.4800

> <Gold.Chemscore.Hbond>
2.3972

> <Gold.Chemscore.Metal>
0.0000

> <Gold.Chemscore.Lipo>
56.9729

> <Gold.Chemscore.Internal_Hbond>
0.0000

> <Gold.Chemscore.DEClash>
0.0180

> <Gold.Chemscore.DEInternal>
2.2961

> <Gold.Chemscore.Rot>
1.5409

> <Gold.Chemscore.Internal.Correction>
   9.000000E+99

> <Gold.Chemscore.Hbonds>
donor molecule, donor type, donor heavy atom, donor atom, acceptor molecule, acceptor atom, score
      L1  H    11    41       P1  7948  0.40
      P1  H  6896  6908       L1     5  0.20
      P1  H  6931  6943       L1    19  0.18
      P1  H  6934  6947       L1    19  0.44

> <Gold.Chemscore.Hbond.Weighted>
-8.0068

> <Gold.Chemscore.Metal.Weighted>
-0.0000

> <Gold.Chemscore.Lipo.Weighted>
-6.6658

> <Gold.Chemscore.Internal_Hbond.Weighted>
0.0000

> <Gold.Chemscore.DEClash.Weighted>
0.0180

> <Gold.Chemscore.DEInternal.Weighted>
2.2961

> <Gold.Chemscore.Rot.Weighted>
3.9446

> <Gold.Chemscore.Internal.Correction.Weighted>
   9.000000E+99

> <Gold.Protein.RotatedTorsions>
[ 6907 6896 6895 6894 ] final  146.92 input  -60.11 | X-H torsion
[ 7974 7965 7964 7962 ] final  121.37 input  175.53 | X-H torsion
[ 8008 7997 7996 7995 ] final  -86.98 input   59.86 | X-H torsion
[ 10167 10162 10161 10158 ] final -171.82 input  -65.29 | X-H torsion
[ 10718 10713 10712 10709 ] final  115.72 input   66.30 | X-H torsion
[ 10763 10752 10751 10750 ] final  105.57 input  -60.55 | X-H torsion
[ 11005 11000 10999 10996 ] final   51.41 input  -57.11 | X-H torsion

> <Gold.Protein.ActiveResidues>
 VAL166  LYS551  ARG553  GLY616  TRP617  ASP618  TYR619  PRO620  LYS621  CYS622 
 ASP623  PHE694  ASN695  SER759  ASP760  ASP761  ALA762  ILE779  LEU786  VAL792 
 PHE793  MET794  SER795  GLU796  ALA797  LYS798  CYS799  TRP800  GLU811  SER814 

> <Gold.Protein.RotatedAtoms>
  152.1616  133.4585  159.4863 H   0  0  0  0  0  0  0  0  0  0  0  0  # atno 6907 bound_to 6896
  150.6907  134.2064  159.4351 H   0  0  0  0  0  0  0  0  0  0  0  0  # atno 6908 bound_to 6896
  151.9967  134.9950  160.0614 H   0  0  0  0  0  0  0  0  0  0  0  0  # atno 6909 bound_to 6896
  145.1201  139.3395  143.4719 H   0  0  0  0  0  0  0  0  0  0  0  0  # atno 7974 bound_to 7965
  154.6580  140.0571  157.0030 H   0  0  0  0  0  0  0  0  0  0  0  0  # atno 8008 bound_to 7997
  155.1272  140.3253  155.4464 H   0  0  0  0  0  0  0  0  0  0  0  0  # atno 8009 bound_to 7997
  156.2605  140.1987  156.6392 H   0  0  0  0  0  0  0  0  0  0  0  0  # atno 8010 bound_to 7997
  139.5780  144.1487  152.1477 H   0  0  0  0  0  0  0  0  0  0  0  0  # atno 10167 bound_to 10162
  157.6204  131.1016  150.7371 H   0  0  0  0  0  0  0  0  0  0  0  0  # atno 10718 bound_to 10713
  153.3812  135.3905  155.1858 H   0  0  0  0  0  0  0  0  0  0  0  0  # atno 10763 bound_to 10752
  154.8708  135.3726  154.4855 H   0  0  0  0  0  0  0  0  0  0  0  0  # atno 10764 bound_to 10752
  153.5332  135.7085  153.5734 H   0  0  0  0  0  0  0  0  0  0  0  0  # atno 10765 bound_to 10752
  140.0935  134.5177  155.8829 H   0  0  0  0  0  0  0  0  0  0  0  0  # atno 11005 bound_to 11000
  146.3521  140.1156  142.8602 LP  0  0  0  0  0  0  0  0  0  0  0  0  # atno 17320 bound_to 7965
  145.0750  140.9182  143.4859 LP  0  0  0  0  0  0  0  0  0  0  0  0  # atno 17321 bound_to 7965
  140.1034  144.5519  150.6973 LP  0  0  0  0  0  0  0  0  0  0  0  0  # atno 17342 bound_to 10162
  140.7061  143.2469  151.4721 LP  0  0  0  0  0  0  0  0  0  0  0  0  # atno 17343 bound_to 10162
  156.7729  130.4834  149.5415 LP  0  0  0  0  0  0  0  0  0  0  0  0  # atno 17370 bound_to 10713
  156.1347  130.6203  151.0383 LP  0  0  0  0  0  0  0  0  0  0  0  0  # atno 17371 bound_to 10713
  141.2085  133.6674  156.6376 LP  0  0  0  0  0  0  0  0  0  0  0  0  # atno 17394 bound_to 11000
  140.3319  134.7922  157.4332 LP  0  0  0  0  0  0  0  0  0  0  0  0  # atno 17395 bound_to 11000

$$$$
