#       Name:                AV-unprocessed.smi:711
#       Creating user name   scv26
#       Creation time:       Fri Mar 27 00:45:44 2020


#       File generated by GOLD software.
#

@<TRIPOS>MOLECULE
AV-unprocessed.smi:711
    35    36     1
SMALL
NO_CHARGES


@<TRIPOS>ATOM
      1 ****        -2.7677   5.2576  -0.4954 O.2            1 S1                 0.0000
      2 ****        -2.3593   4.1206  -0.2637 C.2            1 S1                 0.0000
      3 ****        -2.3321   3.5897   0.9937 N.pl3          1 S1                -1.0000
      4 ****        -1.8851   2.3260   1.2716 C.2            1 S1                 0.0000
      5 ****        -1.8705   1.8721   2.4158 O.2            1 S1                 0.0000
      6 ****        -1.4428   1.5445   0.2423 N.am           1 S1                 0.0000
      7 ****        -0.9433   0.1767   0.4436 C.3            1 S1                 0.0000
      8 ****         0.5978   0.1246   0.5063 C.3            1 S1                 0.0000
      9 ****         1.0213   0.5451   1.7886 O.3            1 S1                 0.0000
     10 ****         1.1014  -1.2771   0.1842 C.ar           1 S1                 0.0000
     11 ****         1.0738  -2.2906   1.1689 C.ar           1 S1                 0.0000
     12 ****         1.5246  -3.5902   0.8673 C.ar           1 S1                 0.0000
     13 ****         2.0023  -3.8875  -0.4228 C.ar           1 S1                 0.0000
     14 ****         2.4343  -5.1372  -0.7144 F              1 S1                 0.0000
     15 ****         2.0266  -2.8852  -1.4108 C.ar           1 S1                 0.0000
     16 ****         1.5755  -1.5847  -1.1116 C.ar           1 S1                 0.0000
     17 ****         1.5958  -0.6365  -2.0793 F              1 S1                 0.0000
     18 ****        -1.4447   2.0451  -1.0709 C.2            1 S1                 0.0000
     19 ****        -1.8790   3.2862  -1.3632 C.2            1 S1                 0.0000
     20 ****        -1.8669   3.8757  -2.9872 Cl             1 S1                 0.0000
     21 ****        -1.3883  -0.3127   1.3119 H              1 S1                 0.0000
     22 ****        -1.2838  -0.4154  -0.4076 H              1 S1                 0.0000
     23 ****         1.0226   0.8226  -0.2157 H              1 S1                 0.0000
     24 ****         1.9631   0.6193   1.7845 H              1 S1                 0.0000
     25 ****         0.7018  -2.0765   2.1603 H              1 S1                 0.0000
     26 ****         1.5011  -4.3589   1.6255 H              1 S1                 0.0000
     27 ****         2.3892  -3.1151  -2.4017 H              1 S1                 0.0000
     28 ****        -1.0690   1.3618  -1.8189 H              1 S1                 0.0000
     29 ****        -2.7699   5.6068  -1.4325 LP             1 S1                 0.0000
     30 ****        -3.0974   5.8327   0.2532 LP             1 S1                 0.0000
     31 ****        -2.6561   4.1544   1.7527 LP             1 S1                 0.0000
     32 ****        -2.1923   2.4314   3.1797 LP             1 S1                 0.0000
     33 ****        -1.5368   0.9441   2.5813 LP             1 S1                 0.0000
     34 ****         0.7390  -0.1262   2.4738 LP             1 S1                 0.0000
     35 ****         0.6141   1.4327   2.0039 LP             1 S1                 0.0000
@<TRIPOS>BOND
    1    1    2 2     
    2    2   19 1     
    3    2    3 1     
    4    3    4 1     
    5    4    5 2     
    6    4    6 am    
    7    6    7 1     
    8    6   18 1     
    9    7    8 1     
   10    7   21 1     
   11    7   22 1     
   12    8    9 1     
   13    8   10 1     
   14    8   23 1     
   15    9   24 1     
   16   10   16 ar    
   17   10   11 ar    
   18   11   12 ar    
   19   11   25 1     
   20   12   13 ar    
   21   12   26 1     
   22   13   14 1     
   23   13   15 ar    
   24   15   16 ar    
   25   15   27 1     
   26   16   17 1     
   27   18   19 2     
   28   18   28 1     
   29   19   20 1     
   30    1   29 1     
   31    1   30 1     
   32    3   31 1     
   33    5   32 1     
   34    5   33 1     
   35    9   34 1     
   36    9   35 1     
@<TRIPOS>SUBSTRUCTURE
      1 S1             1
@<TRIPOS>SET
LONE_PAIRS      STATIC     ATOMS    <user>   **** ""
7 29 30 31 32 33 34 35
DONOR_HYDROGENS      STATIC     ATOMS    <user>   **** ""
1 24
ATOM$BLUE        STATIC     ATOMS    COLORGROUP SYSTEM
7 29 30 31 32 33 34 35
ATOM$RED        STATIC     ATOMS    COLORGROUP SYSTEM
1 24
