AV-unprocessed.smi:276|AV-procd|sdf|2078|dock9
  -GOLD-   2262021343D 1   1.00000     0.00000
 Structure written by MMmdl.
 57 61  0  0  0  0  0  0  0  0  1 V2000
  152.3958  143.0921  160.9704 C   0  0  0  0  0  0  0  0  0  0  0  0
  152.9080  142.1344  160.0598 O   0  0  0  0  0  0  0  0  0  0  0  0
  151.9059  141.5919  159.2141 C   0  0  2  0  0  0  0  0  0  0  0  0
  152.4745  140.7572  158.0553 C   0  0  0  0  0  0  0  0  0  0  0  0
  151.7361  141.6561  157.0527 C   0  0  1  0  0  0  0  0  0  0  0  0
  150.6118  140.9922  156.3719 N   0  0  0  0  0  0  0  0  0  0  0  0
  149.5078  141.7441  155.7751 C   0  0  0  0  0  0  0  0  0  0  0  0
  150.7950  139.7214  155.9171 C   0  0  0  0  0  0  0  0  0  0  0  0
  151.7090  139.4920  154.9352 N   0  0  0  0  0  0  0  0  0  0  0  0
  151.9030  138.2607  154.4563 C   0  0  0  0  0  0  0  0  0  0  0  0
  151.3044  137.1241  154.8130 N   0  0  0  0  0  0  0  0  0  0  0  0
  150.3945  137.3380  155.8054 C   0  0  0  0  0  0  0  0  0  0  0  0
  150.0787  138.5893  156.4097 C   0  0  0  0  0  0  0  0  0  0  0  0
  149.1110  138.4003  157.3919 N   0  0  0  0  0  0  0  0  0  0  0  0
  148.8668  137.1188  157.3646 C   0  0  0  0  0  0  0  0  0  0  0  0
  149.5947  136.4056  156.4415 N   0  0  0  0  0  0  0  0  0  0  0  0
  149.5293  134.9743  156.2029 C   0  0  0  0  0  0  0  0  0  0  0  0
  148.8148  134.6267  154.8815 C   0  0  2  0  0  0  0  0  0  0  0  0
  147.8004  135.5808  154.6301 O   0  0  0  0  0  0  0  0  0  0  0  0
  148.1821  133.2230  154.9150 C   0  0  1  0  0  0  0  0  0  0  0  0
  147.5473  132.7823  153.5949 C   0  0  0  0  0  0  0  0  0  0  0  0
  147.5700  131.2777  153.7323 C   0  0  0  0  0  0  0  0  0  0  0  0
  148.9087  131.0481  154.4272 C   0  0  0  0  0  0  0  0  0  0  0  0
  149.1767  132.2338  155.1723 O   0  0  0  0  0  0  0  0  0  0  0  0
  151.3420  142.6090  158.1992 C   0  0  0  0  0  0  0  0  0  0  0  0
  151.8423  144.0651  158.1824 C   0  0  0  0  0  0  0  0  0  0  0  0
  150.5604  144.4654  158.9153 C   0  0  0  0  0  0  0  0  0  0  0  0
  149.9234  143.1838  158.3737 C   0  0  0  0  0  0  0  0  0  0  0  0
  153.2043  143.4720  161.5950 H   0  0  0  0  0  0  0  0  0  0  0  0
  151.6416  142.6555  161.6261 H   0  0  0  0  0  0  0  0  0  0  0  0
  151.9528  143.9377  160.4427 H   0  0  0  0  0  0  0  0  0  0  0  0
  151.1135  141.0793  159.7617 H   0  0  0  0  0  0  0  0  0  0  0  0
  153.5579  140.8432  157.9621 H   0  0  0  0  0  0  0  0  0  0  0  0
  152.1676  139.7109  158.0665 H   0  0  0  0  0  0  0  0  0  0  0  0
  152.4531  142.1131  156.3690 H   0  0  0  0  0  0  0  0  0  0  0  0
  149.3171  141.4224  154.7503 H   0  0  0  0  0  0  0  0  0  0  0  0
  149.7103  142.8125  155.7393 H   0  0  0  0  0  0  0  0  0  0  0  0
  148.5978  141.5988  156.3573 H   0  0  0  0  0  0  0  0  0  0  0  0
  152.6437  138.1744  153.6751 H   0  0  0  0  0  0  0  0  0  0  0  0
  148.1468  136.6552  158.0235 H   0  0  0  0  0  0  0  0  0  0  0  0
  150.5485  134.5863  156.1949 H   0  0  0  0  0  0  0  0  0  0  0  0
  149.0252  134.5012  157.0465 H   0  0  0  0  0  0  0  0  0  0  0  0
  149.5321  134.6782  154.0612 H   0  0  0  0  0  0  0  0  0  0  0  0
  148.0407  136.0799  153.8643 H   0  0  0  0  0  0  0  0  0  0  0  0
  147.4365  133.1608  155.7098 H   0  0  0  0  0  0  0  0  0  0  0  0
  146.5428  133.1814  153.4506 H   0  0  0  0  0  0  0  0  0  0  0  0
  148.1630  133.0896  152.7482 H   0  0  0  0  0  0  0  0  0  0  0  0
  146.7514  130.9494  154.3742 H   0  0  0  0  0  0  0  0  0  0  0  0
  147.4881  130.7561  152.7784 H   0  0  0  0  0  0  0  0  0  0  0  0
  148.8935  130.1686  155.0711 H   0  0  0  0  0  0  0  0  0  0  0  0
  149.7033  130.9160  153.6920 H   0  0  0  0  0  0  0  0  0  0  0  0
  152.7633  144.2609  158.7315 H   0  0  0  0  0  0  0  0  0  0  0  0
  151.8889  144.4789  157.1735 H   0  0  0  0  0  0  0  0  0  0  0  0
  150.6738  144.4553  160.0006 H   0  0  0  0  0  0  0  0  0  0  0  0
  150.1016  145.3893  158.5623 H   0  0  0  0  0  0  0  0  0  0  0  0
  149.4036  143.3494  157.4292 H   0  0  0  0  0  0  0  0  0  0  0  0
  149.2948  142.6525  159.0887 H   0  0  0  0  0  0  0  0  0  0  0  0
  1  2  1  0  0  0  0
  1 29  1  0  0  0  0
  1 30  1  0  0  0  0
  1 31  1  0  0  0  0
  2  3  1  0  0  0  0
  3 25  1  0  0  0  0
  3  4  1  0  0  0  0
  3 32  1  0  0  0  0
  4  5  1  0  0  0  0
  4 33  1  0  0  0  0
  4 34  1  0  0  0  0
  5  6  1  0  0  0  0
  5 25  1  0  0  0  0
  5 35  1  0  0  0  0
  6  7  1  0  0  0  0
  6  8  1  0  0  0  0
  7 36  1  0  0  0  0
  7 37  1  0  0  0  0
  7 38  1  0  0  0  0
  8 13  1  0  0  0  0
  8  9  2  0  0  0  0
  9 10  1  0  0  0  0
 10 11  2  0  0  0  0
 10 39  1  0  0  0  0
 11 12  1  0  0  0  0
 12 16  1  0  0  0  0
 12 13  2  0  0  0  0
 13 14  1  0  0  0  0
 14 15  2  0  0  0  0
 15 16  1  0  0  0  0
 15 40  1  0  0  0  0
 16 17  1  0  0  0  0
 17 18  1  0  0  0  0
 17 41  1  0  0  0  0
 17 42  1  0  0  0  0
 18 19  1  0  0  0  0
 18 20  1  0  0  0  0
 18 43  1  0  0  0  0
 19 44  1  0  0  0  0
 20 24  1  0  0  0  0
 20 21  1  0  0  0  0
 20 45  1  0  0  0  0
 21 22  1  0  0  0  0
 21 46  1  0  0  0  0
 21 47  1  0  0  0  0
 22 23  1  0  0  0  0
 22 48  1  0  0  0  0
 22 49  1  0  0  0  0
 23 24  1  0  0  0  0
 23 50  1  0  0  0  0
 23 51  1  0  0  0  0
 25 28  1  0  0  0  0
 25 26  1  0  0  0  0
 26 27  1  0  0  0  0
 26 52  1  0  0  0  0
 26 53  1  0  0  0  0
 27 28  1  0  0  0  0
 27 54  1  0  0  0  0
 27 55  1  0  0  0  0
 28 56  1  0  0  0  0
 28 57  1  0  0  0  0
M  END
> <s_m_source_file>
AV-unprocessed.smi

> <i_m_source_file_index>
276

> <i_lp_mmshare_version>
43012

> <i_f3d_flags>
0

> <s_epik_input>
W0NIMl0xW0NIMl1bQ0gyXUMxMltDQEhdKE9bQ0gzXSlbQ0gyXVtDQEhdMk4oW0NIM10pYyhuW2NIXW4zKWMoYzM0KW5bY0hdbjRbQ0gyXVtDQEhdKFtPSF0pW0NAQEhdNVtDSDJdW0NIMl1bQ0gyXU81

> <s_epik_cmdline>
J2VwaWtfcHl0aG9uJywgJy1waCcsICc3LjAnLCAnLXRuJywgJzgnLCAnLW1hJywgJzIwMCcsICctbWV0YWxfYmluZGluZycsICctaW1hZScsICc8aW5maWxlLm1hZT4nLCAnLW9tYWUnLCAnPG91dGZpbGUubWFlPic=

> <r_lp_tautomer_probability>
1

> <r_epik_Ionization_Penalty>
0.00204117

> <r_epik_Ionization_Penalty_Charging>
0

> <r_epik_Ionization_Penalty_Neutral>
0.00204117

> <r_epik_State_Penalty>
0.00127401

> <r_epik_Charging_Adjusted_Penalty>
0.00127401

> <i_epik_Tot_Q>
0

> <i_epik_Tot_abs_Q>
0

> <r_epik_Metal_State_Penalty>
-0

> <b_epik_Metal_Only>
0

> <s_lp_Force_Field>
OPLS_2005

> <r_lp_Energy>
56.66

> <b_lp_Chiralities_Consistent>
1

> <s_lp_Variant>
AV-unprocessed.smi:276-9

> <Gold.Version>
5.8.1

> <Gold.Id.Protein>
6NUR|6NUR_protein|mol2

> <Gold.PLP.Fitness>
49.6690

> <Gold.PLP.PLP>
-44.9057

> <Gold.PLP.part.hbond>
-3.0000

> <Gold.PLP.part.metal>
0.0000

> <Gold.PLP.part.buried>
-5.4244

> <Gold.PLP.part.nonpolar>
-35.8890

> <Gold.PLP.part.repulsive>
0.1544

> <Gold.PLP.ligand.clash>
0.0096

> <Gold.PLP.ligand.torsion>
2.3184

> <Gold.PLP.Chemscore.Hbond>
2.8560

> <Gold.PLP.Chemscore.CHOScore>
0.0000

> <Gold.PLP.Chemscore.Metal>
0.0000

> <Gold.Chemscore.Hbonds>
donor molecule, donor type, donor heavy atom, donor atom, acceptor molecule, acceptor atom, score
      L1  H    19    44       P1  7948  0.57
      P1  H  7989  7998       L1     9  1.00
      P1  H 10752 10763       L1    11  0.47

> <Gold.PLP.Chemscore.Internal.Correction>
0.8416

> <Gold.Rescore>
     Score         DG    S(hbond)    S(metal)    S(lipo)     H(rot)  DE(clash)    DE(int)     intcor
     15.69     -19.81       2.17        0.00     114.39       2.46       0.05       4.07       ----

> <Gold.Chemscore.Fitness>
15.6871

> <Gold.Chemscore.DG>
-19.8139

> <Gold.Chemscore.ZeroCoef>
-5.4800

> <Gold.Chemscore.Hbond>
2.1685

> <Gold.Chemscore.Metal>
0.0000

> <Gold.Chemscore.Lipo>
114.3903

> <Gold.Chemscore.Internal_Hbond>
0.0000

> <Gold.Chemscore.DEClash>
0.0538

> <Gold.Chemscore.DEInternal>
4.0730

> <Gold.Chemscore.Rot>
2.4581

> <Gold.Chemscore.Internal.Correction>
   9.000000E+99

> <Gold.Chemscore.Hbonds>
donor molecule, donor type, donor heavy atom, donor atom, acceptor molecule, acceptor atom, score
      L1  H    19    44       P1  7948  0.56
      P1  H  7989  7998       L1     9  0.67
      P1  H 10752 10763       L1    11  0.18

> <Gold.Chemscore.Hbond.Weighted>
-7.2429

> <Gold.Chemscore.Metal.Weighted>
-0.0000

> <Gold.Chemscore.Lipo.Weighted>
-13.3837

> <Gold.Chemscore.Internal_Hbond.Weighted>
0.0000

> <Gold.Chemscore.DEClash.Weighted>
0.0538

> <Gold.Chemscore.DEInternal.Weighted>
4.0730

> <Gold.Chemscore.Rot.Weighted>
6.2927

> <Gold.Chemscore.Internal.Correction.Weighted>
   9.000000E+99

> <Gold.Protein.RotatedTorsions>
[ 6907 6896 6895 6894 ] final   30.59 input  -60.11 | X-H torsion
[ 7974 7965 7964 7962 ] final   98.86 input  175.53 | X-H torsion
[ 8008 7997 7996 7995 ] final  -48.43 input   59.86 | X-H torsion
[ 10167 10162 10161 10158 ] final -165.66 input  -65.29 | X-H torsion
[ 10718 10713 10712 10709 ] final  -45.53 input   66.30 | X-H torsion
[ 10763 10752 10751 10750 ] final   59.57 input  -60.55 | X-H torsion
[ 11005 11000 10999 10996 ] final -153.72 input  -57.11 | X-H torsion

> <Gold.Protein.ActiveResidues>
 VAL166  LYS551  ARG553  GLY616  TRP617  ASP618  TYR619  PRO620  LYS621  CYS622 
 ASP623  PHE694  ASN695  SER759  ASP760  ASP761  ALA762  ILE779  LEU786  VAL792 
 PHE793  MET794  SER795  GLU796  ALA797  LYS798  CYS799  TRP800  GLU811  SER814 

> <Gold.Protein.RotatedAtoms>
  152.0481  134.9670  160.0574 H   0  0  0  0  0  0  0  0  0  0  0  0  # atno 6907 bound_to 6896
  152.1082  133.4281  159.4627 H   0  0  0  0  0  0  0  0  0  0  0  0  # atno 6908 bound_to 6896
  150.6842  134.2598  159.4588 H   0  0  0  0  0  0  0  0  0  0  0  0  # atno 6909 bound_to 6896
  145.4065  139.2340  143.3271 H   0  0  0  0  0  0  0  0  0  0  0  0  # atno 7974 bound_to 7965
  154.4029  140.1321  156.4338 H   0  0  0  0  0  0  0  0  0  0  0  0  # atno 8008 bound_to 7997
  155.7525  140.3488  155.5137 H   0  0  0  0  0  0  0  0  0  0  0  0  # atno 8009 bound_to 7997
  155.8936  140.1007  157.1391 H   0  0  0  0  0  0  0  0  0  0  0  0  # atno 8010 bound_to 7997
  139.6167  144.0706  152.1894 H   0  0  0  0  0  0  0  0  0  0  0  0  # atno 10167 bound_to 10162
  156.2275  130.4170  149.8916 H   0  0  0  0  0  0  0  0  0  0  0  0  # atno 10718 bound_to 10713
  152.9898  135.5567  154.5734 H   0  0  0  0  0  0  0  0  0  0  0  0  # atno 10763 bound_to 10752
  154.5130  135.2803  155.1329 H   0  0  0  0  0  0  0  0  0  0  0  0  # atno 10764 bound_to 10752
  154.2713  135.6362  153.5364 H   0  0  0  0  0  0  0  0  0  0  0  0  # atno 10765 bound_to 10752
  140.7051  134.3894  157.5205 H   0  0  0  0  0  0  0  0  0  0  0  0  # atno 11005 bound_to 11000
  146.2726  140.4770  142.8808 LP  0  0  0  0  0  0  0  0  0  0  0  0  # atno 17320 bound_to 7965
  144.8338  140.6749  143.6274 LP  0  0  0  0  0  0  0  0  0  0  0  0  # atno 17321 bound_to 7965
  140.0337  144.6061  150.7467 LP  0  0  0  0  0  0  0  0  0  0  0  0  # atno 17342 bound_to 10162
  140.7355  143.2742  151.3793 LP  0  0  0  0  0  0  0  0  0  0  0  0  # atno 17343 bound_to 10162
  156.6542  130.8756  151.3536 LP  0  0  0  0  0  0  0  0  0  0  0  0  # atno 17370 bound_to 10713
  157.7117  130.9448  150.1113 LP  0  0  0  0  0  0  0  0  0  0  0  0  # atno 17371 bound_to 10713
  139.8886  134.8851  156.2464 LP  0  0  0  0  0  0  0  0  0  0  0  0  # atno 17394 bound_to 11000
  141.0131  133.7084  156.1144 LP  0  0  0  0  0  0  0  0  0  0  0  0  # atno 17395 bound_to 11000

$$$$
