#       Name:                AV-unprocessed.smi:104
#       Creating user name   scv26
#       Creation time:       Thu Mar 26 18:00:06 2020


#       File generated by GOLD software.
#

@<TRIPOS>MOLECULE
AV-unprocessed.smi:104
    58    60     1
SMALL
NO_CHARGES


@<TRIPOS>ATOM
      1 ****        -3.7008   1.7815  -0.4444 C.3            1 S1                 0.0000
      2 ****        -3.6581   0.2592  -0.4523 C.2            1 S1                 0.0000
      3 ****        -4.6881  -0.4132  -0.4991 O.2            1 S1                 0.0000
      4 ****        -2.4072  -0.2177  -0.4036 O.3            1 S1                 0.0000
      5 ****        -2.1859  -1.6195  -0.3915 C.3            1 S1                 0.0000
      6 ****        -0.6823  -1.9351  -0.4089 C.3            1 S1                 0.0000
      7 ****        -0.0879  -1.5523  -1.6495 O.3            1 S1                 0.0000
      8 ****         0.9210  -0.6105  -1.4386 C.3            1 S1                 0.0000
      9 ****         0.2921   0.7501  -1.6278 N.pl3          1 S1                 0.0000
     10 ****        -0.3178   1.2035  -2.7771 C.2            1 S1                 0.0000
     11 ****        -0.4587   0.1265  -4.3416 Br             1 S1                 0.0000
     12 ****        -0.8114   2.4075  -2.7683 N.2            1 S1                 0.0000
     13 ****        -0.5081   2.8484  -1.4897 C.ar           1 S1                 0.0000
     14 ****        -0.7536   4.0591  -0.7944 C.ar           1 S1                 0.0000
     15 ****        -1.4033   5.0958  -1.3407 N.pl3          1 S1                 0.0000
     16 ****        -0.3176   4.1760   0.4799 N.ar           1 S1                 0.0000
     17 ****         0.3318   3.1562   1.0460 C.ar           1 S1                 0.0000
     18 ****         0.6334   1.9670   0.5211 N.ar           1 S1                 0.0000
     19 ****         0.1906   1.8353  -0.7648 C.ar           1 S1                 0.0000
     20 ****         1.4348  -0.8992  -0.0228 C.3            1 S1                 0.0000
     21 ****         2.3294  -2.0075  -0.0673 O.3            1 S1                 0.0000
     22 ****         3.6396  -1.8164  -0.2982 C.2            1 S1                 0.0000
     23 ****         4.4272  -3.1195  -0.2774 C.3            1 S1                 0.0000
     24 ****         4.1882  -0.7355  -0.5124 O.2            1 S1                 0.0000
     25 ****         0.1411  -1.2660   0.6999 C.3            1 S1                 0.0000
     26 ****         0.3578  -2.1260   1.8123 O.3            1 S1                 0.0000
     27 ****         0.7509  -1.6136   2.9917 C.2            1 S1                 0.0000
     28 ****         0.9377  -2.6856   4.0570 C.3            1 S1                 0.0000
     29 ****         0.9568  -0.4239   3.2325 O.2            1 S1                 0.0000
     30 ****        -2.9786   2.1798   0.2688 H              1 S1                 0.0000
     31 ****        -4.6929   2.1355  -0.1638 H              1 S1                 0.0000
     32 ****        -3.4618   2.1706  -1.4340 H              1 S1                 0.0000
     33 ****        -2.6391  -2.0439   0.5052 H              1 S1                 0.0000
     34 ****        -2.6714  -2.0819  -1.2520 H              1 S1                 0.0000
     35 ****        -0.5559  -3.0165  -0.3450 H              1 S1                 0.0000
     36 ****         1.6885  -0.6518  -2.2124 H              1 S1                 0.0000
     37 ****        -1.7424   5.0338  -2.2899 H              1 S1                 0.0000
     38 ****        -1.5490   5.9381  -0.8035 H              1 S1                 0.0000
     39 ****         0.6551   3.3134   2.0646 H              1 S1                 0.0000
     40 ****         1.9429  -0.0433   0.4164 H              1 S1                 0.0000
     41 ****         4.3900  -3.5675   0.7157 H              1 S1                 0.0000
     42 ****         5.4709  -2.9414  -0.5375 H              1 S1                 0.0000
     43 ****         4.0088  -3.8272  -0.9930 H              1 S1                 0.0000
     44 ****        -0.3701  -0.3604   1.0245 H              1 S1                 0.0000
     45 ****        -0.0046  -3.1994   4.2470 H              1 S1                 0.0000
     46 ****         1.2843  -2.2420   4.9906 H              1 S1                 0.0000
     47 ****         1.6740  -3.4198   3.7297 H              1 S1                 0.0000
     48 ****        -5.5793   0.0390  -0.5331 LP             1 S1                 0.0000
     49 ****        -4.6336  -1.4117  -0.5032 LP             1 S1                 0.0000
     50 ****        -0.7893  -1.1561  -2.2420 LP             1 S1                 0.0000
     51 ****         0.3031  -2.3603  -2.0902 LP             1 S1                 0.0000
     52 ****        -1.2895   2.8928  -3.5003 LP             1 S1                 0.0000
     53 ****        -0.4800   5.0184   0.9936 LP             1 S1                 0.0000
     54 ****         1.1285   1.2516   1.0141 LP             1 S1                 0.0000
     55 ****         3.6476   0.1057  -0.5252 LP             1 S1                 0.0000
     56 ****         5.1744  -0.6986  -0.6737 LP             1 S1                 0.0000
     57 ****         0.8327   0.2604   2.5139 LP             1 S1                 0.0000
     58 ****         1.2481  -0.1419   4.1466 LP             1 S1                 0.0000
@<TRIPOS>BOND
    1    1    2 1     
    2    1   30 1     
    3    1   31 1     
    4    1   32 1     
    5    2    3 2     
    6    2    4 1     
    7    4    5 1     
    8    5    6 1     
    9    5   33 1     
   10    5   34 1     
   11    6   25 1     
   12    6    7 1     
   13    6   35 1     
   14    7    8 1     
   15    8    9 1     
   16    8   20 1     
   17    8   36 1     
   18    9   19 1     
   19    9   10 1     
   20   10   11 1     
   21   10   12 2     
   22   12   13 1     
   23   13   19 ar    
   24   13   14 ar    
   25   14   15 1     
   26   14   16 ar    
   27   15   37 1     
   28   15   38 1     
   29   16   17 ar    
   30   17   18 ar    
   31   17   39 1     
   32   18   19 ar    
   33   20   21 1     
   34   20   25 1     
   35   20   40 1     
   36   21   22 1     
   37   22   23 1     
   38   22   24 2     
   39   23   41 1     
   40   23   42 1     
   41   23   43 1     
   42   25   26 1     
   43   25   44 1     
   44   26   27 1     
   45   27   28 1     
   46   27   29 2     
   47   28   45 1     
   48   28   46 1     
   49   28   47 1     
   50    3   48 1     
   51    3   49 1     
   52    7   50 1     
   53    7   51 1     
   54   12   52 1     
   55   16   53 1     
   56   18   54 1     
   57   24   55 1     
   58   24   56 1     
   59   29   57 1     
   60   29   58 1     
@<TRIPOS>SUBSTRUCTURE
      1 S1             1
@<TRIPOS>SET
LONE_PAIRS      STATIC     ATOMS    <user>   **** ""
11 48 49 50 51 52 53 54 55 56 57 58
DONOR_HYDROGENS      STATIC     ATOMS    <user>   **** ""
2 37 38
ATOM$BLUE        STATIC     ATOMS    COLORGROUP SYSTEM
11 48 49 50 51 52 53 54 55 56 57 58
ATOM$RED        STATIC     ATOMS    COLORGROUP SYSTEM
2 37 38
