AV-unprocessed.smi:3018|AV-procd|sdf|11479|dock10
  -GOLD-   2272016413D 1   1.00000     0.00000
 Structure written by MMmdl.
 45 46  0  0  0  0  0  0  0  0  1 V2000
  152.4959  138.9960  155.6336 C   0  0  0  0  0  0  0  0  0  0  0  0
  151.0219  139.4002  155.7590 C   0  0  0  0  0  0  0  0  0  0  0  0
  150.7194  140.1499  157.0695 C   0  0  2  0  0  0  0  0  0  0  0  0
  151.7123  141.1616  157.2322 O   0  0  0  0  0  0  0  0  0  0  0  0
  151.4086  142.2195  158.1387 C   0  0  0  0  0  0  0  0  0  0  0  0
  151.1511  143.5326  157.3715 C   0  0  0  0  0  0  0  0  0  0  0  0
  150.9608  144.7149  158.3363 C   0  0  0  0  0  0  0  0  0  0  0  0
  152.1568  144.8577  159.2915 C   0  0  0  0  0  0  0  0  0  0  0  0
  152.4202  143.5486  160.0520 C   0  0  0  0  0  0  0  0  0  0  0  0
  152.6153  142.3740  159.0800 C   0  0  0  0  0  0  0  0  0  0  0  0
  150.7539  139.1911  158.2691 C   0  0  0  0  0  0  0  0  0  0  0  0
  151.4966  139.4206  159.2238 O   0  0  0  0  0  0  0  0  0  0  0  0
  149.9399  138.1255  158.2055 N   0  0  0  0  0  0  0  0  0  0  0  0
  149.8321  137.0778  159.2176 C   0  0  0  0  0  0  0  0  0  0  0  0
  148.3862  136.9096  159.7304 C   0  0  0  0  0  0  0  0  0  0  0  0
  148.2787  136.4023  161.1593 C   0  0  0  0  0  0  0  0  0  0  0  0
  148.7353  136.9431  162.2338 N   0  0  0  0  0  0  0  0  0  0  0  0
  148.3084  136.0622  163.1727 N   0  0  0  0  0  0  0  0  0  0  0  0
  147.6153  135.0267  162.6846 C   0  0  0  0  0  0  0  0  0  0  0  0
  147.1132  134.0951  163.3089 O   0  0  0  0  0  0  0  0  0  0  0  0
  147.5935  135.2328  161.3739 N   0  0  0  0  0  0  0  0  0  0  0  0
  148.5240  136.2338  164.1442 H   0  0  0  0  0  0  0  0  0  0  0  0
  147.1487  134.6627  160.6695 H   0  0  0  0  0  0  0  0  0  0  0  0
  152.6752  138.4724  154.6944 H   0  0  0  0  0  0  0  0  0  0  0  0
  152.7946  138.3323  156.4455 H   0  0  0  0  0  0  0  0  0  0  0  0
  153.1477  139.8696  155.6573 H   0  0  0  0  0  0  0  0  0  0  0  0
  150.7601  140.0286  154.9062 H   0  0  0  0  0  0  0  0  0  0  0  0
  150.3970  138.5089  155.6856 H   0  0  0  0  0  0  0  0  0  0  0  0
  149.7282  140.5986  156.9905 H   0  0  0  0  0  0  0  0  0  0  0  0
  150.5364  141.9773  158.7470 H   0  0  0  0  0  0  0  0  0  0  0  0
  151.9905  143.7373  156.7057 H   0  0  0  0  0  0  0  0  0  0  0  0
  150.2700  143.4419  156.7371 H   0  0  0  0  0  0  0  0  0  0  0  0
  150.8257  145.6375  157.7711 H   0  0  0  0  0  0  0  0  0  0  0  0
  150.0474  144.5698  158.9146 H   0  0  0  0  0  0  0  0  0  0  0  0
  153.0463  145.1349  158.7244 H   0  0  0  0  0  0  0  0  0  0  0  0
  151.9754  145.6686  159.9974 H   0  0  0  0  0  0  0  0  0  0  0  0
  153.3005  143.6569  160.6861 H   0  0  0  0  0  0  0  0  0  0  0  0
  151.5829  143.3369  160.7181 H   0  0  0  0  0  0  0  0  0  0  0  0
  152.7688  141.4512  159.6400 H   0  0  0  0  0  0  0  0  0  0  0  0
  153.5208  142.5340  158.4933 H   0  0  0  0  0  0  0  0  0  0  0  0
  149.3597  138.0259  157.3849 H   0  0  0  0  0  0  0  0  0  0  0  0
  150.2365  136.1309  158.8554 H   0  0  0  0  0  0  0  0  0  0  0  0
  150.4697  137.3724  160.0513 H   0  0  0  0  0  0  0  0  0  0  0  0
  147.8717  137.8692  159.6730 H   0  0  0  0  0  0  0  0  0  0  0  0
  147.8381  136.2352  159.0709 H   0  0  0  0  0  0  0  0  0  0  0  0
  1  2  1  0  0  0  0
  1 24  1  0  0  0  0
  1 25  1  0  0  0  0
  1 26  1  0  0  0  0
  2  3  1  0  0  0  0
  2 27  1  0  0  0  0
  2 28  1  0  0  0  0
  3  4  1  0  0  0  0
  3 11  1  0  0  0  0
  3 29  1  0  0  0  0
  4  5  1  0  0  0  0
  5 10  1  0  0  0  0
  5  6  1  0  0  0  0
  5 30  1  0  0  0  0
  6  7  1  0  0  0  0
  6 31  1  0  0  0  0
  6 32  1  0  0  0  0
  7  8  1  0  0  0  0
  7 33  1  0  0  0  0
  7 34  1  0  0  0  0
  8  9  1  0  0  0  0
  8 35  1  0  0  0  0
  8 36  1  0  0  0  0
  9 10  1  0  0  0  0
  9 37  1  0  0  0  0
  9 38  1  0  0  0  0
 10 39  1  0  0  0  0
 10 40  1  0  0  0  0
 11 12  2  0  0  0  0
 11 13  1  0  0  0  0
 13 14  1  0  0  0  0
 13 41  1  0  0  0  0
 14 15  1  0  0  0  0
 14 42  1  0  0  0  0
 14 43  1  0  0  0  0
 15 16  1  0  0  0  0
 15 44  1  0  0  0  0
 15 45  1  0  0  0  0
 16 21  1  0  0  0  0
 16 17  2  0  0  0  0
 17 18  1  0  0  0  0
 18 22  1  0  0  0  0
 18 19  1  0  0  0  0
 19 20  2  0  0  0  0
 19 21  1  0  0  0  0
 21 23  1  0  0  0  0
M  END
> <s_m_source_file>
AV-unprocessed.smi

> <i_m_source_file_index>
3018

> <i_lp_mmshare_version>
43012

> <i_f3d_flags>
0

> <s_epik_input>
W0NIMl0xW0NIMl1bQ0gyXVtDSDJdW0NIMl1bQ0hdMU9bQ0BASF0oW0NIMl1bQ0gzXSlDKD1PKVtOSF1bQ0gyXVtDSDJdYzJuW25IXWMoPU8pW25IXTI=

> <s_epik_cmdline>
J2VwaWtfcHl0aG9uJywgJy1waCcsICc3LjAnLCAnLXRuJywgJzgnLCAnLW1hJywgJzIwMCcsICctbWV0YWxfYmluZGluZycsICctaW1hZScsICc8aW5maWxlLm1hZT4nLCAnLW9tYWUnLCAnPG91dGZpbGUubWFlPic=

> <r_lp_tautomer_probability>
1

> <r_epik_Ionization_Penalty>
0.000773817

> <r_epik_Ionization_Penalty_Charging>
0.000773741

> <r_epik_Ionization_Penalty_Neutral>
7.58514e-08

> <r_epik_State_Penalty>
-0

> <r_epik_Charging_Adjusted_Penalty>
0.000773741

> <i_epik_Tot_Q>
0

> <i_epik_Tot_abs_Q>
0

> <r_epik_Metal_State_Penalty>
0.495152

> <b_epik_Metal_Only>
0

> <s_lp_Force_Field>
OPLS_2005

> <r_lp_Energy>
32.5004

> <b_lp_Chiralities_Consistent>
1

> <s_lp_Variant>
AV-unprocessed.smi:3018-1

> <Gold.Version>
5.8.1

> <Gold.Id.Protein>
6NUR|6NUR_protein|mol2

> <Gold.PLP.Fitness>
42.1998

> <Gold.PLP.PLP>
-41.4377

> <Gold.PLP.part.hbond>
-1.8798

> <Gold.PLP.part.metal>
0.0000

> <Gold.PLP.part.buried>
-6.7522

> <Gold.PLP.part.nonpolar>
-33.7443

> <Gold.PLP.part.repulsive>
0.3490

> <Gold.PLP.ligand.clash>
0.0000

> <Gold.PLP.ligand.torsion>
1.1449

> <Gold.PLP.Chemscore.Hbond>
1.0000

> <Gold.PLP.Chemscore.CHOScore>
0.0000

> <Gold.PLP.Chemscore.Metal>
0.0000

> <Gold.Chemscore.Hbonds>
donor molecule, donor type, donor heavy atom, donor atom, acceptor molecule, acceptor atom, score
      P1  H  6931  6943       L1    17  0.59

> <Gold.PLP.Chemscore.Internal.Correction>
0.0520

> <Gold.Rescore>
     Score         DG    S(hbond)    S(metal)    S(lipo)     H(rot)  DE(clash)    DE(int)     intcor
     11.12     -12.27       0.99        0.00      96.24       3.04       0.08       1.07       ----

> <Gold.Chemscore.Fitness>
11.1243

> <Gold.Chemscore.DG>
-12.2694

> <Gold.Chemscore.ZeroCoef>
-5.4800

> <Gold.Chemscore.Hbond>
0.9891

> <Gold.Chemscore.Metal>
0.0000

> <Gold.Chemscore.Lipo>
96.2376

> <Gold.Chemscore.Internal_Hbond>
0.0000

> <Gold.Chemscore.DEClash>
0.0792

> <Gold.Chemscore.DEInternal>
1.0659

> <Gold.Chemscore.Rot>
3.0367

> <Gold.Chemscore.Internal.Correction>
   9.000000E+99

> <Gold.Chemscore.Hbonds>
donor molecule, donor type, donor heavy atom, donor atom, acceptor molecule, acceptor atom, score
      P1  H  6931  6943       L1    17  0.38

> <Gold.Chemscore.Hbond.Weighted>
-3.3036

> <Gold.Chemscore.Metal.Weighted>
-0.0000

> <Gold.Chemscore.Lipo.Weighted>
-11.2598

> <Gold.Chemscore.Internal_Hbond.Weighted>
0.0000

> <Gold.Chemscore.DEClash.Weighted>
0.0792

> <Gold.Chemscore.DEInternal.Weighted>
1.0659

> <Gold.Chemscore.Rot.Weighted>
7.7739

> <Gold.Chemscore.Internal.Correction.Weighted>
   9.000000E+99

> <Gold.Protein.RotatedTorsions>
[ 6907 6896 6895 6894 ] final  -55.51 input  -60.11 | X-H torsion
[ 7974 7965 7964 7962 ] final -126.13 input  175.53 | X-H torsion
[ 8008 7997 7996 7995 ] final  134.79 input   59.86 | X-H torsion
[ 10167 10162 10161 10158 ] final  157.79 input  -65.29 | X-H torsion
[ 10718 10713 10712 10709 ] final -144.49 input   66.30 | X-H torsion
[ 10763 10752 10751 10750 ] final -176.99 input  -60.55 | X-H torsion
[ 11005 11000 10999 10996 ] final  -31.84 input  -57.11 | X-H torsion

> <Gold.Protein.ActiveResidues>
 VAL166  LYS551  ARG553  GLY616  TRP617  ASP618  TYR619  PRO620  LYS621  CYS622 
 ASP623  PHE694  ASN695  SER759  ASP760  ASP761  ALA762  ILE779  LEU786  VAL792 
 PHE793  MET794  SER795  GLU796  ALA797  LYS798  CYS799  TRP800  GLU811  SER814 

> <Gold.Protein.RotatedAtoms>
  150.8246  134.7470  159.6801 H   0  0  0  0  0  0  0  0  0  0  0  0  # atno 6907 bound_to 6896
  152.4358  134.5686  159.9924 H   0  0  0  0  0  0  0  0  0  0  0  0  # atno 6908 bound_to 6896
  151.5862  133.3334  159.3054 H   0  0  0  0  0  0  0  0  0  0  0  0  # atno 6909 bound_to 6896
  144.9904  140.7727  143.4557 H   0  0  0  0  0  0  0  0  0  0  0  0  # atno 7974 bound_to 7965
  156.3000  140.2487  156.3475 H   0  0  0  0  0  0  0  0  0  0  0  0  # atno 8008 bound_to 7997
  154.8997  140.0406  157.1905 H   0  0  0  0  0  0  0  0  0  0  0  0  # atno 8009 bound_to 7997
  154.8513  140.2906  155.5600 H   0  0  0  0  0  0  0  0  0  0  0  0  # atno 8010 bound_to 7997
  139.4824  144.4885  151.8343 H   0  0  0  0  0  0  0  0  0  0  0  0  # atno 10167 bound_to 10162
  156.3708  130.7787  151.1967 H   0  0  0  0  0  0  0  0  0  0  0  0  # atno 10718 bound_to 10713
  154.5656  135.2823  155.0877 H   0  0  0  0  0  0  0  0  0  0  0  0  # atno 10763 bound_to 10752
  154.2269  135.6381  153.5166 H   0  0  0  0  0  0  0  0  0  0  0  0  # atno 10764 bound_to 10752
  153.0042  135.5528  154.6264 H   0  0  0  0  0  0  0  0  0  0  0  0  # atno 10765 bound_to 10752
  140.9502  133.7225  156.1208 H   0  0  0  0  0  0  0  0  0  0  0  0  # atno 11005 bound_to 11000
  145.2293  139.2122  143.5051 LP  0  0  0  0  0  0  0  0  0  0  0  0  # atno 17320 bound_to 7965
  146.3430  140.2167  142.8591 LP  0  0  0  0  0  0  0  0  0  0  0  0  # atno 17321 bound_to 7965
  140.4367  144.2042  150.5889 LP  0  0  0  0  0  0  0  0  0  0  0  0  # atno 17342 bound_to 10162
  140.4725  143.2408  151.9069 LP  0  0  0  0  0  0  0  0  0  0  0  0  # atno 17343 bound_to 10162
  157.7483  131.0373  150.4448 LP  0  0  0  0  0  0  0  0  0  0  0  0  # atno 17370 bound_to 10713
  156.4675  130.4045  149.6538 LP  0  0  0  0  0  0  0  0  0  0  0  0  # atno 17371 bound_to 10713
  140.7613  134.3936  157.5525 LP  0  0  0  0  0  0  0  0  0  0  0  0  # atno 17394 bound_to 11000
  139.8845  134.8963  156.2698 LP  0  0  0  0  0  0  0  0  0  0  0  0  # atno 17395 bound_to 11000

$$$$
