#       Name:                AV-unprocessed.smi:1999
#       Creating user name   scv26
#       Creation time:       Fri Mar 27 10:31:20 2020


#       File generated by GOLD software.
#

@<TRIPOS>MOLECULE
AV-unprocessed.smi:1999
    45    46     1
SMALL
NO_CHARGES


@<TRIPOS>ATOM
      1 ****        -6.3430   2.3638  -0.8458 C.3            1 S1                 0.0000
      2 ****        -4.9245   1.9106  -0.9093 C.2            1 S1                 0.0000
      3 ****        -3.9131   2.6379  -0.4197 N.2            1 S1                 0.0000
      4 ****        -2.6852   2.0140  -0.5902 N.2            1 S1                 0.0000
      5 ****        -2.8076   0.8305  -1.2068 C.2            1 S1                 0.0000
      6 ****        -1.7108  -0.0224  -1.5007 N.am           1 S1                 0.0000
      7 ****        -0.4045   0.1928  -1.2676 C.2            1 S1                 0.0000
      8 ****         0.0721   1.2159  -0.7757 O.2            1 S1                 0.0000
      9 ****         0.3356  -0.8654  -1.6316 N.am           1 S1                 0.0000
     10 ****         1.7936  -0.9668  -1.5472 C.3            1 S1                 0.0000
     11 ****         2.2992  -1.8372  -2.7058 C.3            1 S1                 0.0000
     12 ****         2.2459  -1.5369  -0.1822 C.3            1 S1                 0.0000
     13 ****         1.8328  -0.6951   0.9695 N.4            1 S1                 1.0000
     14 ****         1.7138  -1.4578   2.2338 C.3            1 S1                 0.0000
     15 ****         1.2070  -0.5418   3.3612 C.3            1 S1                 0.0000
     16 ****         2.0821   0.5704   3.5053 O.3            1 S1                 0.0000
     17 ****         2.1445   1.3570   2.3214 C.3            1 S1                 0.0000
     18 ****         2.6875   0.5012   1.1654 C.3            1 S1                 0.0000
     19 ****        -4.4497   0.3763  -1.6288 S.3            1 S1                 0.0000
     20 ****        -6.4296   3.3830  -1.2228 H              1 S1                 0.0000
     21 ****        -6.6969   2.3386   0.1849 H              1 S1                 0.0000
     22 ****        -6.9770   1.7141  -1.4495 H              1 S1                 0.0000
     23 ****        -1.9520  -0.9028  -1.9313 H              1 S1                 0.0000
     24 ****        -0.1463  -1.6609  -2.0251 H              1 S1                 0.0000
     25 ****         2.2276   0.0240  -1.6870 H              1 S1                 0.0000
     26 ****         3.3874  -1.9062  -2.6981 H              1 S1                 0.0000
     27 ****         2.0047  -1.4197  -3.6694 H              1 S1                 0.0000
     28 ****         1.9016  -2.8508  -2.6463 H              1 S1                 0.0000
     29 ****         1.8123  -2.5321  -0.0714 H              1 S1                 0.0000
     30 ****         3.3280  -1.6754  -0.1602 H              1 S1                 0.0000
     31 ****         1.0221  -2.2906   2.1020 H              1 S1                 0.0000
     32 ****         2.6834  -1.8820   2.4991 H              1 S1                 0.0000
     33 ****         0.1925  -0.1964   3.1554 H              1 S1                 0.0000
     34 ****         1.1722  -1.0891   4.3033 H              1 S1                 0.0000
     35 ****         1.1579   1.7569   2.0807 H              1 S1                 0.0000
     36 ****         2.7996   2.2103   2.4976 H              1 S1                 0.0000
     37 ****         3.7115   0.1915   1.3800 H              1 S1                 0.0000
     38 ****         2.7191   1.1003   0.2558 H              1 S1                 0.0000
     39 ****         0.9045  -0.3580   0.7560 H              1 S1                 0.0000
     40 ****        -4.0290   3.5290   0.0189 LP             1 S1                 0.0000
     41 ****        -1.8137   2.4011  -0.2891 LP             1 S1                 0.0000
     42 ****        -0.5283   1.9717  -0.5146 LP             1 S1                 0.0000
     43 ****         1.0597   1.2909  -0.6372 LP             1 S1                 0.0000
     44 ****         2.9995   0.2338   3.7180 LP             1 S1                 0.0000
     45 ****         1.7548   1.1434   4.2567 LP             1 S1                 0.0000
@<TRIPOS>BOND
    1    1    2 1     
    2    1   20 1     
    3    1   21 1     
    4    1   22 1     
    5    2   19 1     
    6    2    3 2     
    7    3    4 1     
    8    4    5 2     
    9    5    6 1     
   10    5   19 1     
   11    6    7 am    
   12    6   23 1     
   13    7    8 2     
   14    7    9 am    
   15    9   10 1     
   16    9   24 1     
   17   10   11 1     
   18   10   12 1     
   19   10   25 1     
   20   11   26 1     
   21   11   27 1     
   22   11   28 1     
   23   12   13 1     
   24   12   29 1     
   25   12   30 1     
   26   13   18 1     
   27   13   14 1     
   28   13   39 1     
   29   14   15 1     
   30   14   31 1     
   31   14   32 1     
   32   15   16 1     
   33   15   33 1     
   34   15   34 1     
   35   16   17 1     
   36   17   18 1     
   37   17   35 1     
   38   17   36 1     
   39   18   37 1     
   40   18   38 1     
   41    3   40 1     
   42    4   41 1     
   43    8   42 1     
   44    8   43 1     
   45   16   44 1     
   46   16   45 1     
@<TRIPOS>SUBSTRUCTURE
      1 S1             1
@<TRIPOS>SET
LONE_PAIRS      STATIC     ATOMS    <user>   **** ""
6 40 41 42 43 44 45
DONOR_HYDROGENS      STATIC     ATOMS    <user>   **** ""
3 23 24 39
ATOM$BLUE        STATIC     ATOMS    COLORGROUP SYSTEM
6 40 41 42 43 44 45
ATOM$RED        STATIC     ATOMS    COLORGROUP SYSTEM
3 23 24 39
