AV-unprocessed.smi:487|AV-procd|sdf|2700|dock4
  -GOLD-   2262023133D 1   1.00000     0.00000
 Structure written by MMmdl.
 40 41  0  0  0  0  0  0  0  0  2 V2000
  151.0275  139.9206  158.0180 O   0  0  0  0  0  0  0  0  0  0  0  0
  151.5668  140.6321  157.1707 C   0  0  0  0  0  0  0  0  0  0  0  0
  151.5322  140.1949  155.6958 C   0  0  0  0  0  0  0  0  0  0  0  0
  150.1847  140.1231  155.1010 N   0  0  0  0  0  0  0  0  0  0  0  0
  149.4465  141.3170  155.0191 C   0  0  0  0  0  0  0  0  0  0  0  0
  148.2041  141.3504  154.5007 C   0  0  0  0  0  0  0  0  0  0  0  0
  147.6250  140.1040  154.0155 C   0  0  0  0  0  0  0  0  0  0  0  0
  146.4921  140.1155  153.5381 O   0  0  0  0  0  0  0  0  0  0  0  0
  148.3800  138.9712  154.1185 N   0  5  0  0  0  0  0  0  0  0  0  0
  149.6414  138.9518  154.6501 C   0  0  0  0  0  0  0  0  0  0  0  0
  150.3010  137.9165  154.7442 O   0  0  0  0  0  0  0  0  0  0  0  0
  152.1966  141.7799  157.4758 N   0  0  0  0  0  0  0  0  0  0  0  0
  152.3263  142.3653  158.8075 C   0  0  0  0  0  0  0  0  0  0  0  0
  153.0070  143.7497  158.6976 C   0  0  0  0  0  0  0  0  0  0  0  0
  152.2038  144.9166  159.3041 C   0  0  0  0  0  0  0  0  0  0  0  0
  151.5415  144.6910  160.6795 C   0  0  0  0  0  0  0  0  0  0  0  0
  152.4529  144.1638  161.8016 C   0  0  0  0  0  0  0  0  0  0  0  0
  152.4959  142.6274  161.9527 C   0  0  0  0  0  0  0  0  0  0  0  0
  153.5556  141.9147  161.0946 C   0  0  0  0  0  0  0  0  0  0  0  0
  153.0825  141.3795  159.7271 C   0  0  0  0  0  0  0  0  0  0  0  0
  152.1530  140.8869  155.1255 H   0  0  0  0  0  0  0  0  0  0  0  0
  152.0354  139.2304  155.6093 H   0  0  0  0  0  0  0  0  0  0  0  0
  149.9453  142.1935  155.4057 H   0  0  0  0  0  0  0  0  0  0  0  0
  147.6495  142.2756  154.4476 H   0  0  0  0  0  0  0  0  0  0  0  0
  152.6039  142.3007  156.7120 H   0  0  0  0  0  0  0  0  0  0  0  0
  151.3165  142.4908  159.1957 H   0  0  0  0  0  0  0  0  0  0  0  0
  154.0001  143.7268  159.1430 H   0  0  0  0  0  0  0  0  0  0  0  0
  153.1974  143.9952  157.6514 H   0  0  0  0  0  0  0  0  0  0  0  0
  152.8593  145.7860  159.3645 H   0  0  0  0  0  0  0  0  0  0  0  0
  151.4183  145.1940  158.6001 H   0  0  0  0  0  0  0  0  0  0  0  0
  151.1490  145.6574  160.9977 H   0  0  0  0  0  0  0  0  0  0  0  0
  150.6583  144.0590  160.5884 H   0  0  0  0  0  0  0  0  0  0  0  0
  153.4560  144.5842  161.7202 H   0  0  0  0  0  0  0  0  0  0  0  0
  152.0552  144.5575  162.7378 H   0  0  0  0  0  0  0  0  0  0  0  0
  152.7475  142.4238  162.9943 H   0  0  0  0  0  0  0  0  0  0  0  0
  151.5101  142.1842  161.8069 H   0  0  0  0  0  0  0  0  0  0  0  0
  154.4319  142.5522  160.9794 H   0  0  0  0  0  0  0  0  0  0  0  0
  153.9189  141.0548  161.6585 H   0  0  0  0  0  0  0  0  0  0  0  0
  152.4465  140.5099  159.8973 H   0  0  0  0  0  0  0  0  0  0  0  0
  153.9596  141.0002  159.2006 H   0  0  0  0  0  0  0  0  0  0  0  0
  1  2  2  0  0  0  0
  2  3  1  0  0  0  0
  2 12  1  0  0  0  0
  3  4  1  0  0  0  0
  3 21  1  0  0  0  0
  3 22  1  0  0  0  0
  4 10  1  0  0  0  0
  4  5  1  0  0  0  0
  5  6  2  0  0  0  0
  5 23  1  0  0  0  0
  6  7  1  0  0  0  0
  6 24  1  0  0  0  0
  7  8  2  0  0  0  0
  7  9  1  0  0  0  0
  9 10  1  0  0  0  0
 10 11  2  0  0  0  0
 12 13  1  0  0  0  0
 12 25  1  0  0  0  0
 13 20  1  0  0  0  0
 13 14  1  0  0  0  0
 13 26  1  0  0  0  0
 14 15  1  0  0  0  0
 14 27  1  0  0  0  0
 14 28  1  0  0  0  0
 15 16  1  0  0  0  0
 15 29  1  0  0  0  0
 15 30  1  0  0  0  0
 16 17  1  0  0  0  0
 16 31  1  0  0  0  0
 16 32  1  0  0  0  0
 17 18  1  0  0  0  0
 17 33  1  0  0  0  0
 17 34  1  0  0  0  0
 18 19  1  0  0  0  0
 18 35  1  0  0  0  0
 18 36  1  0  0  0  0
 19 20  1  0  0  0  0
 19 37  1  0  0  0  0
 19 38  1  0  0  0  0
 20 39  1  0  0  0  0
 20 40  1  0  0  0  0
M  CHG  1   9  -1
M  END
> <s_m_source_file>
AV-unprocessed.smi

> <i_m_source_file_index>
487

> <i_lp_mmshare_version>
43012

> <i_f3d_flags>
0

> <s_epik_input>
Tz1jMVtuSF1jKD1PKVtjSF1bY0hdbjFbQ0gyXUMoPU8pW05IXVtDSF0yW0NIMl1bQ0gyXVtDSDJdW0NIMl1bQ0gyXVtDSDJdW0NIMl0y

> <s_epik_cmdline>
J2VwaWtfcHl0aG9uJywgJy1waCcsICc3LjAnLCAnLXRuJywgJzgnLCAnLW1hJywgJzIwMCcsICctbWV0YWxfYmluZGluZycsICctaW1hZScsICc8aW5maWxlLm1hZT4nLCAnLW9tYWUnLCAnPG91dGZpbGUubWFlPic=

> <r_lp_tautomer_probability>
0.999537

> <r_epik_Ionization_Penalty>
3.09244

> <r_epik_Ionization_Penalty_Charging>
2.84692e-08

> <r_epik_Ionization_Penalty_Neutral>
3.09244

> <r_epik_State_Penalty>
3.09149

> <r_epik_Charging_Adjusted_Penalty>
3.09149

> <i_epik_Tot_Q>
-1

> <i_epik_Tot_abs_Q>
1

> <r_epik_Metal_State_Penalty>
0.461034

> <b_epik_Metal_Only>
1

> <s_lp_Force_Field>
OPLS_2005

> <r_lp_Energy>
30.2877

> <b_lp_Chiralities_Consistent>
1

> <s_lp_Variant>
AV-unprocessed.smi:487-2

> <Gold.Version>
5.8.1

> <Gold.Id.Protein>
6NUR|6NUR_protein|mol2

> <Gold.PLP.Fitness>
44.1568

> <Gold.PLP.PLP>
-41.5893

> <Gold.PLP.part.hbond>
0.0000

> <Gold.PLP.part.metal>
0.0000

> <Gold.PLP.part.buried>
1.8938

> <Gold.PLP.part.nonpolar>
-43.9608

> <Gold.PLP.part.repulsive>
1.5602

> <Gold.PLP.ligand.clash>
0.0000

> <Gold.PLP.ligand.torsion>
0.0338

> <Gold.PLP.Chemscore.Hbond>
0.0000

> <Gold.PLP.Chemscore.CHOScore>
0.8741

> <Gold.PLP.Chemscore.Metal>
0.0000

> <Gold.Chemscore.Hbonds>
donor molecule, donor type, donor heavy atom, donor atom, acceptor molecule, acceptor atom, score
      L1  C     5    23       P1  8028  0.43

> <Gold.PLP.Chemscore.Internal.Correction>
0.0127

> <Gold.Rescore>
     Score         DG    S(hbond)    S(metal)    S(lipo)     H(rot)  DE(clash)    DE(int)     intcor
     12.29     -13.58       0.00        0.00     105.19       1.64       0.06       1.23       ----

> <Gold.Chemscore.Fitness>
12.2904

> <Gold.Chemscore.DG>
-13.5793

> <Gold.Chemscore.ZeroCoef>
-5.4800

> <Gold.Chemscore.Hbond>
0.0000

> <Gold.Chemscore.Metal>
0.0000

> <Gold.Chemscore.Lipo>
105.1910

> <Gold.Chemscore.Internal_Hbond>
0.0000

> <Gold.Chemscore.DEClash>
0.0633

> <Gold.Chemscore.DEInternal>
1.2256

> <Gold.Chemscore.Rot>
1.6438

> <Gold.Chemscore.Internal.Correction>
   9.000000E+99

> <Gold.Chemscore.Hbond.Weighted>
-0.0000

> <Gold.Chemscore.Metal.Weighted>
-0.0000

> <Gold.Chemscore.Lipo.Weighted>
-12.3073

> <Gold.Chemscore.Internal_Hbond.Weighted>
0.0000

> <Gold.Chemscore.DEClash.Weighted>
0.0633

> <Gold.Chemscore.DEInternal.Weighted>
1.2256

> <Gold.Chemscore.Rot.Weighted>
4.2080

> <Gold.Chemscore.Internal.Correction.Weighted>
   9.000000E+99

> <Gold.Protein.RotatedTorsions>
[ 6907 6896 6895 6894 ] final -130.80 input  -60.11 | X-H torsion
[ 7974 7965 7964 7962 ] final  -51.97 input  175.53 | X-H torsion
[ 8008 7997 7996 7995 ] final   51.54 input   59.86 | X-H torsion
[ 10167 10162 10161 10158 ] final  126.09 input  -65.29 | X-H torsion
[ 10718 10713 10712 10709 ] final  -49.20 input   66.30 | X-H torsion
[ 10763 10752 10751 10750 ] final   44.39 input  -60.55 | X-H torsion
[ 11005 11000 10999 10996 ] final -105.91 input  -57.11 | X-H torsion

> <Gold.Protein.ActiveResidues>
 VAL166  LYS551  ARG553  GLY616  TRP617  ASP618  TYR619  PRO620  LYS621  CYS622 
 ASP623  PHE694  ASN695  SER759  ASP760  ASP761  ALA762  ILE779  LEU786  VAL792 
 PHE793  MET794  SER795  GLU796  ALA797  LYS798  CYS799  TRP800  GLU811  SER814 

> <Gold.Protein.RotatedAtoms>
  150.9437  133.6627  159.2785 H   0  0  0  0  0  0  0  0  0  0  0  0  # atno 6907 bound_to 6896
  151.4007  135.0969  159.9564 H   0  0  0  0  0  0  0  0  0  0  0  0  # atno 6908 bound_to 6896
  152.5080  133.8932  159.7459 H   0  0  0  0  0  0  0  0  0  0  0  0  # atno 6909 bound_to 6896
  145.9131  140.7898  142.9685 H   0  0  0  0  0  0  0  0  0  0  0  0  # atno 7974 bound_to 7965
  155.4370  140.3453  155.4286 H   0  0  0  0  0  0  0  0  0  0  0  0  # atno 8008 bound_to 7997
  156.1302  140.1512  156.9108 H   0  0  0  0  0  0  0  0  0  0  0  0  # atno 8009 bound_to 7997
  154.4888  140.0847  156.7528 H   0  0  0  0  0  0  0  0  0  0  0  0  # atno 8010 bound_to 7997
  139.5650  144.6905  151.3936 H   0  0  0  0  0  0  0  0  0  0  0  0  # atno 10167 bound_to 10162
  156.1915  130.4153  149.9365 H   0  0  0  0  0  0  0  0  0  0  0  0  # atno 10718 bound_to 10713
  152.9842  135.6072  154.3267 H   0  0  0  0  0  0  0  0  0  0  0  0  # atno 10763 bound_to 10752
  154.2973  135.2773  155.2629 H   0  0  0  0  0  0  0  0  0  0  0  0  # atno 10764 bound_to 10752
  154.4897  135.5895  153.6506 H   0  0  0  0  0  0  0  0  0  0  0  0  # atno 10765 bound_to 10752
  141.1031  133.8848  157.1791 H   0  0  0  0  0  0  0  0  0  0  0  0  # atno 11005 bound_to 11000
  144.6745  140.1856  143.7401 LP  0  0  0  0  0  0  0  0  0  0  0  0  # atno 17320 bound_to 7965
  145.8646  139.2240  143.1696 LP  0  0  0  0  0  0  0  0  0  0  0  0  # atno 17321 bound_to 7965
  140.6933  143.7810  150.7288 LP  0  0  0  0  0  0  0  0  0  0  0  0  # atno 17342 bound_to 10162
  140.1299  143.4536  152.2261 LP  0  0  0  0  0  0  0  0  0  0  0  0  # atno 17343 bound_to 10162
  156.7103  130.8967  151.3609 LP  0  0  0  0  0  0  0  0  0  0  0  0  # atno 17370 bound_to 10713
  157.6932  130.9255  150.0571 LP  0  0  0  0  0  0  0  0  0  0  0  0  # atno 17371 bound_to 10713
  139.9889  135.0072  156.9929 LP  0  0  0  0  0  0  0  0  0  0  0  0  # atno 17394 bound_to 11000
  140.4972  134.1133  155.7243 LP  0  0  0  0  0  0  0  0  0  0  0  0  # atno 17395 bound_to 11000

$$$$
