AV-unprocessed.smi:920|AV-procd|sdf|4168|dock7
  -GOLD-   22720 2 73D 1   1.00000     0.00000
 Structure written by MMmdl.
 37 38  0  0  0  0  0  0  0  0  1 V2000
  146.4601  138.7688  151.0168 C   0  0  0  0  0  0  0  0  0  0  0  0
  146.8836  138.3538  152.3110 O   0  0  0  0  0  0  0  0  0  0  0  0
  147.4926  139.2827  153.1296 C   0  0  0  0  0  0  0  0  0  0  0  0
  148.4508  138.8357  154.0610 C   0  0  0  0  0  0  0  0  0  0  0  0
  149.0755  139.7771  154.9014 C   0  0  0  0  0  0  0  0  0  0  0  0
  148.7130  141.1403  154.7888 C   0  0  0  0  0  0  0  0  0  0  0  0
  149.2853  142.1852  155.5631 N   0  0  0  0  0  0  0  0  0  0  0  0
  150.2533  142.1019  156.4916 C   0  0  0  0  0  0  0  0  0  0  0  0
  150.7917  141.0592  156.8632 O   0  0  0  0  0  0  0  0  0  0  0  0
  150.5501  143.3122  156.9868 N   0  0  0  0  0  0  0  0  0  0  0  0
  151.5426  143.5961  158.0202 C   0  0  0  0  0  0  0  0  0  0  0  0
  151.5008  142.4973  159.0996 C   0  0  0  0  0  0  0  0  0  0  0  0
  152.4660  142.8059  160.2559 C   0  0  0  0  0  0  0  0  0  0  0  0
  152.1849  144.1889  160.8641 C   0  0  0  0  0  0  0  0  0  0  0  0
  152.2374  145.2866  159.7900 C   0  0  0  0  0  0  0  0  0  0  0  0
  151.2702  144.9827  158.6343 C   0  0  0  0  0  0  0  0  0  0  0  0
  147.7539  141.4864  153.8148 C   0  0  0  0  0  0  0  0  0  0  0  0
  147.1519  140.5893  153.0061 N   0  0  0  0  0  0  0  0  0  0  0  0
  145.9984  137.9269  150.5011 H   0  0  0  0  0  0  0  0  0  0  0  0
  147.3029  139.1059  150.4115 H   0  0  0  0  0  0  0  0  0  0  0  0
  145.7192  139.5672  151.0751 H   0  0  0  0  0  0  0  0  0  0  0  0
  148.7067  137.7885  154.1268 H   0  0  0  0  0  0  0  0  0  0  0  0
  149.8251  139.4387  155.5998 H   0  0  0  0  0  0  0  0  0  0  0  0
  148.8735  143.0973  155.4307 H   0  0  0  0  0  0  0  0  0  0  0  0
  150.0465  144.1062  156.6194 H   0  0  0  0  0  0  0  0  0  0  0  0
  152.5455  143.6110  157.5896 H   0  0  0  0  0  0  0  0  0  0  0  0
  150.4874  142.4029  159.4929 H   0  0  0  0  0  0  0  0  0  0  0  0
  151.7527  141.5318  158.6593 H   0  0  0  0  0  0  0  0  0  0  0  0
  152.3827  142.0375  161.0251 H   0  0  0  0  0  0  0  0  0  0  0  0
  153.4938  142.7692  159.8925 H   0  0  0  0  0  0  0  0  0  0  0  0
  151.2028  144.1878  161.3389 H   0  0  0  0  0  0  0  0  0  0  0  0
  152.9086  144.4035  161.6510 H   0  0  0  0  0  0  0  0  0  0  0  0
  151.9954  146.2528  160.2332 H   0  0  0  0  0  0  0  0  0  0  0  0
  153.2538  145.3703  159.4029 H   0  0  0  0  0  0  0  0  0  0  0  0
  151.3602  145.7541  157.8684 H   0  0  0  0  0  0  0  0  0  0  0  0
  150.2440  145.0302  159.0020 H   0  0  0  0  0  0  0  0  0  0  0  0
  147.4549  142.5159  153.6815 H   0  0  0  0  0  0  0  0  0  0  0  0
  1  2  1  0  0  0  0
  1 19  1  0  0  0  0
  1 20  1  0  0  0  0
  1 21  1  0  0  0  0
  2  3  1  0  0  0  0
  3 18  1  0  0  0  0
  3  4  2  0  0  0  0
  4  5  1  0  0  0  0
  4 22  1  0  0  0  0
  5  6  2  0  0  0  0
  5 23  1  0  0  0  0
  6  7  1  0  0  0  0
  6 17  1  0  0  0  0
  7  8  1  0  0  0  0
  7 24  1  0  0  0  0
  8  9  2  0  0  0  0
  8 10  1  0  0  0  0
 10 11  1  0  0  0  0
 10 25  1  0  0  0  0
 11 16  1  0  0  0  0
 11 12  1  0  0  0  0
 11 26  1  0  0  0  0
 12 13  1  0  0  0  0
 12 27  1  0  0  0  0
 12 28  1  0  0  0  0
 13 14  1  0  0  0  0
 13 29  1  0  0  0  0
 13 30  1  0  0  0  0
 14 15  1  0  0  0  0
 14 31  1  0  0  0  0
 14 32  1  0  0  0  0
 15 16  1  0  0  0  0
 15 33  1  0  0  0  0
 15 34  1  0  0  0  0
 16 35  1  0  0  0  0
 16 36  1  0  0  0  0
 17 18  2  0  0  0  0
 17 37  1  0  0  0  0
M  END
> <s_m_source_file>
AV-unprocessed.smi

> <i_m_source_file_index>
920

> <i_lp_mmshare_version>
43012

> <i_f3d_flags>
0

> <s_epik_input>
W0NIM11PYzFbY0hdW2NIXWMoW2NIXW4xKVtOSF1DKD1PKVtOSF1bQ0hdMltDSDJdW0NIMl1bQ0gyXVtDSDJdW0NIMl0y

> <s_epik_cmdline>
J2VwaWtfcHl0aG9uJywgJy1waCcsICc3LjAnLCAnLXRuJywgJzgnLCAnLW1hJywgJzIwMCcsICctbWV0YWxfYmluZGluZycsICctaW1hZScsICc8aW5maWxlLm1hZT4nLCAnLW9tYWUnLCAnPG91dGZpbGUubWFlPic=

> <r_lp_tautomer_probability>
1

> <r_epik_Ionization_Penalty>
9.99378e-05

> <r_epik_Ionization_Penalty_Charging>
0

> <r_epik_Ionization_Penalty_Neutral>
9.99378e-05

> <r_epik_State_Penalty>
-0

> <r_epik_Charging_Adjusted_Penalty>
0

> <i_epik_Tot_Q>
0

> <i_epik_Tot_abs_Q>
0

> <r_epik_Metal_State_Penalty>
-0

> <b_epik_Metal_Only>
0

> <s_lp_Force_Field>
OPLS_2005

> <r_lp_Energy>
12.0005

> <b_lp_Chiralities_Consistent>
1

> <s_lp_Variant>
AV-unprocessed.smi:920-1

> <Gold.Version>
5.8.1

> <Gold.Id.Protein>
6NUR|6NUR_protein|mol2

> <Gold.PLP.Fitness>
41.2480

> <Gold.PLP.PLP>
-36.5472

> <Gold.PLP.part.hbond>
-2.0000

> <Gold.PLP.part.metal>
0.0000

> <Gold.PLP.part.buried>
-1.7532

> <Gold.PLP.part.nonpolar>
-34.3932

> <Gold.PLP.part.repulsive>
1.3099

> <Gold.PLP.ligand.clash>
0.0000

> <Gold.PLP.ligand.torsion>
0.6512

> <Gold.PLP.Chemscore.Hbond>
2.0000

> <Gold.PLP.Chemscore.CHOScore>
0.0000

> <Gold.PLP.Chemscore.Metal>
0.0000

> <Gold.Chemscore.Hbonds>
donor molecule, donor type, donor heavy atom, donor atom, acceptor molecule, acceptor atom, score
      L1  H     7    24       P1  8028  1.00
      L1  H    10    25       P1  8028  1.00

> <Gold.PLP.Chemscore.Internal.Correction>
0.0031

> <Gold.Rescore>
     Score         DG    S(hbond)    S(metal)    S(lipo)     H(rot)  DE(clash)    DE(int)     intcor
     15.68     -21.28       1.93        0.00     106.70       1.23       2.37       3.24       ----

> <Gold.Chemscore.Fitness>
15.6760

> <Gold.Chemscore.DG>
-21.2843

> <Gold.Chemscore.ZeroCoef>
-5.4800

> <Gold.Chemscore.Hbond>
1.9330

> <Gold.Chemscore.Metal>
0.0000

> <Gold.Chemscore.Lipo>
106.7024

> <Gold.Chemscore.Internal_Hbond>
0.0000

> <Gold.Chemscore.DEClash>
2.3729

> <Gold.Chemscore.DEInternal>
3.2353

> <Gold.Chemscore.Rot>
1.2250

> <Gold.Chemscore.Internal.Correction>
   9.000000E+99

> <Gold.Chemscore.Hbonds>
donor molecule, donor type, donor heavy atom, donor atom, acceptor molecule, acceptor atom, score
      L1  H     7    24       P1  8028  0.96
      L1  H    10    25       P1  8028  0.95

> <Gold.Chemscore.Hbond.Weighted>
-6.4561

> <Gold.Chemscore.Metal.Weighted>
-0.0000

> <Gold.Chemscore.Lipo.Weighted>
-12.4842

> <Gold.Chemscore.Internal_Hbond.Weighted>
0.0000

> <Gold.Chemscore.DEClash.Weighted>
2.3729

> <Gold.Chemscore.DEInternal.Weighted>
3.2353

> <Gold.Chemscore.Rot.Weighted>
3.1360

> <Gold.Chemscore.Internal.Correction.Weighted>
   9.000000E+99

> <Gold.Protein.RotatedTorsions>
[ 6907 6896 6895 6894 ] final   -3.93 input  -60.11 | X-H torsion
[ 7974 7965 7964 7962 ] final  -46.24 input  175.53 | X-H torsion
[ 8008 7997 7996 7995 ] final   90.35 input   59.86 | X-H torsion
[ 10167 10162 10161 10158 ] final  141.34 input  -65.29 | X-H torsion
[ 10718 10713 10712 10709 ] final  137.44 input   66.30 | X-H torsion
[ 10763 10752 10751 10750 ] final -134.75 input  -60.55 | X-H torsion
[ 11005 11000 10999 10996 ] final   90.79 input  -57.11 | X-H torsion

> <Gold.Protein.ActiveResidues>
 VAL166  LYS551  ARG553  GLY616  TRP617  ASP618  TYR619  PRO620  LYS621  CYS622 
 ASP623  PHE694  ASN695  SER759  ASP760  ASP761  ALA762  ILE779  LEU786  VAL792 
 PHE793  MET794  SER795  GLU796  ALA797  LYS798  CYS799  TRP800  GLU811  SER814 

> <Gold.Protein.RotatedAtoms>
  151.5058  135.1063  159.9840 H   0  0  0  0  0  0  0  0  0  0  0  0  # atno 6907 bound_to 6896
  152.4682  133.7967  159.6941 H   0  0  0  0  0  0  0  0  0  0  0  0  # atno 6908 bound_to 6896
  150.8677  133.7487  159.2997 H   0  0  0  0  0  0  0  0  0  0  0  0  # atno 6909 bound_to 6896
  145.9739  140.7354  142.9396 H   0  0  0  0  0  0  0  0  0  0  0  0  # atno 7974 bound_to 7965
  156.0109  140.3350  155.6940 H   0  0  0  0  0  0  0  0  0  0  0  0  # atno 8008 bound_to 7997
  155.6159  140.0670  157.2710 H   0  0  0  0  0  0  0  0  0  0  0  0  # atno 8009 bound_to 7997
  154.4281  140.1785  156.1308 H   0  0  0  0  0  0  0  0  0  0  0  0  # atno 8010 bound_to 7997
  139.5023  144.6178  151.6124 H   0  0  0  0  0  0  0  0  0  0  0  0  # atno 10167 bound_to 10162
  157.4361  131.1053  151.0196 H   0  0  0  0  0  0  0  0  0  0  0  0  # atno 10718 bound_to 10713
  154.8714  135.3725  154.4786 H   0  0  0  0  0  0  0  0  0  0  0  0  # atno 10763 bound_to 10752
  153.5442  135.7026  153.5627 H   0  0  0  0  0  0  0  0  0  0  0  0  # atno 10764 bound_to 10752
  153.3775  135.4005  155.1798 H   0  0  0  0  0  0  0  0  0  0  0  0  # atno 10765 bound_to 10752
  139.8850  134.8635  156.3334 H   0  0  0  0  0  0  0  0  0  0  0  0  # atno 11005 bound_to 11000
  144.6844  140.2795  143.7294 LP  0  0  0  0  0  0  0  0  0  0  0  0  # atno 17320 bound_to 7965
  145.7866  139.1911  143.2127 LP  0  0  0  0  0  0  0  0  0  0  0  0  # atno 17321 bound_to 7965
  140.5871  143.9845  150.6302 LP  0  0  0  0  0  0  0  0  0  0  0  0  # atno 17342 bound_to 10162
  140.3014  143.3258  152.0968 LP  0  0  0  0  0  0  0  0  0  0  0  0  # atno 17343 bound_to 10162
  157.1076  130.6008  149.5474 LP  0  0  0  0  0  0  0  0  0  0  0  0  # atno 17370 bound_to 10713
  155.9931  130.4991  150.7366 LP  0  0  0  0  0  0  0  0  0  0  0  0  # atno 17371 bound_to 10713
  140.9707  133.7329  156.0531 LP  0  0  0  0  0  0  0  0  0  0  0  0  # atno 17394 bound_to 11000
  140.7874  134.3656  157.5473 LP  0  0  0  0  0  0  0  0  0  0  0  0  # atno 17395 bound_to 11000

$$$$
