AV-unprocessed.smi:1401|AV-procd|sdf|5691|dock5
  -GOLD-   22720 5323D 1   1.00000     0.00000
 Structure written by MMmdl.
 48 50  0  0  0  0  0  0  0  0  1 V2000
  155.0510  140.3776  162.4053 C   0  0  0  0  0  0  0  0  0  0  0  0
  154.7847  139.0624  161.7240 C   0  0  0  0  0  0  0  0  0  0  0  0
  153.8125  139.0352  160.8726 N   0  0  0  0  0  0  0  0  0  0  0  0
  153.4811  137.8770  160.1964 N   0  0  0  0  0  0  0  0  0  0  0  0
  152.3369  138.0184  159.2844 C   0  0  0  0  0  0  0  0  0  0  0  0
  152.3954  139.3061  158.4511 C   0  0  0  0  0  0  0  0  0  0  0  0
  153.3964  139.5755  157.7860 O   0  0  0  0  0  0  0  0  0  0  0  0
  151.3018  140.0822  158.4892 N   0  0  0  0  0  0  0  0  0  0  0  0
  151.1424  141.3665  157.8094 C   0  0  1  0  0  0  0  0  0  0  0  0
  149.8293  141.3413  157.0078 C   0  0  0  0  0  0  0  0  0  0  0  0
  151.1922  142.5101  158.8527 C   0  0  1  0  0  0  0  0  0  0  0  0
  152.6062  142.7600  159.4376 C   0  0  0  0  0  0  0  0  0  0  0  0
  152.8253  144.2655  159.2092 C   0  0  2  0  0  0  0  0  0  0  0  0
  151.8880  145.0696  160.1284 C   0  0  0  0  0  0  0  0  0  0  0  0
  150.5086  144.8483  159.4804 C   0  0  0  0  0  0  0  0  0  0  0  0
  150.8330  143.9127  158.2995 C   0  0  1  0  0  0  0  0  0  0  0  0
  152.1815  144.4615  157.8436 C   0  0  0  0  0  0  0  0  0  0  0  0
  154.1274  136.6834  160.3368 C   0  0  0  0  0  0  0  0  0  0  0  0
  153.8034  135.6762  159.7050 O   0  0  0  0  0  0  0  0  0  0  0  0
  155.2273  136.7219  161.3028 C   0  0  0  0  0  0  0  0  0  0  0  0
  155.9259  135.4907  161.4851 C   0  0  0  0  0  0  0  0  0  0  0  0
  156.4956  134.4909  161.6122 N   0  0  0  0  0  0  0  0  0  0  0  0
  155.5574  137.8507  161.9787 C   0  0  0  0  0  0  0  0  0  0  0  0
  156.6897  137.9428  162.9923 C   0  0  0  0  0  0  0  0  0  0  0  0
  156.0662  140.7192  162.2038 H   0  0  0  0  0  0  0  0  0  0  0  0
  154.9327  140.2838  163.4848 H   0  0  0  0  0  0  0  0  0  0  0  0
  154.3683  141.1581  162.0664 H   0  0  0  0  0  0  0  0  0  0  0  0
  152.2913  137.1730  158.5953 H   0  0  0  0  0  0  0  0  0  0  0  0
  151.4052  137.9831  159.8526 H   0  0  0  0  0  0  0  0  0  0  0  0
  150.5264  139.7737  159.0576 H   0  0  0  0  0  0  0  0  0  0  0  0
  151.9670  141.5084  157.1087 H   0  0  0  0  0  0  0  0  0  0  0  0
  149.6990  142.2444  156.4131 H   0  0  0  0  0  0  0  0  0  0  0  0
  148.9645  141.2475  157.6653 H   0  0  0  0  0  0  0  0  0  0  0  0
  149.8106  140.4995  156.3146 H   0  0  0  0  0  0  0  0  0  0  0  0
  150.5072  142.2536  159.6627 H   0  0  0  0  0  0  0  0  0  0  0  0
  152.6738  142.4849  160.4906 H   0  0  0  0  0  0  0  0  0  0  0  0
  153.3700  142.1945  158.9013 H   0  0  0  0  0  0  0  0  0  0  0  0
  153.8705  144.5691  159.2741 H   0  0  0  0  0  0  0  0  0  0  0  0
  151.9242  144.7205  161.1610 H   0  0  0  0  0  0  0  0  0  0  0  0
  152.1490  146.1286  160.1225 H   0  0  0  0  0  0  0  0  0  0  0  0
  149.7856  144.4149  160.1724 H   0  0  0  0  0  0  0  0  0  0  0  0
  150.0997  145.7940  159.1223 H   0  0  0  0  0  0  0  0  0  0  0  0
  150.0586  143.9185  157.5336 H   0  0  0  0  0  0  0  0  0  0  0  0
  152.1407  145.5066  157.5312 H   0  0  0  0  0  0  0  0  0  0  0  0
  152.6507  143.8720  157.0543 H   0  0  0  0  0  0  0  0  0  0  0  0
  157.2068  136.9924  163.1223 H   0  0  0  0  0  0  0  0  0  0  0  0
  156.3063  138.2422  163.9682 H   0  0  0  0  0  0  0  0  0  0  0  0
  157.4301  138.6769  162.6731 H   0  0  0  0  0  0  0  0  0  0  0  0
  1  2  1  0  0  0  0
  1 25  1  0  0  0  0
  1 26  1  0  0  0  0
  1 27  1  0  0  0  0
  2 23  1  0  0  0  0
  2  3  2  0  0  0  0
  3  4  1  0  0  0  0
  4  5  1  0  0  0  0
  4 18  1  0  0  0  0
  5  6  1  0  0  0  0
  5 28  1  0  0  0  0
  5 29  1  0  0  0  0
  6  7  2  0  0  0  0
  6  8  1  0  0  0  0
  8  9  1  0  0  0  0
  8 30  1  0  0  0  0
  9 10  1  0  0  0  0
  9 11  1  0  0  0  0
  9 31  1  0  0  0  0
 10 32  1  0  0  0  0
 10 33  1  0  0  0  0
 10 34  1  0  0  0  0
 11 16  1  0  0  0  0
 11 12  1  0  0  0  0
 11 35  1  0  0  0  0
 12 13  1  0  0  0  0
 12 36  1  0  0  0  0
 12 37  1  0  0  0  0
 13 17  1  0  0  0  0
 13 14  1  0  0  0  0
 13 38  1  0  0  0  0
 14 15  1  0  0  0  0
 14 39  1  0  0  0  0
 14 40  1  0  0  0  0
 15 16  1  0  0  0  0
 15 41  1  0  0  0  0
 15 42  1  0  0  0  0
 16 17  1  0  0  0  0
 16 43  1  0  0  0  0
 17 44  1  0  0  0  0
 17 45  1  0  0  0  0
 18 19  2  0  0  0  0
 18 20  1  0  0  0  0
 20 21  1  0  0  0  0
 20 23  2  0  0  0  0
 21 22  3  0  0  0  0
 23 24  1  0  0  0  0
 24 46  1  0  0  0  0
 24 47  1  0  0  0  0
 24 48  1  0  0  0  0
M  END
> <s_m_source_file>
AV-unprocessed.smi

> <i_m_source_file_index>
1401

> <i_lp_mmshare_version>
43012

> <i_f3d_flags>
0

> <s_epik_input>
TiNDYyhjMVtDSDNdKWMoPU8pbihuYzFbQ0gzXSlbQ0gyXUMoPU8pW05IXVtDQEhdKFtDSDNdKVtDQEhdKFtDSDJdW0NASF0yMylbQ0BIXShbQ0gyXTMpW0NIMl1bQ0gyXTI=

> <s_epik_cmdline>
J2VwaWtfcHl0aG9uJywgJy1waCcsICc3LjAnLCAnLXRuJywgJzgnLCAnLW1hJywgJzIwMCcsICctbWV0YWxfYmluZGluZycsICctaW1hZScsICc8aW5maWxlLm1hZT4nLCAnLW9tYWUnLCAnPG91dGZpbGUubWFlPic=

> <r_lp_tautomer_probability>
1

> <r_epik_Ionization_Penalty>
2.16501e-08

> <r_epik_Ionization_Penalty_Charging>
2.29436e-11

> <r_epik_Ionization_Penalty_Neutral>
2.16271e-08

> <r_epik_State_Penalty>
-0

> <r_epik_Charging_Adjusted_Penalty>
2.29436e-11

> <i_epik_Tot_Q>
0

> <i_epik_Tot_abs_Q>
0

> <r_epik_Metal_State_Penalty>
-0

> <b_epik_Metal_Only>
0

> <s_lp_Force_Field>
OPLS_2005

> <r_lp_Energy>
65.5995

> <b_lp_Chiralities_Consistent>
1

> <s_lp_Variant>
AV-unprocessed.smi:1401-4

> <Gold.Version>
5.8.1

> <Gold.Id.Protein>
6NUR|6NUR_protein|mol2

> <Gold.PLP.Fitness>
46.7681

> <Gold.PLP.PLP>
-41.7191

> <Gold.PLP.part.hbond>
-2.0000

> <Gold.PLP.part.metal>
0.0000

> <Gold.PLP.part.buried>
-4.1206

> <Gold.PLP.part.nonpolar>
-35.4504

> <Gold.PLP.part.repulsive>
0.1520

> <Gold.PLP.ligand.clash>
0.0000

> <Gold.PLP.ligand.torsion>
0.4867

> <Gold.PLP.Chemscore.Hbond>
2.0000

> <Gold.PLP.Chemscore.CHOScore>
0.0000

> <Gold.PLP.Chemscore.Metal>
0.0000

> <Gold.Chemscore.Hbonds>
donor molecule, donor type, donor heavy atom, donor atom, acceptor molecule, acceptor atom, score
      P1  H  6896  6908       L1    19  1.00
      P1  H  7997  8010       L1     7  0.91

> <Gold.PLP.Chemscore.Internal.Correction>
0.0224

> <Gold.Rescore>
     Score         DG    S(hbond)    S(metal)    S(lipo)     H(rot)  DE(clash)    DE(int)     intcor
     21.79     -22.40       1.97        0.00     123.92       1.63       0.07       0.53       ----

> <Gold.Chemscore.Fitness>
21.7938

> <Gold.Chemscore.DG>
-22.3952

> <Gold.Chemscore.ZeroCoef>
-5.4800

> <Gold.Chemscore.Hbond>
1.9713

> <Gold.Chemscore.Metal>
0.0000

> <Gold.Chemscore.Lipo>
123.9228

> <Gold.Chemscore.Internal_Hbond>
0.0000

> <Gold.Chemscore.DEClash>
0.0718

> <Gold.Chemscore.DEInternal>
0.5296

> <Gold.Chemscore.Rot>
1.6281

> <Gold.Chemscore.Internal.Correction>
   9.000000E+99

> <Gold.Chemscore.Hbonds>
donor molecule, donor type, donor heavy atom, donor atom, acceptor molecule, acceptor atom, score
      P1  H  6896  6908       L1    19  1.00
      P1  H  7997  8010       L1     7  0.87

> <Gold.Chemscore.Hbond.Weighted>
-6.5840

> <Gold.Chemscore.Metal.Weighted>
-0.0000

> <Gold.Chemscore.Lipo.Weighted>
-14.4990

> <Gold.Chemscore.Internal_Hbond.Weighted>
0.0000

> <Gold.Chemscore.DEClash.Weighted>
0.0718

> <Gold.Chemscore.DEInternal.Weighted>
0.5296

> <Gold.Chemscore.Rot.Weighted>
4.1678

> <Gold.Chemscore.Internal.Correction.Weighted>
   9.000000E+99

> <Gold.Protein.RotatedTorsions>
[ 6907 6896 6895 6894 ] final  -51.39 input  -60.11 | X-H torsion
[ 7974 7965 7964 7962 ] final  -29.63 input  175.53 | X-H torsion
[ 8008 7997 7996 7995 ] final   46.11 input   59.86 | X-H torsion
[ 10167 10162 10161 10158 ] final  152.40 input  -65.29 | X-H torsion
[ 10718 10713 10712 10709 ] final  -11.47 input   66.30 | X-H torsion
[ 10763 10752 10751 10750 ] final   71.87 input  -60.55 | X-H torsion
[ 11005 11000 10999 10996 ] final  -19.62 input  -57.11 | X-H torsion

> <Gold.Protein.ActiveResidues>
 VAL166  LYS551  ARG553  GLY616  TRP617  ASP618  TYR619  PRO620  LYS621  CYS622 
 ASP623  PHE694  ASN695  SER759  ASP760  ASP761  ALA762  ILE779  LEU786  VAL792 
 PHE793  MET794  SER795  GLU796  ALA797  LYS798  CYS799  TRP800  GLU811  SER814 

> <Gold.Protein.RotatedAtoms>
  150.8616  134.7969  159.7086 H   0  0  0  0  0  0  0  0  0  0  0  0  # atno 6907 bound_to 6896
  152.4651  134.5091  159.9758 H   0  0  0  0  0  0  0  0  0  0  0  0  # atno 6908 bound_to 6896
  151.5194  133.3431  159.2934 H   0  0  0  0  0  0  0  0  0  0  0  0  # atno 6909 bound_to 6896
  146.1202  140.5437  142.8738 H   0  0  0  0  0  0  0  0  0  0  0  0  # atno 7974 bound_to 7965
  155.3470  140.3411  155.4239 H   0  0  0  0  0  0  0  0  0  0  0  0  # atno 8008 bound_to 7997
  156.1784  140.1655  156.8356 H   0  0  0  0  0  0  0  0  0  0  0  0  # atno 8009 bound_to 7997
  154.5306  140.0746  156.8321 H   0  0  0  0  0  0  0  0  0  0  0  0  # atno 8010 bound_to 7997
  139.4833  144.5361  151.7643 H   0  0  0  0  0  0  0  0  0  0  0  0  # atno 10167 bound_to 10162
  156.6586  130.4975  149.6038 H   0  0  0  0  0  0  0  0  0  0  0  0  # atno 10718 bound_to 10713
  153.0424  135.5121  154.7658 H   0  0  0  0  0  0  0  0  0  0  0  0  # atno 10763 bound_to 10752
  154.6585  135.2935  154.9900 H   0  0  0  0  0  0  0  0  0  0  0  0  # atno 10764 bound_to 10752
  154.0759  135.6671  153.4883 H   0  0  0  0  0  0  0  0  0  0  0  0  # atno 10765 bound_to 10752
  140.8385  133.7944  155.9834 H   0  0  0  0  0  0  0  0  0  0  0  0  # atno 11005 bound_to 11000
  144.7590  140.5378  143.6748 LP  0  0  0  0  0  0  0  0  0  0  0  0  # atno 17320 bound_to 7965
  145.5481  139.1476  143.3409 LP  0  0  0  0  0  0  0  0  0  0  0  0  # atno 17321 bound_to 7965
  140.4893  144.1334  150.5947 LP  0  0  0  0  0  0  0  0  0  0  0  0  # atno 17342 bound_to 10162
  140.4189  143.2621  151.9740 LP  0  0  0  0  0  0  0  0  0  0  0  0  # atno 17343 bound_to 10162
  156.2028  130.6631  151.1186 LP  0  0  0  0  0  0  0  0  0  0  0  0  # atno 17370 bound_to 10713
  157.7117  131.0731  150.6476 LP  0  0  0  0  0  0  0  0  0  0  0  0  # atno 17371 bound_to 10713
  140.8921  134.2482  157.5088 LP  0  0  0  0  0  0  0  0  0  0  0  0  # atno 17394 bound_to 11000
  139.8703  134.9666  156.4570 LP  0  0  0  0  0  0  0  0  0  0  0  0  # atno 17395 bound_to 11000

$$$$
