#       Name:                AV-unprocessed.smi:2822
#       Creating user name   scv26
#       Creation time:       Fri Mar 27 15:31:24 2020


#       File generated by GOLD software.
#

@<TRIPOS>MOLECULE
AV-unprocessed.smi:2822
    43    45     1
SMALL
NO_CHARGES


@<TRIPOS>ATOM
      1 ****        -4.9327   1.4499   0.2225 Cl             1 S1                 0.0000
      2 ****        -4.0382   2.9298   0.1971 C.ar           1 S1                 0.0000
      3 ****        -4.7243   4.1599   0.1280 C.ar           1 S1                 0.0000
      4 ****        -4.1034   5.3577   0.1036 N.ar           1 S1                 0.0000
      5 ****        -2.7550   5.3671   0.1486 C.ar           1 S1                 0.0000
      6 ****        -1.9725   4.1971   0.2183 C.ar           1 S1                 0.0000
      7 ****        -2.6249   2.9417   0.2429 C.ar           1 S1                 0.0000
      8 ****        -1.9237   1.7280   0.3138 N.pl3          1 S1                 0.0000
      9 ****        -0.4827   1.6899   0.1172 C.3            1 S1                 0.0000
     10 ****         0.0527   0.2512   0.1257 C.3            1 S1                 0.0000
     11 ****         1.5977   0.2256   0.1149 C.3            1 S1                 0.0000
     12 ****         2.1208  -1.1566  -0.0078 N.4            1 S1                 1.0000
     13 ****         2.0562  -1.9297   1.2624 C.3            1 S1                 0.0000
     14 ****         2.6739  -3.3258   1.0976 C.3            1 S1                 0.0000
     15 ****         1.9799  -4.0935  -0.0329 C.3            1 S1                 0.0000
     16 ****         2.0578  -3.2851  -1.3350 C.3            1 S1                 0.0000
     17 ****         1.5091  -1.8515  -1.1742 C.3            1 S1                 0.0000
     18 ****        -0.0308  -1.7736  -1.1080 C.3            1 S1                 0.0000
     19 ****        -0.4264  -0.4083  -1.0432 O.3            1 S1                 0.0000
     20 ****        -5.8035   4.1836   0.0917 H              1 S1                 0.0000
     21 ****        -2.2829   6.3381   0.1303 H              1 S1                 0.0000
     22 ****        -0.8973   4.2841   0.2544 H              1 S1                 0.0000
     23 ****        -2.4422   0.8637   0.2426 H              1 S1                 0.0000
     24 ****        -0.2239   2.1818  -0.8214 H              1 S1                 0.0000
     25 ****        -0.0108   2.2547   0.9221 H              1 S1                 0.0000
     26 ****        -0.3226  -0.2580   1.0148 H              1 S1                 0.0000
     27 ****         1.9656   0.8039  -0.7339 H              1 S1                 0.0000
     28 ****         2.0012   0.7016   1.0095 H              1 S1                 0.0000
     29 ****         2.5915  -1.3864   2.0419 H              1 S1                 0.0000
     30 ****         1.0250  -2.0258   1.6022 H              1 S1                 0.0000
     31 ****         3.7396  -3.2345   0.8825 H              1 S1                 0.0000
     32 ****         2.5925  -3.8825   2.0316 H              1 S1                 0.0000
     33 ****         2.4501  -5.0680  -0.1685 H              1 S1                 0.0000
     34 ****         0.9389  -4.2846   0.2299 H              1 S1                 0.0000
     35 ****         3.1006  -3.2313  -1.6513 H              1 S1                 0.0000
     36 ****         1.5281  -3.8058  -2.1335 H              1 S1                 0.0000
     37 ****         1.8130  -1.2975  -2.0640 H              1 S1                 0.0000
     38 ****        -0.4684  -2.2171  -2.0026 H              1 S1                 0.0000
     39 ****        -0.4329  -2.3230  -0.2560 H              1 S1                 0.0000
     40 ****         3.1056  -1.0700  -0.2155 H              1 S1                 0.0000
     41 ****        -4.6250   6.2094   0.0539 LP             1 S1                 0.0000
     42 ****        -0.0684   0.0665  -1.8472 LP             1 S1                 0.0000
     43 ****        -1.4255  -0.3647  -1.0477 LP             1 S1                 0.0000
@<TRIPOS>BOND
    1    1    2 1     
    2    2    7 ar    
    3    2    3 ar    
    4    3    4 ar    
    5    3   20 1     
    6    4    5 ar    
    7    5    6 ar    
    8    5   21 1     
    9    6    7 ar    
   10    6   22 1     
   11    7    8 1     
   12    8    9 1     
   13    8   23 1     
   14    9   10 1     
   15    9   24 1     
   16    9   25 1     
   17   10   19 1     
   18   10   11 1     
   19   10   26 1     
   20   11   12 1     
   21   11   27 1     
   22   11   28 1     
   23   12   17 1     
   24   12   13 1     
   25   12   40 1     
   26   13   14 1     
   27   13   29 1     
   28   13   30 1     
   29   14   15 1     
   30   14   31 1     
   31   14   32 1     
   32   15   16 1     
   33   15   33 1     
   34   15   34 1     
   35   16   17 1     
   36   16   35 1     
   37   16   36 1     
   38   17   18 1     
   39   17   37 1     
   40   18   19 1     
   41   18   38 1     
   42   18   39 1     
   43    4   41 1     
   44   19   42 1     
   45   19   43 1     
@<TRIPOS>SUBSTRUCTURE
      1 S1             1
@<TRIPOS>SET
LONE_PAIRS      STATIC     ATOMS    <user>   **** ""
3 41 42 43
DONOR_HYDROGENS      STATIC     ATOMS    <user>   **** ""
2 23 40
ATOM$BLUE        STATIC     ATOMS    COLORGROUP SYSTEM
3 41 42 43
ATOM$RED        STATIC     ATOMS    COLORGROUP SYSTEM
2 23 40
