AV-unprocessed.smi:264|AV-procd|sdf|2008|dock7
  -GOLD-   2262021203D 1   1.00000     0.00000
 Structure written by MMmdl.
 52 56  0  0  0  0  0  0  0  0  1 V2000
  146.0663  138.4369  156.1118 C   0  0  0  0  0  0  0  0  0  0  0  0
  146.5275  137.8937  154.7496 C   0  0  1  0  0  0  0  0  0  0  0  0
  145.6847  136.8337  154.3216 O   0  0  0  0  0  0  0  0  0  0  0  0
  145.9139  136.6568  152.9356 C   0  0  0  0  0  0  0  0  0  0  0  0
  145.9389  138.0879  152.4129 C   0  0  0  0  0  0  0  0  0  0  0  0
  146.5547  138.8925  153.5621 C   0  0  1  0  0  0  0  0  0  0  0  0
  145.7277  140.0191  153.8035 O   0  0  0  0  0  0  0  0  0  0  0  0
  147.9780  139.3995  153.2214 C   0  0  0  0  0  0  0  0  0  0  0  0
  148.6937  139.9397  154.3680 N   0  0  0  0  0  0  0  0  0  0  0  0
  148.1955  140.8004  155.3201 C   0  0  0  0  0  0  0  0  0  0  0  0
  149.0347  141.1376  156.2603 N   0  0  0  0  0  0  0  0  0  0  0  0
  150.2073  140.4711  155.9251 C   0  0  0  0  0  0  0  0  0  0  0  0
  151.5023  140.3878  156.5109 C   0  0  0  0  0  0  0  0  0  0  0  0
  151.8401  141.0591  157.6411 N   0  0  0  0  0  0  0  0  0  0  0  0
  152.2137  140.2161  158.7697 C   0  0  0  0  0  0  0  0  0  0  0  0
  152.9098  141.0624  159.8444 C   0  0  0  0  0  0  0  0  0  0  0  0
  152.0792  142.1595  160.2227 O   0  0  0  0  0  0  0  0  0  0  0  0
  151.7133  143.0250  159.1434 C   0  0  1  0  0  0  0  0  0  0  0  0
  150.7767  144.0929  159.7000 C   0  0  0  0  0  0  0  0  0  0  0  0
  151.1546  145.3359  158.9090 C   0  0  0  0  0  0  0  0  0  0  0  0
  152.5645  145.2334  158.8436 O   0  0  0  0  0  0  0  0  0  0  0  0
  152.8994  143.8689  158.6187 C   0  0  0  0  0  0  0  0  0  0  0  0
  151.0184  142.2005  158.0342 C   0  0  0  0  0  0  0  0  0  0  0  0
  152.4173  139.5943  155.8917 N   0  0  0  0  0  0  0  0  0  0  0  0
  152.0964  138.9386  154.7728 C   0  0  0  0  0  0  0  0  0  0  0  0
  150.9362  138.9302  154.1146 N   0  0  0  0  0  0  0  0  0  0  0  0
  150.0089  139.7133  154.7361 C   0  0  0  0  0  0  0  0  0  0  0  0
  146.6940  139.2664  156.4379 H   0  0  0  0  0  0  0  0  0  0  0  0
  146.1233  137.6604  156.8747 H   0  0  0  0  0  0  0  0  0  0  0  0
  145.0343  138.7865  156.0758 H   0  0  0  0  0  0  0  0  0  0  0  0
  147.5174  137.4533  154.8720 H   0  0  0  0  0  0  0  0  0  0  0  0
  146.8754  136.1649  152.7792 H   0  0  0  0  0  0  0  0  0  0  0  0
  145.1351  136.0511  152.4717 H   0  0  0  0  0  0  0  0  0  0  0  0
  146.4909  138.1739  151.4762 H   0  0  0  0  0  0  0  0  0  0  0  0
  144.9136  138.4064  152.2159 H   0  0  0  0  0  0  0  0  0  0  0  0
  145.2034  140.1770  153.0337 H   0  0  0  0  0  0  0  0  0  0  0  0
  148.5720  138.5881  152.7985 H   0  0  0  0  0  0  0  0  0  0  0  0
  147.9326  140.1728  152.4532 H   0  0  0  0  0  0  0  0  0  0  0  0
  147.1791  141.1664  155.3002 H   0  0  0  0  0  0  0  0  0  0  0  0
  151.3138  139.7573  159.1816 H   0  0  0  0  0  0  0  0  0  0  0  0
  152.8717  139.4030  158.4655 H   0  0  0  0  0  0  0  0  0  0  0  0
  153.1082  140.4538  160.7266 H   0  0  0  0  0  0  0  0  0  0  0  0
  153.8773  141.4136  159.4855 H   0  0  0  0  0  0  0  0  0  0  0  0
  149.7197  143.8389  159.6152 H   0  0  0  0  0  0  0  0  0  0  0  0
  150.9902  144.2676  160.7558 H   0  0  0  0  0  0  0  0  0  0  0  0
  150.7325  145.3083  157.9031 H   0  0  0  0  0  0  0  0  0  0  0  0
  150.8391  146.2594  159.3947 H   0  0  0  0  0  0  0  0  0  0  0  0
  153.8372  143.6510  159.1291 H   0  0  0  0  0  0  0  0  0  0  0  0
  153.0600  143.7112  157.5516 H   0  0  0  0  0  0  0  0  0  0  0  0
  150.8114  142.8344  157.1707 H   0  0  0  0  0  0  0  0  0  0  0  0
  150.0585  141.8283  158.3960 H   0  0  0  0  0  0  0  0  0  0  0  0
  152.8820  138.3343  154.3437 H   0  0  0  0  0  0  0  0  0  0  0  0
  1  2  1  0  0  0  0
  1 28  1  0  0  0  0
  1 29  1  0  0  0  0
  1 30  1  0  0  0  0
  2  6  1  0  0  0  0
  2  3  1  0  0  0  0
  2 31  1  0  0  0  0
  3  4  1  0  0  0  0
  4  5  1  0  0  0  0
  4 32  1  0  0  0  0
  4 33  1  0  0  0  0
  5  6  1  0  0  0  0
  5 34  1  0  0  0  0
  5 35  1  0  0  0  0
  6  7  1  0  0  0  0
  6  8  1  0  0  0  0
  7 36  1  0  0  0  0
  8  9  1  0  0  0  0
  8 37  1  0  0  0  0
  8 38  1  0  0  0  0
  9 27  1  0  0  0  0
  9 10  1  0  0  0  0
 10 11  2  0  0  0  0
 10 39  1  0  0  0  0
 11 12  1  0  0  0  0
 12 27  2  0  0  0  0
 12 13  1  0  0  0  0
 13 14  1  0  0  0  0
 13 24  2  0  0  0  0
 14 23  1  0  0  0  0
 14 15  1  0  0  0  0
 15 16  1  0  0  0  0
 15 40  1  0  0  0  0
 15 41  1  0  0  0  0
 16 17  1  0  0  0  0
 16 42  1  0  0  0  0
 16 43  1  0  0  0  0
 17 18  1  0  0  0  0
 18 22  1  0  0  0  0
 18 19  1  0  0  0  0
 18 23  1  0  0  0  0
 19 20  1  0  0  0  0
 19 44  1  0  0  0  0
 19 45  1  0  0  0  0
 20 21  1  0  0  0  0
 20 46  1  0  0  0  0
 20 47  1  0  0  0  0
 21 22  1  0  0  0  0
 22 48  1  0  0  0  0
 22 49  1  0  0  0  0
 23 50  1  0  0  0  0
 23 51  1  0  0  0  0
 24 25  1  0  0  0  0
 25 26  2  0  0  0  0
 25 52  1  0  0  0  0
 26 27  1  0  0  0  0
M  END
> <s_m_source_file>
AV-unprocessed.smi

> <i_m_source_file_index>
264

> <i_lp_mmshare_version>
43012

> <i_f3d_flags>
0

> <s_epik_input>
W0NIMl0xW0NIMl1PW0NAQEhdKFtDSDNdKVtDQEBdMShbT0hdKVtDSDJdbihbY0hdbjIpYyhjMjMpbltjSF1uYzNOKFtDSDJdNClbQ0gyXVtDSDJdT1tDQF00NVtDSDJdW0NIMl1PW0NIMl01

> <s_epik_cmdline>
J2VwaWtfcHl0aG9uJywgJy1waCcsICc3LjAnLCAnLXRuJywgJzgnLCAnLW1hJywgJzIwMCcsICctbWV0YWxfYmluZGluZycsICctaW1hZScsICc8aW5maWxlLm1hZT4nLCAnLW9tYWUnLCAnPG91dGZpbGUubWFlPic=

> <r_lp_tautomer_probability>
1

> <r_epik_Ionization_Penalty>
0.00539389

> <r_epik_Ionization_Penalty_Charging>
0

> <r_epik_Ionization_Penalty_Neutral>
0.00539389

> <r_epik_State_Penalty>
0.00375441

> <r_epik_Charging_Adjusted_Penalty>
0.00375441

> <i_epik_Tot_Q>
0

> <i_epik_Tot_abs_Q>
0

> <r_epik_Metal_State_Penalty>
-0

> <b_epik_Metal_Only>
0

> <s_lp_Force_Field>
OPLS_2005

> <r_lp_Energy>
54.8303

> <b_lp_Chiralities_Consistent>
1

> <s_lp_Variant>
AV-unprocessed.smi:264-2

> <Gold.Version>
5.8.1

> <Gold.Id.Protein>
6NUR|6NUR_protein|mol2

> <Gold.PLP.Fitness>
44.4130

> <Gold.PLP.PLP>
-39.2200

> <Gold.PLP.part.hbond>
-2.8405

> <Gold.PLP.part.metal>
0.0000

> <Gold.PLP.part.buried>
-1.3194

> <Gold.PLP.part.nonpolar>
-35.5075

> <Gold.PLP.part.repulsive>
0.3651

> <Gold.PLP.ligand.clash>
0.0000

> <Gold.PLP.ligand.torsion>
0.5497

> <Gold.PLP.Chemscore.Hbond>
2.0000

> <Gold.PLP.Chemscore.CHOScore>
0.0000

> <Gold.PLP.Chemscore.Metal>
0.0000

> <Gold.Chemscore.Hbonds>
donor molecule, donor type, donor heavy atom, donor atom, acceptor molecule, acceptor atom, score
      L1  H     7    36       P1 10175  0.91
      P1  H  7997  8010       L1    24  1.00

> <Gold.PLP.Chemscore.Internal.Correction>
0.2924

> <Gold.Rescore>
     Score         DG    S(hbond)    S(metal)    S(lipo)     H(rot)  DE(clash)    DE(int)     intcor
     13.44     -17.04       1.84        0.00      92.38       2.11       0.85       2.75       ----

> <Gold.Chemscore.Fitness>
13.4361

> <Gold.Chemscore.DG>
-17.0399

> <Gold.Chemscore.ZeroCoef>
-5.4800

> <Gold.Chemscore.Hbond>
1.8395

> <Gold.Chemscore.Metal>
0.0000

> <Gold.Chemscore.Lipo>
92.3779

> <Gold.Chemscore.Internal_Hbond>
0.0000

> <Gold.Chemscore.DEClash>
0.8503

> <Gold.Chemscore.DEInternal>
2.7536

> <Gold.Chemscore.Rot>
2.1063

> <Gold.Chemscore.Internal.Correction>
   9.000000E+99

> <Gold.Chemscore.Hbonds>
donor molecule, donor type, donor heavy atom, donor atom, acceptor molecule, acceptor atom, score
      L1  H     7    36       P1 10175  0.88
      P1  H  7997  8010       L1    24  0.81

> <Gold.Chemscore.Hbond.Weighted>
-6.1439

> <Gold.Chemscore.Metal.Weighted>
-0.0000

> <Gold.Chemscore.Lipo.Weighted>
-10.8082

> <Gold.Chemscore.Internal_Hbond.Weighted>
0.0000

> <Gold.Chemscore.DEClash.Weighted>
0.8503

> <Gold.Chemscore.DEInternal.Weighted>
2.7536

> <Gold.Chemscore.Rot.Weighted>
5.3921

> <Gold.Chemscore.Internal.Correction.Weighted>
   9.000000E+99

> <Gold.Protein.RotatedTorsions>
[ 6907 6896 6895 6894 ] final -178.94 input  -60.11 | X-H torsion
[ 7974 7965 7964 7962 ] final   12.40 input  175.53 | X-H torsion
[ 8008 7997 7996 7995 ] final   83.26 input   59.86 | X-H torsion
[ 10167 10162 10161 10158 ] final -175.15 input  -65.29 | X-H torsion
[ 10718 10713 10712 10709 ] final  147.15 input   66.30 | X-H torsion
[ 10763 10752 10751 10750 ] final   46.10 input  -60.55 | X-H torsion
[ 11005 11000 10999 10996 ] final  -58.85 input  -57.11 | X-H torsion

> <Gold.Protein.ActiveResidues>
 VAL166  LYS551  ARG553  GLY616  TRP617  ASP618  TYR619  PRO620  LYS621  CYS622 
 ASP623  PHE694  ASN695  SER759  ASP760  ASP761  ALA762  ILE779  LEU786  VAL792 
 PHE793  MET794  SER795  GLU796  ALA797  LYS798  CYS799  TRP800  GLU811  SER814 

> <Gold.Protein.RotatedAtoms>
  151.6454  133.3323  159.3139 H   0  0  0  0  0  0  0  0  0  0  0  0  # atno 6907 bound_to 6896
  150.7987  134.7069  159.6591 H   0  0  0  0  0  0  0  0  0  0  0  0  # atno 6908 bound_to 6896
  152.4077  134.6183  160.0095 H   0  0  0  0  0  0  0  0  0  0  0  0  # atno 6909 bound_to 6896
  146.2352  139.9342  142.8492 H   0  0  0  0  0  0  0  0  0  0  0  0  # atno 7974 bound_to 7965
  155.9215  140.3421  155.6177 H   0  0  0  0  0  0  0  0  0  0  0  0  # atno 8008 bound_to 7997
  155.7267  140.0790  157.2325 H   0  0  0  0  0  0  0  0  0  0  0  0  # atno 8009 bound_to 7997
  154.4070  140.1595  156.2450 H   0  0  0  0  0  0  0  0  0  0  0  0  # atno 8010 bound_to 7997
  139.5596  144.1903  152.1217 H   0  0  0  0  0  0  0  0  0  0  0  0  # atno 10167 bound_to 10162
  157.3245  131.0910  151.1213 H   0  0  0  0  0  0  0  0  0  0  0  0  # atno 10718 bound_to 10713
  152.9815  135.6019  154.3544 H   0  0  0  0  0  0  0  0  0  0  0  0  # atno 10763 bound_to 10752
  154.3231  135.2769  155.2511 H   0  0  0  0  0  0  0  0  0  0  0  0  # atno 10764 bound_to 10752
  154.4669  135.5951  153.6350 H   0  0  0  0  0  0  0  0  0  0  0  0  # atno 10765 bound_to 10752
  141.1224  133.6614  156.4982 H   0  0  0  0  0  0  0  0  0  0  0  0  # atno 11005 bound_to 11000
  145.2015  140.9856  143.4153 LP  0  0  0  0  0  0  0  0  0  0  0  0  # atno 17320 bound_to 7965
  144.9769  139.3822  143.6281 LP  0  0  0  0  0  0  0  0  0  0  0  0  # atno 17321 bound_to 7965
  140.1414  144.5199  150.6742 LP  0  0  0  0  0  0  0  0  0  0  0  0  # atno 17342 bound_to 10162
  140.6874  143.2357  151.5224 LP  0  0  0  0  0  0  0  0  0  0  0  0  # atno 17343 bound_to 10162
  157.2485  130.6603  149.5921 LP  0  0  0  0  0  0  0  0  0  0  0  0  # atno 17370 bound_to 10713
  155.9689  130.4546  150.5855 LP  0  0  0  0  0  0  0  0  0  0  0  0  # atno 17371 bound_to 10713
  140.4467  134.6966  157.5019 LP  0  0  0  0  0  0  0  0  0  0  0  0  # atno 17394 bound_to 11000
  140.0193  134.6572  155.9264 LP  0  0  0  0  0  0  0  0  0  0  0  0  # atno 17395 bound_to 11000

$$$$
