AV-unprocessed.smi:740|AV-procd|sdf|3553|dock3
  -GOLD-   22720 0553D 1   1.00000     0.00000
 Structure written by MMmdl.
 45 47  0  0  0  0  0  0  0  0  2 V2000
  152.0798  143.4229  160.4815 C   0  0  0  0  0  0  0  0  0  0  0  0
  151.9339  142.5287  159.2621 C   0  0  0  0  0  0  0  0  0  0  0  0
  150.9767  142.8757  158.2823 C   0  0  0  0  0  0  0  0  0  0  0  0
  150.8670  142.0389  157.1781 C   0  0  0  0  0  0  0  0  0  0  0  0
  150.0362  142.1089  156.0578 N   0  3  0  0  0  0  0  0  0  0  0  0
  150.2948  141.0560  155.2342 C   0  0  0  0  0  0  0  0  0  0  0  0
  151.2760  140.3124  155.8136 N   0  0  0  0  0  0  0  0  0  0  0  0
  151.9162  139.0781  155.3374 C   0  0  0  0  0  0  0  0  0  0  0  0
  150.9008  138.0507  154.8003 C   0  0  1  0  0  0  0  0  0  0  0  0
  151.5939  137.0695  154.0536 O   0  0  0  0  0  0  0  0  0  0  0  0
  150.1380  137.3550  155.9460 C   0  0  0  0  0  0  0  0  0  0  0  0
  150.1313  135.8951  155.7969 N   0  0  0  0  0  0  0  0  0  0  0  0
  151.0990  135.0894  156.2547 C   0  0  0  0  0  0  0  0  0  0  0  0
  152.1162  135.4401  156.8524 O   0  0  0  0  0  0  0  0  0  0  0  0
  150.7850  133.6312  155.9514 C   0  0  0  0  0  0  0  0  0  0  0  0
  149.4347  133.7053  155.2224 C   0  0  2  0  0  0  0  0  0  0  0  0
  149.4608  133.1036  153.8077 C   0  0  0  0  0  0  0  0  0  0  0  0
  149.1502  135.2059  155.1975 C   0  0  0  0  0  0  0  0  0  0  0  0
  148.1371  135.6826  154.6852 O   0  0  0  0  0  0  0  0  0  0  0  0
  151.6664  140.8889  157.0284 C   0  0  0  0  0  0  0  0  0  0  0  0
  152.6156  140.5338  157.9845 C   0  0  0  0  0  0  0  0  0  0  0  0
  152.7447  141.3738  159.1136 C   0  0  0  0  0  0  0  0  0  0  0  0
  153.7767  141.0143  160.1690 C   0  0  0  0  0  0  0  0  0  0  0  0
  151.3656  144.2464  160.4600 H   0  0  0  0  0  0  0  0  0  0  0  0
  153.0815  143.8510  160.5240 H   0  0  0  0  0  0  0  0  0  0  0  0
  151.9053  142.8558  161.3962 H   0  0  0  0  0  0  0  0  0  0  0  0
  150.3584  143.7553  158.3866 H   0  0  0  0  0  0  0  0  0  0  0  0
  149.8104  140.8486  154.2908 H   0  0  0  0  0  0  0  0  0  0  0  0
  152.6721  139.3224  154.5907 H   0  0  0  0  0  0  0  0  0  0  0  0
  152.4538  138.6553  156.1869 H   0  0  0  0  0  0  0  0  0  0  0  0
  150.2022  138.5638  154.1380 H   0  0  0  0  0  0  0  0  0  0  0  0
  151.2855  137.0970  153.1608 H   0  0  0  0  0  0  0  0  0  0  0  0
  150.5408  137.6552  156.9153 H   0  0  0  0  0  0  0  0  0  0  0  0
  149.1014  137.6970  155.9523 H   0  0  0  0  0  0  0  0  0  0  0  0
  151.5721  133.1988  155.3323 H   0  0  0  0  0  0  0  0  0  0  0  0
  150.7150  133.0566  156.8756 H   0  0  0  0  0  0  0  0  0  0  0  0
  148.6626  133.2153  155.8170 H   0  0  0  0  0  0  0  0  0  0  0  0
  148.4834  133.1758  153.3292 H   0  0  0  0  0  0  0  0  0  0  0  0
  149.7320  132.0481  153.8405 H   0  0  0  0  0  0  0  0  0  0  0  0
  150.1838  133.6119  153.1685 H   0  0  0  0  0  0  0  0  0  0  0  0
  153.2361  139.6574  157.8722 H   0  0  0  0  0  0  0  0  0  0  0  0
  154.3370  140.1210  159.8916 H   0  0  0  0  0  0  0  0  0  0  0  0
  153.2933  140.8203  161.1267 H   0  0  0  0  0  0  0  0  0  0  0  0
  154.4916  141.8270  160.2994 H   0  0  0  0  0  0  0  0  0  0  0  0
  149.3446  142.8225  155.8659 H   0  0  0  0  0  0  0  0  0  0  0  0
  1  2  1  0  0  0  0
  1 24  1  0  0  0  0
  1 25  1  0  0  0  0
  1 26  1  0  0  0  0
  2 22  1  0  0  0  0
  2  3  2  0  0  0  0
  3  4  1  0  0  0  0
  3 27  1  0  0  0  0
  4 20  2  0  0  0  0
  4  5  1  0  0  0  0
  5  6  2  0  0  0  0
  5 45  1  0  0  0  0
  6  7  1  0  0  0  0
  6 28  1  0  0  0  0
  7  8  1  0  0  0  0
  7 20  1  0  0  0  0
  8  9  1  0  0  0  0
  8 29  1  0  0  0  0
  8 30  1  0  0  0  0
  9 10  1  0  0  0  0
  9 11  1  0  0  0  0
  9 31  1  0  0  0  0
 10 32  1  0  0  0  0
 11 12  1  0  0  0  0
 11 33  1  0  0  0  0
 11 34  1  0  0  0  0
 12 18  1  0  0  0  0
 12 13  1  0  0  0  0
 13 14  2  0  0  0  0
 13 15  1  0  0  0  0
 15 16  1  0  0  0  0
 15 35  1  0  0  0  0
 15 36  1  0  0  0  0
 16 17  1  0  0  0  0
 16 18  1  0  0  0  0
 16 37  1  0  0  0  0
 17 38  1  0  0  0  0
 17 39  1  0  0  0  0
 17 40  1  0  0  0  0
 18 19  2  0  0  0  0
 20 21  1  0  0  0  0
 21 22  2  0  0  0  0
 21 41  1  0  0  0  0
 22 23  1  0  0  0  0
 23 42  1  0  0  0  0
 23 43  1  0  0  0  0
 23 44  1  0  0  0  0
M  CHG  1   5   1
M  END
> <s_m_source_file>
AV-unprocessed.smi

> <i_m_source_file_index>
740

> <i_lp_mmshare_version>
43012

> <i_f3d_flags>
0

> <s_epik_input>
W0NIM11jKFtjSF0xKWMoW0NIM10pW2NIXWMoYzEyKW4oW2NIXW4yKVtDSDJdW0NASF0oW09IXSlbQ0gyXU4zQyg9TylbQ0gyXVtDQEBIXShbQ0gzXSlDMz1P

> <s_epik_cmdline>
J2VwaWtfcHl0aG9uJywgJy1waCcsICc3LjAnLCAnLXRuJywgJzgnLCAnLW1hJywgJzIwMCcsICctbWV0YWxfYmluZGluZycsICctaW1hZScsICc8aW5maWxlLm1hZT4nLCAnLW9tYWUnLCAnPG91dGZpbGUubWFlPic=

> <r_lp_tautomer_probability>
1

> <r_epik_Ionization_Penalty>
1.08202

> <r_epik_Ionization_Penalty_Charging>
1.08202

> <r_epik_Ionization_Penalty_Neutral>
1.16605e-06

> <r_epik_State_Penalty>
1.13754

> <r_epik_Charging_Adjusted_Penalty>
2.21956

> <i_epik_Tot_Q>
1

> <i_epik_Tot_abs_Q>
1

> <r_epik_Metal_State_Penalty>
5.13645

> <b_epik_Metal_Only>
0

> <s_lp_Force_Field>
OPLS_2005

> <r_lp_Energy>
22.4261

> <b_lp_Chiralities_Consistent>
1

> <s_lp_Variant>
AV-unprocessed.smi:740-8

> <Gold.Version>
5.8.1

> <Gold.Id.Protein>
6NUR|6NUR_protein|mol2

> <Gold.PLP.Fitness>
53.5860

> <Gold.PLP.PLP>
-44.7820

> <Gold.PLP.part.hbond>
-3.8743

> <Gold.PLP.part.metal>
0.0000

> <Gold.PLP.part.buried>
-5.0363

> <Gold.PLP.part.nonpolar>
-36.3095

> <Gold.PLP.part.repulsive>
1.0065

> <Gold.PLP.ligand.clash>
0.0000

> <Gold.PLP.ligand.torsion>
1.3582

> <Gold.PLP.Chemscore.Hbond>
3.8320

> <Gold.PLP.Chemscore.CHOScore>
0.0000

> <Gold.PLP.Chemscore.Metal>
0.0000

> <Gold.Chemscore.Hbonds>
donor molecule, donor type, donor heavy atom, donor atom, acceptor molecule, acceptor atom, score
      L1  H     5    45       P1  8028  1.98
      L1  H    10    32       P1  7949  0.85
      P1  H 10752 10763       L1    10  1.00

> <Gold.PLP.Chemscore.Internal.Correction>
0.0243

> <Gold.Rescore>
     Score         DG    S(hbond)    S(metal)    S(lipo)     H(rot)  DE(clash)    DE(int)     intcor
     15.32     -17.96       2.00        0.00     101.44       2.37       1.28       1.36       ----

> <Gold.Chemscore.Fitness>
15.3213

> <Gold.Chemscore.DG>
-17.9627

> <Gold.Chemscore.ZeroCoef>
-5.4800

> <Gold.Chemscore.Hbond>
2.0023

> <Gold.Chemscore.Metal>
0.0000

> <Gold.Chemscore.Lipo>
101.4388

> <Gold.Chemscore.Internal_Hbond>
0.0000

> <Gold.Chemscore.DEClash>
1.2835

> <Gold.Chemscore.DEInternal>
1.3579

> <Gold.Chemscore.Rot>
2.3724

> <Gold.Chemscore.Internal.Correction>
   9.000000E+99

> <Gold.Chemscore.Hbonds>
donor molecule, donor type, donor heavy atom, donor atom, acceptor molecule, acceptor atom, score
      L1  H     5    45       P1  8028  0.93
      L1  H    10    32       P1  7949  0.55
      P1  H 10752 10763       L1    10  0.59
      P1  H 10752 10764       L1    14  0.02

> <Gold.Chemscore.Hbond.Weighted>
-6.6878

> <Gold.Chemscore.Metal.Weighted>
-0.0000

> <Gold.Chemscore.Lipo.Weighted>
-11.8683

> <Gold.Chemscore.Internal_Hbond.Weighted>
0.0000

> <Gold.Chemscore.DEClash.Weighted>
1.2835

> <Gold.Chemscore.DEInternal.Weighted>
1.3579

> <Gold.Chemscore.Rot.Weighted>
6.0734

> <Gold.Chemscore.Internal.Correction.Weighted>
   9.000000E+99

> <Gold.Protein.RotatedTorsions>
[ 6907 6896 6895 6894 ] final  -85.38 input  -60.11 | X-H torsion
[ 7974 7965 7964 7962 ] final   -7.39 input  175.53 | X-H torsion
[ 8008 7997 7996 7995 ] final  155.90 input   59.86 | X-H torsion
[ 10167 10162 10161 10158 ] final  -96.84 input  -65.29 | X-H torsion
[ 10718 10713 10712 10709 ] final   18.43 input   66.30 | X-H torsion
[ 10763 10752 10751 10750 ] final   31.82 input  -60.55 | X-H torsion
[ 11005 11000 10999 10996 ] final   58.90 input  -57.11 | X-H torsion

> <Gold.Protein.ActiveResidues>
 VAL166  LYS551  ARG553  GLY616  TRP617  ASP618  TYR619  PRO620  LYS621  CYS622 
 ASP623  PHE694  ASN695  SER759  ASP760  ASP761  ALA762  ILE779  LEU786  VAL792 
 PHE793  MET794  SER795  GLU796  ALA797  LYS798  CYS799  TRP800  GLU811  SER814 

> <Gold.Protein.RotatedAtoms>
  150.6870  134.3214  159.4787 H   0  0  0  0  0  0  0  0  0  0  0  0  # atno 6907 bound_to 6896
  152.1089  134.9286  160.0576 H   0  0  0  0  0  0  0  0  0  0  0  0  # atno 6908 bound_to 6896
  152.0536  133.3995  159.4424 H   0  0  0  0  0  0  0  0  0  0  0  0  # atno 6909 bound_to 6896
  146.2308  140.2313  142.8340 H   0  0  0  0  0  0  0  0  0  0  0  0  # atno 7974 bound_to 7965
  156.2453  140.1927  156.6872 H   0  0  0  0  0  0  0  0  0  0  0  0  # atno 8008 bound_to 7997
  154.6278  140.0600  156.9721 H   0  0  0  0  0  0  0  0  0  0  0  0  # atno 8009 bound_to 7997
  155.1759  140.3272  155.4386 H   0  0  0  0  0  0  0  0  0  0  0  0  # atno 8010 bound_to 7997
  140.2897  143.3229  152.0359 H   0  0  0  0  0  0  0  0  0  0  0  0  # atno 10167 bound_to 10162
  157.0961  130.6448  149.5861 H   0  0  0  0  0  0  0  0  0  0  0  0  # atno 10718 bound_to 10713
  153.0295  135.6429  154.1259 H   0  0  0  0  0  0  0  0  0  0  0  0  # atno 10763 bound_to 10752
  154.0983  135.2861  155.3258 H   0  0  0  0  0  0  0  0  0  0  0  0  # atno 10764 bound_to 10752
  154.6417  135.5457  153.7860 H   0  0  0  0  0  0  0  0  0  0  0  0  # atno 10765 bound_to 10752
  140.0343  134.5966  155.9465 H   0  0  0  0  0  0  0  0  0  0  0  0  # atno 11005 bound_to 11000
  144.9556  140.8223  143.5545 LP  0  0  0  0  0  0  0  0  0  0  0  0  # atno 17320 bound_to 7965
  145.2278  139.2129  143.5059 LP  0  0  0  0  0  0  0  0  0  0  0  0  # atno 17321 bound_to 7965
  139.4941  144.6534  151.6626 LP  0  0  0  0  0  0  0  0  0  0  0  0  # atno 17342 bound_to 10162
  140.5743  144.0056  150.6233 LP  0  0  0  0  0  0  0  0  0  0  0  0  # atno 17343 bound_to 10162
  155.9885  130.4929  150.7174 LP  0  0  0  0  0  0  0  0  0  0  0  0  # atno 17370 bound_to 10713
  157.4680  131.0890  151.0674 LP  0  0  0  0  0  0  0  0  0  0  0  0  # atno 17371 bound_to 10713
  141.1848  133.6553  156.5174 LP  0  0  0  0  0  0  0  0  0  0  0  0  # atno 17394 bound_to 11000
  140.4174  134.7218  157.4870 LP  0  0  0  0  0  0  0  0  0  0  0  0  # atno 17395 bound_to 11000

$$$$
