AV-unprocessed.smi:2095|AV-procd|sdf|8555|dock1
  -GOLD-   2272011273D 1   1.00000     0.00000
 Structure written by MMmdl.
 42 43  0  0  0  0  0  0  0  0  2 V2000
  145.8364  136.2203  151.5547 C   0  0  0  0  0  0  0  0  0  0  0  0
  145.2478  134.9839  152.2568 C   0  0  1  0  0  0  0  0  0  0  0  0
  145.0576  133.7906  151.3004 C   0  0  0  0  0  0  0  0  0  0  0  0
  146.3996  133.1276  150.9551 C   0  0  0  0  0  0  0  0  0  0  0  0
  147.1712  132.7532  152.2299 C   0  0  0  0  0  0  0  0  0  0  0  0
  147.3710  133.9504  153.0908 N   0  3  2  0  0  0  0  0  0  0  0  0
  148.3259  133.7751  154.2240 C   0  0  2  0  0  0  0  0  0  0  0  0
  148.0661  132.4373  154.9448 C   0  0  0  0  0  0  0  0  0  0  0  0
  148.3683  134.9951  155.1804 C   0  0  0  0  0  0  0  0  0  0  0  0
  149.2834  136.0272  154.7027 N   0  0  0  0  0  0  0  0  0  0  0  0
  150.5366  136.2214  155.1450 C   0  0  0  0  0  0  0  0  0  0  0  0
  151.0369  135.5853  156.0718 O   0  0  0  0  0  0  0  0  0  0  0  0
  151.3647  137.2712  154.4045 C   0  0  0  0  0  0  0  0  0  0  0  0
  151.7728  138.3291  155.3101 N   0  0  0  0  0  0  0  0  0  0  0  0
  152.4224  138.2845  156.4751 C   0  0  0  0  0  0  0  0  0  0  0  0
  152.5665  139.4907  157.0014 N   0  0  0  0  0  0  0  0  0  0  0  0
  151.9568  140.3151  156.0707 N   0  0  0  0  0  0  0  0  0  0  0  0
  151.4834  139.6317  155.0652 N   0  0  0  0  0  0  0  0  0  0  0  0
  146.0762  134.5650  153.4894 C   0  0  0  0  0  0  0  0  0  0  0  0
  146.8439  136.0371  151.1811 H   0  0  0  0  0  0  0  0  0  0  0  0
  145.8888  137.0690  152.2374 H   0  0  0  0  0  0  0  0  0  0  0  0
  145.2184  136.5206  150.7080 H   0  0  0  0  0  0  0  0  0  0  0  0
  144.2585  135.2756  152.6117 H   0  0  0  0  0  0  0  0  0  0  0  0
  144.4089  133.0524  151.7741 H   0  0  0  0  0  0  0  0  0  0  0  0
  144.5453  134.1057  150.3906 H   0  0  0  0  0  0  0  0  0  0  0  0
  146.2271  132.2368  150.3506 H   0  0  0  0  0  0  0  0  0  0  0  0
  147.0023  133.7991  150.3429 H   0  0  0  0  0  0  0  0  0  0  0  0
  146.6198  131.9864  152.7752 H   0  0  0  0  0  0  0  0  0  0  0  0
  148.1297  132.3179  151.9494 H   0  0  0  0  0  0  0  0  0  0  0  0
  149.3179  133.6756  153.7806 H   0  0  0  0  0  0  0  0  0  0  0  0
  148.8857  132.1818  155.6171 H   0  0  0  0  0  0  0  0  0  0  0  0
  147.9753  131.6178  154.2314 H   0  0  0  0  0  0  0  0  0  0  0  0
  147.1543  132.4653  155.5410 H   0  0  0  0  0  0  0  0  0  0  0  0
  147.3812  135.4503  155.2559 H   0  0  0  0  0  0  0  0  0  0  0  0
  148.6406  134.6912  156.1918 H   0  0  0  0  0  0  0  0  0  0  0  0
  148.9568  136.6071  153.9431 H   0  0  0  0  0  0  0  0  0  0  0  0
  152.2528  136.8115  153.9689 H   0  0  0  0  0  0  0  0  0  0  0  0
  150.7868  137.7027  153.5858 H   0  0  0  0  0  0  0  0  0  0  0  0
  152.7759  137.3755  156.9390 H   0  0  0  0  0  0  0  0  0  0  0  0
  146.2495  135.4355  154.1234 H   0  0  0  0  0  0  0  0  0  0  0  0
  145.5061  133.8527  154.0873 H   0  0  0  0  0  0  0  0  0  0  0  0
  147.8089  134.6389  152.4954 H   0  0  0  0  0  0  0  0  0  0  0  0
  1  2  1  0  0  0  0
  1 20  1  0  0  0  0
  1 21  1  0  0  0  0
  1 22  1  0  0  0  0
  2 19  1  0  0  0  0
  2  3  1  0  0  0  0
  2 23  1  0  0  0  0
  3  4  1  0  0  0  0
  3 24  1  0  0  0  0
  3 25  1  0  0  0  0
  4  5  1  0  0  0  0
  4 26  1  0  0  0  0
  4 27  1  0  0  0  0
  5  6  1  0  0  0  0
  5 28  1  0  0  0  0
  5 29  1  0  0  0  0
  6  7  1  0  0  0  0
  6 19  1  0  0  0  0
  6 42  1  0  0  0  0
  7  8  1  0  0  0  0
  7  9  1  0  0  0  0
  7 30  1  0  0  0  0
  8 31  1  0  0  0  0
  8 32  1  0  0  0  0
  8 33  1  0  0  0  0
  9 10  1  0  0  0  0
  9 34  1  0  0  0  0
  9 35  1  0  0  0  0
 10 11  1  0  0  0  0
 10 36  1  0  0  0  0
 11 12  2  0  0  0  0
 11 13  1  0  0  0  0
 13 14  1  0  0  0  0
 13 37  1  0  0  0  0
 13 38  1  0  0  0  0
 14 18  1  0  0  0  0
 14 15  1  0  0  0  0
 15 16  2  0  0  0  0
 15 39  1  0  0  0  0
 16 17  1  0  0  0  0
 17 18  2  0  0  0  0
 19 40  1  0  0  0  0
 19 41  1  0  0  0  0
M  CHG  1   6   1
M  END
> <s_m_source_file>
AV-unprocessed.smi

> <i_m_source_file_index>
2095

> <i_lp_mmshare_version>
43012

> <i_f3d_flags>
0

> <s_epik_input>
W0NIM11bQ0BASF0xW0NIMl1bQ0gyXVtDSDJdTihbQ0gyXTEpW0NASF0oW0NIM10pW0NIMl1bTkhdQyg9TylbQ0gyXW4yW2NIXW5ubjI=

> <s_epik_cmdline>
J2VwaWtfcHl0aG9uJywgJy1waCcsICc3LjAnLCAnLXRuJywgJzgnLCAnLW1hJywgJzIwMCcsICctbWV0YWxfYmluZGluZycsICctaW1hZScsICc8aW5maWxlLm1hZT4nLCAnLW9tYWUnLCAnPG91dGZpbGUubWFlPic=

> <r_lp_tautomer_probability>
1

> <r_epik_Ionization_Penalty>
0.00268321

> <r_epik_Ionization_Penalty_Charging>
0.00267875

> <r_epik_Ionization_Penalty_Neutral>
4.46125e-06

> <r_epik_State_Penalty>
0.00186642

> <r_epik_Charging_Adjusted_Penalty>
0.00454517

> <i_epik_Tot_Q>
1

> <i_epik_Tot_abs_Q>
1

> <r_epik_Metal_State_Penalty>
-0

> <b_epik_Metal_Only>
0

> <s_lp_Force_Field>
OPLS_2005

> <r_lp_Energy>
25.1095

> <b_lp_Chiralities_Consistent>
1

> <s_lp_Variant>
AV-unprocessed.smi:2095-2

> <Gold.Version>
5.8.1

> <Gold.Id.Protein>
6NUR|6NUR_protein|mol2

> <Gold.PLP.Fitness>
45.1272

> <Gold.PLP.PLP>
-30.3988

> <Gold.PLP.part.hbond>
-5.0686

> <Gold.PLP.part.metal>
0.0000

> <Gold.PLP.part.buried>
-1.2230

> <Gold.PLP.part.nonpolar>
-25.0497

> <Gold.PLP.part.repulsive>
0.1427

> <Gold.PLP.ligand.clash>
0.0000

> <Gold.PLP.ligand.torsion>
0.8108

> <Gold.PLP.Chemscore.Hbond>
5.3648

> <Gold.PLP.Chemscore.CHOScore>
0.0000

> <Gold.PLP.Chemscore.Metal>
0.0000

> <Gold.Chemscore.Hbonds>
donor molecule, donor type, donor heavy atom, donor atom, acceptor molecule, acceptor atom, score
      L1  H     6    42       P1  7948  2.00
      L1  H    10    36       P1  7948  0.48
      P1  H  7989  7998       L1    18  1.00
      P1  H  7997  8008       L1    16  0.70
      P1  H 10752 10764       L1    12  0.17

> <Gold.PLP.Chemscore.Internal.Correction>
0.2557

> <Gold.Rescore>
     Score         DG    S(hbond)    S(metal)    S(lipo)     H(rot)  DE(clash)    DE(int)     intcor
     12.65     -14.44       2.91        0.00      51.36       2.64       0.05       1.75       ----

> <Gold.Chemscore.Fitness>
12.6457

> <Gold.Chemscore.DG>
-14.4374

> <Gold.Chemscore.ZeroCoef>
-5.4800

> <Gold.Chemscore.Hbond>
2.9092

> <Gold.Chemscore.Metal>
0.0000

> <Gold.Chemscore.Lipo>
51.3592

> <Gold.Chemscore.Internal_Hbond>
0.0000

> <Gold.Chemscore.DEClash>
0.0453

> <Gold.Chemscore.DEInternal>
1.7465

> <Gold.Chemscore.Rot>
2.6439

> <Gold.Chemscore.Internal.Correction>
   9.000000E+99

> <Gold.Chemscore.Hbonds>
donor molecule, donor type, donor heavy atom, donor atom, acceptor molecule, acceptor atom, score
      L1  H     6    42       P1  7948  0.70
      L1  H    10    36       P1  7948  0.47
      P1  H  7989  7998       L1    18  0.43
      P1  H  7997  8008       L1    16  0.04
      P1  H 10752 10764       L1    12  0.02

> <Gold.Chemscore.Hbond.Weighted>
-9.7168

> <Gold.Chemscore.Metal.Weighted>
-0.0000

> <Gold.Chemscore.Lipo.Weighted>
-6.0090

> <Gold.Chemscore.Internal_Hbond.Weighted>
0.0000

> <Gold.Chemscore.DEClash.Weighted>
0.0453

> <Gold.Chemscore.DEInternal.Weighted>
1.7465

> <Gold.Chemscore.Rot.Weighted>
6.7685

> <Gold.Chemscore.Internal.Correction.Weighted>
   9.000000E+99

> <Gold.Protein.RotatedTorsions>
[ 6907 6896 6895 6894 ] final -150.87 input  -60.11 | X-H torsion
[ 7974 7965 7964 7962 ] final -143.65 input  175.53 | X-H torsion
[ 8008 7997 7996 7995 ] final  -55.69 input   59.86 | X-H torsion
[ 10167 10162 10161 10158 ] final  169.76 input  -65.29 | X-H torsion
[ 10718 10713 10712 10709 ] final -101.61 input   66.30 | X-H torsion
[ 10763 10752 10751 10750 ] final  -29.61 input  -60.55 | X-H torsion
[ 11005 11000 10999 10996 ] final  156.93 input  -57.11 | X-H torsion

> <Gold.Protein.ActiveResidues>
 VAL166  LYS551  ARG553  GLY616  TRP617  ASP618  TYR619  PRO620  LYS621  CYS622 
 ASP623  PHE694  ASN695  SER759  ASP760  ASP761  ALA762  ILE779  LEU786  VAL792 
 PHE793  MET794  SER795  GLU796  ALA797  LYS798  CYS799  TRP800  GLU811  SER814 

> <Gold.Protein.RotatedAtoms>
  151.2048  133.4589  159.2596 H   0  0  0  0  0  0  0  0  0  0  0  0  # atno 6907 bound_to 6896
  151.1033  134.9985  159.8469 H   0  0  0  0  0  0  0  0  0  0  0  0  # atno 6908 bound_to 6896
  152.5445  134.1973  159.8751 H   0  0  0  0  0  0  0  0  0  0  0  0  # atno 6909 bound_to 6896
  144.8354  140.5809  143.5487 H   0  0  0  0  0  0  0  0  0  0  0  0  # atno 7974 bound_to 7965
  154.4203  140.1147  156.5517 H   0  0  0  0  0  0  0  0  0  0  0  0  # atno 8008 bound_to 7997
  155.6403  140.3496  155.4693 H   0  0  0  0  0  0  0  0  0  0  0  0  # atno 8009 bound_to 7997
  155.9876  140.1173  157.0658 H   0  0  0  0  0  0  0  0  0  0  0  0  # atno 8010 bound_to 7997
  139.5000  144.3671  151.9764 H   0  0  0  0  0  0  0  0  0  0  0  0  # atno 10167 bound_to 10162
  156.0200  130.5381  150.6988 H   0  0  0  0  0  0  0  0  0  0  0  0  # atno 10718 bound_to 10713
  153.7674  135.6915  153.4913 H   0  0  0  0  0  0  0  0  0  0  0  0  # atno 10763 bound_to 10752
  153.1897  135.4475  155.0132 H   0  0  0  0  0  0  0  0  0  0  0  0  # atno 10764 bound_to 10752
  154.8130  135.3386  154.7186 H   0  0  0  0  0  0  0  0  0  0  0  0  # atno 10765 bound_to 10752
  140.1721  134.8536  157.2702 H   0  0  0  0  0  0  0  0  0  0  0  0  # atno 11005 bound_to 11000
  145.4805  139.1496  143.3764 LP  0  0  0  0  0  0  0  0  0  0  0  0  # atno 17320 bound_to 7965
  146.2653  140.4941  142.8836 LP  0  0  0  0  0  0  0  0  0  0  0  0  # atno 17321 bound_to 7965
  140.3107  144.3541  150.6034 LP  0  0  0  0  0  0  0  0  0  0  0  0  # atno 17342 bound_to 10162
  140.5801  143.2173  151.7444 LP  0  0  0  0  0  0  0  0  0  0  0  0  # atno 17343 bound_to 10162
  157.4652  131.0887  151.0702 LP  0  0  0  0  0  0  0  0  0  0  0  0  # atno 17370 bound_to 10713
  157.1178  130.6049  149.5497 LP  0  0  0  0  0  0  0  0  0  0  0  0  # atno 17371 bound_to 10713
  140.2365  134.3846  155.7499 LP  0  0  0  0  0  0  0  0  0  0  0  0  # atno 17394 bound_to 11000
  141.2218  133.7242  156.8723 LP  0  0  0  0  0  0  0  0  0  0  0  0  # atno 17395 bound_to 11000

$$$$
