AV-unprocessed.smi:2385|AV-procd|sdf|9463|dock7
  -GOLD-   2272013 93D 1   1.00000     0.00000
 Structure written by MMmdl.
 50 52  0  0  0  0  0  0  0  0  2 V2000
  153.0449  143.3634  162.3927 C   0  0  0  0  0  0  0  0  0  0  0  0
  152.2785  143.2214  161.0945 C   0  0  0  0  0  0  0  0  0  0  0  0
  151.3335  144.1865  160.6983 C   0  0  0  0  0  0  0  0  0  0  0  0
  150.6493  144.0062  159.4808 C   0  0  0  0  0  0  0  0  0  0  0  0
  150.9228  142.8669  158.6909 C   0  0  0  0  0  0  0  0  0  0  0  0
  150.1817  142.7819  157.4821 N   0  0  0  0  0  0  0  0  0  0  0  0
  149.9925  141.7070  156.6966 C   0  0  0  0  0  0  0  0  0  0  0  0
  150.4317  140.5787  156.9200 O   0  0  0  0  0  0  0  0  0  0  0  0
  149.2520  142.0196  155.6200 N   0  0  0  0  0  0  0  0  0  0  0  0
  148.8345  141.1282  154.5353 C   0  0  2  0  0  0  0  0  0  0  0  0
  147.6380  141.6795  153.7356 C   0  0  0  0  0  0  0  0  0  0  0  0
  147.2587  140.7254  152.5907 C   0  0  0  0  0  0  0  0  0  0  0  0
  146.9730  139.3595  153.1035 N   0  3  1  0  0  0  0  0  0  0  0  0
  146.4486  138.4463  152.0552 C   0  0  0  0  0  0  0  0  0  0  0  0
  145.8099  137.1809  152.6587 C   0  0  2  0  0  0  0  0  0  0  0  0
  145.3733  136.1266  151.6592 C   0  0  0  0  0  0  0  0  0  0  0  0
  144.3709  135.3064  152.4673 C   0  0  0  0  0  0  0  0  0  0  0  0
  143.8145  136.1996  153.4275 O   0  0  0  0  0  0  0  0  0  0  0  0
  144.4859  137.4532  153.3721 C   0  0  0  0  0  0  0  0  0  0  0  0
  148.1389  138.7961  153.8352 C   0  0  0  0  0  0  0  0  0  0  0  0
  148.5366  139.6947  155.0174 C   0  0  0  0  0  0  0  0  0  0  0  0
  151.8330  141.9408  159.0829 N   0  0  0  0  0  0  0  0  0  0  0  0
  152.4893  142.1149  160.2494 C   0  0  0  0  0  0  0  0  0  0  0  0
  153.0554  144.4003  162.7303 H   0  0  0  0  0  0  0  0  0  0  0  0
  154.0779  143.0380  162.2655 H   0  0  0  0  0  0  0  0  0  0  0  0
  152.5849  142.7531  163.1700 H   0  0  0  0  0  0  0  0  0  0  0  0
  151.1345  145.0520  161.3131 H   0  0  0  0  0  0  0  0  0  0  0  0
  149.9232  144.7394  159.1608 H   0  0  0  0  0  0  0  0  0  0  0  0
  149.7536  143.6433  157.1764 H   0  0  0  0  0  0  0  0  0  0  0  0
  148.9445  142.9782  155.5410 H   0  0  0  0  0  0  0  0  0  0  0  0
  149.6888  141.0778  153.8586 H   0  0  0  0  0  0  0  0  0  0  0  0
  146.7709  141.8143  154.3826 H   0  0  0  0  0  0  0  0  0  0  0  0
  147.8778  142.6635  153.3312 H   0  0  0  0  0  0  0  0  0  0  0  0
  146.3785  141.1188  152.0805 H   0  0  0  0  0  0  0  0  0  0  0  0
  148.0617  140.6794  151.8532 H   0  0  0  0  0  0  0  0  0  0  0  0
  145.6764  138.9592  151.4800 H   0  0  0  0  0  0  0  0  0  0  0  0
  147.2283  138.1924  151.3351 H   0  0  0  0  0  0  0  0  0  0  0  0
  146.4981  136.7284  153.3750 H   0  0  0  0  0  0  0  0  0  0  0  0
  144.8724  136.5911  150.8087 H   0  0  0  0  0  0  0  0  0  0  0  0
  146.1990  135.5216  151.2835 H   0  0  0  0  0  0  0  0  0  0  0  0
  143.5968  134.8642  151.8396 H   0  0  0  0  0  0  0  0  0  0  0  0
  144.8771  134.4996  152.9983 H   0  0  0  0  0  0  0  0  0  0  0  0
  144.6254  137.8732  154.3687 H   0  0  0  0  0  0  0  0  0  0  0  0
  143.8722  138.1478  152.7964 H   0  0  0  0  0  0  0  0  0  0  0  0
  147.9056  137.7989  154.2062 H   0  0  0  0  0  0  0  0  0  0  0  0
  148.9810  138.6858  153.1499 H   0  0  0  0  0  0  0  0  0  0  0  0
  149.4107  139.2785  155.5196 H   0  0  0  0  0  0  0  0  0  0  0  0
  147.7284  139.6915  155.7492 H   0  0  0  0  0  0  0  0  0  0  0  0
  153.2030  141.3483  160.5134 H   0  0  0  0  0  0  0  0  0  0  0  0
  146.2288  139.4689  153.7778 H   0  0  0  0  0  0  0  0  0  0  0  0
  1  2  1  0  0  0  0
  1 24  1  0  0  0  0
  1 25  1  0  0  0  0
  1 26  1  0  0  0  0
  2 23  1  0  0  0  0
  2  3  2  0  0  0  0
  3  4  1  0  0  0  0
  3 27  1  0  0  0  0
  4  5  2  0  0  0  0
  4 28  1  0  0  0  0
  5  6  1  0  0  0  0
  5 22  1  0  0  0  0
  6  7  1  0  0  0  0
  6 29  1  0  0  0  0
  7  8  2  0  0  0  0
  7  9  1  0  0  0  0
  9 10  1  0  0  0  0
  9 30  1  0  0  0  0
 10 21  1  0  0  0  0
 10 11  1  0  0  0  0
 10 31  1  0  0  0  0
 11 12  1  0  0  0  0
 11 32  1  0  0  0  0
 11 33  1  0  0  0  0
 12 13  1  0  0  0  0
 12 34  1  0  0  0  0
 12 35  1  0  0  0  0
 13 14  1  0  0  0  0
 13 20  1  0  0  0  0
 13 50  1  0  0  0  0
 14 15  1  0  0  0  0
 14 36  1  0  0  0  0
 14 37  1  0  0  0  0
 15 19  1  0  0  0  0
 15 16  1  0  0  0  0
 15 38  1  0  0  0  0
 16 17  1  0  0  0  0
 16 39  1  0  0  0  0
 16 40  1  0  0  0  0
 17 18  1  0  0  0  0
 17 41  1  0  0  0  0
 17 42  1  0  0  0  0
 18 19  1  0  0  0  0
 19 43  1  0  0  0  0
 19 44  1  0  0  0  0
 20 21  1  0  0  0  0
 20 45  1  0  0  0  0
 20 46  1  0  0  0  0
 21 47  1  0  0  0  0
 21 48  1  0  0  0  0
 22 23  2  0  0  0  0
 23 49  1  0  0  0  0
M  CHG  1  13   1
M  END
> <s_m_source_file>
AV-unprocessed.smi

> <i_m_source_file_index>
2385

> <i_lp_mmshare_version>
43012

> <i_f3d_flags>
0

> <s_epik_input>
W0NIM11jMVtjSF1bY0hdYyhuW2NIXTEpW05IXUMoPU8pW05IXVtDSF0yW0NIMl1bQ0gyXU4oW0NIMl1bQ0gyXTIpW0NIMl1bQ0BASF0zW0NIMl1bQ0gyXU9bQ0gyXTM=

> <s_epik_cmdline>
J2VwaWtfcHl0aG9uJywgJy1waCcsICc3LjAnLCAnLXRuJywgJzgnLCAnLW1hJywgJzIwMCcsICctbWV0YWxfYmluZGluZycsICctaW1hZScsICc8aW5maWxlLm1hZT4nLCAnLW9tYWUnLCAnPG91dGZpbGUubWFlPic=

> <r_epik_Ionization_Penalty>
0.00752367

> <r_epik_Ionization_Penalty_Charging>
0.00747775

> <r_epik_Ionization_Penalty_Neutral>
4.59207e-05

> <r_epik_State_Penalty>
0.00558817

> <r_epik_Charging_Adjusted_Penalty>
0.0130659

> <i_epik_Tot_Q>
1

> <i_epik_Tot_abs_Q>
1

> <r_epik_Metal_State_Penalty>
-0

> <b_epik_Metal_Only>
0

> <s_lp_Force_Field>
OPLS_2005

> <r_lp_Energy>
37.2882

> <b_lp_Chiralities_Consistent>
1

> <s_lp_Variant>
AV-unprocessed.smi:2385-1

> <Gold.Version>
5.8.1

> <Gold.Id.Protein>
6NUR|6NUR_protein|mol2

> <Gold.PLP.Fitness>
45.9109

> <Gold.PLP.PLP>
-40.8272

> <Gold.PLP.part.hbond>
-2.0107

> <Gold.PLP.part.metal>
0.0000

> <Gold.PLP.part.buried>
-5.2439

> <Gold.PLP.part.nonpolar>
-34.3126

> <Gold.PLP.part.repulsive>
0.2766

> <Gold.PLP.ligand.clash>
0.0000

> <Gold.PLP.ligand.torsion>
0.4781

> <Gold.PLP.Chemscore.Hbond>
2.0000

> <Gold.PLP.Chemscore.CHOScore>
0.0000

> <Gold.PLP.Chemscore.Metal>
0.0000

> <Gold.Chemscore.Hbonds>
donor molecule, donor type, donor heavy atom, donor atom, acceptor molecule, acceptor atom, score
      L1  H     6    29       P1  8028  0.97
      L1  H     9    30       P1  8028  1.00

> <Gold.PLP.Chemscore.Internal.Correction>
0.0398

> <Gold.Rescore>
     Score         DG    S(hbond)    S(metal)    S(lipo)     H(rot)  DE(clash)    DE(int)     intcor
     16.69     -21.28       1.94        0.00     110.51       1.41       1.39       3.19       ----

> <Gold.Chemscore.Fitness>
16.6941

> <Gold.Chemscore.DG>
-21.2750

> <Gold.Chemscore.ZeroCoef>
-5.4800

> <Gold.Chemscore.Hbond>
1.9353

> <Gold.Chemscore.Metal>
0.0000

> <Gold.Chemscore.Lipo>
110.5077

> <Gold.Chemscore.Internal_Hbond>
0.0000

> <Gold.Chemscore.DEClash>
1.3905

> <Gold.Chemscore.DEInternal>
3.1904

> <Gold.Chemscore.Rot>
1.4056

> <Gold.Chemscore.Internal.Correction>
   9.000000E+99

> <Gold.Chemscore.Hbonds>
donor molecule, donor type, donor heavy atom, donor atom, acceptor molecule, acceptor atom, score
      L1  H     6    29       P1  8028  0.78
      L1  H     9    30       P1  8028  1.00

> <Gold.Chemscore.Hbond.Weighted>
-6.4639

> <Gold.Chemscore.Metal.Weighted>
-0.0000

> <Gold.Chemscore.Lipo.Weighted>
-12.9294

> <Gold.Chemscore.Internal_Hbond.Weighted>
0.0000

> <Gold.Chemscore.DEClash.Weighted>
1.3905

> <Gold.Chemscore.DEInternal.Weighted>
3.1904

> <Gold.Chemscore.Rot.Weighted>
3.5982

> <Gold.Chemscore.Internal.Correction.Weighted>
   9.000000E+99

> <Gold.Protein.RotatedTorsions>
[ 6907 6896 6895 6894 ] final -127.64 input  -60.11 | X-H torsion
[ 7974 7965 7964 7962 ] final  150.80 input  175.53 | X-H torsion
[ 8008 7997 7996 7995 ] final  -59.77 input   59.86 | X-H torsion
[ 10167 10162 10161 10158 ] final -139.62 input  -65.29 | X-H torsion
[ 10718 10713 10712 10709 ] final -136.34 input   66.30 | X-H torsion
[ 10763 10752 10751 10750 ] final   99.36 input  -60.55 | X-H torsion
[ 11005 11000 10999 10996 ] final -176.47 input  -57.11 | X-H torsion

> <Gold.Protein.ActiveResidues>
 VAL166  LYS551  ARG553  GLY616  TRP617  ASP618  TYR619  PRO620  LYS621  CYS622 
 ASP623  PHE694  ASN695  SER759  ASP760  ASP761  ALA762  ILE779  LEU786  VAL792 
 PHE793  MET794  SER795  GLU796  ALA797  LYS798  CYS799  TRP800  GLU811  SER814 

> <Gold.Protein.RotatedAtoms>
  150.9094  133.7017  159.2858 H   0  0  0  0  0  0  0  0  0  0  0  0  # atno 6907 bound_to 6896
  151.4508  135.1028  159.9707 H   0  0  0  0  0  0  0  0  0  0  0  0  # atno 6908 bound_to 6896
  152.4921  133.8480  159.7242 H   0  0  0  0  0  0  0  0  0  0  0  0  # atno 6909 bound_to 6896
  144.8338  139.6455  143.6047 H   0  0  0  0  0  0  0  0  0  0  0  0  # atno 7974 bound_to 7965
  154.4367  140.1054  156.6168 H   0  0  0  0  0  0  0  0  0  0  0  0  # atno 8008 bound_to 7997
  155.5751  140.3490  155.4506 H   0  0  0  0  0  0  0  0  0  0  0  0  # atno 8009 bound_to 7997
  156.0361  140.1271  157.0196 H   0  0  0  0  0  0  0  0  0  0  0  0  # atno 8010 bound_to 7997
  139.8362  143.7382  152.2665 H   0  0  0  0  0  0  0  0  0  0  0  0  # atno 10167 bound_to 10162
  156.2760  130.7293  151.1276 H   0  0  0  0  0  0  0  0  0  0  0  0  # atno 10718 bound_to 10713
  153.3005  135.4116  155.1248 H   0  0  0  0  0  0  0  0  0  0  0  0  # atno 10763 bound_to 10752
  154.8548  135.3540  154.5858 H   0  0  0  0  0  0  0  0  0  0  0  0  # atno 10764 bound_to 10752
  153.6283  135.7062  153.5343 H   0  0  0  0  0  0  0  0  0  0  0  0  # atno 10765 bound_to 10752
  140.4517  134.6337  157.4804 H   0  0  0  0  0  0  0  0  0  0  0  0  # atno 11005 bound_to 11000
  146.2639  139.6473  142.9343 LP  0  0  0  0  0  0  0  0  0  0  0  0  # atno 17320 bound_to 7965
  145.4838  141.0438  143.2631 LP  0  0  0  0  0  0  0  0  0  0  0  0  # atno 17321 bound_to 7965
  139.7605  144.7508  151.0371 LP  0  0  0  0  0  0  0  0  0  0  0  0  # atno 17342 bound_to 10162
  140.7802  143.4756  151.0086 LP  0  0  0  0  0  0  0  0  0  0  0  0  # atno 17343 bound_to 10162
  157.7299  131.0620  150.5750 LP  0  0  0  0  0  0  0  0  0  0  0  0  # atno 17370 bound_to 10713
  156.5851  130.4314  149.5960 LP  0  0  0  0  0  0  0  0  0  0  0  0  # atno 17371 bound_to 10713
  140.0002  134.6848  155.9543 LP  0  0  0  0  0  0  0  0  0  0  0  0  # atno 17394 bound_to 11000
  141.1661  133.6537  156.4484 LP  0  0  0  0  0  0  0  0  0  0  0  0  # atno 17395 bound_to 11000

$$$$
