AV-unprocessed.smi:3266|AV-procd|sdf|12503|dock9
  -GOLD-   2272018413D 1   1.00000     0.00000
 Structure written by MMmdl.
 39 40  0  0  0  0  0  0  0  0  2 V2000
  152.9427  139.1342  156.8829 O   0  0  0  0  0  0  0  0  0  0  0  0
  152.1281  139.1727  155.9608 C   0  0  0  0  0  0  0  0  0  0  0  0
  152.2501  138.2300  154.7602 C   0  0  0  0  0  0  0  0  0  0  0  0
  150.9077  137.6210  154.3148 C   0  0  0  0  0  0  0  0  0  0  0  0
  150.3580  136.6086  155.3303 C   0  0  1  0  0  0  0  0  0  0  0  0
  148.8806  136.2729  155.1334 C   0  0  0  0  0  0  0  0  0  0  0  0
  148.7930  134.9105  155.7821 C   0  0  0  0  0  0  0  0  0  0  0  0
  150.1149  134.2805  155.3537 C   0  0  0  0  0  0  0  0  0  0  0  0
  151.0373  135.3594  155.2197 O   0  0  0  0  0  0  0  0  0  0  0  0
  151.0802  140.0101  155.9427 N   0  0  0  0  0  0  0  0  0  0  0  0
  150.7621  140.9860  156.9812 C   0  0  0  0  0  0  0  0  0  0  0  0
  151.1455  142.4340  156.6090 C   0  0  0  0  0  0  0  0  0  0  0  0
  151.4333  143.3244  157.8061 C   0  0  0  0  0  0  0  0  0  0  0  0
  152.3900  142.9781  158.7848 C   0  0  0  0  0  0  0  0  0  0  0  0
  152.6177  143.8545  159.8664 C   0  0  0  0  0  0  0  0  0  0  0  0
  151.8863  145.0580  159.9462 C   0  0  0  0  0  0  0  0  0  0  0  0
  150.9444  145.3552  158.9405 C   0  0  0  0  0  0  0  0  0  0  0  0
  150.7543  144.4895  157.9210 N   0  3  0  0  0  0  0  0  0  0  0  0
  152.6976  138.7863  153.9359 H   0  0  0  0  0  0  0  0  0  0  0  0
  152.9463  137.4288  155.0127 H   0  0  0  0  0  0  0  0  0  0  0  0
  150.1761  138.4190  154.1787 H   0  0  0  0  0  0  0  0  0  0  0  0
  151.0199  137.1343  153.3449 H   0  0  0  0  0  0  0  0  0  0  0  0
  150.5024  136.9792  156.3465 H   0  0  0  0  0  0  0  0  0  0  0  0
  148.2130  137.0074  155.5846 H   0  0  0  0  0  0  0  0  0  0  0  0
  148.6388  136.1958  154.0722 H   0  0  0  0  0  0  0  0  0  0  0  0
  148.7593  135.0141  156.8677 H   0  0  0  0  0  0  0  0  0  0  0  0
  147.9226  134.3360  155.4645 H   0  0  0  0  0  0  0  0  0  0  0  0
  150.4714  133.5361  156.0658 H   0  0  0  0  0  0  0  0  0  0  0  0
  150.0078  133.7961  154.3826 H   0  0  0  0  0  0  0  0  0  0  0  0
  150.4624  139.9763  155.1444 H   0  0  0  0  0  0  0  0  0  0  0  0
  149.7024  140.9286  157.2344 H   0  0  0  0  0  0  0  0  0  0  0  0
  151.3075  140.6900  157.8778 H   0  0  0  0  0  0  0  0  0  0  0  0
  152.0227  142.4284  155.9604 H   0  0  0  0  0  0  0  0  0  0  0  0
  150.3446  142.8817  156.0198 H   0  0  0  0  0  0  0  0  0  0  0  0
  152.9447  142.0543  158.7075 H   0  0  0  0  0  0  0  0  0  0  0  0
  153.3453  143.6070  160.6253 H   0  0  0  0  0  0  0  0  0  0  0  0
  152.0458  145.7424  160.7666 H   0  0  0  0  0  0  0  0  0  0  0  0
  150.3419  146.2515  158.9200 H   0  0  0  0  0  0  0  0  0  0  0  0
  150.0685  144.7248  157.2028 H   0  0  0  0  0  0  0  0  0  0  0  0
  1  2  2  0  0  0  0
  2  3  1  0  0  0  0
  2 10  1  0  0  0  0
  3  4  1  0  0  0  0
  3 19  1  0  0  0  0
  3 20  1  0  0  0  0
  4  5  1  0  0  0  0
  4 21  1  0  0  0  0
  4 22  1  0  0  0  0
  5  9  1  0  0  0  0
  5  6  1  0  0  0  0
  5 23  1  0  0  0  0
  6  7  1  0  0  0  0
  6 24  1  0  0  0  0
  6 25  1  0  0  0  0
  7  8  1  0  0  0  0
  7 26  1  0  0  0  0
  7 27  1  0  0  0  0
  8  9  1  0  0  0  0
  8 28  1  0  0  0  0
  8 29  1  0  0  0  0
 10 11  1  0  0  0  0
 10 30  1  0  0  0  0
 11 12  1  0  0  0  0
 11 31  1  0  0  0  0
 11 32  1  0  0  0  0
 12 13  1  0  0  0  0
 12 33  1  0  0  0  0
 12 34  1  0  0  0  0
 13 18  1  0  0  0  0
 13 14  2  0  0  0  0
 14 15  1  0  0  0  0
 14 35  1  0  0  0  0
 15 16  2  0  0  0  0
 15 36  1  0  0  0  0
 16 17  1  0  0  0  0
 16 37  1  0  0  0  0
 17 18  2  0  0  0  0
 17 38  1  0  0  0  0
 18 39  1  0  0  0  0
M  CHG  1  18   1
M  END
> <s_m_source_file>
AV-unprocessed.smi

> <i_m_source_file_index>
3266

> <i_lp_mmshare_version>
43012

> <i_f3d_flags>
0

> <s_epik_input>
TzFbQ0gyXVtDSDJdW0NIMl1bQ0BIXTFbQ0gyXVtDSDJdQyg9TylbTkhdW0NIMl1bQ0gyXWMyW2NIXVtjSF1bY0hdW2NIXW4y

> <s_epik_cmdline>
J2VwaWtfcHl0aG9uJywgJy1waCcsICc3LjAnLCAnLXRuJywgJzgnLCAnLW1hJywgJzIwMCcsICctbWV0YWxfYmluZGluZycsICctaW1hZScsICc8aW5maWxlLm1hZT4nLCAnLW9tYWUnLCAnPG91dGZpbGUubWFlPic=

> <r_epik_Ionization_Penalty>
1.8495

> <r_epik_Ionization_Penalty_Charging>
1.8495

> <r_epik_Ionization_Penalty_Neutral>
1.53068e-08

> <r_epik_State_Penalty>
1.96688

> <r_epik_Charging_Adjusted_Penalty>
3.81638

> <i_epik_Tot_Q>
1

> <i_epik_Tot_abs_Q>
1

> <r_epik_Metal_State_Penalty>
1.99263

> <b_epik_Metal_Only>
0

> <s_lp_Force_Field>
OPLS_2005

> <r_lp_Energy>
22.1722

> <b_lp_Chiralities_Consistent>
1

> <s_lp_Variant>
AV-unprocessed.smi:3266-4

> <Gold.Version>
5.8.1

> <Gold.Id.Protein>
6NUR|6NUR_protein|mol2

> <Gold.PLP.Fitness>
49.2287

> <Gold.PLP.PLP>
-38.5633

> <Gold.PLP.part.hbond>
-3.0519

> <Gold.PLP.part.metal>
0.0000

> <Gold.PLP.part.buried>
-4.0522

> <Gold.PLP.part.nonpolar>
-32.1937

> <Gold.PLP.part.repulsive>
0.3330

> <Gold.PLP.ligand.clash>
0.0000

> <Gold.PLP.ligand.torsion>
0.6992

> <Gold.PLP.Chemscore.Hbond>
4.0000

> <Gold.PLP.Chemscore.CHOScore>
0.0000

> <Gold.PLP.Chemscore.Metal>
0.0000

> <Gold.Chemscore.Hbonds>
donor molecule, donor type, donor heavy atom, donor atom, acceptor molecule, acceptor atom, score
      L1  H    18    39       P1  8028  2.00
      P1  H  7997  8010       L1     1  1.00
      P1  H 10752 10763       L1     9  1.00

> <Gold.PLP.Chemscore.Internal.Correction>
0.0638

> <Gold.Rescore>
     Score         DG    S(hbond)    S(metal)    S(lipo)     H(rot)  DE(clash)    DE(int)     intcor
     20.63     -21.44       2.39        0.00     108.31       1.84       0.26       0.55       ----

> <Gold.Chemscore.Fitness>
20.6271

> <Gold.Chemscore.DG>
-21.4371

> <Gold.Chemscore.ZeroCoef>
-5.4800

> <Gold.Chemscore.Hbond>
2.3925

> <Gold.Chemscore.Metal>
0.0000

> <Gold.Chemscore.Lipo>
108.3067

> <Gold.Chemscore.Internal_Hbond>
0.0000

> <Gold.Chemscore.DEClash>
0.2585

> <Gold.Chemscore.DEInternal>
0.5514

> <Gold.Chemscore.Rot>
1.8382

> <Gold.Chemscore.Internal.Correction>
   9.000000E+99

> <Gold.Chemscore.Hbonds>
donor molecule, donor type, donor heavy atom, donor atom, acceptor molecule, acceptor atom, score
      L1  H    18    39       P1  8028  0.26
      P1  H  7997  8010       L1     1  0.82
      P1  H 10752 10763       L1     9  0.78

> <Gold.Chemscore.Hbond.Weighted>
-7.9909

> <Gold.Chemscore.Metal.Weighted>
-0.0000

> <Gold.Chemscore.Lipo.Weighted>
-12.6719

> <Gold.Chemscore.Internal_Hbond.Weighted>
0.0000

> <Gold.Chemscore.DEClash.Weighted>
0.2585

> <Gold.Chemscore.DEInternal.Weighted>
0.5514

> <Gold.Chemscore.Rot.Weighted>
4.7058

> <Gold.Chemscore.Internal.Correction.Weighted>
   9.000000E+99

> <Gold.Protein.RotatedTorsions>
[ 6907 6896 6895 6894 ] final -103.06 input  -60.11 | X-H torsion
[ 7974 7965 7964 7962 ] final -174.33 input  175.53 | X-H torsion
[ 8008 7997 7996 7995 ] final   66.02 input   59.86 | X-H torsion
[ 10167 10162 10161 10158 ] final  -71.91 input  -65.29 | X-H torsion
[ 10718 10713 10712 10709 ] final -122.31 input   66.30 | X-H torsion
[ 10763 10752 10751 10750 ] final   58.38 input  -60.55 | X-H torsion
[ 11005 11000 10999 10996 ] final  -82.90 input  -57.11 | X-H torsion

> <Gold.Protein.ActiveResidues>
 VAL166  LYS551  ARG553  GLY616  TRP617  ASP618  TYR619  PRO620  LYS621  CYS622 
 ASP623  PHE694  ASN695  SER759  ASP760  ASP761  ALA762  ILE779  LEU786  VAL792 
 PHE793  MET794  SER795  GLU796  ALA797  LYS798  CYS799  TRP800  GLU811  SER814 

> <Gold.Protein.RotatedAtoms>
  150.7223  134.0486  159.3790 H   0  0  0  0  0  0  0  0  0  0  0  0  # atno 6907 bound_to 6896
  151.8462  135.0571  160.0463 H   0  0  0  0  0  0  0  0  0  0  0  0  # atno 6908 bound_to 6896
  152.2825  133.5448  159.5543 H   0  0  0  0  0  0  0  0  0  0  0  0  # atno 6909 bound_to 6896
  144.7132  140.1487  143.6386 H   0  0  0  0  0  0  0  0  0  0  0  0  # atno 7974 bound_to 7965
  155.6708  140.3497  155.4818 H   0  0  0  0  0  0  0  0  0  0  0  0  # atno 8008 bound_to 7997
  155.9689  140.1152  157.0852 H   0  0  0  0  0  0  0  0  0  0  0  0  # atno 8009 bound_to 7997
  154.4161  140.1161  156.5266 H   0  0  0  0  0  0  0  0  0  0  0  0  # atno 8010 bound_to 7997
  140.5235  143.2329  151.7389 H   0  0  0  0  0  0  0  0  0  0  0  0  # atno 10167 bound_to 10162
  156.1408  130.6464  150.9768 H   0  0  0  0  0  0  0  0  0  0  0  0  # atno 10718 bound_to 10713
  152.9869  135.5609  154.5543 H   0  0  0  0  0  0  0  0  0  0  0  0  # atno 10763 bound_to 10752
  154.4974  135.2795  155.1450 H   0  0  0  0  0  0  0  0  0  0  0  0  # atno 10764 bound_to 10752
  154.2895  135.6329  153.5432 H   0  0  0  0  0  0  0  0  0  0  0  0  # atno 10765 bound_to 10752
  141.1661  133.7267  156.8640 H   0  0  0  0  0  0  0  0  0  0  0  0  # atno 11005 bound_to 11000
  145.9136  139.2502  143.1423 LP  0  0  0  0  0  0  0  0  0  0  0  0  # atno 17320 bound_to 7965
  145.9691  140.8774  143.0171 LP  0  0  0  0  0  0  0  0  0  0  0  0  # atno 17321 bound_to 7965
  139.4931  144.4220  151.9967 LP  0  0  0  0  0  0  0  0  0  0  0  0  # atno 17342 bound_to 10162
  140.3318  144.3307  150.5985 LP  0  0  0  0  0  0  0  0  0  0  0  0  # atno 17343 bound_to 10162
  157.6574  131.0887  150.7916 LP  0  0  0  0  0  0  0  0  0  0  0  0  # atno 17370 bound_to 10713
  156.7992  130.4915  149.5372 LP  0  0  0  0  0  0  0  0  0  0  0  0  # atno 17371 bound_to 10713
  140.1828  134.9021  157.2969 LP  0  0  0  0  0  0  0  0  0  0  0  0  # atno 17394 bound_to 11000
  140.2376  134.3834  155.7494 LP  0  0  0  0  0  0  0  0  0  0  0  0  # atno 17395 bound_to 11000

$$$$
