AV-unprocessed.smi:711|AV-procd|sdf|3467|dock7
  -GOLD-   22720 0453D 1   1.00000     0.00000
 Structure written by MMmdl.
 28 29  0  0  0  0  0  0  0  0  2 V2000
  150.4699  135.3387  154.8537 O   0  0  0  0  0  0  0  0  0  0  0  0
  150.6619  136.4964  155.2227 C   0  0  0  0  0  0  0  0  0  0  0  0
  151.7672  137.2112  154.8606 N   0  5  0  0  0  0  0  0  0  0  0  0
  151.9972  138.5010  155.2574 C   0  0  0  0  0  0  0  0  0  0  0  0
  153.0038  139.1226  154.9169 O   0  0  0  0  0  0  0  0  0  0  0  0
  151.0762  139.1166  156.0566 N   0  0  0  0  0  0  0  0  0  0  0  0
  151.2378  140.4976  156.5337 C   0  0  0  0  0  0  0  0  0  0  0  0
  151.8844  140.5563  157.9338 C   0  0  1  0  0  0  0  0  0  0  0  0
  153.2035  140.0525  157.8536 O   0  0  0  0  0  0  0  0  0  0  0  0
  151.8630  141.9803  158.4760 C   0  0  0  0  0  0  0  0  0  0  0  0
  151.0611  142.9679  157.8602 C   0  0  0  0  0  0  0  0  0  0  0  0
  151.0289  144.2802  158.3702 C   0  0  0  0  0  0  0  0  0  0  0  0
  151.7950  144.6138  159.5027 C   0  0  0  0  0  0  0  0  0  0  0  0
  151.7634  145.8748  159.9950 F   0  0  0  0  0  0  0  0  0  0  0  0
  152.5909  143.6340  160.1256 C   0  0  0  0  0  0  0  0  0  0  0  0
  152.6241  142.3206  159.6177 C   0  0  0  0  0  0  0  0  0  0  0  0
  153.3872  141.3885  160.2380 F   0  0  0  0  0  0  0  0  0  0  0  0
  149.9231  138.4233  156.4625 C   0  0  0  0  0  0  0  0  0  0  0  0
  149.6808  137.1536  156.0837 C   0  0  0  0  0  0  0  0  0  0  0  0
  148.2554  136.3254  156.6009 Cl  0  0  0  0  0  0  0  0  0  0  0  0
  151.7768  141.1296  155.8256 H   0  0  0  0  0  0  0  0  0  0  0  0
  150.2396  140.9357  156.5855 H   0  0  0  0  0  0  0  0  0  0  0  0
  151.3372  139.9122  158.6228 H   0  0  0  0  0  0  0  0  0  0  0  0
  153.5203  139.8992  158.7304 H   0  0  0  0  0  0  0  0  0  0  0  0
  150.4625  142.7217  156.9952 H   0  0  0  0  0  0  0  0  0  0  0  0
  150.4143  145.0293  157.8934 H   0  0  0  0  0  0  0  0  0  0  0  0
  153.1750  143.8896  160.9972 H   0  0  0  0  0  0  0  0  0  0  0  0
  149.2557  138.9846  157.1006 H   0  0  0  0  0  0  0  0  0  0  0  0
  1  2  2  0  0  0  0
  2 19  1  0  0  0  0
  2  3  1  0  0  0  0
  3  4  1  0  0  0  0
  4  5  2  0  0  0  0
  4  6  1  0  0  0  0
  6  7  1  0  0  0  0
  6 18  1  0  0  0  0
  7  8  1  0  0  0  0
  7 21  1  0  0  0  0
  7 22  1  0  0  0  0
  8  9  1  0  0  0  0
  8 10  1  0  0  0  0
  8 23  1  0  0  0  0
  9 24  1  0  0  0  0
 10 16  1  0  0  0  0
 10 11  2  0  0  0  0
 11 12  1  0  0  0  0
 11 25  1  0  0  0  0
 12 13  2  0  0  0  0
 12 26  1  0  0  0  0
 13 14  1  0  0  0  0
 13 15  1  0  0  0  0
 15 16  2  0  0  0  0
 15 27  1  0  0  0  0
 16 17  1  0  0  0  0
 18 19  2  0  0  0  0
 18 28  1  0  0  0  0
 19 20  1  0  0  0  0
M  CHG  1   3  -1
M  END
> <s_m_source_file>
AV-unprocessed.smi

> <i_m_source_file_index>
711

> <i_lp_mmshare_version>
43012

> <i_f3d_flags>
0

> <s_epik_input>
Tz1jMVtuSF1jKD1PKW4oW2NIXWMxQ2wpW0NIMl1bQ0BIXShbT0hdKWMyW2NIXVtjSF1jKEYpW2NIXWMyRg==

> <s_epik_cmdline>
J2VwaWtfcHl0aG9uJywgJy1waCcsICc3LjAnLCAnLXRuJywgJzgnLCAnLW1hJywgJzIwMCcsICctbWV0YWxfYmluZGluZycsICctaW1hZScsICc8aW5maWxlLm1hZT4nLCAnLW9tYWUnLCAnPG91dGZpbGUubWFlPic=

> <r_epik_Ionization_Penalty>
1.7979

> <r_epik_Ionization_Penalty_Charging>
3.23819e-08

> <r_epik_Ionization_Penalty_Neutral>
1.7979

> <r_epik_State_Penalty>
1.91135

> <r_epik_Charging_Adjusted_Penalty>
1.91135

> <i_epik_Tot_Q>
-1

> <i_epik_Tot_abs_Q>
1

> <r_epik_Metal_State_Penalty>
0.014155

> <b_epik_Metal_Only>
0

> <s_lp_Force_Field>
OPLS_2005

> <r_lp_Energy>
21.7913

> <b_lp_Chiralities_Consistent>
1

> <s_lp_Variant>
AV-unprocessed.smi:711-4

> <Gold.Version>
5.8.1

> <Gold.Id.Protein>
6NUR|6NUR_protein|mol2

> <Gold.PLP.Fitness>
50.9276

> <Gold.PLP.PLP>
-42.1238

> <Gold.PLP.part.hbond>
-3.0000

> <Gold.PLP.part.metal>
0.0000

> <Gold.PLP.part.buried>
-5.1763

> <Gold.PLP.part.nonpolar>
-35.0654

> <Gold.PLP.part.repulsive>
0.2870

> <Gold.PLP.ligand.clash>
0.0000

> <Gold.PLP.ligand.torsion>
0.6911

> <Gold.PLP.Chemscore.Hbond>
3.3920

> <Gold.PLP.Chemscore.CHOScore>
0.0000

> <Gold.PLP.Chemscore.Metal>
0.0000

> <Gold.Chemscore.Hbonds>
donor molecule, donor type, donor heavy atom, donor atom, acceptor molecule, acceptor atom, score
      P1  H  7997  8008       L1     5  0.66
      P1  H  7997  8010       L1     9  0.22
      P1  H 10752 10764       L1     3  1.49

> <Gold.PLP.Chemscore.Internal.Correction>
0.0100

> <Gold.Rescore>
     Score         DG    S(hbond)    S(metal)    S(lipo)     H(rot)  DE(clash)    DE(int)     intcor
     13.36     -16.12       1.94        0.00      86.26       2.32       0.26       2.50       ----

> <Gold.Chemscore.Fitness>
13.3629

> <Gold.Chemscore.DG>
-16.1235

> <Gold.Chemscore.ZeroCoef>
-5.4800

> <Gold.Chemscore.Hbond>
1.9404

> <Gold.Chemscore.Metal>
0.0000

> <Gold.Chemscore.Lipo>
86.2614

> <Gold.Chemscore.Internal_Hbond>
0.0000

> <Gold.Chemscore.DEClash>
0.2628

> <Gold.Chemscore.DEInternal>
2.4979

> <Gold.Chemscore.Rot>
2.3164

> <Gold.Chemscore.Internal.Correction>
   9.000000E+99

> <Gold.Chemscore.Hbonds>
donor molecule, donor type, donor heavy atom, donor atom, acceptor molecule, acceptor atom, score
      P1  H  7997  8008       L1     5  0.63
      P1  H  7997  8010       L1     9  0.01
      P1  H 10752 10764       L1     3  0.08

> <Gold.Chemscore.Hbond.Weighted>
-6.4811

> <Gold.Chemscore.Metal.Weighted>
-0.0000

> <Gold.Chemscore.Lipo.Weighted>
-10.0926

> <Gold.Chemscore.Internal_Hbond.Weighted>
0.0000

> <Gold.Chemscore.DEClash.Weighted>
0.2628

> <Gold.Chemscore.DEInternal.Weighted>
2.4979

> <Gold.Chemscore.Rot.Weighted>
5.9301

> <Gold.Chemscore.Internal.Correction.Weighted>
   9.000000E+99

> <Gold.Protein.RotatedTorsions>
[ 6907 6896 6895 6894 ] final  133.12 input  -60.11 | X-H torsion
[ 7974 7965 7964 7962 ] final -127.04 input  175.53 | X-H torsion
[ 8008 7997 7996 7995 ] final    7.32 input   59.86 | X-H torsion
[ 10167 10162 10161 10158 ] final   -3.59 input  -65.29 | X-H torsion
[ 10718 10713 10712 10709 ] final   54.07 input   66.30 | X-H torsion
[ 10763 10752 10751 10750 ] final  -58.40 input  -60.55 | X-H torsion
[ 11005 11000 10999 10996 ] final  -87.53 input  -57.11 | X-H torsion

> <Gold.Protein.ActiveResidues>
 VAL166  LYS551  ARG553  GLY616  TRP617  ASP618  TYR619  PRO620  LYS621  CYS622 
 ASP623  PHE694  ASN695  SER759  ASP760  ASP761  ALA762  ILE779  LEU786  VAL792 
 PHE793  MET794  SER795  GLU796  ALA797  LYS798  CYS799  TRP800  GLU811  SER814 

> <Gold.Protein.RotatedAtoms>
  152.3253  133.5898  159.5772 H   0  0  0  0  0  0  0  0  0  0  0  0  # atno 6907 bound_to 6896
  150.7393  133.9950  159.3628 H   0  0  0  0  0  0  0  0  0  0  0  0  # atno 6908 bound_to 6896
  151.7830  135.0757  160.0427 H   0  0  0  0  0  0  0  0  0  0  0  0  # atno 6909 bound_to 6896
  144.9811  140.7641  143.4611 H   0  0  0  0  0  0  0  0  0  0  0  0  # atno 7974 bound_to 7965
  154.7523  140.2769  155.6282 H   0  0  0  0  0  0  0  0  0  0  0  0  # atno 8008 bound_to 7997
  156.2898  140.2676  156.2206 H   0  0  0  0  0  0  0  0  0  0  0  0  # atno 8009 bound_to 7997
  155.0121  140.0372  157.2393 H   0  0  0  0  0  0  0  0  0  0  0  0  # atno 8010 bound_to 7997
  140.6896  143.6522  150.8340 H   0  0  0  0  0  0  0  0  0  0  0  0  # atno 10167 bound_to 10162
  157.5224  130.8574  149.8577 H   0  0  0  0  0  0  0  0  0  0  0  0  # atno 10718 bound_to 10713
  154.2375  135.6349  153.5196 H   0  0  0  0  0  0  0  0  0  0  0  0  # atno 10763 bound_to 10752
  152.9936  135.5534  154.5946 H   0  0  0  0  0  0  0  0  0  0  0  0  # atno 10764 bound_to 10752
  154.5444  135.2897  155.1040 H   0  0  0  0  0  0  0  0  0  0  0  0  # atno 10765 bound_to 10752
  141.1615  133.7517  156.9321 H   0  0  0  0  0  0  0  0  0  0  0  0  # atno 11005 bound_to 11000
  145.2419  139.2068  143.4988 LP  0  0  0  0  0  0  0  0  0  0  0  0  # atno 17320 bound_to 7965
  146.3408  140.2316  142.8593 LP  0  0  0  0  0  0  0  0  0  0  0  0  # atno 17321 bound_to 7965
  140.0233  143.5519  152.2791 LP  0  0  0  0  0  0  0  0  0  0  0  0  # atno 17342 bound_to 10162
  139.6285  144.7641  151.2586 LP  0  0  0  0  0  0  0  0  0  0  0  0  # atno 17343 bound_to 10162
  156.0363  130.3750  150.1552 LP  0  0  0  0  0  0  0  0  0  0  0  0  # atno 17370 bound_to 10713
  156.9740  130.9843  151.3452 LP  0  0  0  0  0  0  0  0  0  0  0  0  # atno 17371 bound_to 10713
  140.1379  134.9313  157.2427 LP  0  0  0  0  0  0  0  0  0  0  0  0  # atno 17394 bound_to 11000
  140.2872  134.3282  155.7325 LP  0  0  0  0  0  0  0  0  0  0  0  0  # atno 17395 bound_to 11000

$$$$
