AV-unprocessed.smi:3348|AV-procd|sdf|12922|dock1
  -GOLD-   2272019343D 1   1.00000     0.00000
 Structure written by MMmdl.
 47 48  0  0  0  0  0  0  0  0  2 V2000
  143.7427  136.1237  152.7353 C   0  0  0  0  0  0  0  0  0  0  0  0
  145.1736  135.7766  152.2920 C   0  0  1  0  0  0  0  0  0  0  0  0
  145.1869  135.2909  150.8276 C   0  0  0  0  0  0  0  0  0  0  0  0
  144.9314  133.8657  150.6938 N   0  0  0  0  0  0  0  0  0  0  0  0
  143.7228  133.2042  150.7601 C   0  0  0  0  0  0  0  0  0  0  0  0
  143.9777  131.8723  150.6018 C   0  0  0  0  0  0  0  0  0  0  0  0
  145.3919  131.8134  150.4572 C   0  0  0  0  0  0  0  0  0  0  0  0
  145.9596  133.0072  150.5178 N   0  0  0  0  0  0  0  0  0  0  0  0
  146.0764  136.9396  152.4507 N   0  3  0  0  0  0  0  0  0  0  0  0
  145.8693  138.0379  151.4841 C   0  0  0  0  0  0  0  0  0  0  0  0
  146.7833  139.2242  151.8042 C   0  0  0  0  0  0  0  0  0  0  0  0
  147.4121  138.9825  153.0541 O   0  0  0  0  0  0  0  0  0  0  0  0
  147.8950  140.1493  153.7091 C   0  0  1  0  0  0  0  0  0  0  0  0
  146.7283  140.8642  154.4237 C   0  0  0  0  0  0  0  0  0  0  0  0
  147.2223  142.0543  155.2591 C   0  0  0  0  0  0  0  0  0  0  0  0
  148.2912  141.6134  156.2681 C   0  0  0  0  0  0  0  0  0  0  0  0
  149.4589  140.9098  155.5607 C   0  0  0  0  0  0  0  0  0  0  0  0
  148.9792  139.7101  154.7193 C   0  0  2  0  0  0  0  0  0  0  0  0
  150.1675  139.0302  154.0196 C   0  0  0  0  0  0  0  0  0  0  0  0
  143.0748  135.2734  152.5946 H   0  0  0  0  0  0  0  0  0  0  0  0
  143.3402  136.9583  152.1602 H   0  0  0  0  0  0  0  0  0  0  0  0
  143.6984  136.3933  153.7902 H   0  0  0  0  0  0  0  0  0  0  0  0
  145.5398  134.9668  152.9249 H   0  0  0  0  0  0  0  0  0  0  0  0
  144.4305  135.8215  150.2477 H   0  0  0  0  0  0  0  0  0  0  0  0
  146.1487  135.5153  150.3638 H   0  0  0  0  0  0  0  0  0  0  0  0
  142.7912  133.7295  150.9121 H   0  0  0  0  0  0  0  0  0  0  0  0
  143.2638  131.0620  150.5972 H   0  0  0  0  0  0  0  0  0  0  0  0
  146.0183  130.9453  150.3142 H   0  0  0  0  0  0  0  0  0  0  0  0
  145.9184  137.3209  153.3728 H   0  0  0  0  0  0  0  0  0  0  0  0
  146.0521  137.6935  150.4663 H   0  0  0  0  0  0  0  0  0  0  0  0
  144.8284  138.3596  151.5343 H   0  0  0  0  0  0  0  0  0  0  0  0
  147.5424  139.3180  151.0264 H   0  0  0  0  0  0  0  0  0  0  0  0
  146.2102  140.1514  151.8163 H   0  0  0  0  0  0  0  0  0  0  0  0
  148.3526  140.8263  152.9850 H   0  0  0  0  0  0  0  0  0  0  0  0
  145.9922  141.2175  153.7022 H   0  0  0  0  0  0  0  0  0  0  0  0
  146.2093  140.1578  155.0725 H   0  0  0  0  0  0  0  0  0  0  0  0
  147.6343  142.8190  154.5992 H   0  0  0  0  0  0  0  0  0  0  0  0
  146.3843  142.5154  155.7827 H   0  0  0  0  0  0  0  0  0  0  0  0
  148.6588  142.4775  156.8223 H   0  0  0  0  0  0  0  0  0  0  0  0
  147.8477  140.9400  157.0027 H   0  0  0  0  0  0  0  0  0  0  0  0
  149.9772  141.6250  154.9206 H   0  0  0  0  0  0  0  0  0  0  0  0
  150.1857  140.5784  156.3031 H   0  0  0  0  0  0  0  0  0  0  0  0
  148.5348  138.9823  155.4001 H   0  0  0  0  0  0  0  0  0  0  0  0
  150.6394  139.6993  153.2995 H   0  0  0  0  0  0  0  0  0  0  0  0
  149.8544  138.1335  153.4844 H   0  0  0  0  0  0  0  0  0  0  0  0
  150.9276  138.7294  154.7410 H   0  0  0  0  0  0  0  0  0  0  0  0
  147.0345  136.6241  152.3953 H   0  0  0  0  0  0  0  0  0  0  0  0
  1  2  1  0  0  0  0
  1 20  1  0  0  0  0
  1 21  1  0  0  0  0
  1 22  1  0  0  0  0
  2  3  1  0  0  0  0
  2  9  1  0  0  0  0
  2 23  1  0  0  0  0
  3  4  1  0  0  0  0
  3 24  1  0  0  0  0
  3 25  1  0  0  0  0
  4  8  1  0  0  0  0
  4  5  1  0  0  0  0
  5  6  2  0  0  0  0
  5 26  1  0  0  0  0
  6  7  1  0  0  0  0
  6 27  1  0  0  0  0
  7  8  2  0  0  0  0
  7 28  1  0  0  0  0
  9 10  1  0  0  0  0
  9 29  1  0  0  0  0
  9 47  1  0  0  0  0
 10 11  1  0  0  0  0
 10 30  1  0  0  0  0
 10 31  1  0  0  0  0
 11 12  1  0  0  0  0
 11 32  1  0  0  0  0
 11 33  1  0  0  0  0
 12 13  1  0  0  0  0
 13 18  1  0  0  0  0
 13 14  1  0  0  0  0
 13 34  1  0  0  0  0
 14 15  1  0  0  0  0
 14 35  1  0  0  0  0
 14 36  1  0  0  0  0
 15 16  1  0  0  0  0
 15 37  1  0  0  0  0
 15 38  1  0  0  0  0
 16 17  1  0  0  0  0
 16 39  1  0  0  0  0
 16 40  1  0  0  0  0
 17 18  1  0  0  0  0
 17 41  1  0  0  0  0
 17 42  1  0  0  0  0
 18 19  1  0  0  0  0
 18 43  1  0  0  0  0
 19 44  1  0  0  0  0
 19 45  1  0  0  0  0
 19 46  1  0  0  0  0
M  CHG  1   9   1
M  END
> <s_m_source_file>
AV-unprocessed.smi

> <i_m_source_file_index>
3348

> <i_lp_mmshare_version>
43012

> <i_f3d_flags>
0

> <s_epik_input>
bjFbY0hdW2NIXVtjSF1uMVtDSDJdW0NAQEhdKFtDSDNdKVtOSF1bQ0gyXVtDSDJdT1tDQEBIXTJbQ0gyXVtDSDJdW0NIMl1bQ0gyXVtDQEhdMltDSDNd

> <s_epik_cmdline>
J2VwaWtfcHl0aG9uJywgJy1waCcsICc3LjAnLCAnLXRuJywgJzgnLCAnLW1hJywgJzIwMCcsICctbWV0YWxfYmluZGluZycsICctaW1hZScsICc8aW5maWxlLm1hZT4nLCAnLW9tYWUnLCAnPG91dGZpbGUubWFlPic=

> <r_lp_tautomer_probability>
1

> <r_epik_Ionization_Penalty>
0.00925088

> <r_epik_Ionization_Penalty_Charging>
0.00924645

> <r_epik_Ionization_Penalty_Neutral>
4.42413e-06

> <r_epik_State_Penalty>
0.0070118

> <r_epik_Charging_Adjusted_Penalty>
0.0162583

> <i_epik_Tot_Q>
1

> <i_epik_Tot_abs_Q>
1

> <r_epik_Metal_State_Penalty>
0.00701222

> <b_epik_Metal_Only>
0

> <s_lp_Force_Field>
OPLS_2005

> <r_lp_Energy>
15.644

> <b_lp_Chiralities_Consistent>
1

> <s_lp_Variant>
AV-unprocessed.smi:3348-8

> <Gold.Version>
5.8.1

> <Gold.Id.Protein>
6NUR|6NUR_protein|mol2

> <Gold.PLP.Fitness>
44.1472

> <Gold.PLP.PLP>
-34.5544

> <Gold.PLP.part.hbond>
-1.0000

> <Gold.PLP.part.metal>
0.0000

> <Gold.PLP.part.buried>
0.7093

> <Gold.PLP.part.nonpolar>
-35.1090

> <Gold.PLP.part.repulsive>
0.6060

> <Gold.PLP.ligand.clash>
0.0000

> <Gold.PLP.ligand.torsion>
1.3252

> <Gold.PLP.Chemscore.Hbond>
2.0000

> <Gold.PLP.Chemscore.CHOScore>
2.0000

> <Gold.PLP.Chemscore.Metal>
0.0000

> <Gold.Chemscore.Hbonds>
donor molecule, donor type, donor heavy atom, donor atom, acceptor molecule, acceptor atom, score
      L1  H     9    47       P1  7948  2.00
      L1  C     5    26       P1 10186  1.00

> <Gold.PLP.Chemscore.Internal.Correction>
0.2431

> <Gold.Rescore>
     Score         DG    S(hbond)    S(metal)    S(lipo)     H(rot)  DE(clash)    DE(int)     intcor
     13.31     -15.68       1.00        0.00      98.41       1.82       1.49       0.88       ----

> <Gold.Chemscore.Fitness>
13.3067

> <Gold.Chemscore.DG>
-15.6818

> <Gold.Chemscore.ZeroCoef>
-5.4800

> <Gold.Chemscore.Hbond>
0.9994

> <Gold.Chemscore.Metal>
0.0000

> <Gold.Chemscore.Lipo>
98.4053

> <Gold.Chemscore.Internal_Hbond>
0.0000

> <Gold.Chemscore.DEClash>
1.4902

> <Gold.Chemscore.DEInternal>
0.8849

> <Gold.Chemscore.Rot>
1.8163

> <Gold.Chemscore.Internal.Correction>
   9.000000E+99

> <Gold.Chemscore.Hbonds>
donor molecule, donor type, donor heavy atom, donor atom, acceptor molecule, acceptor atom, score
      L1  H     9    47       P1  7948  0.94

> <Gold.Chemscore.Hbond.Weighted>
-3.3381

> <Gold.Chemscore.Metal.Weighted>
-0.0000

> <Gold.Chemscore.Lipo.Weighted>
-11.5134

> <Gold.Chemscore.Internal_Hbond.Weighted>
0.0000

> <Gold.Chemscore.DEClash.Weighted>
1.4902

> <Gold.Chemscore.DEInternal.Weighted>
0.8849

> <Gold.Chemscore.Rot.Weighted>
4.6497

> <Gold.Chemscore.Internal.Correction.Weighted>
   9.000000E+99

> <Gold.Protein.RotatedTorsions>
[ 6907 6896 6895 6894 ] final  110.90 input  -60.11 | X-H torsion
[ 7974 7965 7964 7962 ] final -155.60 input  175.53 | X-H torsion
[ 8008 7997 7996 7995 ] final  133.72 input   59.86 | X-H torsion
[ 10167 10162 10161 10158 ] final  -35.38 input  -65.29 | X-H torsion
[ 10718 10713 10712 10709 ] final  159.23 input   66.30 | X-H torsion
[ 10763 10752 10751 10750 ] final   68.67 input  -60.55 | X-H torsion
[ 11005 11000 10999 10996 ] final   75.40 input  -57.11 | X-H torsion

> <Gold.Protein.ActiveResidues>
 VAL166  LYS551  ARG553  GLY616  TRP617  ASP618  TYR619  PRO620  LYS621  CYS622 
 ASP623  PHE694  ASN695  SER759  ASP760  ASP761  ALA762  ILE779  LEU786  VAL792 
 PHE793  MET794  SER795  GLU796  ALA797  LYS798  CYS799  TRP800  GLU811  SER814 

> <Gold.Protein.RotatedAtoms>
  152.4997  133.8735  159.7310 H   0  0  0  0  0  0  0  0  0  0  0  0  # atno 6907 bound_to 6896
  150.9215  133.6865  159.2837 H   0  0  0  0  0  0  0  0  0  0  0  0  # atno 6908 bound_to 6896
  151.4241  135.1006  159.9675 H   0  0  0  0  0  0  0  0  0  0  0  0  # atno 6909 bound_to 6896
  144.7632  140.4226  143.5961 H   0  0  0  0  0  0  0  0  0  0  0  0  # atno 7974 bound_to 7965
  156.2994  140.2514  156.3300 H   0  0  0  0  0  0  0  0  0  0  0  0  # atno 8008 bound_to 7997
  154.9154  140.0402  157.1988 H   0  0  0  0  0  0  0  0  0  0  0  0  # atno 8009 bound_to 7997
  154.8364  140.2884  155.5692 H   0  0  0  0  0  0  0  0  0  0  0  0  # atno 8010 bound_to 7997
  140.7166  143.3482  151.2212 H   0  0  0  0  0  0  0  0  0  0  0  0  # atno 10167 bound_to 10162
  157.1671  131.0601  151.2202 H   0  0  0  0  0  0  0  0  0  0  0  0  # atno 10718 bound_to 10713
  153.0247  135.5239  154.7169 H   0  0  0  0  0  0  0  0  0  0  0  0  # atno 10763 bound_to 10752
  154.6236  135.2892  155.0300 H   0  0  0  0  0  0  0  0  0  0  0  0  # atno 10764 bound_to 10752
  154.1278  135.6597  153.4968 H   0  0  0  0  0  0  0  0  0  0  0  0  # atno 10765 bound_to 10752
  139.9345  134.7514  156.1266 H   0  0  0  0  0  0  0  0  0  0  0  0  # atno 11005 bound_to 11000
  145.6552  139.1571  143.2839 LP  0  0  0  0  0  0  0  0  0  0  0  0  # atno 17320 bound_to 7965
  146.1716  140.6637  142.9231 LP  0  0  0  0  0  0  0  0  0  0  0  0  # atno 17321 bound_to 7965
  139.7006  143.9539  152.2903 LP  0  0  0  0  0  0  0  0  0  0  0  0  # atno 17342 bound_to 10162
  139.9231  144.6787  150.8440 LP  0  0  0  0  0  0  0  0  0  0  0  0  # atno 17343 bound_to 10162
  157.4078  130.7369  149.6816 LP  0  0  0  0  0  0  0  0  0  0  0  0  # atno 17370 bound_to 10713
  155.9744  130.4103  150.3924 LP  0  0  0  0  0  0  0  0  0  0  0  0  # atno 17371 bound_to 10713
  141.0952  133.6698  156.2630 LP  0  0  0  0  0  0  0  0  0  0  0  0  # atno 17394 bound_to 11000
  140.6111  134.5457  157.5533 LP  0  0  0  0  0  0  0  0  0  0  0  0  # atno 17395 bound_to 11000

$$$$
