AV-unprocessed.smi:1111|AV-procd|sdf|4794|dock5
  -GOLD-   22720 3343D 1   1.00000     0.00000
 Structure written by MMmdl.
 33 34  0  0  0  0  0  0  0  0  2 V2000
  146.1327  135.4845  155.5089 C   0  0  0  0  0  0  0  0  0  0  0  0
  147.4870  134.8505  155.1261 C   0  0  1  0  0  0  0  0  0  0  0  0
  147.5190  134.5279  153.6928 N   0  0  0  0  0  0  0  0  0  0  0  0
  146.7550  133.6508  153.0181 C   0  0  0  0  0  0  0  0  0  0  0  0
  145.8644  132.9745  153.5306 O   0  0  0  0  0  0  0  0  0  0  0  0
  147.0383  133.5179  151.5220 C   0  0  0  0  0  0  0  0  0  0  0  0
  145.8263  133.1522  150.7835 N   0  0  0  0  0  0  0  0  0  0  0  0
  145.6351  132.0481  149.9923 C   0  0  0  0  0  0  0  0  0  0  0  0
  144.3543  132.1300  149.5098 C   0  0  0  0  0  0  0  0  0  0  0  0
  143.8188  133.2806  150.0242 N   0  3  0  0  0  0  0  0  0  0  0  0
  144.7154  133.9013  150.7977 C   0  0  0  0  0  0  0  0  0  0  0  0
  148.6332  135.8553  155.3947 C   0  0  0  0  0  0  0  0  0  0  0  0
  149.9793  135.1196  155.3929 C   0  0  0  0  0  0  0  0  0  0  0  0
  149.6274  133.4402  156.0285 S   0  0  0  0  0  0  0  0  0  0  0  0
  150.0541  132.4540  155.0241 O   0  0  0  0  0  0  0  0  0  0  0  0
  150.0683  133.3377  157.4277 O   0  0  0  0  0  0  0  0  0  0  0  0
  147.8016  133.6033  155.9845 C   0  0  0  0  0  0  0  0  0  0  0  0
  146.1322  135.8173  156.5474 H   0  0  0  0  0  0  0  0  0  0  0  0
  145.3066  134.7818  155.4019 H   0  0  0  0  0  0  0  0  0  0  0  0
  145.9130  136.3533  154.8877 H   0  0  0  0  0  0  0  0  0  0  0  0
  148.2182  135.0212  153.1567 H   0  0  0  0  0  0  0  0  0  0  0  0
  147.4219  134.4550  151.1151 H   0  0  0  0  0  0  0  0  0  0  0  0
  147.7963  132.7526  151.3478 H   0  0  0  0  0  0  0  0  0  0  0  0
  146.4041  131.3053  149.8361 H   0  0  0  0  0  0  0  0  0  0  0  0
  143.7986  131.4734  148.8562 H   0  0  0  0  0  0  0  0  0  0  0  0
  144.5718  134.8264  151.3275 H   0  0  0  0  0  0  0  0  0  0  0  0
  148.6315  136.6838  154.6849 H   0  0  0  0  0  0  0  0  0  0  0  0
  148.4944  136.2973  156.3825 H   0  0  0  0  0  0  0  0  0  0  0  0
  150.3714  135.0224  154.3804 H   0  0  0  0  0  0  0  0  0  0  0  0
  150.7318  135.6075  156.0124 H   0  0  0  0  0  0  0  0  0  0  0  0
  147.4701  133.7540  157.0123 H   0  0  0  0  0  0  0  0  0  0  0  0
  147.3523  132.6767  155.6282 H   0  0  0  0  0  0  0  0  0  0  0  0
  142.8802  133.6159  149.8464 H   0  0  0  0  0  0  0  0  0  0  0  0
  1  2  1  0  0  0  0
  1 18  1  0  0  0  0
  1 19  1  0  0  0  0
  1 20  1  0  0  0  0
  2 17  1  0  0  0  0
  2  3  1  0  0  0  0
  2 12  1  0  0  0  0
  3  4  1  0  0  0  0
  3 21  1  0  0  0  0
  4  5  2  0  0  0  0
  4  6  1  0  0  0  0
  6  7  1  0  0  0  0
  6 22  1  0  0  0  0
  6 23  1  0  0  0  0
  7 11  1  0  0  0  0
  7  8  1  0  0  0  0
  8  9  2  0  0  0  0
  8 24  1  0  0  0  0
  9 10  1  0  0  0  0
  9 25  1  0  0  0  0
 10 11  2  0  0  0  0
 10 33  1  0  0  0  0
 11 26  1  0  0  0  0
 12 13  1  0  0  0  0
 12 27  1  0  0  0  0
 12 28  1  0  0  0  0
 13 14  1  0  0  0  0
 13 29  1  0  0  0  0
 13 30  1  0  0  0  0
 14 15  2  0  0  0  0
 14 16  2  0  0  0  0
 14 17  1  0  0  0  0
 17 31  1  0  0  0  0
 17 32  1  0  0  0  0
M  CHG  1  10   1
M  END
> <s_m_source_file>
AV-unprocessed.smi

> <i_m_source_file_index>
1111

> <i_lp_mmshare_version>
43012

> <i_f3d_flags>
0

> <s_epik_input>
Tz1TKD1PKShbQ0gyXTEpW0NIMl1bQ0gyXVtDQEBdMShbQ0gzXSlbTkhdQyg9TylbQ0gyXW4yW2NIXVtjSF1uW2NIXTI=

> <s_epik_cmdline>
J2VwaWtfcHl0aG9uJywgJy1waCcsICc3LjAnLCAnLXRuJywgJzgnLCAnLW1hJywgJzIwMCcsICctbWV0YWxfYmluZGluZycsICctaW1hZScsICc8aW5maWxlLm1hZT4nLCAnLW9tYWUnLCAnPG91dGZpbGUubWFlPic=

> <r_lp_tautomer_probability>
1

> <r_epik_Ionization_Penalty>
0.638881

> <r_epik_Ionization_Penalty_Charging>
0

> <r_epik_Ionization_Penalty_Neutral>
0.638881

> <r_epik_State_Penalty>
0.656385

> <r_epik_Charging_Adjusted_Penalty>
0.656385

> <i_epik_Tot_Q>
1

> <i_epik_Tot_abs_Q>
1

> <r_epik_Metal_State_Penalty>
0.832701

> <b_epik_Metal_Only>
0

> <s_lp_Force_Field>
OPLS_2005

> <r_lp_Energy>
7.94824

> <b_lp_Chiralities_Consistent>
1

> <s_lp_Variant>
AV-unprocessed.smi:1111-3

> <Gold.Version>
5.8.1

> <Gold.Id.Protein>
6NUR|6NUR_protein|mol2

> <Gold.PLP.Fitness>
36.7406

> <Gold.PLP.PLP>
-23.5000

> <Gold.PLP.part.hbond>
-2.9590

> <Gold.PLP.part.metal>
0.0000

> <Gold.PLP.part.buried>
-4.4061

> <Gold.PLP.part.nonpolar>
-16.2644

> <Gold.PLP.part.repulsive>
0.1511

> <Gold.PLP.ligand.clash>
0.0000

> <Gold.PLP.ligand.torsion>
0.3915

> <Gold.PLP.Chemscore.Hbond>
3.9920

> <Gold.PLP.Chemscore.CHOScore>
0.6769

> <Gold.PLP.Chemscore.Metal>
0.0000

> <Gold.Chemscore.Hbonds>
donor molecule, donor type, donor heavy atom, donor atom, acceptor molecule, acceptor atom, score
      L1  H     3    21       P1  7948  1.00
      L1  H    10    33       P1 10186  1.85
      P1  H  6896  6907       L1    16  0.99
      L1  C     8    24       P1 10747  0.75

> <Gold.PLP.Chemscore.Internal.Correction>
0.0169

> <Gold.Rescore>
     Score         DG    S(hbond)    S(metal)    S(lipo)     H(rot)  DE(clash)    DE(int)     intcor
     14.86     -15.28       2.91        0.00      39.46       1.78       0.00       0.41       ----

> <Gold.Chemscore.Fitness>
14.8631

> <Gold.Chemscore.DG>
-15.2756

> <Gold.Chemscore.ZeroCoef>
-5.4800

> <Gold.Chemscore.Hbond>
2.9139

> <Gold.Chemscore.Metal>
0.0000

> <Gold.Chemscore.Lipo>
39.4593

> <Gold.Chemscore.Internal_Hbond>
0.0000

> <Gold.Chemscore.DEClash>
0.0004

> <Gold.Chemscore.DEInternal>
0.4121

> <Gold.Chemscore.Rot>
1.7787

> <Gold.Chemscore.Internal.Correction>
   9.000000E+99

> <Gold.Chemscore.Hbonds>
donor molecule, donor type, donor heavy atom, donor atom, acceptor molecule, acceptor atom, score
      L1  H     3    21       P1  7948  0.92
      L1  H    10    33       P1 10186  0.89
      P1  H  6896  6907       L1    16  0.89

> <Gold.Chemscore.Hbond.Weighted>
-9.7325

> <Gold.Chemscore.Metal.Weighted>
-0.0000

> <Gold.Chemscore.Lipo.Weighted>
-4.6167

> <Gold.Chemscore.Internal_Hbond.Weighted>
0.0000

> <Gold.Chemscore.DEClash.Weighted>
0.0004

> <Gold.Chemscore.DEInternal.Weighted>
0.4121

> <Gold.Chemscore.Rot.Weighted>
4.5536

> <Gold.Chemscore.Internal.Correction.Weighted>
   9.000000E+99

> <Gold.Protein.RotatedTorsions>
[ 6907 6896 6895 6894 ] final -141.24 input  -60.11 | X-H torsion
[ 7974 7965 7964 7962 ] final -144.38 input  175.53 | X-H torsion
[ 8008 7997 7996 7995 ] final  -19.03 input   59.86 | X-H torsion
[ 10167 10162 10161 10158 ] final   95.83 input  -65.29 | X-H torsion
[ 10718 10713 10712 10709 ] final  -69.12 input   66.30 | X-H torsion
[ 10763 10752 10751 10750 ] final  -95.39 input  -60.55 | X-H torsion
[ 11005 11000 10999 10996 ] final -119.16 input  -57.11 | X-H torsion

> <Gold.Protein.ActiveResidues>
 VAL166  LYS551  ARG553  GLY616  TRP617  ASP618  TYR619  PRO620  LYS621  CYS622 
 ASP623  PHE694  ASN695  SER759  ASP760  ASP761  ALA762  ILE779  LEU786  VAL792 
 PHE793  MET794  SER795  GLU796  ALA797  LYS798  CYS799  TRP800  GLU811  SER814 

> <Gold.Protein.RotatedAtoms>
  151.0712  133.5464  159.2626 H   0  0  0  0  0  0  0  0  0  0  0  0  # atno 6907 bound_to 6896
  151.2403  135.0586  159.9032 H   0  0  0  0  0  0  0  0  0  0  0  0  # atno 6908 bound_to 6896
  152.5412  134.0488  159.8154 H   0  0  0  0  0  0  0  0  0  0  0  0  # atno 6909 bound_to 6896
  144.8302  140.5717  143.5520 H   0  0  0  0  0  0  0  0  0  0  0  0  # atno 7974 bound_to 7965
  154.4865  140.2100  155.9644 H   0  0  0  0  0  0  0  0  0  0  0  0  # atno 8008 bound_to 7997
  156.1243  140.3208  155.8223 H   0  0  0  0  0  0  0  0  0  0  0  0  # atno 8009 bound_to 7997
  155.4411  140.0510  157.3001 H   0  0  0  0  0  0  0  0  0  0  0  0  # atno 8010 bound_to 7997
  139.7952  144.6836  150.9839 H   0  0  0  0  0  0  0  0  0  0  0  0  # atno 10167 bound_to 10162
  156.0471  130.4307  150.2101 H   0  0  0  0  0  0  0  0  0  0  0  0  # atno 10718 bound_to 10713
  154.7144  135.5122  153.8715 H   0  0  0  0  0  0  0  0  0  0  0  0  # atno 10763 bound_to 10752
  153.0807  135.6630  154.0059 H   0  0  0  0  0  0  0  0  0  0  0  0  # atno 10764 bound_to 10752
  153.9895  135.3021  155.3392 H   0  0  0  0  0  0  0  0  0  0  0  0  # atno 10765 bound_to 10752
  141.0235  134.0089  157.3248 H   0  0  0  0  0  0  0  0  0  0  0  0  # atno 11005 bound_to 11000
  145.4913  139.1488  143.3708 LP  0  0  0  0  0  0  0  0  0  0  0  0  # atno 17320 bound_to 7965
  146.2605  140.5051  142.8855 LP  0  0  0  0  0  0  0  0  0  0  0  0  # atno 17321 bound_to 7965
  140.7820  143.4339  151.0652 LP  0  0  0  0  0  0  0  0  0  0  0  0  # atno 17342 bound_to 10162
  139.8014  143.8078  152.3163 LP  0  0  0  0  0  0  0  0  0  0  0  0  # atno 17343 bound_to 10162
  157.0189  130.9973  151.3345 LP  0  0  0  0  0  0  0  0  0  0  0  0  # atno 17370 bound_to 10713
  157.5358  130.8088  149.7970 LP  0  0  0  0  0  0  0  0  0  0  0  0  # atno 17371 bound_to 10713
  139.9161  135.0197  156.7886 LP  0  0  0  0  0  0  0  0  0  0  0  0  # atno 17394 bound_to 11000
  140.6532  133.9712  155.7766 LP  0  0  0  0  0  0  0  0  0  0  0  0  # atno 17395 bound_to 11000

$$$$
