AV-unprocessed.smi:241|AV-procd|sdf|1841|dock7
  -GOLD-   2262020453D 1   1.00000     0.00000
 Structure written by MMmdl.
 54 57  0  0  0  0  0  0  0  0  1 V2000
  153.9353  140.5669  160.3085 C   0  0  0  0  0  0  0  0  0  0  0  0
  153.6161  140.1475  158.9938 O   0  0  0  0  0  0  0  0  0  0  0  0
  152.2953  139.6438  158.8869 C   0  0  0  0  0  0  0  0  0  0  0  0
  151.3280  140.7538  158.4336 C   0  0  1  0  0  0  0  0  0  0  0  0
  151.8017  142.1460  158.8590 C   0  0  0  0  0  0  0  0  0  0  0  0
  151.0776  143.0614  157.8723 C   0  0  1  0  0  0  0  0  0  0  0  0
  151.7182  144.3150  157.6862 O   0  0  0  0  0  0  0  0  0  0  0  0
  151.9994  144.9930  158.9000 C   0  0  0  0  0  0  0  0  0  0  0  0
  151.0966  142.2454  156.5772 C   0  0  0  0  0  0  0  0  0  0  0  0
  151.2066  140.8466  156.9780 N   0  0  0  0  0  0  0  0  0  0  0  0
  150.4486  139.9711  156.2699 C   0  0  0  0  0  0  0  0  0  0  0  0
  150.4175  140.0322  154.9125 N   0  0  0  0  0  0  0  0  0  0  0  0
  149.6817  139.1640  154.2128 C   0  0  0  0  0  0  0  0  0  0  0  0
  148.9198  138.1651  154.6616 N   0  0  0  0  0  0  0  0  0  0  0  0
  148.9512  138.0932  156.0231 C   0  0  0  0  0  0  0  0  0  0  0  0
  149.6778  138.9515  156.8958 C   0  0  0  0  0  0  0  0  0  0  0  0
  149.4474  138.5874  158.2173 N   0  0  0  0  0  0  0  0  0  0  0  0
  148.6324  137.5719  158.1303 C   0  0  0  0  0  0  0  0  0  0  0  0
  148.3074  137.1885  156.8485 N   0  0  0  0  0  0  0  0  0  0  0  0
  147.4153  136.1344  156.4658 C   0  0  0  0  0  0  0  0  0  0  0  0
  147.7463  135.1984  155.3018 C   0  0  0  0  0  0  0  0  0  0  0  0
  146.2411  135.0925  154.9667 C   0  0  0  0  0  0  0  0  0  0  0  0
  145.8697  135.1560  153.4751 C   0  0  0  0  0  0  0  0  0  0  0  0
  146.4980  136.2421  152.8270 O   0  0  0  0  0  0  0  0  0  0  0  0
  145.4684  133.9365  155.6351 C   0  0  0  0  0  0  0  0  0  0  0  0
  144.0687  134.1154  155.5604 O   0  0  0  0  0  0  0  0  0  0  0  0
  146.1177  136.4388  155.7139 C   0  0  0  0  0  0  0  0  0  0  0  0
  150.3445  140.5894  158.8766 H   0  0  0  0  0  0  0  0  0  0  0  0
  150.0407  143.1976  158.1858 H   0  0  0  0  0  0  0  0  0  0  0  0
  154.9577  140.9433  160.3343 H   0  0  0  0  0  0  0  0  0  0  0  0
  153.8630  139.7396  161.0157 H   0  0  0  0  0  0  0  0  0  0  0  0
  153.2733  141.3690  160.6377 H   0  0  0  0  0  0  0  0  0  0  0  0
  152.2939  138.8394  158.1495 H   0  0  0  0  0  0  0  0  0  0  0  0
  151.9650  139.2136  159.8343 H   0  0  0  0  0  0  0  0  0  0  0  0
  151.5703  142.3700  159.9007 H   0  0  0  0  0  0  0  0  0  0  0  0
  152.8807  142.2370  158.7236 H   0  0  0  0  0  0  0  0  0  0  0  0
  152.4600  145.9562  158.6805 H   0  0  0  0  0  0  0  0  0  0  0  0
  152.6919  144.4276  159.5241 H   0  0  0  0  0  0  0  0  0  0  0  0
  151.0874  145.1798  159.4686 H   0  0  0  0  0  0  0  0  0  0  0  0
  150.2109  142.4467  155.9726 H   0  0  0  0  0  0  0  0  0  0  0  0
  151.9740  142.4955  155.9795 H   0  0  0  0  0  0  0  0  0  0  0  0
  149.7108  139.2850  153.1401 H   0  0  0  0  0  0  0  0  0  0  0  0
  148.2508  137.0674  159.0060 H   0  0  0  0  0  0  0  0  0  0  0  0
  147.2130  135.5646  157.3744 H   0  0  0  0  0  0  0  0  0  0  0  0
  148.3187  135.6939  154.5153 H   0  0  0  0  0  0  0  0  0  0  0  0
  148.2211  134.2623  155.5975 H   0  0  0  0  0  0  0  0  0  0  0  0
  146.1359  134.2331  152.9596 H   0  0  0  0  0  0  0  0  0  0  0  0
  144.7940  135.2792  153.3463 H   0  0  0  0  0  0  0  0  0  0  0  0
  147.3486  135.9576  152.5277 H   0  0  0  0  0  0  0  0  0  0  0  0
  145.7013  132.9828  155.1614 H   0  0  0  0  0  0  0  0  0  0  0  0
  145.7517  133.8294  156.6827 H   0  0  0  0  0  0  0  0  0  0  0  0
  143.6821  133.3210  155.2245 H   0  0  0  0  0  0  0  0  0  0  0  0
  145.2391  136.5321  156.3530 H   0  0  0  0  0  0  0  0  0  0  0  0
  146.2151  137.3074  155.0600 H   0  0  0  0  0  0  0  0  0  0  0  0
  1  2  1  0  0  0  0
  1 30  1  0  0  0  0
  1 31  1  0  0  0  0
  1 32  1  0  0  0  0
  2  3  1  0  0  0  0
  3  4  1  0  0  0  0
  3 33  1  0  0  0  0
  3 34  1  0  0  0  0
  4 28  1  0  0  0  0
  4 10  1  0  0  0  0
  4  5  1  0  0  0  0
  5  6  1  0  0  0  0
  5 35  1  0  0  0  0
  5 36  1  0  0  0  0
  6 29  1  0  0  0  0
  6  7  1  0  0  0  0
  6  9  1  0  0  0  0
  7  8  1  0  0  0  0
  8 37  1  0  0  0  0
  8 38  1  0  0  0  0
  8 39  1  0  0  0  0
  9 10  1  0  0  0  0
  9 40  1  0  0  0  0
  9 41  1  0  0  0  0
 10 11  1  0  0  0  0
 11 16  1  0  0  0  0
 11 12  2  0  0  0  0
 12 13  1  0  0  0  0
 13 14  2  0  0  0  0
 13 42  1  0  0  0  0
 14 15  1  0  0  0  0
 15 19  1  0  0  0  0
 15 16  2  0  0  0  0
 16 17  1  0  0  0  0
 17 18  2  0  0  0  0
 18 19  1  0  0  0  0
 18 43  1  0  0  0  0
 19 20  1  0  0  0  0
 20 27  1  0  0  0  0
 20 21  1  0  0  0  0
 20 44  1  0  0  0  0
 21 22  1  0  0  0  0
 21 45  1  0  0  0  0
 21 46  1  0  0  0  0
 22 23  1  0  0  0  0
 22 25  1  0  0  0  0
 22 27  1  0  0  0  0
 23 24  1  0  0  0  0
 23 47  1  0  0  0  0
 23 48  1  0  0  0  0
 24 49  1  0  0  0  0
 25 26  1  0  0  0  0
 25 50  1  0  0  0  0
 25 51  1  0  0  0  0
 26 52  1  0  0  0  0
 27 53  1  0  0  0  0
 27 54  1  0  0  0  0
M  END
> <s_m_source_file>
AV-unprocessed.smi

> <i_m_source_file_index>
241

> <i_lp_mmshare_version>
43012

> <i_f3d_flags>
0

> <s_epik_input>
W0NIM11PW0NIMl1bQ0BASF0xW0NIMl1bQ0BASF0oT1tDSDNdKVtDSDJdTjFjKG5bY0hdbjIpYyhjMjMpbltjSF1uM1tDSF0oW0NIMl00KVtDSDJdQzQoW0NIMl1bT0hdKVtDSDJdW09IXQ==

> <s_epik_cmdline>
J2VwaWtfcHl0aG9uJywgJy1waCcsICc3LjAnLCAnLXRuJywgJzgnLCAnLW1hJywgJzIwMCcsICctbWV0YWxfYmluZGluZycsICctaW1hZScsICc8aW5maWxlLm1hZT4nLCAnLW9tYWUnLCAnPG91dGZpbGUubWFlPic=

> <r_lp_tautomer_probability>
1

> <r_epik_Ionization_Penalty>
0.00568677

> <r_epik_Ionization_Penalty_Charging>
0

> <r_epik_Ionization_Penalty_Neutral>
0.00568677

> <r_epik_State_Penalty>
0.00400877

> <r_epik_Charging_Adjusted_Penalty>
0.00400877

> <i_epik_Tot_Q>
0

> <i_epik_Tot_abs_Q>
0

> <r_epik_Metal_State_Penalty>
-0

> <b_epik_Metal_Only>
0

> <s_lp_Force_Field>
OPLS_2005

> <r_lp_Energy>
53.235

> <b_lp_Chiralities_Consistent>
1

> <s_lp_Variant>
AV-unprocessed.smi:241-2

> <Gold.Version>
5.8.1

> <Gold.Id.Protein>
6NUR|6NUR_protein|mol2

> <Gold.PLP.Fitness>
44.3644

> <Gold.PLP.PLP>
-31.1430

> <Gold.PLP.part.hbond>
-3.6210

> <Gold.PLP.part.metal>
0.0000

> <Gold.PLP.part.buried>
-5.9220

> <Gold.PLP.part.nonpolar>
-21.8233

> <Gold.PLP.part.repulsive>
0.3887

> <Gold.PLP.ligand.clash>
0.0000

> <Gold.PLP.ligand.torsion>
1.2394

> <Gold.PLP.Chemscore.Hbond>
3.9440

> <Gold.PLP.Chemscore.CHOScore>
1.0000

> <Gold.PLP.Chemscore.Metal>
0.0000

> <Gold.Chemscore.Hbonds>
donor molecule, donor type, donor heavy atom, donor atom, acceptor molecule, acceptor atom, score
      L1  H    24    49       P1  7948  1.00
      L1  H    26    52       P1 10957  1.00
      P1  H  7989  7998       L1    12  0.98
      P1  H  7997  8009       L1     2  0.69
      L1  C    13    42       P1  7957  1.00

> <Gold.PLP.Chemscore.Internal.Correction>
0.8682

> <Gold.Rescore>
     Score         DG    S(hbond)    S(metal)    S(lipo)     H(rot)  DE(clash)    DE(int)     intcor
     11.07     -14.74       3.44        0.00      67.85       3.97       0.05       3.62       ----

> <Gold.Chemscore.Fitness>
11.0734

> <Gold.Chemscore.DG>
-14.7415

> <Gold.Chemscore.ZeroCoef>
-5.4800

> <Gold.Chemscore.Hbond>
3.4411

> <Gold.Chemscore.Metal>
0.0000

> <Gold.Chemscore.Lipo>
67.8493

> <Gold.Chemscore.Internal_Hbond>
0.0000

> <Gold.Chemscore.DEClash>
0.0462

> <Gold.Chemscore.DEInternal>
3.6219

> <Gold.Chemscore.Rot>
3.9727

> <Gold.Chemscore.Internal.Correction>
   9.000000E+99

> <Gold.Chemscore.Hbonds>
donor molecule, donor type, donor heavy atom, donor atom, acceptor molecule, acceptor atom, score
      L1  H    24    49       P1  7948  0.98
      L1  H    26    52       P1 10957  1.00
      P1  H  7989  7998       L1    12  0.36
      P1  H  7997  8009       L1     2  0.62

> <Gold.Chemscore.Hbond.Weighted>
-11.4934

> <Gold.Chemscore.Metal.Weighted>
-0.0000

> <Gold.Chemscore.Lipo.Weighted>
-7.9384

> <Gold.Chemscore.Internal_Hbond.Weighted>
0.0000

> <Gold.Chemscore.DEClash.Weighted>
0.0462

> <Gold.Chemscore.DEInternal.Weighted>
3.6219

> <Gold.Chemscore.Rot.Weighted>
10.1702

> <Gold.Chemscore.Internal.Correction.Weighted>
   9.000000E+99

> <Gold.Protein.RotatedTorsions>
[ 6907 6896 6895 6894 ] final   90.61 input  -60.11 | X-H torsion
[ 7974 7965 7964 7962 ] final   -7.51 input  175.53 | X-H torsion
[ 8008 7997 7996 7995 ] final  136.30 input   59.86 | X-H torsion
[ 10167 10162 10161 10158 ] final  -56.05 input  -65.29 | X-H torsion
[ 10718 10713 10712 10709 ] final   96.65 input   66.30 | X-H torsion
[ 10763 10752 10751 10750 ] final   19.84 input  -60.55 | X-H torsion
[ 11005 11000 10999 10996 ] final -132.09 input  -57.11 | X-H torsion

> <Gold.Protein.ActiveResidues>
 VAL166  LYS551  ARG553  GLY616  TRP617  ASP618  TYR619  PRO620  LYS621  CYS622 
 ASP623  PHE694  ASN695  SER759  ASP760  ASP761  ALA762  ILE779  LEU786  VAL792 
 PHE793  MET794  SER795  GLU796  ALA797  LYS798  CYS799  TRP800  GLU811  SER814 

> <Gold.Protein.RotatedAtoms>
  152.5445  134.1786  159.8625 H   0  0  0  0  0  0  0  0  0  0  0  0  # atno 6907 bound_to 6896
  151.1790  133.4730  159.2601 H   0  0  0  0  0  0  0  0  0  0  0  0  # atno 6908 bound_to 6896
  151.1198  135.0084  159.8588 H   0  0  0  0  0  0  0  0  0  0  0  0  # atno 6909 bound_to 6896
  146.2305  140.2330  142.8341 H   0  0  0  0  0  0  0  0  0  0  0  0  # atno 7974 bound_to 7965
  156.3004  140.2448  156.3723 H   0  0  0  0  0  0  0  0  0  0  0  0  # atno 8008 bound_to 7997
  154.8777  140.0414  157.1783 H   0  0  0  0  0  0  0  0  0  0  0  0  # atno 8009 bound_to 7997
  154.8728  140.2937  155.5475 H   0  0  0  0  0  0  0  0  0  0  0  0  # atno 8010 bound_to 7997
  140.6340  143.2473  151.5168 H   0  0  0  0  0  0  0  0  0  0  0  0  # atno 10167 bound_to 10162
  157.6924  131.0584  150.4523 H   0  0  0  0  0  0  0  0  0  0  0  0  # atno 10718 bound_to 10713
  153.1127  135.6700  153.9471 H   0  0  0  0  0  0  0  0  0  0  0  0  # atno 10763 bound_to 10752
  153.9010  135.3036  155.3450 H   0  0  0  0  0  0  0  0  0  0  0  0  # atno 10764 bound_to 10752
  154.7546  135.5018  153.9428 H   0  0  0  0  0  0  0  0  0  0  0  0  # atno 10765 bound_to 10752
  140.9201  134.1455  157.4321 H   0  0  0  0  0  0  0  0  0  0  0  0  # atno 11005 bound_to 11000
  144.9543  140.8211  143.5552 LP  0  0  0  0  0  0  0  0  0  0  0  0  # atno 17320 bound_to 7965
  145.2294  139.2122  143.5051 LP  0  0  0  0  0  0  0  0  0  0  0  0  # atno 17321 bound_to 7965
  139.5551  144.2295  152.1599 LP  0  0  0  0  0  0  0  0  0  0  0  0  # atno 17342 bound_to 10162
  140.1547  144.5082  150.6667 LP  0  0  0  0  0  0  0  0  0  0  0  0  # atno 17343 bound_to 10162
  156.4873  130.4087  149.6426 LP  0  0  0  0  0  0  0  0  0  0  0  0  # atno 17370 bound_to 10713
  156.3450  130.7402  151.2353 LP  0  0  0  0  0  0  0  0  0  0  0  0  # atno 17371 bound_to 10713
  139.8774  134.9968  156.5815 LP  0  0  0  0  0  0  0  0  0  0  0  0  # atno 17394 bound_to 11000
  140.7998  133.8514  155.8717 LP  0  0  0  0  0  0  0  0  0  0  0  0  # atno 17395 bound_to 11000

$$$$
