AV-unprocessed.smi:1830|AV-procd|sdf|7447|dock2
  -GOLD-   22720 9133D 1   1.00000     0.00000
 Structure written by MMmdl.
 54 57  0  0  0  0  0  0  0  0  3 V2000
  146.8947  138.0878  151.0231 O   0  0  0  0  0  0  0  0  0  0  0  0
  146.1389  138.4310  151.9315 C   0  0  0  0  0  0  0  0  0  0  0  0
  146.2061  139.6233  152.5395 N   0  0  0  0  0  0  0  0  0  0  0  0
  147.1906  140.6599  152.2425 C   0  0  0  0  0  0  0  0  0  0  0  0
  147.8169  141.2757  153.5094 C   0  0  1  0  0  0  0  0  0  0  0  0
  146.7715  141.7368  154.5416 C   0  0  0  0  0  0  0  0  0  0  0  0
  147.4160  142.2645  155.7712 N   0  3  1  0  0  0  0  0  0  0  0  0
  146.4520  142.4305  156.8820 C   0  0  0  0  0  0  0  0  0  0  0  0
  146.5937  141.1882  157.7807 C   0  0  0  0  0  0  0  0  0  0  0  0
  147.7376  140.3670  157.1756 C   0  0  0  0  0  0  0  0  0  0  0  0
  148.4762  141.3778  156.2988 C   0  0  1  0  0  0  0  0  0  0  0  0
  149.3822  140.7868  155.2000 C   0  0  0  0  0  0  0  0  0  0  0  0
  148.6144  140.2717  154.1218 O   0  0  0  0  0  0  0  0  0  0  0  0
  145.1367  137.6854  152.4255 N   0  0  0  0  0  0  0  0  0  0  0  0
  144.7228  136.3901  152.0033 C   0  0  0  0  0  0  0  0  0  0  0  0
  145.4964  135.6153  151.1012 C   0  0  0  0  0  0  0  0  0  0  0  0
  145.0683  134.3225  150.7436 C   0  0  0  0  0  0  0  0  0  0  0  0
  143.8798  133.8189  151.3012 C   0  0  0  0  0  0  0  0  0  0  0  0
  143.1753  134.5749  152.1688 N   0  3  0  0  0  0  0  0  0  0  0  0
  143.5381  135.8245  152.5504 C   0  0  0  0  0  0  0  0  0  0  0  0
  142.7092  136.5314  153.4479 N   0  0  0  0  0  0  0  0  0  0  0  0
  142.1776  137.7847  152.9192 C   0  0  0  0  0  0  0  0  0  0  0  0
  140.7828  137.9515  153.5244 C   0  0  0  0  0  0  0  0  0  0  0  0
  140.3431  136.5144  153.7746 C   0  0  0  0  0  0  0  0  0  0  0  0
  141.6499  135.8309  154.1736 C   0  0  0  0  0  0  0  0  0  0  0  0
  145.5451  139.8228  153.2764 H   0  0  0  0  0  0  0  0  0  0  0  0
  147.9700  140.2160  151.6225 H   0  0  0  0  0  0  0  0  0  0  0  0
  146.7251  141.4397  151.6375 H   0  0  0  0  0  0  0  0  0  0  0  0
  148.4518  142.1159  153.2221 H   0  0  0  0  0  0  0  0  0  0  0  0
  146.1337  142.5156  154.1221 H   0  0  0  0  0  0  0  0  0  0  0  0
  146.1211  140.8978  154.7951 H   0  0  0  0  0  0  0  0  0  0  0  0
  146.7288  143.3225  157.4453 H   0  0  0  0  0  0  0  0  0  0  0  0
  145.4296  142.5763  156.5300 H   0  0  0  0  0  0  0  0  0  0  0  0
  146.8324  141.4893  158.8013 H   0  0  0  0  0  0  0  0  0  0  0  0
  145.6718  140.6073  157.8171 H   0  0  0  0  0  0  0  0  0  0  0  0
  148.3808  139.9184  157.9333 H   0  0  0  0  0  0  0  0  0  0  0  0
  147.3321  139.5605  156.5631 H   0  0  0  0  0  0  0  0  0  0  0  0
  149.0999  141.9835  156.9588 H   0  0  0  0  0  0  0  0  0  0  0  0
  150.0651  141.5496  154.8229 H   0  0  0  0  0  0  0  0  0  0  0  0
  150.0040  139.9909  155.6104 H   0  0  0  0  0  0  0  0  0  0  0  0
  144.5420  138.1318  153.1086 H   0  0  0  0  0  0  0  0  0  0  0  0
  146.4229  135.9863  150.6896 H   0  0  0  0  0  0  0  0  0  0  0  0
  145.6482  133.7236  150.0564 H   0  0  0  0  0  0  0  0  0  0  0  0
  143.4760  132.8404  151.0854 H   0  0  0  0  0  0  0  0  0  0  0  0
  142.8200  138.6277  153.1738 H   0  0  0  0  0  0  0  0  0  0  0  0
  142.1088  137.7318  151.8314 H   0  0  0  0  0  0  0  0  0  0  0  0
  140.8510  138.4858  154.4731 H   0  0  0  0  0  0  0  0  0  0  0  0
  140.1009  138.5013  152.8752 H   0  0  0  0  0  0  0  0  0  0  0  0
  139.5692  136.4298  154.5378 H   0  0  0  0  0  0  0  0  0  0  0  0
  139.9603  136.0769  152.8516 H   0  0  0  0  0  0  0  0  0  0  0  0
  141.6094  134.7556  154.0016 H   0  0  0  0  0  0  0  0  0  0  0  0
  141.8311  135.9725  155.2395 H   0  0  0  0  0  0  0  0  0  0  0  0
  147.8244  143.1589  155.5399 H   0  0  0  0  0  0  0  0  0  0  0  0
  142.3171  134.1829  152.5572 H   0  0  0  0  0  0  0  0  0  0  0  0
  1  2  2  0  0  0  0
  2  3  1  0  0  0  0
  2 14  1  0  0  0  0
  3  4  1  0  0  0  0
  3 26  1  0  0  0  0
  4  5  1  0  0  0  0
  4 27  1  0  0  0  0
  4 28  1  0  0  0  0
  5 13  1  0  0  0  0
  5  6  1  0  0  0  0
  5 29  1  0  0  0  0
  6  7  1  0  0  0  0
  6 30  1  0  0  0  0
  6 31  1  0  0  0  0
  7 11  1  0  0  0  0
  7  8  1  0  0  0  0
  7 53  1  0  0  0  0
  8  9  1  0  0  0  0
  8 32  1  0  0  0  0
  8 33  1  0  0  0  0
  9 10  1  0  0  0  0
  9 34  1  0  0  0  0
  9 35  1  0  0  0  0
 10 11  1  0  0  0  0
 10 36  1  0  0  0  0
 10 37  1  0  0  0  0
 11 12  1  0  0  0  0
 11 38  1  0  0  0  0
 12 13  1  0  0  0  0
 12 39  1  0  0  0  0
 12 40  1  0  0  0  0
 14 15  1  0  0  0  0
 14 41  1  0  0  0  0
 15 20  1  0  0  0  0
 15 16  2  0  0  0  0
 16 17  1  0  0  0  0
 16 42  1  0  0  0  0
 17 18  2  0  0  0  0
 17 43  1  0  0  0  0
 18 19  1  0  0  0  0
 18 44  1  0  0  0  0
 19 20  2  0  0  0  0
 19 54  1  0  0  0  0
 20 21  1  0  0  0  0
 21 25  1  0  0  0  0
 21 22  1  0  0  0  0
 22 23  1  0  0  0  0
 22 45  1  0  0  0  0
 22 46  1  0  0  0  0
 23 24  1  0  0  0  0
 23 47  1  0  0  0  0
 23 48  1  0  0  0  0
 24 25  1  0  0  0  0
 24 49  1  0  0  0  0
 24 50  1  0  0  0  0
 25 51  1  0  0  0  0
 25 52  1  0  0  0  0
M  CHG  1   7   1
M  CHG  1  19   1
M  END
> <s_m_source_file>
AV-unprocessed.smi

> <i_m_source_file_index>
1830

> <i_lp_mmshare_version>
43012

> <i_f3d_flags>
0

> <s_epik_input>
W0NIMl0xW0NIMl1bQ0gyXVtDQEhdKE4xMilbQ0gyXU9bQ0BASF0oW0NIMl0yKVtDSDJdW05IXUMoPU8pW05IXWMzW2NIXVtjSF1bY0hdbmMzTjRbQ0gyXVtDSDJdW0NIMl1bQ0gyXTQ=

> <s_epik_cmdline>
J2VwaWtfcHl0aG9uJywgJy1waCcsICc3LjAnLCAnLXRuJywgJzgnLCAnLW1hJywgJzIwMCcsICctbWV0YWxfYmluZGluZycsICctaW1hZScsICc8aW5maWxlLm1hZT4nLCAnLW9tYWUnLCAnPG91dGZpbGUubWFlPic=

> <r_lp_tautomer_probability>
0.999994

> <r_epik_Ionization_Penalty>
1.29113

> <r_epik_Ionization_Penalty_Charging>
1.29111

> <r_epik_Ionization_Penalty_Neutral>
1.88144e-05

> <r_epik_State_Penalty>
1.32676

> <r_epik_Charging_Adjusted_Penalty>
2.61787

> <i_epik_Tot_Q>
2

> <i_epik_Tot_abs_Q>
2

> <r_epik_Metal_State_Penalty>
1.40425

> <b_epik_Metal_Only>
0

> <s_lp_Force_Field>
OPLS_2005

> <r_lp_Energy>
75.2676

> <b_lp_Chiralities_Consistent>
1

> <s_lp_Variant>
AV-unprocessed.smi:1830-16

> <Gold.Version>
5.8.1

> <Gold.Id.Protein>
6NUR|6NUR_protein|mol2

> <Gold.PLP.Fitness>
45.2718

> <Gold.PLP.PLP>
-36.0588

> <Gold.PLP.part.hbond>
-4.7207

> <Gold.PLP.part.metal>
0.0000

> <Gold.PLP.part.buried>
-2.6683

> <Gold.PLP.part.nonpolar>
-31.8793

> <Gold.PLP.part.repulsive>
2.4103

> <Gold.PLP.ligand.clash>
0.0000

> <Gold.PLP.ligand.torsion>
0.2779

> <Gold.PLP.Chemscore.Hbond>
3.1950

> <Gold.PLP.Chemscore.CHOScore>
0.0000

> <Gold.PLP.Chemscore.Metal>
0.0000

> <Gold.Chemscore.Hbonds>
donor molecule, donor type, donor heavy atom, donor atom, acceptor molecule, acceptor atom, score
      L1  H     3    26       P1 10175  0.17
      L1  H     7    53       P1  8028  2.00
      P1  H  7954  7966       L1     1  1.00

> <Gold.PLP.Chemscore.Internal.Correction>
0.1838

> <Gold.Rescore>
     Score         DG    S(hbond)    S(metal)    S(lipo)     H(rot)  DE(clash)    DE(int)     intcor
     13.21     -18.56       2.08        0.00      83.64       1.43       3.65       1.70       ----

> <Gold.Chemscore.Fitness>
13.2095

> <Gold.Chemscore.DG>
-18.5596

> <Gold.Chemscore.ZeroCoef>
-5.4800

> <Gold.Chemscore.Hbond>
2.0805

> <Gold.Chemscore.Metal>
0.0000

> <Gold.Chemscore.Lipo>
83.6392

> <Gold.Chemscore.Internal_Hbond>
0.0000

> <Gold.Chemscore.DEClash>
3.6479

> <Gold.Chemscore.DEInternal>
1.7022

> <Gold.Chemscore.Rot>
1.4278

> <Gold.Chemscore.Internal.Correction>
   9.000000E+99

> <Gold.Chemscore.Hbonds>
donor molecule, donor type, donor heavy atom, donor atom, acceptor molecule, acceptor atom, score
      L1  H     3    26       P1 10175  0.17
      L1  H     7    53       P1  8028  0.50
      P1  H  7954  7966       L1     1  1.00

> <Gold.Chemscore.Hbond.Weighted>
-6.9489

> <Gold.Chemscore.Metal.Weighted>
-0.0000

> <Gold.Chemscore.Lipo.Weighted>
-9.7858

> <Gold.Chemscore.Internal_Hbond.Weighted>
0.0000

> <Gold.Chemscore.DEClash.Weighted>
3.6479

> <Gold.Chemscore.DEInternal.Weighted>
1.7022

> <Gold.Chemscore.Rot.Weighted>
3.6551

> <Gold.Chemscore.Internal.Correction.Weighted>
   9.000000E+99

> <Gold.Protein.RotatedTorsions>
[ 6907 6896 6895 6894 ] final   84.57 input  -60.11 | X-H torsion
[ 7974 7965 7964 7962 ] final   46.08 input  175.53 | X-H torsion
[ 8008 7997 7996 7995 ] final  -58.22 input   59.86 | X-H torsion
[ 10167 10162 10161 10158 ] final  132.14 input  -65.29 | X-H torsion
[ 10718 10713 10712 10709 ] final  -28.95 input   66.30 | X-H torsion
[ 10763 10752 10751 10750 ] final -174.43 input  -60.55 | X-H torsion
[ 11005 11000 10999 10996 ] final   14.50 input  -57.11 | X-H torsion

> <Gold.Protein.ActiveResidues>
 VAL166  LYS551  ARG553  GLY616  TRP617  ASP618  TYR619  PRO620  LYS621  CYS622 
 ASP623  PHE694  ASN695  SER759  ASP760  ASP761  ALA762  ILE779  LEU786  VAL792 
 PHE793  MET794  SER795  GLU796  ALA797  LYS798  CYS799  TRP800  GLU811  SER814 

> <Gold.Protein.RotatedAtoms>
  152.5355  134.2721  159.8974 H   0  0  0  0  0  0  0  0  0  0  0  0  # atno 6907 bound_to 6896
  151.2677  133.4264  159.2627 H   0  0  0  0  0  0  0  0  0  0  0  0  # atno 6908 bound_to 6896
  151.0396  134.9612  159.8211 H   0  0  0  0  0  0  0  0  0  0  0  0  # atno 6909 bound_to 6896
  146.0422  139.4895  142.9771 H   0  0  0  0  0  0  0  0  0  0  0  0  # atno 7974 bound_to 7965
  154.4299  140.1089  156.5921 H   0  0  0  0  0  0  0  0  0  0  0  0  # atno 8008 bound_to 7997
  155.6000  140.3493  155.4572 H   0  0  0  0  0  0  0  0  0  0  0  0  # atno 8009 bound_to 7997
  156.0180  140.1233  157.0376 H   0  0  0  0  0  0  0  0  0  0  0  0  # atno 8010 bound_to 7997
  139.5353  144.6675  151.4809 H   0  0  0  0  0  0  0  0  0  0  0  0  # atno 10167 bound_to 10162
  156.4187  130.4422  149.7199 H   0  0  0  0  0  0  0  0  0  0  0  0  # atno 10718 bound_to 10713
  154.5963  135.2850  155.0582 H   0  0  0  0  0  0  0  0  0  0  0  0  # atno 10763 bound_to 10752
  154.1864  135.6448  153.5052 H   0  0  0  0  0  0  0  0  0  0  0  0  # atno 10764 bound_to 10752
  153.0140  135.5436  154.6667 H   0  0  0  0  0  0  0  0  0  0  0  0  # atno 10765 bound_to 10752
  140.4689  134.1052  155.7729 H   0  0  0  0  0  0  0  0  0  0  0  0  # atno 11005 bound_to 11000
  145.6865  141.0176  143.1578 LP  0  0  0  0  0  0  0  0  0  0  0  0  # atno 17320 bound_to 7965
  144.7080  139.8482  143.7424 LP  0  0  0  0  0  0  0  0  0  0  0  0  # atno 17321 bound_to 7965
  140.6555  143.8608  150.6831 LP  0  0  0  0  0  0  0  0  0  0  0  0  # atno 17342 bound_to 10162
  140.1986  143.3978  152.1809 LP  0  0  0  0  0  0  0  0  0  0  0  0  # atno 17343 bound_to 10162
  156.4149  130.7740  151.2755 LP  0  0  0  0  0  0  0  0  0  0  0  0  # atno 17370 bound_to 10713
  157.7508  131.0200  150.3691 LP  0  0  0  0  0  0  0  0  0  0  0  0  # atno 17371 bound_to 10713
  141.1586  133.8835  157.1909 LP  0  0  0  0  0  0  0  0  0  0  0  0  # atno 17394 bound_to 11000
  139.9898  135.0069  156.9948 LP  0  0  0  0  0  0  0  0  0  0  0  0  # atno 17395 bound_to 11000

$$$$
