AV-unprocessed.smi:3009|AV-procd|sdf|11453|dock7
  -GOLD-   2272016383D 1   1.00000     0.00000
 Structure written by MMmdl.
 43 44  0  0  0  0  0  0  0  0  1 V2000
  150.2871  141.0997  158.2938 C   0  0  0  0  0  0  0  0  0  0  0  0
  151.2027  141.9053  157.3567 C   0  0  0  0  0  0  0  0  0  0  0  0
  151.6005  143.2703  157.9447 C   0  0  0  0  0  0  0  0  0  0  0  0
  150.6914  141.9793  155.8965 C   0  0  0  0  0  0  0  0  0  0  0  0
  150.5649  140.7201  155.1549 N   0  0  0  0  0  0  0  0  0  0  0  0
  151.2360  139.5977  155.8052 C   0  0  0  0  0  0  0  0  0  0  0  0
  151.0402  138.2813  155.0338 C   0  0  0  0  0  0  0  0  0  0  0  0
  149.6506  138.0250  154.8660 O   0  0  0  0  0  0  0  0  0  0  0  0
  148.9771  139.0697  154.1685 C   0  0  1  0  0  0  0  0  0  0  0  0
  147.4944  138.6862  154.0240 C   0  0  0  0  0  0  0  0  0  0  0  0
  147.3226  137.4906  153.2056 N   0  0  0  0  0  0  0  0  0  0  0  0
  146.1423  136.9604  152.8564 C   0  0  0  0  0  0  0  0  0  0  0  0
  145.0570  137.4244  153.2072 O   0  0  0  0  0  0  0  0  0  0  0  0
  146.3048  135.8734  152.0844 N   0  0  0  0  0  0  0  0  0  0  0  0
  145.2907  135.0592  151.5194 C   0  0  0  0  0  0  0  0  0  0  0  0
  145.3277  133.6393  151.4685 C   0  0  0  0  0  0  0  0  0  0  0  0
  144.2458  133.1480  150.8813 N   0  0  0  0  0  0  0  0  0  0  0  0
  143.5191  134.2412  150.5559 N   0  0  0  0  0  0  0  0  0  0  0  0
  144.1163  135.4265  150.9243 C   0  0  0  0  0  0  0  0  0  0  0  0
  149.1586  140.3801  154.9588 C   0  0  0  0  0  0  0  0  0  0  0  0
  142.6275  134.1633  150.0871 H   0  0  0  0  0  0  0  0  0  0  0  0
  149.3348  141.6032  158.4610 H   0  0  0  0  0  0  0  0  0  0  0  0
  150.7562  140.9543  159.2671 H   0  0  0  0  0  0  0  0  0  0  0  0
  150.0749  140.1135  157.8803 H   0  0  0  0  0  0  0  0  0  0  0  0
  152.1381  141.3468  157.3014 H   0  0  0  0  0  0  0  0  0  0  0  0
  150.7442  143.9167  158.1250 H   0  0  0  0  0  0  0  0  0  0  0  0
  152.2825  143.7999  157.2790 H   0  0  0  0  0  0  0  0  0  0  0  0
  152.1128  143.1437  158.8990 H   0  0  0  0  0  0  0  0  0  0  0  0
  149.7498  142.5292  155.8608 H   0  0  0  0  0  0  0  0  0  0  0  0
  151.4048  142.6060  155.3591 H   0  0  0  0  0  0  0  0  0  0  0  0
  152.3044  139.7871  155.8751 H   0  0  0  0  0  0  0  0  0  0  0  0
  150.8639  139.4811  156.8241 H   0  0  0  0  0  0  0  0  0  0  0  0
  151.5284  138.3286  154.0591 H   0  0  0  0  0  0  0  0  0  0  0  0
  151.4925  137.4523  155.5783 H   0  0  0  0  0  0  0  0  0  0  0  0
  149.4210  139.1852  153.1779 H   0  0  0  0  0  0  0  0  0  0  0  0
  147.0596  138.4959  155.0056 H   0  0  0  0  0  0  0  0  0  0  0  0
  146.9291  139.5130  153.5903 H   0  0  0  0  0  0  0  0  0  0  0  0
  148.1643  137.0471  152.8681 H   0  0  0  0  0  0  0  0  0  0  0  0
  147.2542  135.6004  151.8770 H   0  0  0  0  0  0  0  0  0  0  0  0
  146.0880  132.9627  151.8307 H   0  0  0  0  0  0  0  0  0  0  0  0
  143.6616  136.3873  150.7326 H   0  0  0  0  0  0  0  0  0  0  0  0
  148.6630  140.2910  155.9270 H   0  0  0  0  0  0  0  0  0  0  0  0
  148.6567  141.1893  154.4264 H   0  0  0  0  0  0  0  0  0  0  0  0
  1  2  1  0  0  0  0
  1 22  1  0  0  0  0
  1 23  1  0  0  0  0
  1 24  1  0  0  0  0
  2  3  1  0  0  0  0
  2  4  1  0  0  0  0
  2 25  1  0  0  0  0
  3 26  1  0  0  0  0
  3 27  1  0  0  0  0
  3 28  1  0  0  0  0
  4  5  1  0  0  0  0
  4 29  1  0  0  0  0
  4 30  1  0  0  0  0
  5 20  1  0  0  0  0
  5  6  1  0  0  0  0
  6  7  1  0  0  0  0
  6 31  1  0  0  0  0
  6 32  1  0  0  0  0
  7  8  1  0  0  0  0
  7 33  1  0  0  0  0
  7 34  1  0  0  0  0
  8  9  1  0  0  0  0
  9 10  1  0  0  0  0
  9 20  1  0  0  0  0
  9 35  1  0  0  0  0
 10 11  1  0  0  0  0
 10 36  1  0  0  0  0
 10 37  1  0  0  0  0
 11 12  1  0  0  0  0
 11 38  1  0  0  0  0
 12 13  2  0  0  0  0
 12 14  1  0  0  0  0
 14 15  1  0  0  0  0
 14 39  1  0  0  0  0
 15 19  2  0  0  0  0
 15 16  1  0  0  0  0
 16 17  2  0  0  0  0
 16 40  1  0  0  0  0
 17 18  1  0  0  0  0
 18 21  1  0  0  0  0
 18 19  1  0  0  0  0
 19 41  1  0  0  0  0
 20 42  1  0  0  0  0
 20 43  1  0  0  0  0
M  END
> <s_m_source_file>
AV-unprocessed.smi

> <i_m_source_file_index>
3009

> <i_lp_mmshare_version>
43012

> <i_f3d_flags>
0

> <s_epik_input>
W0NIM11bQ0hdKFtDSDNdKVtDSDJdTjFbQ0gyXVtDSDJdT1tDQEhdKFtDSDJdMSlbQ0gyXVtOSF1DKD1PKVtOSF1jMltjSF1uW25IXVtjSF0y

> <s_epik_cmdline>
J2VwaWtfcHl0aG9uJywgJy1waCcsICc3LjAnLCAnLXRuJywgJzgnLCAnLW1hJywgJzIwMCcsICctbWV0YWxfYmluZGluZycsICctaW1hZScsICc8aW5maWxlLm1hZT4nLCAnLW9tYWUnLCAnPG91dGZpbGUubWFlPic=

> <r_lp_tautomer_probability>
0.5

> <r_epik_Ionization_Penalty>
1.11801

> <r_epik_Ionization_Penalty_Charging>
0

> <r_epik_Ionization_Penalty_Neutral>
1.11801

> <r_epik_State_Penalty>
1.17654

> <r_epik_Charging_Adjusted_Penalty>
1.17654

> <i_epik_Tot_Q>
0

> <i_epik_Tot_abs_Q>
0

> <r_epik_Metal_State_Penalty>
1.17654

> <b_epik_Metal_Only>
0

> <s_lp_Force_Field>
OPLS_2005

> <r_lp_Energy>
30.4002

> <b_lp_Chiralities_Consistent>
1

> <s_lp_Variant>
AV-unprocessed.smi:3009-5

> <Gold.Version>
5.8.1

> <Gold.Id.Protein>
6NUR|6NUR_protein|mol2

> <Gold.PLP.Fitness>
42.0371

> <Gold.PLP.PLP>
-29.8565

> <Gold.PLP.part.hbond>
-3.7973

> <Gold.PLP.part.metal>
0.0000

> <Gold.PLP.part.buried>
-5.1783

> <Gold.PLP.part.nonpolar>
-21.7882

> <Gold.PLP.part.repulsive>
0.6482

> <Gold.PLP.ligand.clash>
0.0000

> <Gold.PLP.ligand.torsion>
1.0652

> <Gold.PLP.Chemscore.Hbond>
3.7513

> <Gold.PLP.Chemscore.CHOScore>
1.0000

> <Gold.PLP.Chemscore.Metal>
0.0000

> <Gold.Chemscore.Hbonds>
donor molecule, donor type, donor heavy atom, donor atom, acceptor molecule, acceptor atom, score
      L1  H    11    38       P1  7948  0.96
      L1  H    14    39       P1  7948  0.86
      L1  H    18    21       P1 10186  1.00
      P1  H  7989  7998       L1     5  0.88
      L1  C    19    41       P1 10171  1.00

> <Gold.PLP.Chemscore.Internal.Correction>
0.0573

> <Gold.Rescore>
     Score         DG    S(hbond)    S(metal)    S(lipo)     H(rot)  DE(clash)    DE(int)     intcor
     18.34     -19.55       2.94        0.00      74.92       1.76       0.06       1.15       ----

> <Gold.Chemscore.Fitness>
18.3430

> <Gold.Chemscore.DG>
-19.5543

> <Gold.Chemscore.ZeroCoef>
-5.4800

> <Gold.Chemscore.Hbond>
2.9359

> <Gold.Chemscore.Metal>
0.0000

> <Gold.Chemscore.Lipo>
74.9223

> <Gold.Chemscore.Internal_Hbond>
0.0000

> <Gold.Chemscore.DEClash>
0.0630

> <Gold.Chemscore.DEInternal>
1.1483

> <Gold.Chemscore.Rot>
1.7568

> <Gold.Chemscore.Internal.Correction>
   9.000000E+99

> <Gold.Chemscore.Hbonds>
donor molecule, donor type, donor heavy atom, donor atom, acceptor molecule, acceptor atom, score
      L1  H    11    38       P1  7948  0.88
      L1  H    14    39       P1  7948  0.85
      L1  H    18    21       P1 10186  0.97
      P1  H  7989  7998       L1     5  0.14

> <Gold.Chemscore.Hbond.Weighted>
-9.8058

> <Gold.Chemscore.Metal.Weighted>
-0.0000

> <Gold.Chemscore.Lipo.Weighted>
-8.7659

> <Gold.Chemscore.Internal_Hbond.Weighted>
0.0000

> <Gold.Chemscore.DEClash.Weighted>
0.0630

> <Gold.Chemscore.DEInternal.Weighted>
1.1483

> <Gold.Chemscore.Rot.Weighted>
4.4974

> <Gold.Chemscore.Internal.Correction.Weighted>
   9.000000E+99

> <Gold.Protein.RotatedTorsions>
[ 6907 6896 6895 6894 ] final   38.86 input  -60.11 | X-H torsion
[ 7974 7965 7964 7962 ] final    9.40 input  175.53 | X-H torsion
[ 8008 7997 7996 7995 ] final   73.08 input   59.86 | X-H torsion
[ 10167 10162 10161 10158 ] final -131.69 input  -65.29 | X-H torsion
[ 10718 10713 10712 10709 ] final   48.57 input   66.30 | X-H torsion
[ 10763 10752 10751 10750 ] final  116.51 input  -60.55 | X-H torsion
[ 11005 11000 10999 10996 ] final   46.18 input  -57.11 | X-H torsion

> <Gold.Protein.ActiveResidues>
 VAL166  LYS551  ARG553  GLY616  TRP617  ASP618  TYR619  PRO620  LYS621  CYS622 
 ASP623  PHE694  ASN695  SER759  ASP760  ASP761  ALA762  ILE779  LEU786  VAL792 
 PHE793  MET794  SER795  GLU796  ALA797  LYS798  CYS799  TRP800  GLU811  SER814 

> <Gold.Protein.RotatedAtoms>
  152.1620  134.8904  160.0540 H   0  0  0  0  0  0  0  0  0  0  0  0  # atno 6907 bound_to 6896
  151.9897  133.3781  159.4147 H   0  0  0  0  0  0  0  0  0  0  0  0  # atno 6908 bound_to 6896
  150.6889  134.3873  159.5104 H   0  0  0  0  0  0  0  0  0  0  0  0  # atno 6909 bound_to 6896
  146.2404  139.9789  142.8438 H   0  0  0  0  0  0  0  0  0  0  0  0  # atno 7974 bound_to 7965
  155.7784  140.3482  155.5284 H   0  0  0  0  0  0  0  0  0  0  0  0  # atno 8008 bound_to 7997
  155.8753  140.0993  157.1543 H   0  0  0  0  0  0  0  0  0  0  0  0  # atno 8009 bound_to 7997
  154.4020  140.1332  156.4116 H   0  0  0  0  0  0  0  0  0  0  0  0  # atno 8010 bound_to 7997
  139.9163  143.6435  152.2564 H   0  0  0  0  0  0  0  0  0  0  0  0  # atno 10167 bound_to 10162
  157.4700  130.8249  149.7977 H   0  0  0  0  0  0  0  0  0  0  0  0  # atno 10718 bound_to 10713
  153.5382  135.3564  155.2706 H   0  0  0  0  0  0  0  0  0  0  0  0  # atno 10763 bound_to 10752
  154.8720  135.4085  154.3073 H   0  0  0  0  0  0  0  0  0  0  0  0  # atno 10764 bound_to 10752
  153.3775  135.7067  153.6658 H   0  0  0  0  0  0  0  0  0  0  0  0  # atno 10765 bound_to 10752
  140.1392  134.4605  155.8462 H   0  0  0  0  0  0  0  0  0  0  0  0  # atno 11005 bound_to 11000
  145.1610  140.9673  143.4377 LP  0  0  0  0  0  0  0  0  0  0  0  0  # atno 17320 bound_to 7965
  145.0116  139.3505  143.6117 LP  0  0  0  0  0  0  0  0  0  0  0  0  # atno 17321 bound_to 7965
  139.6899  144.7648  151.1456 LP  0  0  0  0  0  0  0  0  0  0  0  0  # atno 17342 bound_to 10162
  140.7673  143.5603  150.9106 LP  0  0  0  0  0  0  0  0  0  0  0  0  # atno 17343 bound_to 10162
  156.0069  130.3851  150.2401 LP  0  0  0  0  0  0  0  0  0  0  0  0  # atno 17370 bound_to 10713
  157.0583  131.0082  151.3231 LP  0  0  0  0  0  0  0  0  0  0  0  0  # atno 17371 bound_to 10713
  141.2183  133.6826  156.7215 LP  0  0  0  0  0  0  0  0  0  0  0  0  # atno 17394 bound_to 11000
  140.2743  134.8367  157.3876 LP  0  0  0  0  0  0  0  0  0  0  0  0  # atno 17395 bound_to 11000

$$$$
