#       Name:                AV-unprocessed.smi:2397
#       Creating user name   scv26
#       Creation time:       Fri Mar 27 13:12:49 2020


#       File generated by GOLD software.
#

@<TRIPOS>MOLECULE
AV-unprocessed.smi:2397
    43    44     1
SMALL
NO_CHARGES


@<TRIPOS>ATOM
      1 ****        -3.7431  -0.2794   0.8545 C.3            1 S1                 0.0000
      2 ****        -3.0909   1.1112   0.8844 C.3            1 S1                 0.0000
      3 ****        -3.4437   1.9669  -0.3418 C.3            1 S1                 0.0000
      4 ****        -1.5877   1.0299   1.1079 C.ar           1 S1                 0.0000
      5 ****        -1.0671   1.5551   2.2282 N.pl3          1 S1                 1.0000
      6 ****         0.2694   1.4930   2.4405 C.ar           1 S1                 0.0000
      7 ****         1.1132   0.8806   1.4962 C.ar           1 S1                 0.0000
      8 ****         0.5024   0.3423   0.3431 C.ar           1 S1                 0.0000
      9 ****         1.2216  -0.2968  -0.6874 N.3            1 S1                 0.0000
     10 ****         1.3819   0.5886  -1.8399 C.3            1 S1                 0.0000
     11 ****         1.9991  -0.1645  -3.0260 C.3            1 S1                 0.0000
     12 ****         3.2306  -0.7413  -2.6166 O.3            1 S1                 0.0000
     13 ****         3.0390  -1.7055  -1.5890 C.3            1 S1                 0.0000
     14 ****         2.4371  -1.0457  -0.3253 C.3            1 S1                 0.0000
     15 ****         2.2606  -2.1471   0.7402 C.2            1 S1                 0.0000
     16 ****         1.0638  -2.7323   0.8581 N.am           1 S1                 0.0000
     17 ****         3.2034  -2.4529   1.4662 O.2            1 S1                 0.0000
     18 ****        -0.8339   0.4337   0.1736 N.ar           1 S1                 0.0000
     19 ****        -3.5342  -0.8306   1.7718 H              1 S1                 0.0000
     20 ****        -3.3764  -0.8742   0.0172 H              1 S1                 0.0000
     21 ****        -4.8262  -0.2023   0.7553 H              1 S1                 0.0000
     22 ****        -3.5123   1.6276   1.7487 H              1 S1                 0.0000
     23 ****        -3.0265   2.9704  -0.2536 H              1 S1                 0.0000
     24 ****        -4.5237   2.0673  -0.4518 H              1 S1                 0.0000
     25 ****        -3.0576   1.5247  -1.2608 H              1 S1                 0.0000
     26 ****         0.6210   1.9378   3.3599 H              1 S1                 0.0000
     27 ****         2.1789   0.8372   1.6639 H              1 S1                 0.0000
     28 ****         0.4216   1.0065  -2.1457 H              1 S1                 0.0000
     29 ****         2.0205   1.4290  -1.5629 H              1 S1                 0.0000
     30 ****         1.3223  -0.9354  -3.3986 H              1 S1                 0.0000
     31 ****         2.1860   0.5223  -3.8517 H              1 S1                 0.0000
     32 ****         2.4003  -2.5103  -1.9588 H              1 S1                 0.0000
     33 ****         4.0070  -2.1538  -1.3613 H              1 S1                 0.0000
     34 ****         3.1749  -0.3337   0.0474 H              1 S1                 0.0000
     35 ****         0.9163  -3.4406   1.5629 H              1 S1                 0.0000
     36 ****         0.3050  -2.4474   0.2556 H              1 S1                 0.0000
     37 ****        -1.6675   2.0029   2.9213 H              1 S1                 0.0000
     38 ****         0.6320  -1.0609  -0.9491 LP             1 S1                 0.0000
     39 ****         3.8307  -0.0178  -2.2753 LP             1 S1                 0.0000
     40 ****         3.6586  -1.1859  -3.4034 LP             1 S1                 0.0000
     41 ****         4.0831  -1.9881   1.3658 LP             1 S1                 0.0000
     42 ****         3.0911  -3.1666   2.1576 LP             1 S1                 0.0000
     43 ****        -1.2609   0.0569  -0.6483 LP             1 S1                 0.0000
@<TRIPOS>BOND
    1    1    2 1     
    2    1   19 1     
    3    1   20 1     
    4    1   21 1     
    5    2    3 1     
    6    2    4 1     
    7    2   22 1     
    8    3   23 1     
    9    3   24 1     
   10    3   25 1     
   11    4   18 ar    
   12    4    5 ar    
   13    5    6 ar    
   14    5   37 1     
   15    6    7 ar    
   16    6   26 1     
   17    7    8 ar    
   18    7   27 1     
   19    8    9 1     
   20    8   18 ar    
   21    9   14 1     
   22    9   10 1     
   23   10   11 1     
   24   10   28 1     
   25   10   29 1     
   26   11   12 1     
   27   11   30 1     
   28   11   31 1     
   29   12   13 1     
   30   13   14 1     
   31   13   32 1     
   32   13   33 1     
   33   14   15 1     
   34   14   34 1     
   35   15   16 am    
   36   15   17 2     
   37   16   35 1     
   38   16   36 1     
   39    9   38 1     
   40   12   39 1     
   41   12   40 1     
   42   17   41 1     
   43   17   42 1     
   44   18   43 1     
@<TRIPOS>SUBSTRUCTURE
      1 S1             1
@<TRIPOS>SET
LONE_PAIRS      STATIC     ATOMS    <user>   **** ""
6 38 39 40 41 42 43
DONOR_HYDROGENS      STATIC     ATOMS    <user>   **** ""
3 37 35 36
ATOM$BLUE        STATIC     ATOMS    COLORGROUP SYSTEM
6 38 39 40 41 42 43
ATOM$RED        STATIC     ATOMS    COLORGROUP SYSTEM
3 37 35 36
