AV-unprocessed.smi:1440|AV-procd|sdf|5874|dock8
  -GOLD-   22720 5553D 1   1.00000     0.00000
 Structure written by MMmdl.
 41 42  0  0  0  0  0  0  0  0  1 V2000
  143.2217  135.4106  161.9248 C   0  0  0  0  0  0  0  0  0  0  0  0
  144.6584  135.4417  162.4651 C   0  0  2  0  0  0  0  0  0  0  0  0
  145.4042  136.7107  162.0097 C   0  0  0  0  0  0  0  0  0  0  0  0
  146.8484  136.7449  162.5425 C   0  0  0  0  0  0  0  0  0  0  0  0
  147.6428  135.4806  162.1621 C   0  0  2  0  0  0  0  0  0  0  0  0
  147.9284  135.4760  160.7281 N   0  0  0  0  0  0  0  0  0  0  0  0
  148.7036  136.3613  160.0840 C   0  0  0  0  0  0  0  0  0  0  0  0
  149.2751  137.2946  160.6500 O   0  0  0  0  0  0  0  0  0  0  0  0
  148.8582  136.1344  158.5749 C   0  0  0  0  0  0  0  0  0  0  0  0
  149.9000  136.9584  157.9669 N   0  0  0  0  0  0  0  0  0  0  0  0
  151.0667  136.5034  157.4823 C   0  0  0  0  0  0  0  0  0  0  0  0
  151.3940  135.3173  157.5025 O   0  0  0  0  0  0  0  0  0  0  0  0
  152.0086  137.5472  156.8810 C   0  0  0  0  0  0  0  0  0  0  0  0
  151.3864  138.2280  155.7602 N   0  0  0  0  0  0  0  0  0  0  0  0
  151.1110  139.5206  155.5747 C   0  0  0  0  0  0  0  0  0  0  0  0
  150.5214  139.7812  154.4161 N   0  0  0  0  0  0  0  0  0  0  0  0
  150.4607  138.5170  153.9012 C   0  0  0  0  0  0  0  0  0  0  0  0
  150.9653  137.5490  154.6666 N   0  0  0  0  0  0  0  0  0  0  0  0
  146.8826  134.2082  162.5939 C   0  0  0  0  0  0  0  0  0  0  0  0
  145.4416  134.1801  162.0550 C   0  0  0  0  0  0  0  0  0  0  0  0
  143.2077  135.3963  160.8345 H   0  0  0  0  0  0  0  0  0  0  0  0
  142.6598  136.2851  162.2538 H   0  0  0  0  0  0  0  0  0  0  0  0
  142.6893  134.5262  162.2764 H   0  0  0  0  0  0  0  0  0  0  0  0
  144.5989  135.4599  163.5543 H   0  0  0  0  0  0  0  0  0  0  0  0
  145.4136  136.7624  160.9202 H   0  0  0  0  0  0  0  0  0  0  0  0
  144.8707  137.5979  162.3523 H   0  0  0  0  0  0  0  0  0  0  0  0
  147.3602  137.6366  162.1785 H   0  0  0  0  0  0  0  0  0  0  0  0
  146.8220  136.8355  163.6292 H   0  0  0  0  0  0  0  0  0  0  0  0
  148.5961  135.5132  162.6928 H   0  0  0  0  0  0  0  0  0  0  0  0
  147.5023  134.7391  160.1848 H   0  0  0  0  0  0  0  0  0  0  0  0
  149.1117  135.0875  158.4058 H   0  0  0  0  0  0  0  0  0  0  0  0
  147.9018  136.3087  158.0786 H   0  0  0  0  0  0  0  0  0  0  0  0
  149.7165  137.9495  157.9028 H   0  0  0  0  0  0  0  0  0  0  0  0
  152.2766  138.2883  157.6352 H   0  0  0  0  0  0  0  0  0  0  0  0
  152.9345  137.0716  156.5535 H   0  0  0  0  0  0  0  0  0  0  0  0
  151.3426  140.2838  156.3032 H   0  0  0  0  0  0  0  0  0  0  0  0
  150.0311  138.3034  152.9335 H   0  0  0  0  0  0  0  0  0  0  0  0
  147.4179  133.3135  162.2743 H   0  0  0  0  0  0  0  0  0  0  0  0
  146.8538  134.1652  163.6832 H   0  0  0  0  0  0  0  0  0  0  0  0
  144.9335  133.2898  162.4266 H   0  0  0  0  0  0  0  0  0  0  0  0
  145.4582  134.0915  160.9679 H   0  0  0  0  0  0  0  0  0  0  0  0
  1  2  1  0  0  0  0
  1 21  1  0  0  0  0
  1 22  1  0  0  0  0
  1 23  1  0  0  0  0
  2 20  1  0  0  0  0
  2  3  1  0  0  0  0
  2 24  1  0  0  0  0
  3  4  1  0  0  0  0
  3 25  1  0  0  0  0
  3 26  1  0  0  0  0
  4  5  1  0  0  0  0
  4 27  1  0  0  0  0
  4 28  1  0  0  0  0
  5  6  1  0  0  0  0
  5 19  1  0  0  0  0
  5 29  1  0  0  0  0
  6  7  1  0  0  0  0
  6 30  1  0  0  0  0
  7  8  2  0  0  0  0
  7  9  1  0  0  0  0
  9 10  1  0  0  0  0
  9 31  1  0  0  0  0
  9 32  1  0  0  0  0
 10 11  1  0  0  0  0
 10 33  1  0  0  0  0
 11 12  2  0  0  0  0
 11 13  1  0  0  0  0
 13 14  1  0  0  0  0
 13 34  1  0  0  0  0
 13 35  1  0  0  0  0
 14 18  1  0  0  0  0
 14 15  1  0  0  0  0
 15 16  2  0  0  0  0
 15 36  1  0  0  0  0
 16 17  1  0  0  0  0
 17 18  2  0  0  0  0
 17 37  1  0  0  0  0
 19 20  1  0  0  0  0
 19 38  1  0  0  0  0
 19 39  1  0  0  0  0
 20 40  1  0  0  0  0
 20 41  1  0  0  0  0
M  END
> <s_m_source_file>
AV-unprocessed.smi

> <i_m_source_file_index>
1440

> <i_lp_mmshare_version>
43012

> <i_f3d_flags>
0

> <s_epik_input>
W0NIM11bQ0BASF0xW0NIMl1bQ0gyXVtDQEhdKFtDSDJdW0NIMl0xKVtOSF1DKD1PKVtDSDJdW05IXUMoPU8pW0NIMl1uMltjSF1uW2NIXW4y

> <s_epik_cmdline>
J2VwaWtfcHl0aG9uJywgJy1waCcsICc3LjAnLCAnLXRuJywgJzgnLCAnLW1hJywgJzIwMCcsICctbWV0YWxfYmluZGluZycsICctaW1hZScsICc8aW5maWxlLm1hZT4nLCAnLW9tYWUnLCAnPG91dGZpbGUubWFlPic=

> <r_lp_tautomer_probability>
1

> <r_epik_Ionization_Penalty>
7.34071e-06

> <r_epik_Ionization_Penalty_Charging>
0

> <r_epik_Ionization_Penalty_Neutral>
7.34071e-06

> <r_epik_State_Penalty>
-0

> <r_epik_Charging_Adjusted_Penalty>
0

> <i_epik_Tot_Q>
0

> <i_epik_Tot_abs_Q>
0

> <r_epik_Metal_State_Penalty>
-0

> <b_epik_Metal_Only>
0

> <s_lp_Force_Field>
OPLS_2005

> <r_lp_Energy>
6.43363

> <b_lp_Chiralities_Consistent>
1

> <s_lp_Variant>
AV-unprocessed.smi:1440-2

> <Gold.Version>
5.8.1

> <Gold.Id.Protein>
6NUR|6NUR_protein|mol2

> <Gold.PLP.Fitness>
43.6480

> <Gold.PLP.PLP>
-33.1742

> <Gold.PLP.part.hbond>
-2.9997

> <Gold.PLP.part.metal>
0.0000

> <Gold.PLP.part.buried>
-5.2431

> <Gold.PLP.part.nonpolar>
-25.9868

> <Gold.PLP.part.repulsive>
0.5209

> <Gold.PLP.ligand.clash>
0.0000

> <Gold.PLP.ligand.torsion>
0.1895

> <Gold.PLP.Chemscore.Hbond>
1.6429

> <Gold.PLP.Chemscore.CHOScore>
1.9677

> <Gold.PLP.Chemscore.Metal>
0.0000

> <Gold.Chemscore.Hbonds>
donor molecule, donor type, donor heavy atom, donor atom, acceptor molecule, acceptor atom, score
      P1  H  6896  6908       L1    12  0.01
      P1  H  6931  6943       L1     8  0.53
      P1  H  7989  7998       L1    16  1.00
      L1  C    17    37       P1  7948  1.00
      L1  C    17    37       P1  7957  0.90

> <Gold.PLP.Chemscore.Internal.Correction>
0.0210

> <Gold.Rescore>
     Score         DG    S(hbond)    S(metal)    S(lipo)     H(rot)  DE(clash)    DE(int)     intcor
     10.08     -10.51       1.75        0.00      55.66       2.86       0.02       0.40       ----

> <Gold.Chemscore.Fitness>
10.0823

> <Gold.Chemscore.DG>
-10.5051

> <Gold.Chemscore.ZeroCoef>
-5.4800

> <Gold.Chemscore.Hbond>
1.7485

> <Gold.Chemscore.Metal>
0.0000

> <Gold.Chemscore.Lipo>
55.6577

> <Gold.Chemscore.Internal_Hbond>
0.0000

> <Gold.Chemscore.DEClash>
0.0202

> <Gold.Chemscore.DEInternal>
0.4026

> <Gold.Chemscore.Rot>
2.8621

> <Gold.Chemscore.Internal.Correction>
   9.000000E+99

> <Gold.Chemscore.Hbonds>
donor molecule, donor type, donor heavy atom, donor atom, acceptor molecule, acceptor atom, score
      P1  H  6896  6908       L1    12  0.02
      P1  H  6931  6943       L1     8  0.50
      P1  H  7989  7998       L1    16  0.51

> <Gold.Chemscore.Hbond.Weighted>
-5.8402

> <Gold.Chemscore.Metal.Weighted>
-0.0000

> <Gold.Chemscore.Lipo.Weighted>
-6.5120

> <Gold.Chemscore.Internal_Hbond.Weighted>
0.0000

> <Gold.Chemscore.DEClash.Weighted>
0.0202

> <Gold.Chemscore.DEInternal.Weighted>
0.4026

> <Gold.Chemscore.Rot.Weighted>
7.3270

> <Gold.Chemscore.Internal.Correction.Weighted>
   9.000000E+99

> <Gold.Protein.RotatedTorsions>
[ 6907 6896 6895 6894 ] final  135.19 input  -60.11 | X-H torsion
[ 7974 7965 7964 7962 ] final  -24.71 input  175.53 | X-H torsion
[ 8008 7997 7996 7995 ] final   -4.01 input   59.86 | X-H torsion
[ 10167 10162 10161 10158 ] final  176.60 input  -65.29 | X-H torsion
[ 10718 10713 10712 10709 ] final  139.58 input   66.30 | X-H torsion
[ 10763 10752 10751 10750 ] final   72.27 input  -60.55 | X-H torsion
[ 11005 11000 10999 10996 ] final  -88.90 input  -57.11 | X-H torsion

> <Gold.Protein.ActiveResidues>
 VAL166  LYS551  ARG553  GLY616  TRP617  ASP618  TYR619  PRO620  LYS621  CYS622 
 ASP623  PHE694  ASN695  SER759  ASP760  ASP761  ALA762  ILE779  LEU786  VAL792 
 PHE793  MET794  SER795  GLU796  ALA797  LYS798  CYS799  TRP800  GLU811  SER814 

> <Gold.Protein.RotatedAtoms>
  152.3031  133.5675  159.5631 H   0  0  0  0  0  0  0  0  0  0  0  0  # atno 6907 bound_to 6896
  150.7287  134.0263  159.3727 H   0  0  0  0  0  0  0  0  0  0  0  0  # atno 6908 bound_to 6896
  151.8161  135.0666  160.0470 H   0  0  0  0  0  0  0  0  0  0  0  0  # atno 6909 bound_to 6896
  146.1537  140.4789  142.8600 H   0  0  0  0  0  0  0  0  0  0  0  0  # atno 7974 bound_to 7965
  154.6188  140.2494  155.7576 H   0  0  0  0  0  0  0  0  0  0  0  0  # atno 8008 bound_to 7997
  156.2414  140.2931  156.0405 H   0  0  0  0  0  0  0  0  0  0  0  0  # atno 8009 bound_to 7997
  155.1931  140.0392  157.2894 H   0  0  0  0  0  0  0  0  0  0  0  0  # atno 8010 bound_to 7997
  139.5220  144.2897  152.0475 H   0  0  0  0  0  0  0  0  0  0  0  0  # atno 10167 bound_to 10162
  157.4128  131.1030  151.0436 H   0  0  0  0  0  0  0  0  0  0  0  0  # atno 10718 bound_to 10713
  153.0449  135.5106  154.7719 H   0  0  0  0  0  0  0  0  0  0  0  0  # atno 10763 bound_to 10752
  154.6627  135.2941  154.9847 H   0  0  0  0  0  0  0  0  0  0  0  0  # atno 10764 bound_to 10752
  154.0693  135.6680  153.4874 H   0  0  0  0  0  0  0  0  0  0  0  0  # atno 10765 bound_to 10752
  141.1594  133.7598  156.9518 H   0  0  0  0  0  0  0  0  0  0  0  0  # atno 11005 bound_to 11000
  144.7936  140.6080  143.6525 LP  0  0  0  0  0  0  0  0  0  0  0  0  # atno 17320 bound_to 7965
  145.4761  139.1499  143.3788 LP  0  0  0  0  0  0  0  0  0  0  0  0  # atno 17321 bound_to 7965
  140.2348  144.4330  150.6284 LP  0  0  0  0  0  0  0  0  0  0  0  0  # atno 17342 bound_to 10162
  140.6330  143.2190  151.6454 LP  0  0  0  0  0  0  0  0  0  0  0  0  # atno 17343 bound_to 10162
  157.1394  130.6136  149.5551 LP  0  0  0  0  0  0  0  0  0  0  0  0  # atno 17370 bound_to 10713
  155.9856  130.4886  150.7039 LP  0  0  0  0  0  0  0  0  0  0  0  0  # atno 17371 bound_to 10713
  140.1252  134.9391  157.2260 LP  0  0  0  0  0  0  0  0  0  0  0  0  # atno 17394 bound_to 11000
  140.3022  134.3119  155.7287 LP  0  0  0  0  0  0  0  0  0  0  0  0  # atno 17395 bound_to 11000

$$$$
