AV-unprocessed.smi:960|AV-procd|sdf|4273|dock4
  -GOLD-   22720 2183D 1   1.00000     0.00000
 Structure written by MMmdl.
 45 46  0  0  0  0  0  0  0  0  1 V2000
  151.9059  139.8902  155.9450 C   0  0  0  0  0  0  0  0  0  0  0  0
  151.0022  140.7207  156.4905 C   0  0  0  0  0  0  0  0  0  0  0  0
  150.8130  140.8286  157.9921 C   0  0  0  0  0  0  0  0  0  0  0  0
  150.1252  141.6263  155.6380 C   0  0  0  0  0  0  0  0  0  0  0  0
  148.8800  140.9924  155.2040 N   0  0  0  0  0  0  0  0  0  0  0  0
  149.0801  139.5737  154.8882 C   0  0  0  0  0  0  0  0  0  0  0  0
  147.7432  138.9162  154.5034 C   0  0  0  0  0  0  0  0  0  0  0  0
  147.0950  139.6284  153.3069 C   0  0  0  0  0  0  0  0  0  0  0  0
  145.7694  139.0700  153.0577 N   0  0  0  0  0  0  0  0  0  0  0  0
  145.4661  137.7645  153.0691 C   0  0  0  0  0  0  0  0  0  0  0  0
  146.2803  136.8763  153.3192 O   0  0  0  0  0  0  0  0  0  0  0  0
  144.1685  137.5619  152.7948 N   0  0  0  0  0  0  0  0  0  0  0  0
  143.5043  136.3144  152.6864 C   0  0  0  0  0  0  0  0  0  0  0  0
  142.2449  135.9063  153.2170 C   0  0  0  0  0  0  0  0  0  0  0  0
  141.2337  136.6475  154.0466 C   0  0  0  0  0  0  0  0  0  0  0  0
  142.0189  134.6366  152.9132 N   0  0  0  0  0  0  0  0  0  0  0  0
  143.1439  134.1838  152.2074 O   0  0  0  0  0  0  0  0  0  0  0  0
  144.0341  135.2041  152.0981 C   0  0  0  0  0  0  0  0  0  0  0  0
  145.3158  134.9123  151.3938 C   0  0  0  0  0  0  0  0  0  0  0  0
  147.0079  141.1351  153.6048 C   0  0  0  0  0  0  0  0  0  0  0  0
  148.3769  141.6974  154.0238 C   0  0  0  0  0  0  0  0  0  0  0  0
  152.5296  139.2577  156.5595 H   0  0  0  0  0  0  0  0  0  0  0  0
  152.0352  139.8296  154.8743 H   0  0  0  0  0  0  0  0  0  0  0  0
  150.9889  141.8523  158.3221 H   0  0  0  0  0  0  0  0  0  0  0  0
  151.5033  140.1766  158.5280 H   0  0  0  0  0  0  0  0  0  0  0  0
  149.7976  140.5473  158.2726 H   0  0  0  0  0  0  0  0  0  0  0  0
  149.8917  142.5129  156.2290 H   0  0  0  0  0  0  0  0  0  0  0  0
  150.6871  141.9669  154.7666 H   0  0  0  0  0  0  0  0  0  0  0  0
  149.8023  139.4696  154.0768 H   0  0  0  0  0  0  0  0  0  0  0  0
  149.4906  139.0463  155.7492 H   0  0  0  0  0  0  0  0  0  0  0  0
  147.9061  137.8639  154.2676 H   0  0  0  0  0  0  0  0  0  0  0  0
  147.0708  138.9404  155.3625 H   0  0  0  0  0  0  0  0  0  0  0  0
  147.7256  139.4717  152.4294 H   0  0  0  0  0  0  0  0  0  0  0  0
  145.0324  139.7275  152.8487 H   0  0  0  0  0  0  0  0  0  0  0  0
  143.5828  138.3821  152.7356 H   0  0  0  0  0  0  0  0  0  0  0  0
  141.7173  137.3557  154.7193 H   0  0  0  0  0  0  0  0  0  0  0  0
  140.6455  135.9663  154.6624 H   0  0  0  0  0  0  0  0  0  0  0  0
  140.5400  137.2021  153.4148 H   0  0  0  0  0  0  0  0  0  0  0  0
  145.9984  135.7602  151.4524 H   0  0  0  0  0  0  0  0  0  0  0  0
  145.1361  134.6960  150.3408 H   0  0  0  0  0  0  0  0  0  0  0  0
  145.8121  134.0489  151.8371 H   0  0  0  0  0  0  0  0  0  0  0  0
  146.6458  141.6723  152.7277 H   0  0  0  0  0  0  0  0  0  0  0  0
  146.2837  141.3180  154.4002 H   0  0  0  0  0  0  0  0  0  0  0  0
  148.2730  142.7596  154.2492 H   0  0  0  0  0  0  0  0  0  0  0  0
  149.0895  141.6127  153.2017 H   0  0  0  0  0  0  0  0  0  0  0  0
  1  2  2  0  0  0  0
  1 22  1  0  0  0  0
  1 23  1  0  0  0  0
  2  3  1  0  0  0  0
  2  4  1  0  0  0  0
  3 24  1  0  0  0  0
  3 25  1  0  0  0  0
  3 26  1  0  0  0  0
  4  5  1  0  0  0  0
  4 27  1  0  0  0  0
  4 28  1  0  0  0  0
  5 21  1  0  0  0  0
  5  6  1  0  0  0  0
  6  7  1  0  0  0  0
  6 29  1  0  0  0  0
  6 30  1  0  0  0  0
  7  8  1  0  0  0  0
  7 31  1  0  0  0  0
  7 32  1  0  0  0  0
  8  9  1  0  0  0  0
  8 20  1  0  0  0  0
  8 33  1  0  0  0  0
  9 10  1  0  0  0  0
  9 34  1  0  0  0  0
 10 11  2  0  0  0  0
 10 12  1  0  0  0  0
 12 13  1  0  0  0  0
 12 35  1  0  0  0  0
 13 18  2  0  0  0  0
 13 14  1  0  0  0  0
 14 15  1  0  0  0  0
 14 16  2  0  0  0  0
 15 36  1  0  0  0  0
 15 37  1  0  0  0  0
 15 38  1  0  0  0  0
 16 17  1  0  0  0  0
 17 18  1  0  0  0  0
 18 19  1  0  0  0  0
 19 39  1  0  0  0  0
 19 40  1  0  0  0  0
 19 41  1  0  0  0  0
 20 21  1  0  0  0  0
 20 42  1  0  0  0  0
 20 43  1  0  0  0  0
 21 44  1  0  0  0  0
 21 45  1  0  0  0  0
M  END
> <s_m_source_file>
AV-unprocessed.smi

> <i_m_source_file_index>
960

> <i_lp_mmshare_version>
43012

> <i_f3d_flags>
0

> <s_epik_input>
W0NIMl09QyhbQ0gzXSlbQ0gyXU4xW0NIMl1bQ0gyXVtDSF0oW0NIMl1bQ0gyXTEpW05IXUMoPU8pW05IXWMyYyhbQ0gzXSlub2MyW0NIM10=

> <s_epik_cmdline>
J2VwaWtfcHl0aG9uJywgJy1waCcsICc3LjAnLCAnLXRuJywgJzgnLCAnLW1hJywgJzIwMCcsICctbWV0YWxfYmluZGluZycsICctaW1hZScsICc8aW5maWxlLm1hZT4nLCAnLW9tYWUnLCAnPG91dGZpbGUubWFlPic=

> <r_epik_Ionization_Penalty>
2.03694

> <r_epik_Ionization_Penalty_Charging>
0

> <r_epik_Ionization_Penalty_Neutral>
2.03694

> <r_epik_State_Penalty>
2.16834

> <r_epik_Charging_Adjusted_Penalty>
2.16834

> <i_epik_Tot_Q>
0

> <i_epik_Tot_abs_Q>
0

> <r_epik_Metal_State_Penalty>
2.16834

> <b_epik_Metal_Only>
0

> <s_lp_Force_Field>
OPLS_2005

> <r_lp_Energy>
16.835

> <b_lp_Chiralities_Consistent>
1

> <s_lp_Variant>
AV-unprocessed.smi:960-3

> <Gold.Version>
5.8.1

> <Gold.Id.Protein>
6NUR|6NUR_protein|mol2

> <Gold.PLP.Fitness>
38.0088

> <Gold.PLP.PLP>
-34.6027

> <Gold.PLP.part.hbond>
-2.6290

> <Gold.PLP.part.metal>
0.0000

> <Gold.PLP.part.buried>
-4.9441

> <Gold.PLP.part.nonpolar>
-28.4890

> <Gold.PLP.part.repulsive>
1.4396

> <Gold.PLP.ligand.clash>
0.0000

> <Gold.PLP.ligand.torsion>
1.1437

> <Gold.PLP.Chemscore.Hbond>
1.8160

> <Gold.PLP.Chemscore.CHOScore>
0.0000

> <Gold.PLP.Chemscore.Metal>
0.0000

> <Gold.Chemscore.Hbonds>
donor molecule, donor type, donor heavy atom, donor atom, acceptor molecule, acceptor atom, score
      L1  H     9    34       P1 10175  1.00
      L1  H    12    35       P1 10175  0.77

> <Gold.PLP.Chemscore.Internal.Correction>
0.2456

> <Gold.Rescore>
     Score         DG    S(hbond)    S(metal)    S(lipo)     H(rot)  DE(clash)    DE(int)     intcor
     14.48     -17.09       1.86        0.00      75.02       1.32       0.02       2.59       ----

> <Gold.Chemscore.Fitness>
14.4780

> <Gold.Chemscore.DG>
-17.0888

> <Gold.Chemscore.ZeroCoef>
-5.4800

> <Gold.Chemscore.Hbond>
1.8614

> <Gold.Chemscore.Metal>
0.0000

> <Gold.Chemscore.Lipo>
75.0210

> <Gold.Chemscore.Internal_Hbond>
0.0000

> <Gold.Chemscore.DEClash>
0.0199

> <Gold.Chemscore.DEInternal>
2.5909

> <Gold.Chemscore.Rot>
1.3225

> <Gold.Chemscore.Internal.Correction>
   9.000000E+99

> <Gold.Chemscore.Hbonds>
donor molecule, donor type, donor heavy atom, donor atom, acceptor molecule, acceptor atom, score
      L1  H     9    34       P1 10175  0.98
      L1  H    12    35       P1 10175  0.74

> <Gold.Chemscore.Hbond.Weighted>
-6.2170

> <Gold.Chemscore.Metal.Weighted>
-0.0000

> <Gold.Chemscore.Lipo.Weighted>
-8.7775

> <Gold.Chemscore.Internal_Hbond.Weighted>
0.0000

> <Gold.Chemscore.DEClash.Weighted>
0.0199

> <Gold.Chemscore.DEInternal.Weighted>
2.5909

> <Gold.Chemscore.Rot.Weighted>
3.3856

> <Gold.Chemscore.Internal.Correction.Weighted>
   9.000000E+99

> <Gold.Protein.RotatedTorsions>
[ 6907 6896 6895 6894 ] final  -46.54 input  -60.11 | X-H torsion
[ 7974 7965 7964 7962 ] final  137.70 input  175.53 | X-H torsion
[ 8008 7997 7996 7995 ] final -164.47 input   59.86 | X-H torsion
[ 10167 10162 10161 10158 ] final  -21.06 input  -65.29 | X-H torsion
[ 10718 10713 10712 10709 ] final    8.62 input   66.30 | X-H torsion
[ 10763 10752 10751 10750 ] final   92.03 input  -60.55 | X-H torsion
[ 11005 11000 10999 10996 ] final  -43.58 input  -57.11 | X-H torsion

> <Gold.Protein.ActiveResidues>
 VAL166  LYS551  ARG553  GLY616  TRP617  ASP618  TYR619  PRO620  LYS621  CYS622 
 ASP623  PHE694  ASN695  SER759  ASP760  ASP761  ALA762  ILE779  LEU786  VAL792 
 PHE793  MET794  SER795  GLU796  ALA797  LYS798  CYS799  TRP800  GLU811  SER814 

> <Gold.Protein.RotatedAtoms>
  150.9101  134.8518  159.7419 H   0  0  0  0  0  0  0  0  0  0  0  0  # atno 6907 bound_to 6896
  152.4940  134.4371  159.9541 H   0  0  0  0  0  0  0  0  0  0  0  0  # atno 6908 bound_to 6896
  151.4415  133.3603  159.2817 H   0  0  0  0  0  0  0  0  0  0  0  0  # atno 6909 bound_to 6896
  144.9443  139.4894  143.5557 H   0  0  0  0  0  0  0  0  0  0  0  0  # atno 7974 bound_to 7965
  155.8361  140.0941  157.1763 H   0  0  0  0  0  0  0  0  0  0  0  0  # atno 8008 bound_to 7997
  154.3981  140.1410  156.3733 H   0  0  0  0  0  0  0  0  0  0  0  0  # atno 8009 bound_to 7997
  155.8114  140.3449  155.5462 H   0  0  0  0  0  0  0  0  0  0  0  0  # atno 8010 bound_to 7997
  140.7280  143.4664  151.0308 H   0  0  0  0  0  0  0  0  0  0  0  0  # atno 10167 bound_to 10162
  156.9542  130.5908  149.5658 H   0  0  0  0  0  0  0  0  0  0  0  0  # atno 10718 bound_to 10713
  153.2147  135.4376  155.0420 H   0  0  0  0  0  0  0  0  0  0  0  0  # atno 10763 bound_to 10752
  154.8219  135.3341  154.7016 H   0  0  0  0  0  0  0  0  0  0  0  0  # atno 10764 bound_to 10752
  153.7452  135.7002  153.5014 H   0  0  0  0  0  0  0  0  0  0  0  0  # atno 10765 bound_to 10752
  141.0393  133.6786  156.2753 H   0  0  0  0  0  0  0  0  0  0  0  0  # atno 11005 bound_to 11000
  146.3297  139.8484  142.8877 LP  0  0  0  0  0  0  0  0  0  0  0  0  # atno 17320 bound_to 7965
  145.2943  141.0176  143.3645 LP  0  0  0  0  0  0  0  0  0  0  0  0  # atno 17321 bound_to 7965
  139.8352  143.7637  152.3180 LP  0  0  0  0  0  0  0  0  0  0  0  0  # atno 17342 bound_to 10162
  139.7766  144.7458  151.0147 LP  0  0  0  0  0  0  0  0  0  0  0  0  # atno 17343 bound_to 10162
  156.0349  130.5438  150.8629 LP  0  0  0  0  0  0  0  0  0  0  0  0  # atno 17370 bound_to 10713
  157.5701  131.0946  150.9430 LP  0  0  0  0  0  0  0  0  0  0  0  0  # atno 17371 bound_to 10713
  140.6263  134.5310  157.5554 LP  0  0  0  0  0  0  0  0  0  0  0  0  # atno 17394 bound_to 11000
  139.9264  134.8048  156.1056 LP  0  0  0  0  0  0  0  0  0  0  0  0  # atno 17395 bound_to 11000

$$$$
