AV-unprocessed.smi:1587|AV-procd|sdf|6387|dock10
  -GOLD-   22720 7 23D 1   1.00000     0.00000
 Structure written by MMmdl.
 36 37  0  0  0  0  0  0  0  0  1 V2000
  144.5644  136.7064  152.8179 O   0  0  0  0  0  0  0  0  0  0  0  0
  145.7682  136.5729  152.5958 C   0  0  0  0  0  0  0  0  0  0  0  0
  146.6938  137.4603  152.9885 N   0  0  0  0  0  0  0  0  0  0  0  0
  146.4166  138.6863  153.7271 C   0  0  0  0  0  0  0  0  0  0  0  0
  147.4907  139.7581  153.4613 C   0  0  0  0  0  0  0  0  0  0  0  0
  148.5920  139.7773  154.4220 N   0  0  0  0  0  0  0  0  0  0  0  0
  149.6842  138.8830  154.0436 C   0  0  0  0  0  0  0  0  0  0  0  0
  150.8486  138.9401  155.0483 C   0  0  0  0  0  0  0  0  0  0  0  0
  151.3086  140.2816  155.1753 O   0  0  0  0  0  0  0  0  0  0  0  0
  150.2815  141.1752  155.5915 C   0  0  0  0  0  0  0  0  0  0  0  0
  149.1203  141.1280  154.5836 C   0  0  0  0  0  0  0  0  0  0  0  0
  146.3295  135.5403  151.9421 N   0  0  0  0  0  0  0  0  0  0  0  0
  145.6866  134.4137  151.3629 C   0  0  0  0  0  0  0  0  0  0  0  0
  146.5548  133.4636  150.7788 C   0  0  0  0  0  0  0  0  0  0  0  0
  146.0156  132.3106  150.1757 C   0  0  0  0  0  0  0  0  0  0  0  0
  144.6200  132.1371  150.1717 C   0  0  0  0  0  0  0  0  0  0  0  0
  143.8269  133.1310  150.7740 C   0  0  0  0  0  0  0  0  0  0  0  0
  144.3415  134.2368  151.3526 N   0  0  0  0  0  0  0  0  0  0  0  0
  147.6599  137.2739  152.7634 H   0  0  0  0  0  0  0  0  0  0  0  0
  145.4265  139.0641  153.4664 H   0  0  0  0  0  0  0  0  0  0  0  0
  146.3833  138.4251  154.7842 H   0  0  0  0  0  0  0  0  0  0  0  0
  147.8853  139.6382  152.4511 H   0  0  0  0  0  0  0  0  0  0  0  0
  147.0015  140.7332  153.4761 H   0  0  0  0  0  0  0  0  0  0  0  0
  149.3296  137.8547  153.9834 H   0  0  0  0  0  0  0  0  0  0  0  0
  150.0520  139.1468  153.0508 H   0  0  0  0  0  0  0  0  0  0  0  0
  150.5356  138.5624  156.0229 H   0  0  0  0  0  0  0  0  0  0  0  0
  151.6723  138.3112  154.7104 H   0  0  0  0  0  0  0  0  0  0  0  0
  149.9369  140.9057  156.5913 H   0  0  0  0  0  0  0  0  0  0  0  0
  150.6898  142.1838  155.6542 H   0  0  0  0  0  0  0  0  0  0  0  0
  149.4642  141.5086  153.6205 H   0  0  0  0  0  0  0  0  0  0  0  0
  148.3279  141.7985  154.9180 H   0  0  0  0  0  0  0  0  0  0  0  0
  147.3338  135.5632  151.8459 H   0  0  0  0  0  0  0  0  0  0  0  0
  147.6249  133.6119  150.7910 H   0  0  0  0  0  0  0  0  0  0  0  0
  146.6619  131.5727  149.7242 H   0  0  0  0  0  0  0  0  0  0  0  0
  144.1690  131.2663  149.7194 H   0  0  0  0  0  0  0  0  0  0  0  0
  142.7513  133.0365  150.7916 H   0  0  0  0  0  0  0  0  0  0  0  0
  1  2  2  0  0  0  0
  2  3  1  0  0  0  0
  2 12  1  0  0  0  0
  3  4  1  0  0  0  0
  3 19  1  0  0  0  0
  4  5  1  0  0  0  0
  4 20  1  0  0  0  0
  4 21  1  0  0  0  0
  5  6  1  0  0  0  0
  5 22  1  0  0  0  0
  5 23  1  0  0  0  0
  6 11  1  0  0  0  0
  6  7  1  0  0  0  0
  7  8  1  0  0  0  0
  7 24  1  0  0  0  0
  7 25  1  0  0  0  0
  8  9  1  0  0  0  0
  8 26  1  0  0  0  0
  8 27  1  0  0  0  0
  9 10  1  0  0  0  0
 10 11  1  0  0  0  0
 10 28  1  0  0  0  0
 10 29  1  0  0  0  0
 11 30  1  0  0  0  0
 11 31  1  0  0  0  0
 12 13  1  0  0  0  0
 12 32  1  0  0  0  0
 13 18  1  0  0  0  0
 13 14  2  0  0  0  0
 14 15  1  0  0  0  0
 14 33  1  0  0  0  0
 15 16  2  0  0  0  0
 15 34  1  0  0  0  0
 16 17  1  0  0  0  0
 16 35  1  0  0  0  0
 17 18  2  0  0  0  0
 17 36  1  0  0  0  0
M  END
> <s_m_source_file>
AV-unprocessed.smi

> <i_m_source_file_index>
1587

> <i_lp_mmshare_version>
43012

> <i_f3d_flags>
0

> <s_epik_input>
bjFbY0hdW2NIXVtjSF1bY0hdYzFbTkhdQyg9TylbTkhdW0NIMl1bQ0gyXU4yW0NIMl1bQ0gyXU9bQ0gyXVtDSDJdMg==

> <s_epik_cmdline>
J2VwaWtfcHl0aG9uJywgJy1waCcsICc3LjAnLCAnLXRuJywgJzgnLCAnLW1hJywgJzIwMCcsICctbWV0YWxfYmluZGluZycsICctaW1hZScsICc8aW5maWxlLm1hZT4nLCAnLW9tYWUnLCAnPG91dGZpbGUubWFlPic=

> <r_epik_Ionization_Penalty>
0.266037

> <r_epik_Ionization_Penalty_Charging>
0

> <r_epik_Ionization_Penalty_Neutral>
0.266037

> <r_epik_State_Penalty>
0.257924

> <r_epik_Charging_Adjusted_Penalty>
0.257924

> <i_epik_Tot_Q>
0

> <i_epik_Tot_abs_Q>
0

> <r_epik_Metal_State_Penalty>
0.257923

> <b_epik_Metal_Only>
0

> <s_lp_Force_Field>
OPLS_2005

> <r_lp_Energy>
22.0776

> <b_lp_Chiralities_Consistent>
1

> <s_lp_Variant>
AV-unprocessed.smi:1587-1

> <Gold.Version>
5.8.1

> <Gold.Id.Protein>
6NUR|6NUR_protein|mol2

> <Gold.PLP.Fitness>
43.3687

> <Gold.PLP.PLP>
-32.9379

> <Gold.PLP.part.hbond>
-3.0000

> <Gold.PLP.part.metal>
0.0000

> <Gold.PLP.part.buried>
-4.6090

> <Gold.PLP.part.nonpolar>
-26.2980

> <Gold.PLP.part.repulsive>
0.5184

> <Gold.PLP.ligand.clash>
0.0000

> <Gold.PLP.ligand.torsion>
0.7713

> <Gold.PLP.Chemscore.Hbond>
3.0000

> <Gold.PLP.Chemscore.CHOScore>
0.9874

> <Gold.PLP.Chemscore.Metal>
0.0000

> <Gold.Chemscore.Hbonds>
donor molecule, donor type, donor heavy atom, donor atom, acceptor molecule, acceptor atom, score
      L1  H     3    19       P1  7948  0.99
      L1  H    12    32       P1  7948  1.00
      P1  H  7989  7998       L1     9  1.00
      L1  C    17    36       P1 10186  0.95

> <Gold.PLP.Chemscore.Internal.Correction>
0.0113

> <Gold.Rescore>
     Score         DG    S(hbond)    S(metal)    S(lipo)     H(rot)  DE(clash)    DE(int)     intcor
     15.48     -17.84       2.14        0.00      78.40       1.55       0.18       2.18       ----

> <Gold.Chemscore.Fitness>
15.4753

> <Gold.Chemscore.DG>
-17.8419

> <Gold.Chemscore.ZeroCoef>
-5.4800

> <Gold.Chemscore.Hbond>
2.1417

> <Gold.Chemscore.Metal>
0.0000

> <Gold.Chemscore.Lipo>
78.3978

> <Gold.Chemscore.Internal_Hbond>
0.0000

> <Gold.Chemscore.DEClash>
0.1835

> <Gold.Chemscore.DEInternal>
2.1831

> <Gold.Chemscore.Rot>
1.5484

> <Gold.Chemscore.Internal.Correction>
   9.000000E+99

> <Gold.Chemscore.Hbonds>
donor molecule, donor type, donor heavy atom, donor atom, acceptor molecule, acceptor atom, score
      L1  H     3    19       P1  7948  0.94
      L1  H    12    32       P1  7948  0.99
      P1  H  7989  7998       L1     9  0.17

> <Gold.Chemscore.Hbond.Weighted>
-7.1532

> <Gold.Chemscore.Metal.Weighted>
-0.0000

> <Gold.Chemscore.Lipo.Weighted>
-9.1725

> <Gold.Chemscore.Internal_Hbond.Weighted>
0.0000

> <Gold.Chemscore.DEClash.Weighted>
0.1835

> <Gold.Chemscore.DEInternal.Weighted>
2.1831

> <Gold.Chemscore.Rot.Weighted>
3.9639

> <Gold.Chemscore.Internal.Correction.Weighted>
   9.000000E+99

> <Gold.Protein.RotatedTorsions>
[ 6907 6896 6895 6894 ] final -145.56 input  -60.11 | X-H torsion
[ 7974 7965 7964 7962 ] final  131.46 input  175.53 | X-H torsion
[ 8008 7997 7996 7995 ] final -139.13 input   59.86 | X-H torsion
[ 10167 10162 10161 10158 ] final  112.10 input  -65.29 | X-H torsion
[ 10718 10713 10712 10709 ] final -120.95 input   66.30 | X-H torsion
[ 10763 10752 10751 10750 ] final -148.06 input  -60.55 | X-H torsion
[ 11005 11000 10999 10996 ] final  161.39 input  -57.11 | X-H torsion

> <Gold.Protein.ActiveResidues>
 VAL166  LYS551  ARG553  GLY616  TRP617  ASP618  TYR619  PRO620  LYS621  CYS622 
 ASP623  PHE694  ASN695  SER759  ASP760  ASP761  ALA762  ILE779  LEU786  VAL792 
 PHE793  MET794  SER795  GLU796  ALA797  LYS798  CYS799  TRP800  GLU811  SER814 

> <Gold.Protein.RotatedAtoms>
  151.1295  133.5047  159.2599 H   0  0  0  0  0  0  0  0  0  0  0  0  # atno 6907 bound_to 6896
  151.1773  135.0345  159.8787 H   0  0  0  0  0  0  0  0  0  0  0  0  # atno 6908 bound_to 6896
  152.5459  134.1151  159.8428 H   0  0  0  0  0  0  0  0  0  0  0  0  # atno 6909 bound_to 6896
  145.0070  139.4256  143.5263 H   0  0  0  0  0  0  0  0  0  0  0  0  # atno 7974 bound_to 7965
  155.4397  140.0531  157.3011 H   0  0  0  0  0  0  0  0  0  0  0  0  # atno 8008 bound_to 7997
  154.4823  140.2086  155.9692 H   0  0  0  0  0  0  0  0  0  0  0  0  # atno 8009 bound_to 7997
  156.1224  140.3186  155.8233 H   0  0  0  0  0  0  0  0  0  0  0  0  # atno 8010 bound_to 7997
  139.6561  144.7129  151.1955 H   0  0  0  0  0  0  0  0  0  0  0  0  # atno 10167 bound_to 10162
  156.1298  130.6387  150.9602 H   0  0  0  0  0  0  0  0  0  0  0  0  # atno 10718 bound_to 10713
  154.8253  135.3344  154.6915 H   0  0  0  0  0  0  0  0  0  0  0  0  # atno 10763 bound_to 10752
  153.7542  135.6937  153.4943 H   0  0  0  0  0  0  0  0  0  0  0  0  # atno 10764 bound_to 10752
  153.2155  135.4467  155.0379 H   0  0  0  0  0  0  0  0  0  0  0  0  # atno 10765 bound_to 10752
  140.2153  134.8237  157.3164 H   0  0  0  0  0  0  0  0  0  0  0  0  # atno 11005 bound_to 11000
  146.3463  139.9492  142.8731 LP  0  0  0  0  0  0  0  0  0  0  0  0  # atno 17320 bound_to 7965
  145.2074  140.9881  143.4120 LP  0  0  0  0  0  0  0  0  0  0  0  0  # atno 17321 bound_to 7965
  140.7559  143.6070  150.8643 LP  0  0  0  0  0  0  0  0  0  0  0  0  # atno 17342 bound_to 10162
  139.9723  143.6043  152.2969 LP  0  0  0  0  0  0  0  0  0  0  0  0  # atno 17343 bound_to 10162
  157.6477  131.0901  150.8118 LP  0  0  0  0  0  0  0  0  0  0  0  0  # atno 17370 bound_to 10713
  156.8204  130.4982  149.5344 LP  0  0  0  0  0  0  0  0  0  0  0  0  # atno 17371 bound_to 10713
  140.1907  134.4375  155.7717 LP  0  0  0  0  0  0  0  0  0  0  0  0  # atno 17394 bound_to 11000
  141.2225  133.7026  156.8022 LP  0  0  0  0  0  0  0  0  0  0  0  0  # atno 17395 bound_to 11000

$$$$
