AV-unprocessed.smi:221|AV-procd|sdf|1688|dock3
  -GOLD-   2262020123D 1   1.00000     0.00000
 Structure written by MMmdl.
 50 53  0  0  0  0  0  0  0  0  1 V2000
  149.3242  140.1660  154.3670 N   0  0  0  0  0  0  0  0  0  0  0  0
  150.4076  140.1466  155.1468 C   0  0  0  0  0  0  0  0  0  0  0  0
  151.5438  140.0523  154.6858 O   0  0  0  0  0  0  0  0  0  0  0  0
  150.1759  140.2674  156.6596 C   0  0  2  0  0  0  0  0  0  0  0  0
  150.4473  141.6962  157.1687 C   0  0  0  0  0  0  0  0  0  0  0  0
  150.9761  141.4775  158.5795 C   0  0  2  0  0  0  0  0  0  0  0  0
  151.6931  142.5091  159.0245 F   0  0  0  0  0  0  0  0  0  0  0  0
  151.8052  140.2104  158.4146 C   0  0  0  0  0  0  0  0  0  0  0  0
  151.0907  139.4080  157.4235 N   0  0  0  0  0  0  0  0  0  0  0  0
  150.5365  138.2393  157.8302 C   0  0  0  0  0  0  0  0  0  0  0  0
  150.3540  137.9946  159.1551 N   0  0  0  0  0  0  0  0  0  0  0  0
  149.7766  136.8574  159.5539 C   0  0  0  0  0  0  0  0  0  0  0  0
  149.3130  135.8511  158.8097 N   0  0  0  0  0  0  0  0  0  0  0  0
  149.4904  136.0950  157.4794 C   0  0  0  0  0  0  0  0  0  0  0  0
  150.0822  137.2569  156.9094 C   0  0  0  0  0  0  0  0  0  0  0  0
  150.0791  137.1599  155.5245 N   0  0  0  0  0  0  0  0  0  0  0  0
  149.5152  136.0073  155.2880 C   0  0  0  0  0  0  0  0  0  0  0  0
  149.1568  135.2859  156.4059 N   0  0  0  0  0  0  0  0  0  0  0  0
  148.5029  133.9851  156.4363 C   0  0  0  0  0  0  0  0  0  0  0  0
  149.4053  132.8073  155.9701 C   0  0  2  0  0  0  0  0  0  0  0  0
  150.8561  133.0616  156.4433 C   0  0  0  0  0  0  0  0  0  0  0  0
  151.1352  132.3415  157.6267 O   0  0  0  0  0  0  0  0  0  0  0  0
  149.3799  132.5601  154.4297 C   0  0  2  0  0  0  0  0  0  0  0  0
  148.0814  132.8874  153.7046 C   0  0  0  0  0  0  0  0  0  0  0  0
  147.2128  131.6630  153.9723 C   0  0  0  0  0  0  0  0  0  0  0  0
  148.1258  130.5805  154.1159 O   0  0  0  0  0  0  0  0  0  0  0  0
  149.4630  131.0686  154.0701 C   0  0  0  0  0  0  0  0  0  0  0  0
  149.1407  140.0045  156.8918 H   0  0  0  0  0  0  0  0  0  0  0  0
  150.1540  141.3120  159.2771 H   0  0  0  0  0  0  0  0  0  0  0  0
  149.4273  140.0805  153.3662 H   0  0  0  0  0  0  0  0  0  0  0  0
  148.4068  140.2569  154.7785 H   0  0  0  0  0  0  0  0  0  0  0  0
  151.2128  142.1903  156.5669 H   0  0  0  0  0  0  0  0  0  0  0  0
  149.5561  142.3239  157.1519 H   0  0  0  0  0  0  0  0  0  0  0  0
  152.7840  140.4509  157.9977 H   0  0  0  0  0  0  0  0  0  0  0  0
  151.9827  139.7086  159.3668 H   0  0  0  0  0  0  0  0  0  0  0  0
  149.6697  136.7369  160.6218 H   0  0  0  0  0  0  0  0  0  0  0  0
  149.3510  135.6493  154.2821 H   0  0  0  0  0  0  0  0  0  0  0  0
  148.1191  133.7918  157.4386 H   0  0  0  0  0  0  0  0  0  0  0  0
  147.6245  134.0765  155.7973 H   0  0  0  0  0  0  0  0  0  0  0  0
  149.0719  131.8902  156.4566 H   0  0  0  0  0  0  0  0  0  0  0  0
  151.5873  132.7490  155.7002 H   0  0  0  0  0  0  0  0  0  0  0  0
  151.0244  134.1247  156.6179 H   0  0  0  0  0  0  0  0  0  0  0  0
  151.3185  131.4436  157.3958 H   0  0  0  0  0  0  0  0  0  0  0  0
  150.2024  133.1136  153.9749 H   0  0  0  0  0  0  0  0  0  0  0  0
  147.6135  133.8266  153.9824 H   0  0  0  0  0  0  0  0  0  0  0  0
  148.2800  132.9523  152.6336 H   0  0  0  0  0  0  0  0  0  0  0  0
  146.6557  131.7791  154.9023 H   0  0  0  0  0  0  0  0  0  0  0  0
  146.4989  131.4789  153.1692 H   0  0  0  0  0  0  0  0  0  0  0  0
  149.8334  130.9516  153.0504 H   0  0  0  0  0  0  0  0  0  0  0  0
  150.1103  130.4797  154.7179 H   0  0  0  0  0  0  0  0  0  0  0  0
  1  2  1  0  0  0  0
  1 30  1  0  0  0  0
  1 31  1  0  0  0  0
  2  3  2  0  0  0  0
  2  4  1  0  0  0  0
  4 28  1  0  0  0  0
  4  9  1  0  0  0  0
  4  5  1  0  0  0  0
  5  6  1  0  0  0  0
  5 32  1  0  0  0  0
  5 33  1  0  0  0  0
  6 29  1  0  0  0  0
  6  7  1  0  0  0  0
  6  8  1  0  0  0  0
  8  9  1  0  0  0  0
  8 34  1  0  0  0  0
  8 35  1  0  0  0  0
  9 10  1  0  0  0  0
 10 15  1  0  0  0  0
 10 11  2  0  0  0  0
 11 12  1  0  0  0  0
 12 13  2  0  0  0  0
 12 36  1  0  0  0  0
 13 14  1  0  0  0  0
 14 18  1  0  0  0  0
 14 15  2  0  0  0  0
 15 16  1  0  0  0  0
 16 17  2  0  0  0  0
 17 18  1  0  0  0  0
 17 37  1  0  0  0  0
 18 19  1  0  0  0  0
 19 20  1  0  0  0  0
 19 38  1  0  0  0  0
 19 39  1  0  0  0  0
 20 21  1  0  0  0  0
 20 23  1  0  0  0  0
 20 40  1  0  0  0  0
 21 22  1  0  0  0  0
 21 41  1  0  0  0  0
 21 42  1  0  0  0  0
 22 43  1  0  0  0  0
 23 27  1  0  0  0  0
 23 24  1  0  0  0  0
 23 44  1  0  0  0  0
 24 25  1  0  0  0  0
 24 45  1  0  0  0  0
 24 46  1  0  0  0  0
 25 26  1  0  0  0  0
 25 47  1  0  0  0  0
 25 48  1  0  0  0  0
 26 27  1  0  0  0  0
 27 49  1  0  0  0  0
 27 50  1  0  0  0  0
M  END
> <s_m_source_file>
AV-unprocessed.smi

> <i_m_source_file_index>
221

> <i_lp_mmshare_version>
43012

> <i_f3d_flags>
0

> <s_epik_input>
W05IMl1DKD1PKVtDQEBIXTFbQ0gyXVtDQEBIXShGKVtDSDJdTjFjKG5bY0hdbjIpYyhjMjMpbltjSF1uM1tDSDJdW0NASF0oW0NIMl1bT0hdKVtDQEBIXTRbQ0gyXVtDSDJdT1tDSDJdNA==

> <s_epik_cmdline>
J2VwaWtfcHl0aG9uJywgJy1waCcsICc3LjAnLCAnLXRuJywgJzgnLCAnLW1hJywgJzIwMCcsICctbWV0YWxfYmluZGluZycsICctaW1hZScsICc8aW5maWxlLm1hZT4nLCAnLW9tYWUnLCAnPG91dGZpbGUubWFlPic=

> <r_lp_tautomer_probability>
1

> <r_epik_Ionization_Penalty>
0.000818822

> <r_epik_Ionization_Penalty_Charging>
0

> <r_epik_Ionization_Penalty_Neutral>
0.000818822

> <r_epik_State_Penalty>
0.000440551

> <r_epik_Charging_Adjusted_Penalty>
0.000440551

> <i_epik_Tot_Q>
0

> <i_epik_Tot_abs_Q>
0

> <r_epik_Metal_State_Penalty>
-0

> <b_epik_Metal_Only>
0

> <s_lp_Force_Field>
OPLS_2005

> <r_lp_Energy>
54.2939

> <b_lp_Chiralities_Consistent>
1

> <s_lp_Variant>
AV-unprocessed.smi:221-3

> <Gold.Version>
5.8.1

> <Gold.Id.Protein>
6NUR|6NUR_protein|mol2

> <Gold.PLP.Fitness>
41.8158

> <Gold.PLP.PLP>
-33.6037

> <Gold.PLP.part.hbond>
-4.0564

> <Gold.PLP.part.metal>
0.0000

> <Gold.PLP.part.buried>
-5.2405

> <Gold.PLP.part.nonpolar>
-24.3413

> <Gold.PLP.part.repulsive>
0.3689

> <Gold.PLP.ligand.clash>
0.0000

> <Gold.PLP.ligand.torsion>
2.5171

> <Gold.PLP.Chemscore.Hbond>
3.3440

> <Gold.PLP.Chemscore.CHOScore>
0.8849

> <Gold.PLP.Chemscore.Metal>
0.0000

> <Gold.Chemscore.Hbonds>
donor molecule, donor type, donor heavy atom, donor atom, acceptor molecule, acceptor atom, score
      L1  H     1    30       P1  7957  0.54
      P1  H  6896  6907       L1    22  0.34
      P1  H  6896  6908       L1    13  0.75
      P1  H  7989  7998       L1     3  0.76
      L1  C    17    37       P1  7948  1.00

> <Gold.PLP.Chemscore.Internal.Correction>
0.5595

> <Gold.Rescore>
     Score         DG    S(hbond)    S(metal)    S(lipo)     H(rot)  DE(clash)    DE(int)     intcor
      8.33     -11.01       2.58        0.00      55.12       3.72       0.03       2.65       ----

> <Gold.Chemscore.Fitness>
8.3347

> <Gold.Chemscore.DG>
-11.0091

> <Gold.Chemscore.ZeroCoef>
-5.4800

> <Gold.Chemscore.Hbond>
2.5758

> <Gold.Chemscore.Metal>
0.0000

> <Gold.Chemscore.Lipo>
55.1236

> <Gold.Chemscore.Internal_Hbond>
0.0000

> <Gold.Chemscore.DEClash>
0.0266

> <Gold.Chemscore.DEInternal>
2.6477

> <Gold.Chemscore.Rot>
3.7202

> <Gold.Chemscore.Internal.Correction>
   9.000000E+99

> <Gold.Chemscore.Hbonds>
donor molecule, donor type, donor heavy atom, donor atom, acceptor molecule, acceptor atom, score
      L1  H     1    30       P1  7957  0.54
      P1  H  6896  6907       L1    22  0.34
      P1  H  6896  6908       L1    13  0.08
      P1  H  7989  7998       L1     3  0.57

> <Gold.Chemscore.Hbond.Weighted>
-8.6033

> <Gold.Chemscore.Metal.Weighted>
-0.0000

> <Gold.Chemscore.Lipo.Weighted>
-6.4495

> <Gold.Chemscore.Internal_Hbond.Weighted>
0.0000

> <Gold.Chemscore.DEClash.Weighted>
0.0266

> <Gold.Chemscore.DEInternal.Weighted>
2.6477

> <Gold.Chemscore.Rot.Weighted>
9.5237

> <Gold.Chemscore.Internal.Correction.Weighted>
   9.000000E+99

> <Gold.Protein.RotatedTorsions>
[ 6907 6896 6895 6894 ] final  159.00 input  -60.11 | X-H torsion
[ 7974 7965 7964 7962 ] final   88.48 input  175.53 | X-H torsion
[ 8008 7997 7996 7995 ] final   18.79 input   59.86 | X-H torsion
[ 10167 10162 10161 10158 ] final  -42.13 input  -65.29 | X-H torsion
[ 10718 10713 10712 10709 ] final   51.88 input   66.30 | X-H torsion
[ 10763 10752 10751 10750 ] final  -94.80 input  -60.55 | X-H torsion
[ 11005 11000 10999 10996 ] final   94.02 input  -57.11 | X-H torsion

> <Gold.Protein.ActiveResidues>
 VAL166  LYS551  ARG553  GLY616  TRP617  ASP618  TYR619  PRO620  LYS621  CYS622 
 ASP623  PHE694  ASN695  SER759  ASP760  ASP761  ALA762  ILE779  LEU786  VAL792 
 PHE793  MET794  SER795  GLU796  ALA797  LYS798  CYS799  TRP800  GLU811  SER814 

> <Gold.Protein.RotatedAtoms>
  151.9920  133.3794  159.4147 H   0  0  0  0  0  0  0  0  0  0  0  0  # atno 6907 bound_to 6896
  150.6920  134.3926  159.5092 H   0  0  0  0  0  0  0  0  0  0  0  0  # atno 6908 bound_to 6896
  152.1661  134.8872  160.0588 H   0  0  0  0  0  0  0  0  0  0  0  0  # atno 6909 bound_to 6896
  145.5451  139.2291  143.2544 H   0  0  0  0  0  0  0  0  0  0  0  0  # atno 7974 bound_to 7965
  154.9112  140.3014  155.5265 H   0  0  0  0  0  0  0  0  0  0  0  0  # atno 8008 bound_to 7997
  156.3014  140.2388  156.4087 H   0  0  0  0  0  0  0  0  0  0  0  0  # atno 8009 bound_to 7997
  154.8423  140.0413  157.1538 H   0  0  0  0  0  0  0  0  0  0  0  0  # atno 8010 bound_to 7997
  140.6979  143.3055  151.3165 H   0  0  0  0  0  0  0  0  0  0  0  0  # atno 10167 bound_to 10162
  157.5022  130.8445  149.8330 H   0  0  0  0  0  0  0  0  0  0  0  0  # atno 10718 bound_to 10713
  154.7089  135.5144  153.8637 H   0  0  0  0  0  0  0  0  0  0  0  0  # atno 10763 bound_to 10752
  153.0764  135.6617  154.0146 H   0  0  0  0  0  0  0  0  0  0  0  0  # atno 10764 bound_to 10752
  153.9991  135.3012  155.3384 H   0  0  0  0  0  0  0  0  0  0  0  0  # atno 10765 bound_to 10752
  139.8803  134.8822  156.3803 H   0  0  0  0  0  0  0  0  0  0  0  0  # atno 11005 bound_to 11000
  146.1955  140.6272  142.9126 LP  0  0  0  0  0  0  0  0  0  0  0  0  # atno 17320 bound_to 7965
  144.7557  140.5302  143.6770 LP  0  0  0  0  0  0  0  0  0  0  0  0  # atno 17321 bound_to 7965
  139.6459  144.0452  152.2590 LP  0  0  0  0  0  0  0  0  0  0  0  0  # atno 17342 bound_to 10162
  139.9973  144.6319  150.7761 LP  0  0  0  0  0  0  0  0  0  0  0  0  # atno 17343 bound_to 10162
  156.0236  130.3787  150.1888 LP  0  0  0  0  0  0  0  0  0  0  0  0  # atno 17370 bound_to 10713
  157.0078  130.9942  151.3374 LP  0  0  0  0  0  0  0  0  0  0  0  0  # atno 17371 bound_to 10713
  140.9403  133.7519  156.0138 LP  0  0  0  0  0  0  0  0  0  0  0  0  # atno 17394 bound_to 11000
  140.8226  134.3271  157.5376 LP  0  0  0  0  0  0  0  0  0  0  0  0  # atno 17395 bound_to 11000

$$$$
