#       Name:                AV-unprocessed.smi:2274
#       Creating user name   scv26
#       Creation time:       Fri Mar 27 12:38:15 2020


#       File generated by GOLD software.
#

@<TRIPOS>MOLECULE
AV-unprocessed.smi:2274
    52    53     1
SMALL
NO_CHARGES


@<TRIPOS>ATOM
      1 ****        -7.0289  -0.1211   1.3173 C.3            1 S1                 0.0000
      2 ****        -5.7200   0.6293   1.6127 C.3            1 S1                 0.0000
      3 ****        -4.5417  -0.2297   1.6173 N.pl3          1 S1                 0.0000
      4 ****        -4.6234  -1.4663   2.1706 N.2            1 S1                 0.0000
      5 ****        -3.4098  -1.9812   2.0741 C.2            1 S1                 0.0000
      6 ****        -3.1431  -3.3642   2.5945 C.3            1 S1                 0.0000
      7 ****        -2.5255  -1.0688   1.4416 C.2            1 S1                 0.0000
      8 ****        -1.1464  -1.3117   1.2221 N.am           1 S1                 0.0000
      9 ****        -0.4265  -0.9445   0.1509 C.2            1 S1                 0.0000
     10 ****        -0.8769  -0.3548  -0.8314 O.2            1 S1                 0.0000
     11 ****         0.8553  -1.3161   0.2729 N.am           1 S1                 0.0000
     12 ****         1.9000  -1.0584  -0.7113 C.3            1 S1                 0.0000
     13 ****         2.4274   0.3837  -0.6126 C.3            1 S1                 0.0000
     14 ****         3.5649   0.6750  -1.6039 C.3            1 S1                 0.0000
     15 ****         3.9749   2.1609  -1.5879 C.3            1 S1                 0.0000
     16 ****         5.1646   2.4027  -2.5238 C.3            1 S1                 0.0000
     17 ****         6.3001   1.4357  -2.1737 C.3            1 S1                 0.0000
     18 ****         5.7810  -0.0105  -2.1565 C.3            1 S1                 0.0000
     19 ****         4.6916  -0.1235  -1.2457 O.3            1 S1                 0.0000
     20 ****        -3.2509   0.0692   1.2036 C.2            1 S1                 0.0000
     21 ****        -2.8710   1.4103   0.6554 C.3            1 S1                 0.0000
     22 ****        -7.8661   0.5746   1.2605 H              1 S1                 0.0000
     23 ****        -7.2620  -0.8478   2.0961 H              1 S1                 0.0000
     24 ****        -6.9728  -0.6510   0.3660 H              1 S1                 0.0000
     25 ****        -5.5863   1.4061   0.8601 H              1 S1                 0.0000
     26 ****        -5.7816   1.1296   2.5796 H              1 S1                 0.0000
     27 ****        -2.0745  -3.5490   2.7045 H              1 S1                 0.0000
     28 ****        -3.5417  -4.1184   1.9159 H              1 S1                 0.0000
     29 ****        -3.6053  -3.5155   3.5703 H              1 S1                 0.0000
     30 ****        -0.6871  -1.9031   1.8991 H              1 S1                 0.0000
     31 ****         1.1324  -1.8030   1.1127 H              1 S1                 0.0000
     32 ****         2.7091  -1.7665  -0.5312 H              1 S1                 0.0000
     33 ****         1.5269  -1.2626  -1.7161 H              1 S1                 0.0000
     34 ****         1.6069   1.0772  -0.8015 H              1 S1                 0.0000
     35 ****         2.7689   0.5841   0.4038 H              1 S1                 0.0000
     36 ****         3.2354   0.4026  -2.6084 H              1 S1                 0.0000
     37 ****         3.1346   2.7893  -1.8851 H              1 S1                 0.0000
     38 ****         4.2441   2.4581  -0.5735 H              1 S1                 0.0000
     39 ****         4.8563   2.2484  -3.5587 H              1 S1                 0.0000
     40 ****         5.5061   3.4354  -2.4481 H              1 S1                 0.0000
     41 ****         7.1174   1.5373  -2.8882 H              1 S1                 0.0000
     42 ****         6.7068   1.6873  -1.1936 H              1 S1                 0.0000
     43 ****         5.4690  -0.3252  -3.1536 H              1 S1                 0.0000
     44 ****         6.5740  -0.6896  -1.8429 H              1 S1                 0.0000
     45 ****        -1.8062   1.6013   0.7856 H              1 S1                 0.0000
     46 ****        -3.4015   2.2131   1.1671 H              1 S1                 0.0000
     47 ****        -3.1003   1.4727  -0.4085 H              1 S1                 0.0000
     48 ****        -5.4330  -1.8980   2.5684 LP             1 S1                 0.0000
     49 ****        -1.8470  -0.1151  -0.8692 LP             1 S1                 0.0000
     50 ****        -0.2726  -0.1156  -1.5914 LP             1 S1                 0.0000
     51 ****         4.4039  -1.0807  -1.2136 LP             1 S1                 0.0000
     52 ****         5.0057   0.1606  -0.3398 LP             1 S1                 0.0000
@<TRIPOS>BOND
    1    1    2 1     
    2    1   22 1     
    3    1   23 1     
    4    1   24 1     
    5    2    3 1     
    6    2   25 1     
    7    2   26 1     
    8    3   20 1     
    9    3    4 1     
   10    4    5 2     
   11    5    6 1     
   12    5    7 1     
   13    6   27 1     
   14    6   28 1     
   15    6   29 1     
   16    7    8 1     
   17    7   20 2     
   18    8    9 am    
   19    8   30 1     
   20    9   10 2     
   21    9   11 am    
   22   11   12 1     
   23   11   31 1     
   24   12   13 1     
   25   12   32 1     
   26   12   33 1     
   27   13   14 1     
   28   13   34 1     
   29   13   35 1     
   30   14   19 1     
   31   14   15 1     
   32   14   36 1     
   33   15   16 1     
   34   15   37 1     
   35   15   38 1     
   36   16   17 1     
   37   16   39 1     
   38   16   40 1     
   39   17   18 1     
   40   17   41 1     
   41   17   42 1     
   42   18   19 1     
   43   18   43 1     
   44   18   44 1     
   45   20   21 1     
   46   21   45 1     
   47   21   46 1     
   48   21   47 1     
   49    4   48 1     
   50   10   49 1     
   51   10   50 1     
   52   19   51 1     
   53   19   52 1     
@<TRIPOS>SUBSTRUCTURE
      1 S1             1
@<TRIPOS>SET
LONE_PAIRS      STATIC     ATOMS    <user>   **** ""
5 48 49 50 51 52
DONOR_HYDROGENS      STATIC     ATOMS    <user>   **** ""
2 30 31
ATOM$BLUE        STATIC     ATOMS    COLORGROUP SYSTEM
5 48 49 50 51 52
ATOM$RED        STATIC     ATOMS    COLORGROUP SYSTEM
2 30 31
