AV-unprocessed.smi:234|AV-procd|sdf|1794|dock7
  -GOLD-   2262020353D 1   1.00000     0.00000
 Structure written by MMmdl.
 59 62  0  0  0  0  0  0  0  0  1 V2000
  147.2773  135.1044  162.7998 C   0  0  0  0  0  0  0  0  0  0  0  0
  147.0616  136.0397  161.6083 C   0  0  0  0  0  0  0  0  0  0  0  0
  147.5237  135.3957  160.4330 O   0  0  0  0  0  0  0  0  0  0  0  0
  147.0695  136.0171  159.2405 C   0  0  1  0  0  0  0  0  0  0  0  0
  148.0316  137.1014  158.7594 C   0  0  0  0  0  0  0  0  0  0  0  0
  147.6684  136.6395  157.3424 C   0  0  1  0  0  0  0  0  0  0  0  0
  148.7815  136.6758  156.3905 N   0  0  0  0  0  0  0  0  0  0  0  0
  148.6198  135.9254  155.1524 C   0  0  0  0  0  0  0  0  0  0  0  0
  149.3339  137.8887  156.1567 C   0  0  0  0  0  0  0  0  0  0  0  0
  149.1542  138.4207  154.9219 N   0  0  0  0  0  0  0  0  0  0  0  0
  149.6842  139.6100  154.6214 C   0  0  0  0  0  0  0  0  0  0  0  0
  150.4113  140.4195  155.3941 N   0  0  0  0  0  0  0  0  0  0  0  0
  150.5822  139.8938  156.6411 C   0  0  0  0  0  0  0  0  0  0  0  0
  150.0759  138.6477  157.1071 C   0  0  0  0  0  0  0  0  0  0  0  0
  150.4372  138.4596  158.4362 N   0  0  0  0  0  0  0  0  0  0  0  0
  151.1316  139.5236  158.7328 C   0  0  0  0  0  0  0  0  0  0  0  0
  151.2771  140.4325  157.7096 N   0  0  0  0  0  0  0  0  0  0  0  0
  152.0087  141.6882  157.7605 C   0  0  0  0  0  0  0  0  0  0  0  0
  151.6791  142.5339  159.0133 C   0  0  1  0  0  0  0  0  0  0  0  0
  150.2783  142.4823  159.2350 O   0  0  0  0  0  0  0  0  0  0  0  0
  152.3873  142.0721  160.2783 C   0  0  0  0  0  0  0  0  0  0  0  0
  152.3861  143.3311  161.1360 C   0  0  0  0  0  0  0  0  0  0  0  0
  152.5581  144.4003  160.2143 O   0  0  0  0  0  0  0  0  0  0  0  0
  152.1610  143.9968  158.9040 C   0  0  2  0  0  0  0  0  0  0  0  0
  151.1713  145.0037  158.2961 C   0  0  0  0  0  0  0  0  0  0  0  0
  147.3531  135.2350  157.9297 C   0  0  0  0  0  0  0  0  0  0  0  0
  148.5103  134.2219  157.9970 C   0  0  0  0  0  0  0  0  0  0  0  0
  146.1498  134.5134  157.3205 C   0  0  0  0  0  0  0  0  0  0  0  0
  146.9371  135.5683  163.7257 H   0  0  0  0  0  0  0  0  0  0  0  0
  148.3326  134.8565  162.9167 H   0  0  0  0  0  0  0  0  0  0  0  0
  146.7260  134.1730  162.6691 H   0  0  0  0  0  0  0  0  0  0  0  0
  146.0033  136.2851  161.5196 H   0  0  0  0  0  0  0  0  0  0  0  0
  147.6052  136.9729  161.7628 H   0  0  0  0  0  0  0  0  0  0  0  0
  146.0475  136.3978  159.3101 H   0  0  0  0  0  0  0  0  0  0  0  0
  147.7267  138.1202  159.0001 H   0  0  0  0  0  0  0  0  0  0  0  0
  149.0704  136.9132  159.0366 H   0  0  0  0  0  0  0  0  0  0  0  0
  146.7638  137.1296  156.9774 H   0  0  0  0  0  0  0  0  0  0  0  0
  149.5561  135.8812  154.5943 H   0  0  0  0  0  0  0  0  0  0  0  0
  147.8635  136.3907  154.5189 H   0  0  0  0  0  0  0  0  0  0  0  0
  148.3094  134.9013  155.3536 H   0  0  0  0  0  0  0  0  0  0  0  0
  149.5025  139.9620  153.6166 H   0  0  0  0  0  0  0  0  0  0  0  0
  151.5670  139.6727  159.7103 H   0  0  0  0  0  0  0  0  0  0  0  0
  153.0751  141.4612  157.7260 H   0  0  0  0  0  0  0  0  0  0  0  0
  151.7874  142.2531  156.8538 H   0  0  0  0  0  0  0  0  0  0  0  0
  149.9447  143.3665  159.2377 H   0  0  0  0  0  0  0  0  0  0  0  0
  151.9116  141.2192  160.7646 H   0  0  0  0  0  0  0  0  0  0  0  0
  153.4182  141.7969  160.0524 H   0  0  0  0  0  0  0  0  0  0  0  0
  151.4267  143.4497  161.6410 H   0  0  0  0  0  0  0  0  0  0  0  0
  153.1698  143.3248  161.8936 H   0  0  0  0  0  0  0  0  0  0  0  0
  153.0744  144.0167  158.3076 H   0  0  0  0  0  0  0  0  0  0  0  0
  150.8556  144.6912  157.3004 H   0  0  0  0  0  0  0  0  0  0  0  0
  151.6312  145.9878  158.2044 H   0  0  0  0  0  0  0  0  0  0  0  0
  150.2799  145.1167  158.9137 H   0  0  0  0  0  0  0  0  0  0  0  0
  148.7522  133.8175  157.0142 H   0  0  0  0  0  0  0  0  0  0  0  0
  148.2632  133.3759  158.6385 H   0  0  0  0  0  0  0  0  0  0  0  0
  149.4230  134.6657  158.3944 H   0  0  0  0  0  0  0  0  0  0  0  0
  146.3606  134.1575  156.3123 H   0  0  0  0  0  0  0  0  0  0  0  0
  145.2823  135.1706  157.2541 H   0  0  0  0  0  0  0  0  0  0  0  0
  145.8541  133.6492  157.9151 H   0  0  0  0  0  0  0  0  0  0  0  0
  1  2  1  0  0  0  0
  1 29  1  0  0  0  0
  1 30  1  0  0  0  0
  1 31  1  0  0  0  0
  2  3  1  0  0  0  0
  2 32  1  0  0  0  0
  2 33  1  0  0  0  0
  3  4  1  0  0  0  0
  4 26  1  0  0  0  0
  4  5  1  0  0  0  0
  4 34  1  0  0  0  0
  5  6  1  0  0  0  0
  5 35  1  0  0  0  0
  5 36  1  0  0  0  0
  6  7  1  0  0  0  0
  6 26  1  0  0  0  0
  6 37  1  0  0  0  0
  7  8  1  0  0  0  0
  7  9  1  0  0  0  0
  8 38  1  0  0  0  0
  8 39  1  0  0  0  0
  8 40  1  0  0  0  0
  9 14  1  0  0  0  0
  9 10  2  0  0  0  0
 10 11  1  0  0  0  0
 11 12  2  0  0  0  0
 11 41  1  0  0  0  0
 12 13  1  0  0  0  0
 13 17  1  0  0  0  0
 13 14  2  0  0  0  0
 14 15  1  0  0  0  0
 15 16  2  0  0  0  0
 16 17  1  0  0  0  0
 16 42  1  0  0  0  0
 17 18  1  0  0  0  0
 18 19  1  0  0  0  0
 18 43  1  0  0  0  0
 18 44  1  0  0  0  0
 19 24  1  0  0  0  0
 19 20  1  0  0  0  0
 19 21  1  0  0  0  0
 20 45  1  0  0  0  0
 21 22  1  0  0  0  0
 21 46  1  0  0  0  0
 21 47  1  0  0  0  0
 22 23  1  0  0  0  0
 22 48  1  0  0  0  0
 22 49  1  0  0  0  0
 23 24  1  0  0  0  0
 24 25  1  0  0  0  0
 24 50  1  0  0  0  0
 25 51  1  0  0  0  0
 25 52  1  0  0  0  0
 25 53  1  0  0  0  0
 26 27  1  0  0  0  0
 26 28  1  0  0  0  0
 27 54  1  0  0  0  0
 27 55  1  0  0  0  0
 27 56  1  0  0  0  0
 28 57  1  0  0  0  0
 28 58  1  0  0  0  0
 28 59  1  0  0  0  0
M  END
> <s_m_source_file>
AV-unprocessed.smi

> <i_m_source_file_index>
234

> <i_lp_mmshare_version>
43012

> <i_f3d_flags>
0

> <s_epik_input>
W0NIM11bQ0gyXU9bQ0BASF0oQzEoW0NIM10pW0NIM10pW0NIMl1bQ0BIXTFOKFtDSDNdKWMobltjSF1uMiljKGMyMyluW2NIXW4zW0NIMl1bQ0BAXTQoW09IXSlbQ0gyXVtDSDJdT1tDQEhdNFtDSDNd

> <s_epik_cmdline>
J2VwaWtfcHl0aG9uJywgJy1waCcsICc3LjAnLCAnLXRuJywgJzgnLCAnLW1hJywgJzIwMCcsICctbWV0YWxfYmluZGluZycsICctaW1hZScsICc8aW5maWxlLm1hZT4nLCAnLW9tYWUnLCAnPG91dGZpbGUubWFlPic=

> <r_lp_tautomer_probability>
1

> <r_epik_Ionization_Penalty>
0.00349132

> <r_epik_Ionization_Penalty_Charging>
0

> <r_epik_Ionization_Penalty_Neutral>
0.00349132

> <r_epik_State_Penalty>
0.00242418

> <r_epik_Charging_Adjusted_Penalty>
0.00242418

> <i_epik_Tot_Q>
0

> <i_epik_Tot_abs_Q>
0

> <r_epik_Metal_State_Penalty>
-0

> <b_epik_Metal_Only>
0

> <s_lp_Force_Field>
OPLS_2005

> <r_lp_Energy>
47.8711

> <b_lp_Chiralities_Consistent>
1

> <s_lp_Variant>
AV-unprocessed.smi:234-10

> <Gold.Version>
5.8.1

> <Gold.Id.Protein>
6NUR|6NUR_protein|mol2

> <Gold.PLP.Fitness>
38.3711

> <Gold.PLP.PLP>
-36.5547

> <Gold.PLP.part.hbond>
-1.3867

> <Gold.PLP.part.metal>
0.0000

> <Gold.PLP.part.buried>
-5.8210

> <Gold.PLP.part.nonpolar>
-29.4501

> <Gold.PLP.part.repulsive>
0.2490

> <Gold.PLP.ligand.clash>
0.0000

> <Gold.PLP.ligand.torsion>
1.1760

> <Gold.PLP.Chemscore.Hbond>
0.1194

> <Gold.PLP.Chemscore.CHOScore>
1.0000

> <Gold.PLP.Chemscore.Metal>
0.0000

> <Gold.Chemscore.Hbonds>
donor molecule, donor type, donor heavy atom, donor atom, acceptor molecule, acceptor atom, score
      P1  H  7989  7998       L1    12  0.10
      L1  C    11    41       P1  7957  1.00

> <Gold.PLP.Chemscore.Internal.Correction>
0.8100

> <Gold.Rescore>
     Score         DG    S(hbond)    S(metal)    S(lipo)     H(rot)  DE(clash)    DE(int)     intcor
      7.54     -10.01       0.00        0.00      96.11       2.62       0.08       2.40       ----

> <Gold.Chemscore.Fitness>
7.5382

> <Gold.Chemscore.DG>
-10.0130

> <Gold.Chemscore.ZeroCoef>
-5.4800

> <Gold.Chemscore.Hbond>
0.0002

> <Gold.Chemscore.Metal>
0.0000

> <Gold.Chemscore.Lipo>
96.1072

> <Gold.Chemscore.Internal_Hbond>
0.0000

> <Gold.Chemscore.DEClash>
0.0768

> <Gold.Chemscore.DEInternal>
2.3981

> <Gold.Chemscore.Rot>
2.6219

> <Gold.Chemscore.Internal.Correction>
   9.000000E+99

> <Gold.Chemscore.Hbond.Weighted>
-0.0006

> <Gold.Chemscore.Metal.Weighted>
-0.0000

> <Gold.Chemscore.Lipo.Weighted>
-11.2445

> <Gold.Chemscore.Internal_Hbond.Weighted>
0.0000

> <Gold.Chemscore.DEClash.Weighted>
0.0768

> <Gold.Chemscore.DEInternal.Weighted>
2.3981

> <Gold.Chemscore.Rot.Weighted>
6.7121

> <Gold.Chemscore.Internal.Correction.Weighted>
   9.000000E+99

> <Gold.Protein.RotatedTorsions>
[ 6907 6896 6895 6894 ] final  -73.09 input  -60.11 | X-H torsion
[ 7974 7965 7964 7962 ] final  -74.26 input  175.53 | X-H torsion
[ 8008 7997 7996 7995 ] final  154.61 input   59.86 | X-H torsion
[ 10167 10162 10161 10158 ] final   81.86 input  -65.29 | X-H torsion
[ 10718 10713 10712 10709 ] final -126.14 input   66.30 | X-H torsion
[ 10763 10752 10751 10750 ] final    6.83 input  -60.55 | X-H torsion
[ 11005 11000 10999 10996 ] final -116.34 input  -57.11 | X-H torsion

> <Gold.Protein.ActiveResidues>
 VAL166  LYS551  ARG553  GLY616  TRP617  ASP618  TYR619  PRO620  LYS621  CYS622 
 ASP623  PHE694  ASN695  SER759  ASP760  ASP761  ALA762  ILE779  LEU786  VAL792 
 PHE793  MET794  SER795  GLU796  ALA797  LYS798  CYS799  TRP800  GLU811  SER814 

> <Gold.Protein.RotatedAtoms>
  150.7144  134.5068  159.5587 H   0  0  0  0  0  0  0  0  0  0  0  0  # atno 6907 bound_to 6896
  152.2653  134.7987  160.0432 H   0  0  0  0  0  0  0  0  0  0  0  0  # atno 6908 bound_to 6896
  151.8687  133.3436  159.3764 H   0  0  0  0  0  0  0  0  0  0  0  0  # atno 6909 bound_to 6896
  145.6414  140.9310  143.1034 H   0  0  0  0  0  0  0  0  0  0  0  0  # atno 7974 bound_to 7965
  156.2522  140.1962  156.6673 H   0  0  0  0  0  0  0  0  0  0  0  0  # atno 8008 bound_to 7997
  154.6419  140.0582  156.9881 H   0  0  0  0  0  0  0  0  0  0  0  0  # atno 8009 bound_to 7997
  155.1549  140.3254  155.4426 H   0  0  0  0  0  0  0  0  0  0  0  0  # atno 8010 bound_to 7997
  139.9348  144.6128  150.8309 H   0  0  0  0  0  0  0  0  0  0  0  0  # atno 10167 bound_to 10162
  156.1738  130.6685  151.0215 H   0  0  0  0  0  0  0  0  0  0  0  0  # atno 10718 bound_to 10713
  153.2432  135.6905  153.7760 H   0  0  0  0  0  0  0  0  0  0  0  0  # atno 10763 bound_to 10752
  153.6882  135.3317  155.3196 H   0  0  0  0  0  0  0  0  0  0  0  0  # atno 10764 bound_to 10752
  154.8364  135.4539  154.1361 H   0  0  0  0  0  0  0  0  0  0  0  0  # atno 10765 bound_to 10752
  141.0428  133.9809  157.2966 H   0  0  0  0  0  0  0  0  0  0  0  0  # atno 11005 bound_to 11000
  144.7156  139.8209  143.7400 LP  0  0  0  0  0  0  0  0  0  0  0  0  # atno 17320 bound_to 7965
  146.1278  139.4307  143.0188 LP  0  0  0  0  0  0  0  0  0  0  0  0  # atno 17321 bound_to 7965
  140.7627  143.3206  151.2632 LP  0  0  0  0  0  0  0  0  0  0  0  0  # atno 17342 bound_to 10162
  139.6753  143.9949  152.2777 LP  0  0  0  0  0  0  0  0  0  0  0  0  # atno 17343 bound_to 10162
  157.6821  131.0835  150.7341 LP  0  0  0  0  0  0  0  0  0  0  0  0  # atno 17370 bound_to 10713
  156.7399  130.4736  149.5480 LP  0  0  0  0  0  0  0  0  0  0  0  0  # atno 17371 bound_to 10713
  139.9289  135.0201  156.8331 LP  0  0  0  0  0  0  0  0  0  0  0  0  # atno 17394 bound_to 11000
  140.6202  134.0001  155.7615 LP  0  0  0  0  0  0  0  0  0  0  0  0  # atno 17395 bound_to 11000

$$$$
