AV-unprocessed.smi:2983|AV-procd|sdf|11377|dock6
  -GOLD-   2272016293D 1   1.00000     0.00000
 Structure written by MMmdl.
 39 40  0  0  0  0  0  0  0  0  1 V2000
  152.6371  143.4144  161.7091 C   0  0  0  0  0  0  0  0  0  0  0  0
  153.4970  142.2922  161.1177 C   0  0  0  0  0  0  0  0  0  0  0  0
  152.7222  141.4212  160.1200 C   0  0  0  0  0  0  0  0  0  0  0  0
  152.5704  142.0969  158.7471 C   0  0  0  0  0  0  0  0  0  0  0  0
  151.7873  141.3035  157.8212 N   0  0  0  0  0  0  0  0  0  0  0  0
  150.6494  141.7802  157.1638 C   0  0  0  0  0  0  0  0  0  0  0  0
  150.2498  143.0840  157.4094 N   0  0  0  0  0  0  0  0  0  0  0  0
  149.9406  141.0031  156.2945 C   0  0  0  0  0  0  0  0  0  0  0  0
  148.8109  141.4398  155.6117 N   0  0  0  0  0  0  0  0  0  0  0  0
  147.6333  141.9875  156.2726 C   0  0  0  0  0  0  0  0  0  0  0  0
  146.3903  141.1334  155.9607 C   0  0  0  0  0  0  0  0  0  0  0  0
  146.2355  141.0042  154.5503 O   0  0  0  0  0  0  0  0  0  0  0  0
  147.3603  140.3775  153.9402 C   0  0  0  0  0  0  0  0  0  0  0  0
  148.6167  141.2313  154.1836 C   0  0  0  0  0  0  0  0  0  0  0  0
  150.3594  139.6252  156.0176 C   0  0  0  0  0  0  0  0  0  0  0  0
  149.7864  138.8386  155.2643 O   0  0  0  0  0  0  0  0  0  0  0  0
  151.5151  139.2179  156.6799 N   0  0  0  0  0  0  0  0  0  0  0  0
  152.2597  139.9950  157.5604 C   0  0  0  0  0  0  0  0  0  0  0  0
  153.2797  139.5256  158.0661 O   0  0  0  0  0  0  0  0  0  0  0  0
  151.8444  138.2808  156.4995 H   0  0  0  0  0  0  0  0  0  0  0  0
  153.2129  144.0173  162.4117 H   0  0  0  0  0  0  0  0  0  0  0  0
  151.7775  143.0102  162.2441 H   0  0  0  0  0  0  0  0  0  0  0  0
  152.2654  144.0780  160.9280 H   0  0  0  0  0  0  0  0  0  0  0  0
  154.3668  142.7275  160.6239 H   0  0  0  0  0  0  0  0  0  0  0  0
  153.8802  141.6694  161.9269 H   0  0  0  0  0  0  0  0  0  0  0  0
  153.2335  140.4653  159.9995 H   0  0  0  0  0  0  0  0  0  0  0  0
  151.7367  141.1936  160.5284 H   0  0  0  0  0  0  0  0  0  0  0  0
  152.1127  143.0850  158.8222 H   0  0  0  0  0  0  0  0  0  0  0  0
  153.5378  142.2709  158.2768 H   0  0  0  0  0  0  0  0  0  0  0  0
  150.7592  143.6822  158.0438 H   0  0  0  0  0  0  0  0  0  0  0  0
  149.4551  143.4961  156.9422 H   0  0  0  0  0  0  0  0  0  0  0  0
  147.7944  142.0378  157.3502 H   0  0  0  0  0  0  0  0  0  0  0  0
  147.4833  143.0118  155.9286 H   0  0  0  0  0  0  0  0  0  0  0  0
  146.4651  140.1464  156.4182 H   0  0  0  0  0  0  0  0  0  0  0  0
  145.4983  141.6048  156.3734 H   0  0  0  0  0  0  0  0  0  0  0  0
  147.4898  139.3700  154.3384 H   0  0  0  0  0  0  0  0  0  0  0  0
  147.1743  140.2767  152.8710 H   0  0  0  0  0  0  0  0  0  0  0  0
  148.5194  142.2000  153.6920 H   0  0  0  0  0  0  0  0  0  0  0  0
  149.4912  140.7439  153.7505 H   0  0  0  0  0  0  0  0  0  0  0  0
  1  2  1  0  0  0  0
  1 21  1  0  0  0  0
  1 22  1  0  0  0  0
  1 23  1  0  0  0  0
  2  3  1  0  0  0  0
  2 24  1  0  0  0  0
  2 25  1  0  0  0  0
  3  4  1  0  0  0  0
  3 26  1  0  0  0  0
  3 27  1  0  0  0  0
  4  5  1  0  0  0  0
  4 28  1  0  0  0  0
  4 29  1  0  0  0  0
  5 18  1  0  0  0  0
  5  6  1  0  0  0  0
  6  7  1  0  0  0  0
  6  8  2  0  0  0  0
  7 30  1  0  0  0  0
  7 31  1  0  0  0  0
  8  9  1  0  0  0  0
  8 15  1  0  0  0  0
  9 14  1  0  0  0  0
  9 10  1  0  0  0  0
 10 11  1  0  0  0  0
 10 32  1  0  0  0  0
 10 33  1  0  0  0  0
 11 12  1  0  0  0  0
 11 34  1  0  0  0  0
 11 35  1  0  0  0  0
 12 13  1  0  0  0  0
 13 14  1  0  0  0  0
 13 36  1  0  0  0  0
 13 37  1  0  0  0  0
 14 38  1  0  0  0  0
 14 39  1  0  0  0  0
 15 16  2  0  0  0  0
 15 17  1  0  0  0  0
 17 20  1  0  0  0  0
 17 18  1  0  0  0  0
 18 19  2  0  0  0  0
M  END
> <s_m_source_file>
AV-unprocessed.smi

> <i_m_source_file_index>
2983

> <i_lp_mmshare_version>
43012

> <i_f3d_flags>
0

> <s_epik_input>
W0NIM11bQ0gyXVtDSDJdW0NIMl1uMWMoW05IMl0pYyhjKD1PKVtuSF1jMT1PKU4yW0NIMl1bQ0gyXU9bQ0gyXVtDSDJdMg==

> <s_epik_cmdline>
J2VwaWtfcHl0aG9uJywgJy1waCcsICc3LjAnLCAnLXRuJywgJzgnLCAnLW1hJywgJzIwMCcsICctbWV0YWxfYmluZGluZycsICctaW1hZScsICc8aW5maWxlLm1hZT4nLCAnLW9tYWUnLCAnPG91dGZpbGUubWFlPic=

> <r_lp_tautomer_probability>
1

> <r_epik_Ionization_Penalty>
1.02563e-05

> <r_epik_Ionization_Penalty_Charging>
2.70122e-06

> <r_epik_Ionization_Penalty_Neutral>
7.55508e-06

> <r_epik_State_Penalty>
-0

> <r_epik_Charging_Adjusted_Penalty>
2.70122e-06

> <i_epik_Tot_Q>
0

> <i_epik_Tot_abs_Q>
0

> <r_epik_Metal_State_Penalty>
-0

> <b_epik_Metal_Only>
0

> <s_epik_Chemistry_Notes>
This compound has an imine and may undergo hydrolysis.

> <s_lp_Force_Field>
OPLS_2005

> <r_lp_Energy>
27.0785

> <b_lp_Chiralities_Consistent>
1

> <s_lp_Variant>
AV-unprocessed.smi:2983-1

> <Gold.Version>
5.8.1

> <Gold.Id.Protein>
6NUR|6NUR_protein|mol2

> <Gold.PLP.Fitness>
37.5842

> <Gold.PLP.PLP>
-32.3306

> <Gold.PLP.part.hbond>
-2.0000

> <Gold.PLP.part.metal>
0.0000

> <Gold.PLP.part.buried>
-2.3924

> <Gold.PLP.part.nonpolar>
-27.3658

> <Gold.PLP.part.repulsive>
0.3221

> <Gold.PLP.ligand.clash>
0.0000

> <Gold.PLP.ligand.torsion>
1.0025

> <Gold.PLP.Chemscore.Hbond>
1.8800

> <Gold.PLP.Chemscore.CHOScore>
0.0000

> <Gold.PLP.Chemscore.Metal>
0.0000

> <Gold.Chemscore.Hbonds>
donor molecule, donor type, donor heavy atom, donor atom, acceptor molecule, acceptor atom, score
      L1  H     7    31       P1  8028  0.91
      P1  H  7997  8010       L1    19  1.00

> <Gold.PLP.Chemscore.Internal.Correction>
1.6187

> <Gold.Rescore>
     Score         DG    S(hbond)    S(metal)    S(lipo)     H(rot)  DE(clash)    DE(int)     intcor
     11.13     -14.27       1.41        0.00      66.55       1.45       0.08       3.07       ----

> <Gold.Chemscore.Fitness>
11.1259

> <Gold.Chemscore.DG>
-14.2702

> <Gold.Chemscore.ZeroCoef>
-5.4800

> <Gold.Chemscore.Hbond>
1.4130

> <Gold.Chemscore.Metal>
0.0000

> <Gold.Chemscore.Lipo>
66.5529

> <Gold.Chemscore.Internal_Hbond>
0.0000

> <Gold.Chemscore.DEClash>
0.0771

> <Gold.Chemscore.DEInternal>
3.0672

> <Gold.Chemscore.Rot>
1.4515

> <Gold.Chemscore.Internal.Correction>
   9.000000E+99

> <Gold.Chemscore.Hbonds>
donor molecule, donor type, donor heavy atom, donor atom, acceptor molecule, acceptor atom, score
      L1  H     7    31       P1  8028  0.84
      P1  H  7997  8010       L1    19  0.26

> <Gold.Chemscore.Hbond.Weighted>
-4.7194

> <Gold.Chemscore.Metal.Weighted>
-0.0000

> <Gold.Chemscore.Lipo.Weighted>
-7.7867

> <Gold.Chemscore.Internal_Hbond.Weighted>
0.0000

> <Gold.Chemscore.DEClash.Weighted>
0.0771

> <Gold.Chemscore.DEInternal.Weighted>
3.0672

> <Gold.Chemscore.Rot.Weighted>
3.7159

> <Gold.Chemscore.Internal.Correction.Weighted>
   9.000000E+99

> <Gold.Protein.RotatedTorsions>
[ 6907 6896 6895 6894 ] final  -78.11 input  -60.11 | X-H torsion
[ 7974 7965 7964 7962 ] final  -73.69 input  175.53 | X-H torsion
[ 8008 7997 7996 7995 ] final   46.47 input   59.86 | X-H torsion
[ 10167 10162 10161 10158 ] final -170.58 input  -65.29 | X-H torsion
[ 10718 10713 10712 10709 ] final  -92.07 input   66.30 | X-H torsion
[ 10763 10752 10751 10750 ] final  102.31 input  -60.55 | X-H torsion
[ 11005 11000 10999 10996 ] final  128.15 input  -57.11 | X-H torsion

> <Gold.Protein.ActiveResidues>
 VAL166  LYS551  ARG553  GLY616  TRP617  ASP618  TYR619  PRO620  LYS621  CYS622 
 ASP623  PHE694  ASN695  SER759  ASP760  ASP761  ALA762  ILE779  LEU786  VAL792 
 PHE793  MET794  SER795  GLU796  ALA797  LYS798  CYS799  TRP800  GLU811  SER814 

> <Gold.Protein.RotatedAtoms>
  150.6981  134.4322  159.5253 H   0  0  0  0  0  0  0  0  0  0  0  0  # atno 6907 bound_to 6896
  152.2046  134.8554  160.0513 H   0  0  0  0  0  0  0  0  0  0  0  0  # atno 6908 bound_to 6896
  151.9461  133.3617  159.4020 H   0  0  0  0  0  0  0  0  0  0  0  0  # atno 6909 bound_to 6896
  145.6489  140.9289  143.0996 H   0  0  0  0  0  0  0  0  0  0  0  0  # atno 7974 bound_to 7965
  155.3530  140.3414  155.4239 H   0  0  0  0  0  0  0  0  0  0  0  0  # atno 8008 bound_to 7997
  156.1754  140.1646  156.8407 H   0  0  0  0  0  0  0  0  0  0  0  0  # atno 8009 bound_to 7997
  154.5276  140.0752  156.8270 H   0  0  0  0  0  0  0  0  0  0  0  0  # atno 8010 bound_to 7997
  139.5853  144.1332  152.1567 H   0  0  0  0  0  0  0  0  0  0  0  0  # atno 10167 bound_to 10162
  155.9999  130.4973  150.5570 H   0  0  0  0  0  0  0  0  0  0  0  0  # atno 10718 bound_to 10713
  153.3380  135.4015  155.1549 H   0  0  0  0  0  0  0  0  0  0  0  0  # atno 10763 bound_to 10752
  154.8637  135.3626  154.5384 H   0  0  0  0  0  0  0  0  0  0  0  0  # atno 10764 bound_to 10752
  153.5826  135.7076  153.5516 H   0  0  0  0  0  0  0  0  0  0  0  0  # atno 10765 bound_to 10752
  139.9545  134.9615  156.8960 H   0  0  0  0  0  0  0  0  0  0  0  0  # atno 11005 bound_to 11000
  144.7130  139.8300  143.7408 LP  0  0  0  0  0  0  0  0  0  0  0  0  # atno 17320 bound_to 7965
  146.1220  139.4240  143.0222 LP  0  0  0  0  0  0  0  0  0  0  0  0  # atno 17321 bound_to 7965
  140.0894  144.5633  150.7065 LP  0  0  0  0  0  0  0  0  0  0  0  0  # atno 17342 bound_to 10162
  140.7126  143.2517  151.4535 LP  0  0  0  0  0  0  0  0  0  0  0  0  # atno 17343 bound_to 10162
  157.3485  131.0729  151.1732 LP  0  0  0  0  0  0  0  0  0  0  0  0  # atno 17370 bound_to 10713
  157.2556  130.6634  149.5951 LP  0  0  0  0  0  0  0  0  0  0  0  0  # atno 17371 bound_to 10713
  140.5641  134.0507  155.7408 LP  0  0  0  0  0  0  0  0  0  0  0  0  # atno 17394 bound_to 11000
  141.1214  133.9455  157.2721 LP  0  0  0  0  0  0  0  0  0  0  0  0  # atno 17395 bound_to 11000

$$$$
