AV-unprocessed.smi:3335|AV-procd|sdf|12839|dock2
  -GOLD-   2272019223D 1   1.00000     0.00000
 Structure written by MMmdl.
 47 48  0  0  0  0  0  0  0  0  2 V2000
  151.2858  138.4012  154.5769 C   0  0  0  0  0  0  0  0  0  0  0  0
  149.9260  139.0136  154.4039 C   0  0  0  0  0  0  0  0  0  0  0  0
  149.5653  140.3865  154.5106 C   0  0  0  0  0  0  0  0  0  0  0  0
  148.2751  140.5948  154.3072 N   0  0  0  0  0  0  0  0  0  0  0  0
  147.7665  139.3677  154.0546 N   0  0  0  0  0  0  0  0  0  0  0  0
  146.3404  139.2005  153.8019 C   0  0  2  0  0  0  0  0  0  0  0  0
  145.6721  138.5391  155.0239 C   0  0  0  0  0  0  0  0  0  0  0  0
  146.0776  138.4435  152.4680 C   0  0  1  0  0  0  0  0  0  0  0  0
  146.8594  139.0428  151.2867 C   0  0  0  0  0  0  0  0  0  0  0  0
  146.4509  137.0097  152.5810 N   0  3  0  0  0  0  0  0  0  0  0  0
  145.6833  136.0537  151.7463 C   0  0  2  0  0  0  0  0  0  0  0  0
  144.1794  136.2721  151.9696 C   0  0  0  0  0  0  0  0  0  0  0  0
  146.0582  134.5928  152.0643 C   0  0  0  0  0  0  0  0  0  0  0  0
  146.8097  134.3672  153.0143 O   0  0  0  0  0  0  0  0  0  0  0  0
  145.5495  133.5997  151.3034 N   0  0  0  0  0  0  0  0  0  0  0  0
  145.8031  132.1674  151.4636 C   0  0  0  0  0  0  0  0  0  0  0  0
  145.1968  131.4968  150.2312 C   0  0  0  0  0  0  0  0  0  0  0  0
  144.1064  132.4595  149.7837 C   0  0  0  0  0  0  0  0  0  0  0  0
  144.6371  133.8355  150.1855 C   0  0  0  0  0  0  0  0  0  0  0  0
  148.7444  138.3959  154.1064 C   0  0  0  0  0  0  0  0  0  0  0  0
  152.0043  139.1158  154.9794 H   0  0  0  0  0  0  0  0  0  0  0  0
  151.6869  138.0411  153.6295 H   0  0  0  0  0  0  0  0  0  0  0  0
  151.2611  137.5521  155.2601 H   0  0  0  0  0  0  0  0  0  0  0  0
  150.1987  141.2325  154.7340 H   0  0  0  0  0  0  0  0  0  0  0  0
  145.9166  140.2019  153.7106 H   0  0  0  0  0  0  0  0  0  0  0  0
  144.5851  138.5865  154.9639 H   0  0  0  0  0  0  0  0  0  0  0  0
  145.9587  139.0445  155.9469 H   0  0  0  0  0  0  0  0  0  0  0  0
  145.9564  137.4904  155.1188 H   0  0  0  0  0  0  0  0  0  0  0  0
  145.0188  138.5232  152.2173 H   0  0  0  0  0  0  0  0  0  0  0  0
  146.5307  140.0561  151.0567 H   0  0  0  0  0  0  0  0  0  0  0  0
  146.7107  138.4526  150.3816 H   0  0  0  0  0  0  0  0  0  0  0  0
  147.9301  139.0736  151.4908 H   0  0  0  0  0  0  0  0  0  0  0  0
  147.4201  136.9189  152.3106 H   0  0  0  0  0  0  0  0  0  0  0  0
  145.8945  136.2776  150.7050 H   0  0  0  0  0  0  0  0  0  0  0  0
  143.5825  135.5981  151.3542 H   0  0  0  0  0  0  0  0  0  0  0  0
  143.8915  137.2908  151.7077 H   0  0  0  0  0  0  0  0  0  0  0  0
  143.8995  136.1060  153.0109 H   0  0  0  0  0  0  0  0  0  0  0  0
  146.8663  131.9388  151.5482 H   0  0  0  0  0  0  0  0  0  0  0  0
  145.3043  131.8163  152.3681 H   0  0  0  0  0  0  0  0  0  0  0  0
  145.9533  131.4140  149.4497 H   0  0  0  0  0  0  0  0  0  0  0  0
  144.8187  130.4951  150.4374 H   0  0  0  0  0  0  0  0  0  0  0  0
  143.8864  132.3851  148.7183 H   0  0  0  0  0  0  0  0  0  0  0  0
  143.1866  132.2480  150.3306 H   0  0  0  0  0  0  0  0  0  0  0  0
  143.8225  134.5105  150.4533 H   0  0  0  0  0  0  0  0  0  0  0  0
  145.1938  134.2864  149.3626 H   0  0  0  0  0  0  0  0  0  0  0  0
  148.5212  137.3530  153.9349 H   0  0  0  0  0  0  0  0  0  0  0  0
  146.3656  136.7406  153.5503 H   0  0  0  0  0  0  0  0  0  0  0  0
  1  2  1  0  0  0  0
  1 21  1  0  0  0  0
  1 22  1  0  0  0  0
  1 23  1  0  0  0  0
  2 20  2  0  0  0  0
  2  3  1  0  0  0  0
  3  4  2  0  0  0  0
  3 24  1  0  0  0  0
  4  5  1  0  0  0  0
  5  6  1  0  0  0  0
  5 20  1  0  0  0  0
  6  7  1  0  0  0  0
  6  8  1  0  0  0  0
  6 25  1  0  0  0  0
  7 26  1  0  0  0  0
  7 27  1  0  0  0  0
  7 28  1  0  0  0  0
  8  9  1  0  0  0  0
  8 10  1  0  0  0  0
  8 29  1  0  0  0  0
  9 30  1  0  0  0  0
  9 31  1  0  0  0  0
  9 32  1  0  0  0  0
 10 11  1  0  0  0  0
 10 33  1  0  0  0  0
 10 47  1  0  0  0  0
 11 12  1  0  0  0  0
 11 13  1  0  0  0  0
 11 34  1  0  0  0  0
 12 35  1  0  0  0  0
 12 36  1  0  0  0  0
 12 37  1  0  0  0  0
 13 14  2  0  0  0  0
 13 15  1  0  0  0  0
 15 19  1  0  0  0  0
 15 16  1  0  0  0  0
 16 17  1  0  0  0  0
 16 38  1  0  0  0  0
 16 39  1  0  0  0  0
 17 18  1  0  0  0  0
 17 40  1  0  0  0  0
 17 41  1  0  0  0  0
 18 19  1  0  0  0  0
 18 42  1  0  0  0  0
 18 43  1  0  0  0  0
 19 44  1  0  0  0  0
 19 45  1  0  0  0  0
 20 46  1  0  0  0  0
M  CHG  1  10   1
M  END
> <s_m_source_file>
AV-unprocessed.smi

> <i_m_source_file_index>
3335

> <i_lp_mmshare_version>
43012

> <i_f3d_flags>
0

> <s_epik_input>
W0NIM11jMVtjSF1ubihbY0hdMSlbQ0BIXShbQ0gzXSlbQ0BIXShbQ0gzXSlbTkhdW0NASF0oW0NIM10pQyg9TylOMltDSDJdW0NIMl1bQ0gyXVtDSDJdMg==

> <s_epik_cmdline>
J2VwaWtfcHl0aG9uJywgJy1waCcsICc3LjAnLCAnLXRuJywgJzgnLCAnLW1hJywgJzIwMCcsICctbWV0YWxfYmluZGluZycsICctaW1hZScsICc8aW5maWxlLm1hZT4nLCAnLW9tYWUnLCAnPG91dGZpbGUubWFlPic=

> <r_lp_tautomer_probability>
1

> <r_epik_Ionization_Penalty>
0.14175

> <r_epik_Ionization_Penalty_Charging>
0.141731

> <r_epik_Ionization_Penalty_Neutral>
1.91261e-05

> <r_epik_State_Penalty>
0.131043

> <r_epik_Charging_Adjusted_Penalty>
0.272773

> <i_epik_Tot_Q>
1

> <i_epik_Tot_abs_Q>
1

> <r_epik_Metal_State_Penalty>
0.131408

> <b_epik_Metal_Only>
0

> <s_lp_Force_Field>
OPLS_2005

> <r_lp_Energy>
35.8146

> <b_lp_Chiralities_Consistent>
1

> <s_lp_Variant>
AV-unprocessed.smi:3335-3

> <Gold.Version>
5.8.1

> <Gold.Id.Protein>
6NUR|6NUR_protein|mol2

> <Gold.PLP.Fitness>
42.8723

> <Gold.PLP.PLP>
-35.6717

> <Gold.PLP.part.hbond>
-1.0000

> <Gold.PLP.part.metal>
0.0000

> <Gold.PLP.part.buried>
-0.0521

> <Gold.PLP.part.nonpolar>
-34.9776

> <Gold.PLP.part.repulsive>
0.2433

> <Gold.PLP.ligand.clash>
0.0000

> <Gold.PLP.ligand.torsion>
0.6788

> <Gold.PLP.Chemscore.Hbond>
2.0000

> <Gold.PLP.Chemscore.CHOScore>
0.8174

> <Gold.PLP.Chemscore.Metal>
0.0000

> <Gold.Chemscore.Hbonds>
donor molecule, donor type, donor heavy atom, donor atom, acceptor molecule, acceptor atom, score
      L1  H    10    33       P1  7948  2.00
      L1  C    20    46       P1  7948  0.86

> <Gold.PLP.Chemscore.Internal.Correction>
0.1061

> <Gold.Rescore>
     Score         DG    S(hbond)    S(metal)    S(lipo)     H(rot)  DE(clash)    DE(int)     intcor
     14.87     -15.66       1.00        0.00      95.21       1.68       0.07       0.72       ----

> <Gold.Chemscore.Fitness>
14.8682

> <Gold.Chemscore.DG>
-15.6612

> <Gold.Chemscore.ZeroCoef>
-5.4800

> <Gold.Chemscore.Hbond>
0.9991

> <Gold.Chemscore.Metal>
0.0000

> <Gold.Chemscore.Lipo>
95.2087

> <Gold.Chemscore.Internal_Hbond>
0.0000

> <Gold.Chemscore.DEClash>
0.0704

> <Gold.Chemscore.DEInternal>
0.7226

> <Gold.Chemscore.Rot>
1.6778

> <Gold.Chemscore.Internal.Correction>
   9.000000E+99

> <Gold.Chemscore.Hbonds>
donor molecule, donor type, donor heavy atom, donor atom, acceptor molecule, acceptor atom, score
      L1  H    10    33       P1  7948  1.00

> <Gold.Chemscore.Hbond.Weighted>
-3.3369

> <Gold.Chemscore.Metal.Weighted>
-0.0000

> <Gold.Chemscore.Lipo.Weighted>
-11.1394

> <Gold.Chemscore.Internal_Hbond.Weighted>
0.0000

> <Gold.Chemscore.DEClash.Weighted>
0.0704

> <Gold.Chemscore.DEInternal.Weighted>
0.7226

> <Gold.Chemscore.Rot.Weighted>
4.2952

> <Gold.Chemscore.Internal.Correction.Weighted>
   9.000000E+99

> <Gold.Protein.RotatedTorsions>
[ 6907 6896 6895 6894 ] final  -74.50 input  -60.11 | X-H torsion
[ 7974 7965 7964 7962 ] final -123.93 input  175.53 | X-H torsion
[ 8008 7997 7996 7995 ] final  142.21 input   59.86 | X-H torsion
[ 10167 10162 10161 10158 ] final  -55.52 input  -65.29 | X-H torsion
[ 10718 10713 10712 10709 ] final  -52.95 input   66.30 | X-H torsion
[ 10763 10752 10751 10750 ] final   64.94 input  -60.55 | X-H torsion
[ 11005 11000 10999 10996 ] final   60.87 input  -57.11 | X-H torsion

> <Gold.Protein.ActiveResidues>
 VAL166  LYS551  ARG553  GLY616  TRP617  ASP618  TYR619  PRO620  LYS621  CYS622 
 ASP623  PHE694  ASN695  SER759  ASP760  ASP761  ALA762  ILE779  LEU786  VAL792 
 PHE793  MET794  SER795  GLU796  ALA797  LYS798  CYS799  TRP800  GLU811  SER814 

> <Gold.Protein.RotatedAtoms>
  150.7091  134.4860  159.5492 H   0  0  0  0  0  0  0  0  0  0  0  0  # atno 6907 bound_to 6896
  152.2487  134.8152  160.0458 H   0  0  0  0  0  0  0  0  0  0  0  0  # atno 6908 bound_to 6896
  151.8907  133.3480  159.3834 H   0  0  0  0  0  0  0  0  0  0  0  0  # atno 6909 bound_to 6896
  145.0134  140.7925  143.4425 H   0  0  0  0  0  0  0  0  0  0  0  0  # atno 7974 bound_to 7965
  156.2953  140.2295  156.4690 H   0  0  0  0  0  0  0  0  0  0  0  0  # atno 8008 bound_to 7997
  154.7952  140.0452  157.1252 H   0  0  0  0  0  0  0  0  0  0  0  0  # atno 8009 bound_to 7997
  154.9598  140.3053  155.5039 H   0  0  0  0  0  0  0  0  0  0  0  0  # atno 8010 bound_to 7997
  140.6370  143.2487  151.5091 H   0  0  0  0  0  0  0  0  0  0  0  0  # atno 10167 bound_to 10162
  156.1577  130.4150  149.9842 H   0  0  0  0  0  0  0  0  0  0  0  0  # atno 10718 bound_to 10713
  153.0076  135.5375  154.6588 H   0  0  0  0  0  0  0  0  0  0  0  0  # atno 10763 bound_to 10752
  154.5802  135.2849  155.0742 H   0  0  0  0  0  0  0  0  0  0  0  0  # atno 10764 bound_to 10752
  154.1874  135.6506  153.5103 H   0  0  0  0  0  0  0  0  0  0  0  0  # atno 10765 bound_to 10752
  140.0201  134.6166  155.9652 H   0  0  0  0  0  0  0  0  0  0  0  0  # atno 11005 bound_to 11000
  145.1992  139.2260  143.5201 LP  0  0  0  0  0  0  0  0  0  0  0  0  # atno 17320 bound_to 7965
  146.3474  140.1806  142.8589 LP  0  0  0  0  0  0  0  0  0  0  0  0  # atno 17321 bound_to 7965
  139.5580  144.2227  152.1645 LP  0  0  0  0  0  0  0  0  0  0  0  0  # atno 17342 bound_to 10162
  140.1486  144.5135  150.6701 LP  0  0  0  0  0  0  0  0  0  0  0  0  # atno 17343 bound_to 10162
  156.7681  130.9176  151.3643 LP  0  0  0  0  0  0  0  0  0  0  0  0  # atno 17370 bound_to 10713
  157.6708  130.9049  150.0036 LP  0  0  0  0  0  0  0  0  0  0  0  0  # atno 17371 bound_to 10713
  141.1768  133.6541  156.4861 LP  0  0  0  0  0  0  0  0  0  0  0  0  # atno 17394 bound_to 11000
  140.4402  134.7022  157.4988 LP  0  0  0  0  0  0  0  0  0  0  0  0  # atno 17395 bound_to 11000

$$$$
