AV-unprocessed.smi:774|AV-procd|sdf|3693|dock6
  -GOLD-   22720 1113D 1   1.00000     0.00000
 Structure written by MMmdl.
 37 38  0  0  0  0  0  0  0  0  1 V2000
  145.1212  130.7133  151.4565 C   0  0  0  0  0  0  0  0  0  0  0  0
  145.9414  131.6823  150.6009 C   0  0  0  0  0  0  0  0  0  0  0  0
  144.8789  132.8920  149.7656 S   0  0  0  0  0  0  0  0  0  0  0  0
  144.4096  133.9418  151.1714 C   0  0  2  0  0  0  0  0  0  0  0  0
  144.1094  135.3856  150.7729 C   0  0  0  0  0  0  0  0  0  0  0  0
  144.2442  136.1693  152.0787 C   0  0  0  0  0  0  0  0  0  0  0  0
  145.2935  135.4166  152.9214 C   0  0  2  0  0  0  0  0  0  0  0  0
  146.5373  136.1745  153.0324 N   0  0  0  0  0  0  0  0  0  0  0  0
  146.6453  137.4058  153.5513 C   0  0  0  0  0  0  0  0  0  0  0  0
  145.6880  138.0437  153.9893 O   0  0  0  0  0  0  0  0  0  0  0  0
  147.9157  137.8425  153.5047 N   0  0  0  0  0  0  0  0  0  0  0  0
  148.4415  139.0808  153.9625 C   0  0  0  0  0  0  0  0  0  0  0  0
  147.6061  140.2155  153.9058 C   0  0  0  0  0  0  0  0  0  0  0  0
  148.1069  141.4590  154.3360 C   0  0  0  0  0  0  0  0  0  0  0  0
  149.4351  141.5213  154.7998 C   0  0  0  0  0  0  0  0  0  0  0  0
  150.2536  140.4493  154.8463 N   0  0  0  0  0  0  0  0  0  0  0  0
  149.7662  139.2590  154.4340 C   0  0  0  0  0  0  0  0  0  0  0  0
  145.5311  134.0732  152.2061 C   0  0  0  0  0  0  0  0  0  0  0  0
  145.7685  129.9904  151.9532 H   0  0  0  0  0  0  0  0  0  0  0  0
  144.4079  130.1579  150.8470 H   0  0  0  0  0  0  0  0  0  0  0  0
  144.5625  131.2452  152.2271 H   0  0  0  0  0  0  0  0  0  0  0  0
  146.6622  132.2098  151.2256 H   0  0  0  0  0  0  0  0  0  0  0  0
  146.5071  131.1293  149.8507 H   0  0  0  0  0  0  0  0  0  0  0  0
  143.5324  133.5119  151.6570 H   0  0  0  0  0  0  0  0  0  0  0  0
  144.8524  135.7390  150.0565 H   0  0  0  0  0  0  0  0  0  0  0  0
  143.1250  135.5038  150.3192 H   0  0  0  0  0  0  0  0  0  0  0  0
  144.4969  137.2154  151.8998 H   0  0  0  0  0  0  0  0  0  0  0  0
  143.2887  136.1586  152.6048 H   0  0  0  0  0  0  0  0  0  0  0  0
  144.8894  135.2274  153.9179 H   0  0  0  0  0  0  0  0  0  0  0  0
  147.3745  135.7268  152.6888 H   0  0  0  0  0  0  0  0  0  0  0  0
  148.5759  137.2383  153.0381 H   0  0  0  0  0  0  0  0  0  0  0  0
  146.5920  140.1362  153.5415 H   0  0  0  0  0  0  0  0  0  0  0  0
  147.4884  142.3438  154.3098 H   0  0  0  0  0  0  0  0  0  0  0  0
  149.8531  142.4582  155.1373 H   0  0  0  0  0  0  0  0  0  0  0  0
  150.4749  138.4465  154.4696 H   0  0  0  0  0  0  0  0  0  0  0  0
  145.5436  133.2336  152.9020 H   0  0  0  0  0  0  0  0  0  0  0  0
  146.4965  134.0808  151.6966 H   0  0  0  0  0  0  0  0  0  0  0  0
  1  2  1  0  0  0  0
  1 19  1  0  0  0  0
  1 20  1  0  0  0  0
  1 21  1  0  0  0  0
  2  3  1  0  0  0  0
  2 22  1  0  0  0  0
  2 23  1  0  0  0  0
  3  4  1  0  0  0  0
  4 18  1  0  0  0  0
  4  5  1  0  0  0  0
  4 24  1  0  0  0  0
  5  6  1  0  0  0  0
  5 25  1  0  0  0  0
  5 26  1  0  0  0  0
  6  7  1  0  0  0  0
  6 27  1  0  0  0  0
  6 28  1  0  0  0  0
  7  8  1  0  0  0  0
  7 18  1  0  0  0  0
  7 29  1  0  0  0  0
  8  9  1  0  0  0  0
  8 30  1  0  0  0  0
  9 10  2  0  0  0  0
  9 11  1  0  0  0  0
 11 12  1  0  0  0  0
 11 31  1  0  0  0  0
 12 17  1  0  0  0  0
 12 13  2  0  0  0  0
 13 14  1  0  0  0  0
 13 32  1  0  0  0  0
 14 15  2  0  0  0  0
 14 33  1  0  0  0  0
 15 16  1  0  0  0  0
 15 34  1  0  0  0  0
 16 17  2  0  0  0  0
 17 35  1  0  0  0  0
 18 36  1  0  0  0  0
 18 37  1  0  0  0  0
M  END
> <s_m_source_file>
AV-unprocessed.smi

> <i_m_source_file_index>
774

> <i_lp_mmshare_version>
43012

> <i_f3d_flags>
0

> <s_epik_input>
W0NIM11bQ0gyXVNbQ0BASF0xW0NIMl1bQ0gyXVtDQEhdKFtDSDJdMSlbTkhdQyg9TylbTkhdYzJbY0hdW2NIXVtjSF1uW2NIXTI=

> <s_epik_cmdline>
J2VwaWtfcHl0aG9uJywgJy1waCcsICc3LjAnLCAnLXRuJywgJzgnLCAnLW1hJywgJzIwMCcsICctbWV0YWxfYmluZGluZycsICctaW1hZScsICc8aW5maWxlLm1hZT4nLCAnLW9tYWUnLCAnPG91dGZpbGUubWFlPic=

> <r_epik_Ionization_Penalty>
0.00485718

> <r_epik_Ionization_Penalty_Charging>
0

> <r_epik_Ionization_Penalty_Neutral>
0.00485718

> <r_epik_State_Penalty>
0.00349461

> <r_epik_Charging_Adjusted_Penalty>
0.00349461

> <i_epik_Tot_Q>
0

> <i_epik_Tot_abs_Q>
0

> <r_epik_Metal_State_Penalty>
-0

> <b_epik_Metal_Only>
0

> <s_lp_Force_Field>
OPLS_2005

> <r_lp_Energy>
20.2727

> <b_lp_Chiralities_Consistent>
1

> <s_lp_Variant>
AV-unprocessed.smi:774-3

> <Gold.Version>
5.8.1

> <Gold.Id.Protein>
6NUR|6NUR_protein|mol2

> <Gold.PLP.Fitness>
42.2900

> <Gold.PLP.PLP>
-32.1660

> <Gold.PLP.part.hbond>
-2.9213

> <Gold.PLP.part.metal>
0.0000

> <Gold.PLP.part.buried>
-1.0873

> <Gold.PLP.part.nonpolar>
-27.5994

> <Gold.PLP.part.repulsive>
0.2648

> <Gold.PLP.ligand.clash>
0.0000

> <Gold.PLP.ligand.torsion>
0.5598

> <Gold.PLP.Chemscore.Hbond>
2.7440

> <Gold.PLP.Chemscore.CHOScore>
1.0000

> <Gold.PLP.Chemscore.Metal>
0.0000

> <Gold.Chemscore.Hbonds>
donor molecule, donor type, donor heavy atom, donor atom, acceptor molecule, acceptor atom, score
      L1  H     8    30       P1  7948  0.77
      L1  H    11    31       P1  7948  1.00
      P1  H  7989  7998       L1    16  0.99
      L1  C    15    34       P1  8028  1.00

> <Gold.PLP.Chemscore.Internal.Correction>
0.0116

> <Gold.Rescore>
     Score         DG    S(hbond)    S(metal)    S(lipo)     H(rot)  DE(clash)    DE(int)     intcor
     17.72     -19.62       2.26        0.00      84.99       1.30       0.07       1.82       ----

> <Gold.Chemscore.Fitness>
17.7221

> <Gold.Chemscore.DG>
-19.6181

> <Gold.Chemscore.ZeroCoef>
-5.4800

> <Gold.Chemscore.Hbond>
2.2554

> <Gold.Chemscore.Metal>
0.0000

> <Gold.Chemscore.Lipo>
84.9875

> <Gold.Chemscore.Internal_Hbond>
0.0000

> <Gold.Chemscore.DEClash>
0.0732

> <Gold.Chemscore.DEInternal>
1.8228

> <Gold.Chemscore.Rot>
1.3041

> <Gold.Chemscore.Internal.Correction>
   9.000000E+99

> <Gold.Chemscore.Hbonds>
donor molecule, donor type, donor heavy atom, donor atom, acceptor molecule, acceptor atom, score
      L1  H     8    30       P1  7948  0.76
      L1  H    11    31       P1  7948  0.94
      P1  H  7989  7998       L1    16  0.16

> <Gold.Chemscore.Hbond.Weighted>
-7.5329

> <Gold.Chemscore.Metal.Weighted>
-0.0000

> <Gold.Chemscore.Lipo.Weighted>
-9.9435

> <Gold.Chemscore.Internal_Hbond.Weighted>
0.0000

> <Gold.Chemscore.DEClash.Weighted>
0.0732

> <Gold.Chemscore.DEInternal.Weighted>
1.8228

> <Gold.Chemscore.Rot.Weighted>
3.3384

> <Gold.Chemscore.Internal.Correction.Weighted>
   9.000000E+99

> <Gold.Protein.RotatedTorsions>
[ 6907 6896 6895 6894 ] final  106.37 input  -60.11 | X-H torsion
[ 7974 7965 7964 7962 ] final   18.51 input  175.53 | X-H torsion
[ 8008 7997 7996 7995 ] final  -70.63 input   59.86 | X-H torsion
[ 10167 10162 10161 10158 ] final  142.34 input  -65.29 | X-H torsion
[ 10718 10713 10712 10709 ] final  136.27 input   66.30 | X-H torsion
[ 10763 10752 10751 10750 ] final   67.04 input  -60.55 | X-H torsion
[ 11005 11000 10999 10996 ] final -151.28 input  -57.11 | X-H torsion

> <Gold.Protein.ActiveResidues>
 VAL166  LYS551  ARG553  GLY616  TRP617  ASP618  TYR619  PRO620  LYS621  CYS622 
 ASP623  PHE694  ASN695  SER759  ASP760  ASP761  ALA762  ILE779  LEU786  VAL792 
 PHE793  MET794  SER795  GLU796  ALA797  LYS798  CYS799  TRP800  GLU811  SER814 

> <Gold.Protein.RotatedAtoms>
  152.5196  133.9391  159.7617 H   0  0  0  0  0  0  0  0  0  0  0  0  # atno 6907 bound_to 6896
  150.9725  133.6321  159.2742 H   0  0  0  0  0  0  0  0  0  0  0  0  # atno 6908 bound_to 6896
  151.3527  135.0893  159.9461 H   0  0  0  0  0  0  0  0  0  0  0  0  # atno 6909 bound_to 6896
  146.2182  139.8446  142.8634 H   0  0  0  0  0  0  0  0  0  0  0  0  # atno 7974 bound_to 7965
  154.5027  140.0830  156.7830 H   0  0  0  0  0  0  0  0  0  0  0  0  # atno 8008 bound_to 7997
  155.3966  140.3435  155.4236 H   0  0  0  0  0  0  0  0  0  0  0  0  # atno 8009 bound_to 7997
  156.1476  140.1548  156.8809 H   0  0  0  0  0  0  0  0  0  0  0  0  # atno 8010 bound_to 7997
  139.4997  144.6113  151.6264 H   0  0  0  0  0  0  0  0  0  0  0  0  # atno 10167 bound_to 10162
  157.4484  131.1064  151.0062 H   0  0  0  0  0  0  0  0  0  0  0  0  # atno 10718 bound_to 10713
  153.0167  135.5298  154.6917 H   0  0  0  0  0  0  0  0  0  0  0  0  # atno 10763 bound_to 10752
  154.6050  135.2872  155.0497 H   0  0  0  0  0  0  0  0  0  0  0  0  # atno 10764 bound_to 10752
  154.1540  135.6558  153.5022 H   0  0  0  0  0  0  0  0  0  0  0  0  # atno 10765 bound_to 10752
  140.7313  134.3618  157.5166 H   0  0  0  0  0  0  0  0  0  0  0  0  # atno 11005 bound_to 11000
  145.2863  141.0154  143.3688 LP  0  0  0  0  0  0  0  0  0  0  0  0  # atno 17320 bound_to 7965
  144.9111  139.4528  143.6586 LP  0  0  0  0  0  0  0  0  0  0  0  0  # atno 17321 bound_to 7965
  140.5789  143.9980  150.6257 LP  0  0  0  0  0  0  0  0  0  0  0  0  # atno 17342 bound_to 10162
  140.3123  143.3190  152.0867 LP  0  0  0  0  0  0  0  0  0  0  0  0  # atno 17343 bound_to 10162
  157.0901  130.5938  149.5438 LP  0  0  0  0  0  0  0  0  0  0  0  0  # atno 17370 bound_to 10713
  155.9977  130.5049  150.7543 LP  0  0  0  0  0  0  0  0  0  0  0  0  # atno 17371 bound_to 10713
  139.8826  134.9020  156.2823 LP  0  0  0  0  0  0  0  0  0  0  0  0  # atno 17394 bound_to 11000
  140.9918  133.7204  156.0826 LP  0  0  0  0  0  0  0  0  0  0  0  0  # atno 17395 bound_to 11000

$$$$
