#       Name:                AV-unprocessed.smi:2014
#       Creating user name   scv26
#       Creation time:       Fri Mar 27 10:40:58 2020


#       File generated by GOLD software.
#

@<TRIPOS>MOLECULE
AV-unprocessed.smi:2014
    53    55     1
SMALL
NO_CHARGES


@<TRIPOS>ATOM
      1 ****        -1.8974  -4.7999  -1.2841 C.3            1 S1                 0.0000
      2 ****        -2.6037  -3.4443  -1.4265 C.3            1 S1                 0.0000
      3 ****        -2.2291  -2.7497  -2.7503 C.3            1 S1                 0.0000
      4 ****        -2.9197  -1.3802  -2.8937 C.3            1 S1                 0.0000
      5 ****        -2.6328  -0.4552  -1.6951 C.3            1 S1                 0.0000
      6 ****        -1.2315  -0.0407  -1.7121 N.am           1 S1                 0.0000
      7 ****        -0.7007   0.9650  -1.0010 C.2            1 S1                 0.0000
      8 ****        -1.3621   1.7049  -0.2724 O.2            1 S1                 0.0000
      9 ****         0.8134   1.1658  -1.1445 C.3            1 S1                 0.0000
     10 ****         1.4904   1.2474   0.1671 N.am           1 S1                 0.0000
     11 ****         1.8189   0.0345   0.8257 C.2            1 S1                 0.0000
     12 ****         1.5713  -1.0564   0.3079 O.2            1 S1                 0.0000
     13 ****         2.4435   0.1800   2.1383 C.2            1 S1                 0.0000
     14 ****         2.7582  -1.0174   2.8448 C.1            1 S1                 0.0000
     15 ****         3.0242  -1.9770   3.4347 N.1            1 S1                 0.0000
     16 ****         2.7017   1.3998   2.6532 C.2            1 S1                 0.0000
     17 ****         2.4103   2.5660   1.9795 N.am           1 S1                 0.0000
     18 ****         2.5472   3.8485   2.6106 C.3            1 S1                 0.0000
     19 ****         3.3645   4.9432   1.9525 C.3            1 S1                 0.0000
     20 ****         3.8910   4.2450   3.1825 C.3            1 S1                 0.0000
     21 ****         1.7452   2.5195   0.7345 C.2            1 S1                 0.0000
     22 ****         1.3876   3.5528   0.1638 O.2            1 S1                 0.0000
     23 ****        -3.0024  -1.1624  -0.3726 C.3            1 S1                 0.0000
     24 ****        -2.3011  -2.5243  -0.2284 C.3            1 S1                 0.0000
     25 ****        -0.8137  -4.6815  -1.2559 H              1 S1                 0.0000
     26 ****        -2.1393  -5.4588  -2.1183 H              1 S1                 0.0000
     27 ****        -2.2009  -5.3063  -0.3674 H              1 S1                 0.0000
     28 ****        -3.6782  -3.6337  -1.4402 H              1 S1                 0.0000
     29 ****        -1.1471  -2.6226  -2.8056 H              1 S1                 0.0000
     30 ****        -2.5044  -3.3846  -3.5930 H              1 S1                 0.0000
     31 ****        -2.6091  -0.9017  -3.8235 H              1 S1                 0.0000
     32 ****        -3.9964  -1.5322  -2.9781 H              1 S1                 0.0000
     33 ****        -3.2477   0.4403  -1.8001 H              1 S1                 0.0000
     34 ****        -0.6077  -0.5885  -2.2868 H              1 S1                 0.0000
     35 ****         1.2422   0.3604  -1.7439 H              1 S1                 0.0000
     36 ****         0.9816   2.0603  -1.7456 H              1 S1                 0.0000
     37 ****         3.1593   1.4684   3.6298 H              1 S1                 0.0000
     38 ****         1.6769   4.1832   3.1726 H              1 S1                 0.0000
     39 ****         3.8564   4.7223   1.0070 H              1 S1                 0.0000
     40 ****         3.0136   5.9668   2.0666 H              1 S1                 0.0000
     41 ****         3.8926   4.8033   4.1162 H              1 S1                 0.0000
     42 ****         4.7283   3.5631   3.0467 H              1 S1                 0.0000
     43 ****        -2.7661  -0.5309   0.4843 H              1 S1                 0.0000
     44 ****        -4.0819  -1.3145  -0.3410 H              1 S1                 0.0000
     45 ****        -2.6229  -3.0016   0.6977 H              1 S1                 0.0000
     46 ****        -1.2242  -2.3754  -0.1364 H              1 S1                 0.0000
     47 ****        -2.3495   1.5711  -0.1879 LP             1 S1                 0.0000
     48 ****        -0.9119   2.4397   0.2350 LP             1 S1                 0.0000
     49 ****         1.1324  -1.0957  -0.5897 LP             1 S1                 0.0000
     50 ****         1.8094  -1.9021   0.7856 LP             1 S1                 0.0000
     51 ****         3.2541  -2.8061   3.9443 LP             1 S1                 0.0000
     52 ****         0.9100   3.4999  -0.7132 LP             1 S1                 0.0000
     53 ****         1.5753   4.4434   0.5780 LP             1 S1                 0.0000
@<TRIPOS>BOND
    1    1    2 1     
    2    1   25 1     
    3    1   26 1     
    4    1   27 1     
    5    2   24 1     
    6    2    3 1     
    7    2   28 1     
    8    3    4 1     
    9    3   29 1     
   10    3   30 1     
   11    4    5 1     
   12    4   31 1     
   13    4   32 1     
   14    5    6 1     
   15    5   23 1     
   16    5   33 1     
   17    6    7 am    
   18    6   34 1     
   19    7    8 2     
   20    7    9 1     
   21    9   10 1     
   22    9   35 1     
   23    9   36 1     
   24   10   21 am    
   25   10   11 am    
   26   11   12 2     
   27   11   13 1     
   28   13   14 1     
   29   13   16 2     
   30   14   15 3     
   31   16   17 1     
   32   16   37 1     
   33   17   18 1     
   34   17   21 am    
   35   18   20 1     
   36   18   19 1     
   37   18   38 1     
   38   19   20 1     
   39   19   39 1     
   40   19   40 1     
   41   20   41 1     
   42   20   42 1     
   43   21   22 2     
   44   23   24 1     
   45   23   43 1     
   46   23   44 1     
   47   24   45 1     
   48   24   46 1     
   49    8   47 1     
   50    8   48 1     
   51   12   49 1     
   52   12   50 1     
   53   15   51 1     
   54   22   52 1     
   55   22   53 1     
@<TRIPOS>SUBSTRUCTURE
      1 S1             1
@<TRIPOS>SET
LONE_PAIRS      STATIC     ATOMS    <user>   **** ""
7 47 48 49 50 51 52 53
DONOR_HYDROGENS      STATIC     ATOMS    <user>   **** ""
1 34
ATOM$BLUE        STATIC     ATOMS    COLORGROUP SYSTEM
7 47 48 49 50 51 52 53
ATOM$RED        STATIC     ATOMS    COLORGROUP SYSTEM
1 34
