AV-unprocessed.smi:2173|AV-procd|sdf|8841|dock2
  -GOLD-   2272012 33D 1   1.00000     0.00000
 Structure written by MMmdl.
 36 37  0  0  0  0  0  0  0  0  2 V2000
  152.7347  139.2325  156.6854 O   0  0  0  0  0  0  0  0  0  0  0  0
  152.1075  140.0622  157.3440 C   0  0  0  0  0  0  0  0  0  0  0  0
  152.4253  140.3901  158.6056 N   0  0  0  0  0  0  0  0  0  0  0  0
  153.5496  139.8453  159.3615 C   0  0  0  0  0  0  0  0  0  0  0  0
  154.5022  140.9253  159.9188 C   0  0  0  0  0  0  0  0  0  0  0  0
  153.8060  142.0043  160.7317 C   0  0  0  0  0  0  0  0  0  0  0  0
  152.9115  142.9254  160.1452 C   0  0  0  0  0  0  0  0  0  0  0  0
  152.3141  143.9152  160.9535 C   0  0  0  0  0  0  0  0  0  0  0  0
  152.6243  143.9646  162.3286 C   0  0  0  0  0  0  0  0  0  0  0  0
  153.5238  143.0196  162.8624 C   0  0  0  0  0  0  0  0  0  0  0  0
  154.0740  142.0864  162.0556 N   0  3  0  0  0  0  0  0  0  0  0  0
  150.9152  140.8028  156.7254 C   0  0  1  0  0  0  0  0  0  0  0  0
  150.6322  140.2939  155.2932 C   0  0  0  0  0  0  0  0  0  0  0  0
  149.3168  140.8208  154.7478 C   0  0  0  0  0  0  0  0  0  0  0  0
  148.3625  141.3669  155.5207 C   0  0  0  0  0  0  0  0  0  0  0  0
  148.4892  141.5144  157.0268 C   0  0  0  0  0  0  0  0  0  0  0  0
  149.6516  140.6819  157.6007 C   0  0  0  0  0  0  0  0  0  0  0  0
  151.8510  141.0759  159.0745 H   0  0  0  0  0  0  0  0  0  0  0  0
  153.1299  139.2771  160.1919 H   0  0  0  0  0  0  0  0  0  0  0  0
  154.1020  139.1311  158.7493 H   0  0  0  0  0  0  0  0  0  0  0  0
  155.2667  140.4528  160.5367 H   0  0  0  0  0  0  0  0  0  0  0  0
  155.0385  141.4013  159.0967 H   0  0  0  0  0  0  0  0  0  0  0  0
  152.6882  142.8781  159.0892 H   0  0  0  0  0  0  0  0  0  0  0  0
  151.6279  144.6299  160.5231 H   0  0  0  0  0  0  0  0  0  0  0  0
  152.1795  144.7166  162.9640 H   0  0  0  0  0  0  0  0  0  0  0  0
  153.8198  142.9833  163.9006 H   0  0  0  0  0  0  0  0  0  0  0  0
  151.1694  141.8629  156.6629 H   0  0  0  0  0  0  0  0  0  0  0  0
  151.4344  140.6082  154.6247 H   0  0  0  0  0  0  0  0  0  0  0  0
  150.5979  139.2040  155.2581 H   0  0  0  0  0  0  0  0  0  0  0  0
  149.1588  140.7298  153.6831 H   0  0  0  0  0  0  0  0  0  0  0  0
  147.4531  141.7365  155.0700 H   0  0  0  0  0  0  0  0  0  0  0  0
  148.6362  142.5713  157.2506 H   0  0  0  0  0  0  0  0  0  0  0  0
  147.5518  141.2172  157.4976 H   0  0  0  0  0  0  0  0  0  0  0  0
  149.3456  139.6359  157.6570 H   0  0  0  0  0  0  0  0  0  0  0  0
  149.8571  140.9974  158.6246 H   0  0  0  0  0  0  0  0  0  0  0  0
  154.7259  141.4143  162.4615 H   0  0  0  0  0  0  0  0  0  0  0  0
  1  2  2  0  0  0  0
  2  3  1  0  0  0  0
  2 12  1  0  0  0  0
  3  4  1  0  0  0  0
  3 18  1  0  0  0  0
  4  5  1  0  0  0  0
  4 19  1  0  0  0  0
  4 20  1  0  0  0  0
  5  6  1  0  0  0  0
  5 21  1  0  0  0  0
  5 22  1  0  0  0  0
  6 11  1  0  0  0  0
  6  7  2  0  0  0  0
  7  8  1  0  0  0  0
  7 23  1  0  0  0  0
  8  9  2  0  0  0  0
  8 24  1  0  0  0  0
  9 10  1  0  0  0  0
  9 25  1  0  0  0  0
 10 11  2  0  0  0  0
 10 26  1  0  0  0  0
 11 36  1  0  0  0  0
 12 17  1  0  0  0  0
 12 13  1  0  0  0  0
 12 27  1  0  0  0  0
 13 14  1  0  0  0  0
 13 28  1  0  0  0  0
 13 29  1  0  0  0  0
 14 15  2  0  0  0  0
 14 30  1  0  0  0  0
 15 16  1  0  0  0  0
 15 31  1  0  0  0  0
 16 17  1  0  0  0  0
 16 32  1  0  0  0  0
 16 33  1  0  0  0  0
 17 34  1  0  0  0  0
 17 35  1  0  0  0  0
M  CHG  1  11   1
M  END
> <s_m_source_file>
AV-unprocessed.smi

> <i_m_source_file_index>
2173

> <i_lp_mmshare_version>
43012

> <i_f3d_flags>
0

> <s_epik_input>
W0NIMl0xW0NIMl1bQ0hdPVtDSF1bQ0gyXVtDQEhdMUMoPU8pW05IXVtDSDJdW0NIMl1jMltjSF1bY0hdW2NIXVtjSF1uMg==

> <s_epik_cmdline>
J2VwaWtfcHl0aG9uJywgJy1waCcsICc3LjAnLCAnLXRuJywgJzgnLCAnLW1hJywgJzIwMCcsICctbWV0YWxfYmluZGluZycsICctaW1hZScsICc8aW5maWxlLm1hZT4nLCAnLW9tYWUnLCAnPG91dGZpbGUubWFlPic=

> <r_epik_Ionization_Penalty>
1.84586

> <r_epik_Ionization_Penalty_Charging>
1.84586

> <r_epik_Ionization_Penalty_Neutral>
1.53635e-08

> <r_epik_State_Penalty>
1.96297

> <r_epik_Charging_Adjusted_Penalty>
3.80883

> <i_epik_Tot_Q>
1

> <i_epik_Tot_abs_Q>
1

> <r_epik_Metal_State_Penalty>
1.98887

> <b_epik_Metal_Only>
0

> <s_lp_Force_Field>
OPLS_2005

> <r_lp_Energy>
13.9489

> <b_lp_Chiralities_Consistent>
1

> <s_lp_Variant>
AV-unprocessed.smi:2173-4

> <Gold.Version>
5.8.1

> <Gold.Id.Protein>
6NUR|6NUR_protein|mol2

> <Gold.PLP.Fitness>
41.6169

> <Gold.PLP.PLP>
-38.8218

> <Gold.PLP.part.hbond>
-2.0000

> <Gold.PLP.part.metal>
0.0000

> <Gold.PLP.part.buried>
-1.2382

> <Gold.PLP.part.nonpolar>
-34.3924

> <Gold.PLP.part.repulsive>
0.1147

> <Gold.PLP.ligand.clash>
0.0000

> <Gold.PLP.ligand.torsion>
0.1139

> <Gold.PLP.Chemscore.Hbond>
1.0000

> <Gold.PLP.Chemscore.CHOScore>
0.0000

> <Gold.PLP.Chemscore.Metal>
0.0000

> <Gold.Chemscore.Hbonds>
donor molecule, donor type, donor heavy atom, donor atom, acceptor molecule, acceptor atom, score
      P1  H  7997  8009       L1     1  0.99

> <Gold.PLP.Chemscore.Internal.Correction>
0.0229

> <Gold.Rescore>
     Score         DG    S(hbond)    S(metal)    S(lipo)     H(rot)  DE(clash)    DE(int)     intcor
     16.42     -17.17       0.85        0.00     107.96       1.48       0.19       0.57       ----

> <Gold.Chemscore.Fitness>
16.4182

> <Gold.Chemscore.DG>
-17.1727

> <Gold.Chemscore.ZeroCoef>
-5.4800

> <Gold.Chemscore.Hbond>
0.8534

> <Gold.Chemscore.Metal>
0.0000

> <Gold.Chemscore.Lipo>
107.9626

> <Gold.Chemscore.Internal_Hbond>
0.0000

> <Gold.Chemscore.DEClash>
0.1889

> <Gold.Chemscore.DEInternal>
0.5656

> <Gold.Chemscore.Rot>
1.4801

> <Gold.Chemscore.Internal.Correction>
   9.000000E+99

> <Gold.Chemscore.Hbonds>
donor molecule, donor type, donor heavy atom, donor atom, acceptor molecule, acceptor atom, score
      P1  H  7997  8009       L1     1  0.42

> <Gold.Chemscore.Hbond.Weighted>
-2.8503

> <Gold.Chemscore.Metal.Weighted>
-0.0000

> <Gold.Chemscore.Lipo.Weighted>
-12.6316

> <Gold.Chemscore.Internal_Hbond.Weighted>
0.0000

> <Gold.Chemscore.DEClash.Weighted>
0.1889

> <Gold.Chemscore.DEInternal.Weighted>
0.5656

> <Gold.Chemscore.Rot.Weighted>
3.7892

> <Gold.Chemscore.Internal.Correction.Weighted>
   9.000000E+99

> <Gold.Protein.RotatedTorsions>
[ 6907 6896 6895 6894 ] final -179.83 input  -60.11 | X-H torsion
[ 7974 7965 7964 7962 ] final  110.44 input  175.53 | X-H torsion
[ 8008 7997 7996 7995 ] final -152.08 input   59.86 | X-H torsion
[ 10167 10162 10161 10158 ] final -129.39 input  -65.29 | X-H torsion
[ 10718 10713 10712 10709 ] final    6.17 input   66.30 | X-H torsion
[ 10763 10752 10751 10750 ] final  -49.01 input  -60.55 | X-H torsion
[ 11005 11000 10999 10996 ] final  -39.69 input  -57.11 | X-H torsion

> <Gold.Protein.ActiveResidues>
 VAL166  LYS551  ARG553  GLY616  TRP617  ASP618  TYR619  PRO620  LYS621  CYS622 
 ASP623  PHE694  ASN695  SER759  ASP760  ASP761  ALA762  ILE779  LEU786  VAL792 
 PHE793  MET794  SER795  GLU796  ALA797  LYS798  CYS799  TRP800  GLU811  SER814 

> <Gold.Protein.RotatedAtoms>
  151.6599  133.3317  159.3171 H   0  0  0  0  0  0  0  0  0  0  0  0  # atno 6907 bound_to 6896
  150.7919  134.6953  159.6529 H   0  0  0  0  0  0  0  0  0  0  0  0  # atno 6908 bound_to 6896
  152.4000  134.6306  160.0126 H   0  0  0  0  0  0  0  0  0  0  0  0  # atno 6909 bound_to 6896
  145.2550  139.2725  143.4047 H   0  0  0  0  0  0  0  0  0  0  0  0  # atno 7974 bound_to 7965
  155.6495  140.0710  157.2591 H   0  0  0  0  0  0  0  0  0  0  0  0  # atno 8008 bound_to 7997
  154.4165  140.1736  156.1709 H   0  0  0  0  0  0  0  0  0  0  0  0  # atno 8009 bound_to 7997
  155.9788  140.3355  155.6647 H   0  0  0  0  0  0  0  0  0  0  0  0  # atno 8010 bound_to 7997
  139.9403  143.6170  152.2505 H   0  0  0  0  0  0  0  0  0  0  0  0  # atno 10167 bound_to 10162
  156.9182  130.5781  149.5647 H   0  0  0  0  0  0  0  0  0  0  0  0  # atno 10718 bound_to 10713
  154.0872  135.6582  153.4847 H   0  0  0  0  0  0  0  0  0  0  0  0  # atno 10763 bound_to 10752
  153.0335  135.5194  154.7416 H   0  0  0  0  0  0  0  0  0  0  0  0  # atno 10764 bound_to 10752
  154.6529  135.3004  154.9933 H   0  0  0  0  0  0  0  0  0  0  0  0  # atno 10765 bound_to 10752
  141.0120  133.6903  156.2220 H   0  0  0  0  0  0  0  0  0  0  0  0  # atno 11005 bound_to 11000
  146.3292  140.2951  142.8617 LP  0  0  0  0  0  0  0  0  0  0  0  0  # atno 17320 bound_to 7965
  144.9469  140.8138  143.5596 LP  0  0  0  0  0  0  0  0  0  0  0  0  # atno 17321 bound_to 7965
  139.6710  144.7661  151.1784 LP  0  0  0  0  0  0  0  0  0  0  0  0  # atno 17342 bound_to 10162
  140.7613  143.5866  150.8840 LP  0  0  0  0  0  0  0  0  0  0  0  0  # atno 17343 bound_to 10162
  156.0504  130.5574  150.8975 LP  0  0  0  0  0  0  0  0  0  0  0  0  # atno 17370 bound_to 10713
  157.5925  131.0944  150.9096 LP  0  0  0  0  0  0  0  0  0  0  0  0  # atno 17371 bound_to 10713
  140.6717  134.4860  157.5587 LP  0  0  0  0  0  0  0  0  0  0  0  0  # atno 17394 bound_to 11000
  139.9095  134.8375  156.1580 LP  0  0  0  0  0  0  0  0  0  0  0  0  # atno 17395 bound_to 11000

$$$$
