AV-unprocessed.smi:109|AV-procd|sdf|1055|dock7
  -GOLD-   2262018123D 1   1.00000     0.00000
 Structure written by MMmdl.
 58 61  0  0  0  0  0  0  0  0  1 V2000
  150.6216  136.5243  158.4150 O   0  0  0  0  0  0  0  0  0  0  0  0
  150.0198  137.5914  159.1153 C   0  0  0  0  0  0  0  0  0  0  0  0
  148.5439  137.7204  158.7010 C   0  0  0  0  0  0  0  0  0  0  0  0
  147.7182  136.4246  158.8917 C   0  0  2  0  0  0  0  0  0  0  0  0
  146.2958  136.7268  158.7156 N   0  0  0  0  0  0  0  0  0  0  0  0
  145.8112  137.3065  157.5946 C   0  0  0  0  0  0  0  0  0  0  0  0
  145.5349  138.6357  157.5418 N   0  0  0  0  0  0  0  0  0  0  0  0
  145.0568  139.1773  156.4175 C   0  0  0  0  0  0  0  0  0  0  0  0
  144.7861  138.5817  155.2536 N   0  0  0  0  0  0  0  0  0  0  0  0
  145.0592  137.2458  155.3046 C   0  0  0  0  0  0  0  0  0  0  0  0
  145.5706  136.5382  156.4269 C   0  0  0  0  0  0  0  0  0  0  0  0
  145.7226  135.1954  156.1066 N   0  0  0  0  0  0  0  0  0  0  0  0
  145.3248  135.1203  154.8645 C   0  0  0  0  0  0  0  0  0  0  0  0
  144.9109  136.3104  154.3046 N   0  0  0  0  0  0  0  0  0  0  0  0
  144.4034  136.5788  152.9223 C   0  0  2  0  0  0  0  0  0  0  0  0
  143.8281  135.3969  152.4497 O   0  0  0  0  0  0  0  0  0  0  0  0
  144.4068  135.0155  151.2030 C   0  0  2  0  0  0  0  0  0  0  0  0
  144.3671  133.4883  151.0181 C   0  0  0  0  0  0  0  0  0  0  0  0
  143.0298  133.0380  150.9934 O   0  0  0  0  0  0  0  0  0  0  0  0
  145.8061  135.6465  151.2222 C   0  0  2  0  0  0  0  0  0  0  0  0
  146.7357  134.8158  151.8990 O   0  0  0  0  0  0  0  0  0  0  0  0
  145.5406  136.9560  151.9537 C   0  0  2  0  0  0  0  0  0  0  0  0
  146.7008  137.5135  152.5482 O   0  0  0  0  0  0  0  0  0  0  0  0
  147.9332  135.7446  160.2744 C   0  0  0  0  0  0  0  0  0  0  0  0
  147.3256  134.3217  160.3566 C   0  0  0  0  0  0  0  0  0  0  0  0
  147.5097  133.6818  161.7427 C   0  0  0  0  0  0  0  0  0  0  0  0
  146.9273  134.5652  162.8525 C   0  0  0  0  0  0  0  0  0  0  0  0
  147.5422  135.9684  162.8018 C   0  0  0  0  0  0  0  0  0  0  0  0
  147.3451  136.6093  161.4196 C   0  0  0  0  0  0  0  0  0  0  0  0
  143.6554  137.3628  153.0464 H   0  0  0  0  0  0  0  0  0  0  0  0
  143.8362  135.5018  150.4092 H   0  0  0  0  0  0  0  0  0  0  0  0
  146.1823  135.8201  150.2135 H   0  0  0  0  0  0  0  0  0  0  0  0
  145.1313  137.6794  151.2474 H   0  0  0  0  0  0  0  0  0  0  0  0
  151.5108  136.7659  158.2054 H   0  0  0  0  0  0  0  0  0  0  0  0
  150.1170  137.4015  160.1842 H   0  0  0  0  0  0  0  0  0  0  0  0
  150.5625  138.5109  158.8948 H   0  0  0  0  0  0  0  0  0  0  0  0
  148.1203  138.5227  159.3024 H   0  0  0  0  0  0  0  0  0  0  0  0
  148.4793  138.0470  157.6622 H   0  0  0  0  0  0  0  0  0  0  0  0
  148.0562  135.7091  158.1426 H   0  0  0  0  0  0  0  0  0  0  0  0
  145.7000  136.4619  159.4869 H   0  0  0  0  0  0  0  0  0  0  0  0
  144.8635  140.2391  156.4564 H   0  0  0  0  0  0  0  0  0  0  0  0
  145.3227  134.1867  154.3212 H   0  0  0  0  0  0  0  0  0  0  0  0
  144.8188  133.2129  150.0646 H   0  0  0  0  0  0  0  0  0  0  0  0
  144.9239  132.9771  151.8041 H   0  0  0  0  0  0  0  0  0  0  0  0
  142.5075  133.6714  150.5253 H   0  0  0  0  0  0  0  0  0  0  0  0
  147.5330  135.3040  152.0352 H   0  0  0  0  0  0  0  0  0  0  0  0
  147.4515  137.0137  152.2661 H   0  0  0  0  0  0  0  0  0  0  0  0
  149.0080  135.6539  160.4407 H   0  0  0  0  0  0  0  0  0  0  0  0
  146.2637  134.3603  160.1099 H   0  0  0  0  0  0  0  0  0  0  0  0
  147.7903  133.6580  159.6295 H   0  0  0  0  0  0  0  0  0  0  0  0
  147.0354  132.7003  161.7637 H   0  0  0  0  0  0  0  0  0  0  0  0
  148.5715  133.5152  161.9289 H   0  0  0  0  0  0  0  0  0  0  0  0
  145.8445  134.6332  162.7395 H   0  0  0  0  0  0  0  0  0  0  0  0
  147.1112  134.1114  163.8269 H   0  0  0  0  0  0  0  0  0  0  0  0
  147.0930  136.5984  163.5700 H   0  0  0  0  0  0  0  0  0  0  0  0
  148.6071  135.9127  163.0311 H   0  0  0  0  0  0  0  0  0  0  0  0
  147.8044  137.5977  161.4349 H   0  0  0  0  0  0  0  0  0  0  0  0
  146.2807  136.7721  161.2450 H   0  0  0  0  0  0  0  0  0  0  0  0
  1  2  1  0  0  0  0
  1 34  1  0  0  0  0
  2  3  1  0  0  0  0
  2 35  1  0  0  0  0
  2 36  1  0  0  0  0
  3  4  1  0  0  0  0
  3 37  1  0  0  0  0
  3 38  1  0  0  0  0
  4  5  1  0  0  0  0
  4 24  1  0  0  0  0
  4 39  1  0  0  0  0
  5  6  1  0  0  0  0
  5 40  1  0  0  0  0
  6 11  1  0  0  0  0
  6  7  2  0  0  0  0
  7  8  1  0  0  0  0
  8  9  2  0  0  0  0
  8 41  1  0  0  0  0
  9 10  1  0  0  0  0
 10 14  1  0  0  0  0
 10 11  2  0  0  0  0
 11 12  1  0  0  0  0
 12 13  2  0  0  0  0
 13 14  1  0  0  0  0
 13 42  1  0  0  0  0
 14 15  1  0  0  0  0
 15 30  1  0  0  0  0
 15 22  1  0  0  0  0
 15 16  1  0  0  0  0
 16 17  1  0  0  0  0
 17 31  1  0  0  0  0
 17 18  1  0  0  0  0
 17 20  1  0  0  0  0
 18 19  1  0  0  0  0
 18 43  1  0  0  0  0
 18 44  1  0  0  0  0
 19 45  1  0  0  0  0
 20 32  1  0  0  0  0
 20 21  1  0  0  0  0
 20 22  1  0  0  0  0
 21 46  1  0  0  0  0
 22 33  1  0  0  0  0
 22 23  1  0  0  0  0
 23 47  1  0  0  0  0
 24 29  1  0  0  0  0
 24 25  1  0  0  0  0
 24 48  1  0  0  0  0
 25 26  1  0  0  0  0
 25 49  1  0  0  0  0
 25 50  1  0  0  0  0
 26 27  1  0  0  0  0
 26 51  1  0  0  0  0
 26 52  1  0  0  0  0
 27 28  1  0  0  0  0
 27 53  1  0  0  0  0
 27 54  1  0  0  0  0
 28 29  1  0  0  0  0
 28 55  1  0  0  0  0
 28 56  1  0  0  0  0
 29 57  1  0  0  0  0
 29 58  1  0  0  0  0
M  END
> <s_m_source_file>
AV-unprocessed.smi

> <i_m_source_file_index>
109

> <i_lp_mmshare_version>
43012

> <i_f3d_flags>
0

> <s_epik_input>
W0NIMl0xW0NIMl1bQ0gyXVtDSDJdW0NIMl1bQ0hdMVtDQEhdKFtDSDJdW0NIMl1bT0hdKVtOSF1jKG5bY0hdbjIpYyhjMjMpbltjSF1uM1tDQEBIXTRPW0NASF0oW0NIMl1bT0hdKVtDQEBIXShbT0hdKVtDQEhdNFtPSF0=

> <s_epik_cmdline>
J2VwaWtfcHl0aG9uJywgJy1waCcsICc3LjAnLCAnLXRuJywgJzgnLCAnLW1hJywgJzIwMCcsICctbWV0YWxfYmluZGluZycsICctaW1hZScsICc8aW5maWxlLm1hZT4nLCAnLW9tYWUnLCAnPG91dGZpbGUubWFlPic=

> <r_lp_tautomer_probability>
1

> <r_epik_Ionization_Penalty>
0.000793976

> <r_epik_Ionization_Penalty_Charging>
0

> <r_epik_Ionization_Penalty_Neutral>
0.000793976

> <r_epik_State_Penalty>
-0

> <r_epik_Charging_Adjusted_Penalty>
0

> <i_epik_Tot_Q>
0

> <i_epik_Tot_abs_Q>
0

> <r_epik_Metal_State_Penalty>
-0

> <b_epik_Metal_Only>
0

> <s_epik_Chemistry_Notes>
This compound contains an acetal/aminal-like group ( X-CH(R)-Y where X, Y are N, S, or O) that may be acid/base labile, releasing an aldehyde.

> <s_lp_Force_Field>
OPLS_2005

> <r_lp_Energy>
59.4654

> <b_lp_Chiralities_Consistent>
1

> <s_lp_Variant>
AV-unprocessed.smi:109-25

> <Gold.Version>
5.8.1

> <Gold.Id.Protein>
6NUR|6NUR_protein|mol2

> <Gold.PLP.Fitness>
47.2184

> <Gold.PLP.PLP>
-38.8661

> <Gold.PLP.part.hbond>
-4.0000

> <Gold.PLP.part.metal>
0.0000

> <Gold.PLP.part.buried>
-6.4505

> <Gold.PLP.part.nonpolar>
-29.2416

> <Gold.PLP.part.repulsive>
0.2481

> <Gold.PLP.ligand.clash>
0.0000

> <Gold.PLP.ligand.torsion>
1.6299

> <Gold.PLP.Chemscore.Hbond>
3.7680

> <Gold.PLP.Chemscore.CHOScore>
0.0000

> <Gold.PLP.Chemscore.Metal>
0.0000

> <Gold.Chemscore.Hbonds>
donor molecule, donor type, donor heavy atom, donor atom, acceptor molecule, acceptor atom, score
      L1  H    19    45       P1 10186  1.00
      L1  H    21    46       P1  7948  1.00
      L1  H    23    47       P1  7948  1.00
      P1  H  6896  6907       L1     1  0.73

> <Gold.PLP.Chemscore.Internal.Correction>
0.3081

> <Gold.Rescore>
     Score         DG    S(hbond)    S(metal)    S(lipo)     H(rot)  DE(clash)    DE(int)     intcor
     12.22     -13.94       3.86        0.00      81.86       5.47       0.00       1.72       ----

> <Gold.Chemscore.Fitness>
12.2159

> <Gold.Chemscore.DG>
-13.9427

> <Gold.Chemscore.ZeroCoef>
-5.4800

> <Gold.Chemscore.Hbond>
3.8560

> <Gold.Chemscore.Metal>
0.0000

> <Gold.Chemscore.Lipo>
81.8558

> <Gold.Chemscore.Internal_Hbond>
0.0000

> <Gold.Chemscore.DEClash>
0.0029

> <Gold.Chemscore.DEInternal>
1.7239

> <Gold.Chemscore.Rot>
5.4662

> <Gold.Chemscore.Internal.Correction>
   9.000000E+99

> <Gold.Chemscore.Hbonds>
donor molecule, donor type, donor heavy atom, donor atom, acceptor molecule, acceptor atom, score
      L1  H    19    45       P1 10186  0.96
      L1  H    21    46       P1  7948  0.99
      L1  H    23    47       P1  7948  1.00
      P1  H  6896  6907       L1     1  0.18

> <Gold.Chemscore.Hbond.Weighted>
-12.8791

> <Gold.Chemscore.Metal.Weighted>
-0.0000

> <Gold.Chemscore.Lipo.Weighted>
-9.5771

> <Gold.Chemscore.Internal_Hbond.Weighted>
0.0000

> <Gold.Chemscore.DEClash.Weighted>
0.0029

> <Gold.Chemscore.DEInternal.Weighted>
1.7239

> <Gold.Chemscore.Rot.Weighted>
13.9935

> <Gold.Chemscore.Internal.Correction.Weighted>
   9.000000E+99

> <Gold.Protein.RotatedTorsions>
[ 6907 6896 6895 6894 ] final  -47.82 input  -60.11 | X-H torsion
[ 7974 7965 7964 7962 ] final  121.81 input  175.53 | X-H torsion
[ 8008 7997 7996 7995 ] final   46.13 input   59.86 | X-H torsion
[ 10167 10162 10161 10158 ] final  -53.25 input  -65.29 | X-H torsion
[ 10718 10713 10712 10709 ] final   78.12 input   66.30 | X-H torsion
[ 10763 10752 10751 10750 ] final  175.68 input  -60.55 | X-H torsion
[ 11005 11000 10999 10996 ] final -154.28 input  -57.11 | X-H torsion

> <Gold.Protein.ActiveResidues>
 VAL166  LYS551  ARG553  GLY616  TRP617  ASP618  TYR619  PRO620  LYS621  CYS622 
 ASP623  PHE694  ASN695  SER759  ASP760  ASP761  ALA762  ILE779  LEU786  VAL792 
 PHE793  MET794  SER795  GLU796  ALA797  LYS798  CYS799  TRP800  GLU811  SER814 

> <Gold.Protein.RotatedAtoms>
  150.8968  134.8377  159.7331 H   0  0  0  0  0  0  0  0  0  0  0  0  # atno 6907 bound_to 6896
  152.4869  134.4563  159.9601 H   0  0  0  0  0  0  0  0  0  0  0  0  # atno 6908 bound_to 6896
  151.4619  133.3551  159.2846 H   0  0  0  0  0  0  0  0  0  0  0  0  # atno 6909 bound_to 6896
  145.1150  139.3427  143.4744 H   0  0  0  0  0  0  0  0  0  0  0  0  # atno 7974 bound_to 7965
  155.3474  140.3411  155.4239 H   0  0  0  0  0  0  0  0  0  0  0  0  # atno 8008 bound_to 7997
  156.1782  140.1655  156.8359 H   0  0  0  0  0  0  0  0  0  0  0  0  # atno 8009 bound_to 7997
  154.5305  140.0746  156.8318 H   0  0  0  0  0  0  0  0  0  0  0  0  # atno 8010 bound_to 7997
  140.6495  143.2556  151.4764 H   0  0  0  0  0  0  0  0  0  0  0  0  # atno 10167 bound_to 10162
  157.6734  130.9853  150.1740 H   0  0  0  0  0  0  0  0  0  0  0  0  # atno 10718 bound_to 10713
  154.4708  135.2771  155.1644 H   0  0  0  0  0  0  0  0  0  0  0  0  # atno 10763 bound_to 10752
  154.3393  135.6173  153.5592 H   0  0  0  0  0  0  0  0  0  0  0  0  # atno 10764 bound_to 10752
  152.9864  135.5784  154.5089 H   0  0  0  0  0  0  0  0  0  0  0  0  # atno 10765 bound_to 10752
  140.6990  134.3958  157.5211 H   0  0  0  0  0  0  0  0  0  0  0  0  # atno 11005 bound_to 11000
  146.3524  140.1085  142.8605 LP  0  0  0  0  0  0  0  0  0  0  0  0  # atno 17320 bound_to 7965
  145.0805  140.9217  143.4828 LP  0  0  0  0  0  0  0  0  0  0  0  0  # atno 17321 bound_to 7965
  139.5708  144.1932  152.1834 LP  0  0  0  0  0  0  0  0  0  0  0  0  # atno 17342 bound_to 10162
  140.1228  144.5358  150.6852 LP  0  0  0  0  0  0  0  0  0  0  0  0  # atno 17343 bound_to 10162
  156.2487  130.3698  149.8256 LP  0  0  0  0  0  0  0  0  0  0  0  0  # atno 17370 bound_to 10713
  156.6035  130.8556  151.3437 LP  0  0  0  0  0  0  0  0  0  0  0  0  # atno 17371 bound_to 10713
  139.8902  134.8811  156.2382 LP  0  0  0  0  0  0  0  0  0  0  0  0  # atno 17394 bound_to 11000
  141.0179  133.7058  156.1219 LP  0  0  0  0  0  0  0  0  0  0  0  0  # atno 17395 bound_to 11000

$$$$
