AV-unprocessed.smi:922|AV-procd|sdf|4173|dock5
  -GOLD-   22720 2 83D 1   1.00000     0.00000
 Structure written by MMmdl.
 32 33  0  0  0  0  0  0  0  0  2 V2000
  152.1636  145.3327  158.5657 C   0  0  0  0  0  0  0  0  0  0  0  0
  152.5297  143.8463  158.6194 C   0  0  2  0  0  0  0  0  0  0  0  0
  151.4660  142.9682  157.9345 C   0  0  0  0  0  0  0  0  0  0  0  0
  151.7859  141.5574  158.1056 N   0  0  0  0  0  0  0  0  0  0  0  0
  151.8759  140.6216  157.0738 C   0  0  0  0  0  0  0  0  0  0  0  0
  151.1015  140.8382  155.8265 C   0  0  0  0  0  0  0  0  0  0  0  0
  151.1349  140.0292  154.8434 N   0  0  0  0  0  0  0  0  0  0  0  0
  151.9499  138.8374  154.8905 N   0  5  0  0  0  0  0  0  0  0  0  0
  152.6872  138.5545  156.0063 C   0  0  0  0  0  0  0  0  0  0  0  0
  153.3843  137.5442  156.0859 O   0  0  0  0  0  0  0  0  0  0  0  0
  152.6377  139.4927  157.1358 C   0  0  0  0  0  0  0  0  0  0  0  0
  153.5392  139.0678  158.5549 Cl  0  0  0  0  0  0  0  0  0  0  0  0
  151.8825  141.2125  159.5190 C   0  0  0  0  0  0  0  0  0  0  0  0
  152.9385  142.0867  160.2331 C   0  0  0  0  0  0  0  0  0  0  0  0
  152.8204  141.9019  161.7538 C   0  0  0  0  0  0  0  0  0  0  0  0
  154.3753  141.7378  159.7886 C   0  0  0  0  0  0  0  0  0  0  0  0
  152.6443  143.4682  159.9921 O   0  0  0  0  0  0  0  0  0  0  0  0
  152.0794  145.6781  157.5350 H   0  0  0  0  0  0  0  0  0  0  0  0
  152.9243  145.9387  159.0583 H   0  0  0  0  0  0  0  0  0  0  0  0
  151.2119  145.5235  159.0624 H   0  0  0  0  0  0  0  0  0  0  0  0
  153.4930  143.7222  158.1265 H   0  0  0  0  0  0  0  0  0  0  0  0
  150.4866  143.1562  158.3762 H   0  0  0  0  0  0  0  0  0  0  0  0
  151.3767  143.2197  156.8778 H   0  0  0  0  0  0  0  0  0  0  0  0
  150.4938  141.7462  155.7944 H   0  0  0  0  0  0  0  0  0  0  0  0
  150.9012  141.3536  159.9741 H   0  0  0  0  0  0  0  0  0  0  0  0
  152.1358  140.1588  159.6419 H   0  0  0  0  0  0  0  0  0  0  0  0
  153.0102  140.8678  162.0434 H   0  0  0  0  0  0  0  0  0  0  0  0
  151.8236  142.1670  162.1075 H   0  0  0  0  0  0  0  0  0  0  0  0
  153.5346  142.5319  162.2849 H   0  0  0  0  0  0  0  0  0  0  0  0
  154.6338  140.7176  160.0738 H   0  0  0  0  0  0  0  0  0  0  0  0
  155.1028  142.4042  160.2524 H   0  0  0  0  0  0  0  0  0  0  0  0
  154.5070  141.8052  158.7093 H   0  0  0  0  0  0  0  0  0  0  0  0
  1  2  1  0  0  0  0
  1 18  1  0  0  0  0
  1 19  1  0  0  0  0
  1 20  1  0  0  0  0
  2 17  1  0  0  0  0
  2  3  1  0  0  0  0
  2 21  1  0  0  0  0
  3  4  1  0  0  0  0
  3 22  1  0  0  0  0
  3 23  1  0  0  0  0
  4  5  1  0  0  0  0
  4 13  1  0  0  0  0
  5 11  2  0  0  0  0
  5  6  1  0  0  0  0
  6  7  2  0  0  0  0
  6 24  1  0  0  0  0
  7  8  1  0  0  0  0
  8  9  1  0  0  0  0
  9 10  2  0  0  0  0
  9 11  1  0  0  0  0
 11 12  1  0  0  0  0
 13 14  1  0  0  0  0
 13 25  1  0  0  0  0
 13 26  1  0  0  0  0
 14 15  1  0  0  0  0
 14 16  1  0  0  0  0
 14 17  1  0  0  0  0
 15 27  1  0  0  0  0
 15 28  1  0  0  0  0
 15 29  1  0  0  0  0
 16 30  1  0  0  0  0
 16 31  1  0  0  0  0
 16 32  1  0  0  0  0
M  CHG  1   8  -1
M  END
> <s_m_source_file>
AV-unprocessed.smi

> <i_m_source_file_index>
922

> <i_lp_mmshare_version>
43012

> <i_f3d_flags>
0

> <s_epik_input>
W0NIM11bQ0BASF0oTzEpW0NIMl1OKFtDSDJdQzEoW0NIM10pW0NIM10pYzJbY0hdbltuSF1jKD1PKWMyQ2w=

> <s_epik_cmdline>
J2VwaWtfcHl0aG9uJywgJy1waCcsICc3LjAnLCAnLXRuJywgJzgnLCAnLW1hJywgJzIwMCcsICctbWV0YWxfYmluZGluZycsICctaW1hZScsICc8aW5maWxlLm1hZT4nLCAnLW9tYWUnLCAnPG91dGZpbGUubWFlPic=

> <r_lp_tautomer_probability>
1

> <r_epik_Ionization_Penalty>
2.48086

> <r_epik_Ionization_Penalty_Charging>
0.00187014

> <r_epik_Ionization_Penalty_Neutral>
2.47899

> <r_epik_State_Penalty>
0.0455822

> <r_epik_Charging_Adjusted_Penalty>
0.0474524

> <i_epik_Tot_Q>
-1

> <i_epik_Tot_abs_Q>
1

> <r_epik_Metal_State_Penalty>
0.000768086

> <b_epik_Metal_Only>
0

> <s_lp_Force_Field>
OPLS_2005

> <r_lp_Energy>
41.3096

> <b_lp_Chiralities_Consistent>
1

> <s_lp_Variant>
AV-unprocessed.smi:922-1

> <Gold.Version>
5.8.1

> <Gold.Id.Protein>
6NUR|6NUR_protein|mol2

> <Gold.PLP.Fitness>
36.1306

> <Gold.PLP.PLP>
-36.0337

> <Gold.PLP.part.hbond>
-2.0000

> <Gold.PLP.part.metal>
0.0000

> <Gold.PLP.part.buried>
-4.2047

> <Gold.PLP.part.nonpolar>
-29.3402

> <Gold.PLP.part.repulsive>
0.1007

> <Gold.PLP.ligand.clash>
4.0330

> <Gold.PLP.ligand.torsion>
0.3634

> <Gold.PLP.Chemscore.Hbond>
1.3003

> <Gold.PLP.Chemscore.CHOScore>
0.0000

> <Gold.PLP.Chemscore.Metal>
0.0000

> <Gold.Chemscore.Hbonds>
donor molecule, donor type, donor heavy atom, donor atom, acceptor molecule, acceptor atom, score
      P1  H  7989  7998       L1     7  1.00
      P1  H 10752 10764       L1    10  0.18

> <Gold.PLP.Chemscore.Internal.Correction>
0.9558

> <Gold.Rescore>
     Score         DG    S(hbond)    S(metal)    S(lipo)     H(rot)  DE(clash)    DE(int)     intcor
     20.70     -22.23       1.59        0.00      97.83       0.00       0.00       1.52       ----

> <Gold.Chemscore.Fitness>
20.7036

> <Gold.Chemscore.DG>
-22.2290

> <Gold.Chemscore.ZeroCoef>
-5.4800

> <Gold.Chemscore.Hbond>
1.5878

> <Gold.Chemscore.Metal>
0.0000

> <Gold.Chemscore.Lipo>
97.8273

> <Gold.Chemscore.Internal_Hbond>
0.0000

> <Gold.Chemscore.DEClash>
0.0038

> <Gold.Chemscore.DEInternal>
1.5216

> <Gold.Chemscore.Rot>
0.0000

> <Gold.Chemscore.Internal.Correction>
   9.000000E+99

> <Gold.Chemscore.Hbonds>
donor molecule, donor type, donor heavy atom, donor atom, acceptor molecule, acceptor atom, score
      P1  H  7989  7998       L1     7  0.36
      P1  H 10752 10764       L1    10  0.18

> <Gold.Chemscore.Hbond.Weighted>
-5.3032

> <Gold.Chemscore.Metal.Weighted>
-0.0000

> <Gold.Chemscore.Lipo.Weighted>
-11.4458

> <Gold.Chemscore.Internal_Hbond.Weighted>
0.0000

> <Gold.Chemscore.DEClash.Weighted>
0.0038

> <Gold.Chemscore.DEInternal.Weighted>
1.5216

> <Gold.Chemscore.Rot.Weighted>
0.0000

> <Gold.Chemscore.Internal.Correction.Weighted>
   9.000000E+99

> <Gold.Protein.RotatedTorsions>
[ 6907 6896 6895 6894 ] final  -33.31 input  -60.11 | X-H torsion
[ 7974 7965 7964 7962 ] final  105.57 input  175.53 | X-H torsion
[ 8008 7997 7996 7995 ] final -131.86 input   59.86 | X-H torsion
[ 10167 10162 10161 10158 ] final   35.73 input  -65.29 | X-H torsion
[ 10718 10713 10712 10709 ] final   18.68 input   66.30 | X-H torsion
[ 10763 10752 10751 10750 ] final  -16.33 input  -60.55 | X-H torsion
[ 11005 11000 10999 10996 ] final  -71.26 input  -57.11 | X-H torsion

> <Gold.Protein.ActiveResidues>
 VAL166  LYS551  ARG553  GLY616  TRP617  ASP618  TYR619  PRO620  LYS621  CYS622 
 ASP623  PHE694  ASN695  SER759  ASP760  ASP761  ALA762  ILE779  LEU786  VAL792 
 PHE793  MET794  SER795  GLU796  ALA797  LYS798  CYS799  TRP800  GLU811  SER814 

> <Gold.Protein.RotatedAtoms>
  151.0673  134.9776  159.8290 H   0  0  0  0  0  0  0  0  0  0  0  0  # atno 6907 bound_to 6896
  152.5404  134.2343  159.8847 H   0  0  0  0  0  0  0  0  0  0  0  0  # atno 6908 bound_to 6896
  151.2366  133.4379  159.2639 H   0  0  0  0  0  0  0  0  0  0  0  0  # atno 6909 bound_to 6896
  145.3179  139.2521  143.3728 H   0  0  0  0  0  0  0  0  0  0  0  0  # atno 7974 bound_to 7965
  155.3193  140.0461  157.3038 H   0  0  0  0  0  0  0  0  0  0  0  0  # atno 8008 bound_to 7997
  154.5389  140.2281  155.8641 H   0  0  0  0  0  0  0  0  0  0  0  0  # atno 8009 bound_to 7997
  156.1861  140.3062  155.9248 H   0  0  0  0  0  0  0  0  0  0  0  0  # atno 8010 bound_to 7997
  140.4195  144.1480  150.6146 H   0  0  0  0  0  0  0  0  0  0  0  0  # atno 10167 bound_to 10162
  157.0997  130.6463  149.5869 H   0  0  0  0  0  0  0  0  0  0  0  0  # atno 10718 bound_to 10713
  153.5568  135.7010  153.5565 H   0  0  0  0  0  0  0  0  0  0  0  0  # atno 10763 bound_to 10752
  153.3465  135.4007  155.1612 H   0  0  0  0  0  0  0  0  0  0  0  0  # atno 10764 bound_to 10752
  154.8653  135.3755  154.5083 H   0  0  0  0  0  0  0  0  0  0  0  0  # atno 10765 bound_to 10752
  141.1589  133.6812  156.6879 H   0  0  0  0  0  0  0  0  0  0  0  0  # atno 11005 bound_to 11000
  146.3093  140.3730  142.8676 LP  0  0  0  0  0  0  0  0  0  0  0  0  # atno 17320 bound_to 7965
  144.8963  140.7587  143.5895 LP  0  0  0  0  0  0  0  0  0  0  0  0  # atno 17321 bound_to 7965
  140.4550  143.2471  151.9297 LP  0  0  0  0  0  0  0  0  0  0  0  0  # atno 17342 bound_to 10162
  139.4782  144.5525  151.8364 LP  0  0  0  0  0  0  0  0  0  0  0  0  # atno 17343 bound_to 10162
  155.9877  130.4917  150.7135 LP  0  0  0  0  0  0  0  0  0  0  0  0  # atno 17370 bound_to 10713
  157.4651  131.0887  151.0703 LP  0  0  0  0  0  0  0  0  0  0  0  0  # atno 17371 bound_to 10713
  140.3053  134.8131  157.4131 LP  0  0  0  0  0  0  0  0  0  0  0  0  # atno 17394 bound_to 11000
  140.1226  134.5199  155.8171 LP  0  0  0  0  0  0  0  0  0  0  0  0  # atno 17395 bound_to 11000

$$$$
