#       Name:                AV-unprocessed.smi:1645
#       Creating user name   scv26
#       Creation time:       Fri Mar 27 07:31:25 2020


#       File generated by GOLD software.
#

@<TRIPOS>MOLECULE
AV-unprocessed.smi:1645
    59    62     1
SMALL
NO_CHARGES


@<TRIPOS>ATOM
      1 ****        -0.9392   1.2869  -0.2033 O.2            1 S1                 0.0000
      2 ****        -1.2963   0.1608  -0.5483 C.2            1 S1                 0.0000
      3 ****        -0.4837  -0.8991  -0.7004 N.am           1 S1                 0.0000
      4 ****         0.9330  -0.9518  -0.5940 C.ar           1 S1                 0.0000
      5 ****         1.5365  -2.2186  -0.4548 C.ar           1 S1                 0.0000
      6 ****         2.9400  -2.3238  -0.3701 C.ar           1 S1                 0.0000
      7 ****         3.7417  -1.1563  -0.4363 C.ar           1 S1                 0.0000
      8 ****         5.1537  -1.1622  -0.3619 N.3            1 S1                 0.0000
      9 ****         5.8559  -0.2779  -1.2985 C.3            1 S1                 0.0000
     10 ****         7.3144  -0.0441  -0.8698 C.3            1 S1                 0.0000
     11 ****         8.0454  -1.3744  -0.6462 C.3            1 S1                 0.0000
     12 ****         7.2750  -2.2243   0.3727 C.3            1 S1                 0.0000
     13 ****         5.8164  -2.4349  -0.0682 C.3            1 S1                 0.0000
     14 ****         3.1142   0.0367  -0.5776 N.pl3          1 S1                 1.0000
     15 ****         1.7744   0.1837  -0.6600 C.ar           1 S1                 0.0000
     16 ****        -2.5724  -0.1645  -0.7994 N.am           1 S1                 0.0000
     17 ****        -3.7057   0.7533  -0.7202 C.3            1 S1                 0.0000
     18 ****        -4.8274   0.4094  -1.6933 C.3            1 S1                 0.0000
     19 ****        -6.0180   1.1529  -1.0859 C.3            1 S1                 0.0000
     20 ****        -5.8219   1.1014   0.3810 N.4            1 S1                 1.0000
     21 ****        -6.3062   2.2970   1.1132 C.3            1 S1                 0.0000
     22 ****        -6.0644   2.1401   2.6258 C.3            1 S1                 0.0000
     23 ****        -4.6114   1.7491   2.9682 C.3            1 S1                 0.0000
     24 ****        -3.7314   1.6011   1.7169 C.3            1 S1                 0.0000
     25 ****        -4.4076   0.7125   0.6482 C.3            1 S1                 0.0000
     26 ****        -0.9350  -1.7798  -0.9001 H              1 S1                 0.0000
     27 ****         0.9299  -3.1116  -0.4122 H              1 S1                 0.0000
     28 ****         3.3747  -3.3067  -0.2695 H              1 S1                 0.0000
     29 ****         5.8284  -0.7316  -2.2900 H              1 S1                 0.0000
     30 ****         5.3656   0.6916  -1.3836 H              1 S1                 0.0000
     31 ****         7.8340   0.5465  -1.6248 H              1 S1                 0.0000
     32 ****         7.3351   0.5425   0.0496 H              1 S1                 0.0000
     33 ****         8.1310  -1.9140  -1.5903 H              1 S1                 0.0000
     34 ****         9.0615  -1.1918  -0.2951 H              1 S1                 0.0000
     35 ****         7.7665  -3.1884   0.5047 H              1 S1                 0.0000
     36 ****         7.2934  -1.7314   1.3457 H              1 S1                 0.0000
     37 ****         5.2922  -2.9599   0.7307 H              1 S1                 0.0000
     38 ****         5.7805  -3.0691  -0.9550 H              1 S1                 0.0000
     39 ****         1.4402   1.2019  -0.7896 H              1 S1                 0.0000
     40 ****        -2.7751  -1.1151  -1.0734 H              1 S1                 0.0000
     41 ****        -3.3824   1.7737  -0.9385 H              1 S1                 0.0000
     42 ****        -4.6139   0.7188  -2.7170 H              1 S1                 0.0000
     43 ****        -5.0188  -0.6649  -1.6949 H              1 S1                 0.0000
     44 ****        -6.0046   2.1896  -1.4263 H              1 S1                 0.0000
     45 ****        -6.9752   0.7194  -1.3769 H              1 S1                 0.0000
     46 ****        -5.7995   3.1894   0.7419 H              1 S1                 0.0000
     47 ****        -7.3702   2.4356   0.9175 H              1 S1                 0.0000
     48 ****        -6.3304   3.0665   3.1359 H              1 S1                 0.0000
     49 ****        -6.7391   1.3782   3.0187 H              1 S1                 0.0000
     50 ****        -4.1726   2.4867   3.6408 H              1 S1                 0.0000
     51 ****        -4.6150   0.8064   3.5168 H              1 S1                 0.0000
     52 ****        -3.5261   2.5900   1.3046 H              1 S1                 0.0000
     53 ****        -2.7627   1.1850   1.9945 H              1 S1                 0.0000
     54 ****        -4.4417  -0.3167   1.0098 H              1 S1                 0.0000
     55 ****        -6.3775   0.3267   0.7147 H              1 S1                 0.0000
     56 ****         3.6894   0.8777  -0.6275 H              1 S1                 0.0000
     57 ****         0.0253   1.4687  -0.0113 LP             1 S1                 0.0000
     58 ****        -1.6134   2.0201  -0.1149 LP             1 S1                 0.0000
     59 ****         5.2742  -0.6944   0.5137 LP             1 S1                 0.0000
@<TRIPOS>BOND
    1    1    2 2     
    2    2    3 am    
    3    2   16 am    
    4    3    4 1     
    5    3   26 1     
    6    4   15 ar    
    7    4    5 ar    
    8    5    6 ar    
    9    5   27 1     
   10    6    7 ar    
   11    6   28 1     
   12    7    8 1     
   13    7   14 ar    
   14    8   13 1     
   15    8    9 1     
   16    9   10 1     
   17    9   29 1     
   18    9   30 1     
   19   10   11 1     
   20   10   31 1     
   21   10   32 1     
   22   11   12 1     
   23   11   33 1     
   24   11   34 1     
   25   12   13 1     
   26   12   35 1     
   27   12   36 1     
   28   13   37 1     
   29   13   38 1     
   30   14   15 ar    
   31   14   56 1     
   32   15   39 1     
   33   16   17 1     
   34   16   40 1     
   35   17   25 1     
   36   17   18 1     
   37   17   41 1     
   38   18   19 1     
   39   18   42 1     
   40   18   43 1     
   41   19   20 1     
   42   19   44 1     
   43   19   45 1     
   44   20   25 1     
   45   20   21 1     
   46   20   55 1     
   47   21   22 1     
   48   21   46 1     
   49   21   47 1     
   50   22   23 1     
   51   22   48 1     
   52   22   49 1     
   53   23   24 1     
   54   23   50 1     
   55   23   51 1     
   56   24   25 1     
   57   24   52 1     
   58   24   53 1     
   59   25   54 1     
   60    1   57 1     
   61    1   58 1     
   62    8   59 1     
@<TRIPOS>SUBSTRUCTURE
      1 S1             1
@<TRIPOS>SET
LONE_PAIRS      STATIC     ATOMS    <user>   **** ""
3 57 58 59
DONOR_HYDROGENS      STATIC     ATOMS    <user>   **** ""
4 26 56 40 55
ATOM$BLUE        STATIC     ATOMS    COLORGROUP SYSTEM
3 57 58 59
ATOM$RED        STATIC     ATOMS    COLORGROUP SYSTEM
4 26 56 40 55
