AV-unprocessed.smi:3078|AV-procd|sdf|11736|dock4
  -GOLD-   2272017133D 1   1.00000     0.00000
 Structure written by MMmdl.
 24 24  0  0  0  0  0  0  0  0  3 V2000
  151.8864  138.4212  154.7444 C   0  0  0  0  0  0  0  0  0  0  0  0
  150.6092  139.0673  154.5293 N   0  0  0  0  0  0  0  0  0  0  0  0
  149.4090  138.5014  154.1585 C   0  0  0  0  0  0  0  0  0  0  0  0
  148.4841  139.5074  154.0830 C   0  0  0  0  0  0  0  0  0  0  0  0
  147.0215  139.4398  153.7217 C   0  0  1  0  0  0  0  0  0  0  0  0
  146.4843  140.8062  153.5895 N   0  3  0  0  0  0  0  0  0  0  0  0
  146.7647  138.6236  152.4393 C   0  0  0  0  0  0  0  0  0  0  0  0
  145.3264  138.5243  152.1271 N   0  3  0  0  0  0  0  0  0  0  0  0
  149.2356  140.6678  154.4280 C   0  0  0  0  0  0  0  0  0  0  0  0
  150.5018  140.4006  154.6975 N   0  0  0  0  0  0  0  0  0  0  0  0
  151.8405  137.3817  154.4178 H   0  0  0  0  0  0  0  0  0  0  0  0
  152.1393  138.4497  155.8046 H   0  0  0  0  0  0  0  0  0  0  0  0
  152.6629  138.9355  154.1770 H   0  0  0  0  0  0  0  0  0  0  0  0
  149.3152  137.4399  153.9810 H   0  0  0  0  0  0  0  0  0  0  0  0
  146.4618  138.9750  154.5347 H   0  0  0  0  0  0  0  0  0  0  0  0
  147.0761  141.3412  152.9693 H   0  0  0  0  0  0  0  0  0  0  0  0
  146.4606  141.2533  154.4950 H   0  0  0  0  0  0  0  0  0  0  0  0
  147.2604  139.0942  151.5895 H   0  0  0  0  0  0  0  0  0  0  0  0
  147.1774  137.6180  152.5289 H   0  0  0  0  0  0  0  0  0  0  0  0
  144.8405  139.3224  152.5117 H   0  0  0  0  0  0  0  0  0  0  0  0
  144.9469  137.6783  152.5282 H   0  0  0  0  0  0  0  0  0  0  0  0
  148.8982  141.6919  154.4930 H   0  0  0  0  0  0  0  0  0  0  0  0
  145.1972  138.5061  151.1251 H   0  0  0  0  0  0  0  0  0  0  0  0
  145.5499  140.7706  153.2074 H   0  0  0  0  0  0  0  0  0  0  0  0
  1  2  1  0  0  0  0
  1 11  1  0  0  0  0
  1 12  1  0  0  0  0
  1 13  1  0  0  0  0
  2 10  1  0  0  0  0
  2  3  1  0  0  0  0
  3  4  2  0  0  0  0
  3 14  1  0  0  0  0
  4  5  1  0  0  0  0
  4  9  1  0  0  0  0
  5  6  1  0  0  0  0
  5  7  1  0  0  0  0
  5 15  1  0  0  0  0
  6 16  1  0  0  0  0
  6 17  1  0  0  0  0
  6 24  1  0  0  0  0
  7  8  1  0  0  0  0
  7 18  1  0  0  0  0
  7 19  1  0  0  0  0
  8 20  1  0  0  0  0
  8 21  1  0  0  0  0
  8 23  1  0  0  0  0
  9 10  2  0  0  0  0
  9 22  1  0  0  0  0
M  CHG  1   6   1
M  CHG  1   8   1
M  END
> <s_m_source_file>
AV-unprocessed.smi

> <i_m_source_file_index>
3078

> <i_lp_mmshare_version>
43012

> <i_f3d_flags>
0

> <s_epik_input>
W0NIM11uMVtjSF1jKFtjSF1uMSlbQ0BIXShbTkgyXSlbQ0gyXVtOSDJd

> <s_epik_cmdline>
J2VwaWtfcHl0aG9uJywgJy1waCcsICc3LjAnLCAnLXRuJywgJzgnLCAnLW1hJywgJzIwMCcsICctbWV0YWxfYmluZGluZycsICctaW1hZScsICc8aW5maWxlLm1hZT4nLCAnLW9tYWUnLCAnPG91dGZpbGUubWFlPic=

> <r_lp_tautomer_probability>
1

> <r_epik_Ionization_Penalty>
2.39325

> <r_epik_Ionization_Penalty_Charging>
2.39325

> <r_epik_Ionization_Penalty_Neutral>
1.68997e-07

> <r_epik_State_Penalty>
1.77229

> <r_epik_Charging_Adjusted_Penalty>
4.16555

> <i_epik_Tot_Q>
2

> <i_epik_Tot_abs_Q>
2

> <r_epik_Metal_State_Penalty>
1.77233

> <b_epik_Metal_Only>
0

> <s_lp_Force_Field>
OPLS_2005

> <r_lp_Energy>
8.51806

> <b_lp_Chiralities_Consistent>
1

> <s_lp_Variant>
AV-unprocessed.smi:3078-6

> <Gold.Version>
5.8.1

> <Gold.Id.Protein>
6NUR|6NUR_protein|mol2

> <Gold.PLP.Fitness>
42.1571

> <Gold.PLP.PLP>
-21.9323

> <Gold.PLP.part.hbond>
-4.0000

> <Gold.PLP.part.metal>
0.0000

> <Gold.PLP.part.buried>
-1.6792

> <Gold.PLP.part.nonpolar>
-17.2709

> <Gold.PLP.part.repulsive>
0.1323

> <Gold.PLP.ligand.clash>
0.0000

> <Gold.PLP.ligand.torsion>
0.1867

> <Gold.PLP.Chemscore.Hbond>
5.9120

> <Gold.PLP.Chemscore.CHOScore>
0.9485

> <Gold.PLP.Chemscore.Metal>
0.0000

> <Gold.Chemscore.Hbonds>
donor molecule, donor type, donor heavy atom, donor atom, acceptor molecule, acceptor atom, score
      L1  H     6    24       P1 10175  2.00
      L1  H     8    20       P1 10175  2.00
      L1  H     8    23       P1 10171  0.85
      P1  H  7989  7998       L1    10  0.90
      L1  C     3    14       P1  7948  0.98

> <Gold.PLP.Chemscore.Internal.Correction>
0.0169

> <Gold.Rescore>
     Score         DG    S(hbond)    S(metal)    S(lipo)     H(rot)  DE(clash)    DE(int)     intcor
     18.22     -18.97       3.78        0.00      38.82       1.43       0.63       0.12       ----

> <Gold.Chemscore.Fitness>
18.2235

> <Gold.Chemscore.DG>
-18.9735

> <Gold.Chemscore.ZeroCoef>
-5.4800

> <Gold.Chemscore.Hbond>
3.7765

> <Gold.Chemscore.Metal>
0.0000

> <Gold.Chemscore.Lipo>
38.8183

> <Gold.Chemscore.Internal_Hbond>
0.0000

> <Gold.Chemscore.DEClash>
0.6333

> <Gold.Chemscore.DEInternal>
0.1167

> <Gold.Chemscore.Rot>
1.4304

> <Gold.Chemscore.Internal.Correction>
   9.000000E+99

> <Gold.Chemscore.Hbonds>
donor molecule, donor type, donor heavy atom, donor atom, acceptor molecule, acceptor atom, score
      L1  H     6    24       P1 10175  0.66
      L1  H     8    20       P1 10175  0.95
      L1  H     8    23       P1 10171  0.83
      P1  H  7989  7998       L1    10  0.16

> <Gold.Chemscore.Hbond.Weighted>
-12.6136

> <Gold.Chemscore.Metal.Weighted>
-0.0000

> <Gold.Chemscore.Lipo.Weighted>
-4.5417

> <Gold.Chemscore.Internal_Hbond.Weighted>
0.0000

> <Gold.Chemscore.DEClash.Weighted>
0.6333

> <Gold.Chemscore.DEInternal.Weighted>
0.1167

> <Gold.Chemscore.Rot.Weighted>
3.6618

> <Gold.Chemscore.Internal.Correction.Weighted>
   9.000000E+99

> <Gold.Protein.RotatedTorsions>
[ 6907 6896 6895 6894 ] final   88.08 input  -60.11 | X-H torsion
[ 7974 7965 7964 7962 ] final   -7.81 input  175.53 | X-H torsion
[ 8008 7997 7996 7995 ] final  -65.67 input   59.86 | X-H torsion
[ 10167 10162 10161 10158 ] final  159.66 input  -65.29 | X-H torsion
[ 10718 10713 10712 10709 ] final   70.21 input   66.30 | X-H torsion
[ 10763 10752 10751 10750 ] final  -17.81 input  -60.55 | X-H torsion
[ 11005 11000 10999 10996 ] final  161.06 input  -57.11 | X-H torsion

> <Gold.Protein.ActiveResidues>
 VAL166  LYS551  ARG553  GLY616  TRP617  ASP618  TYR619  PRO620  LYS621  CYS622 
 ASP623  PHE694  ASN695  SER759  ASP760  ASP761  ALA762  ILE779  LEU786  VAL792 
 PHE793  MET794  SER795  GLU796  ALA797  LYS798  CYS799  TRP800  GLU811  SER814 

> <Gold.Protein.RotatedAtoms>
  152.5420  134.2177  159.8774 H   0  0  0  0  0  0  0  0  0  0  0  0  # atno 6907 bound_to 6896
  151.2156  133.4524  159.2607 H   0  0  0  0  0  0  0  0  0  0  0  0  # atno 6908 bound_to 6896
  151.0855  134.9897  159.8432 H   0  0  0  0  0  0  0  0  0  0  0  0  # atno 6909 bound_to 6896
  146.2297  140.2375  142.8342 H   0  0  0  0  0  0  0  0  0  0  0  0  # atno 7974 bound_to 7965
  154.4686  140.0928  156.7087 H   0  0  0  0  0  0  0  0  0  0  0  0  # atno 8008 bound_to 7997
  155.4786  140.3467  155.4318 H   0  0  0  0  0  0  0  0  0  0  0  0  # atno 8009 bound_to 7997
  156.1000  140.1420  156.9468 H   0  0  0  0  0  0  0  0  0  0  0  0  # atno 8010 bound_to 7997
  139.4834  144.4709  151.8578 H   0  0  0  0  0  0  0  0  0  0  0  0  # atno 10167 bound_to 10162
  157.6388  130.9465  150.0620 H   0  0  0  0  0  0  0  0  0  0  0  0  # atno 10718 bound_to 10713
  153.5796  135.7005  153.5469 H   0  0  0  0  0  0  0  0  0  0  0  0  # atno 10763 bound_to 10752
  153.3273  135.4057  155.1466 H   0  0  0  0  0  0  0  0  0  0  0  0  # atno 10764 bound_to 10752
  154.8620  135.3710  154.5322 H   0  0  0  0  0  0  0  0  0  0  0  0  # atno 10765 bound_to 10752
  140.2120  134.8260  157.3131 H   0  0  0  0  0  0  0  0  0  0  0  0  # atno 11005 bound_to 11000
  144.9510  140.8178  143.5572 LP  0  0  0  0  0  0  0  0  0  0  0  0  # atno 17320 bound_to 7965
  145.2335  139.2104  143.5030 LP  0  0  0  0  0  0  0  0  0  0  0  0  # atno 17321 bound_to 7965
  140.4178  144.2284  150.5887 LP  0  0  0  0  0  0  0  0  0  0  0  0  # atno 17342 bound_to 10162
  140.4904  143.2349  151.8827 LP  0  0  0  0  0  0  0  0  0  0  0  0  # atno 17343 bound_to 10162
  156.1650  130.3645  149.9246 LP  0  0  0  0  0  0  0  0  0  0  0  0  # atno 17370 bound_to 10713
  156.7235  130.9016  151.3620 LP  0  0  0  0  0  0  0  0  0  0  0  0  # atno 17371 bound_to 10713
  140.1940  134.4336  155.7699 LP  0  0  0  0  0  0  0  0  0  0  0  0  # atno 17394 bound_to 11000
  141.2226  133.7040  156.8075 LP  0  0  0  0  0  0  0  0  0  0  0  0  # atno 17395 bound_to 11000

$$$$
