AV-unprocessed.smi:240|AV-procd|sdf|1831|dock8
  -GOLD-   2262020433D 1   1.00000     0.00000
 Structure written by MMmdl.
 55 59  0  0  0  0  0  0  0  0  1 V2000
  150.1544  140.8865  153.7300 O   0  0  0  0  0  0  0  0  0  0  0  0
  149.2264  141.6237  154.4994 C   0  0  1  0  0  0  0  0  0  0  0  0
  147.7877  141.2977  154.1008 C   0  0  0  0  0  0  0  0  0  0  0  0
  146.9522  141.7162  155.3148 C   0  0  0  0  0  0  0  0  0  0  0  0
  147.8909  141.6438  156.5306 C   0  0  0  0  0  0  0  0  0  0  0  0
  149.2758  141.2438  155.9857 C   0  0  2  0  0  0  0  0  0  0  0  0
  150.5061  141.7712  156.7852 C   0  0  1  0  0  0  0  0  0  0  0  0
  150.1302  142.4911  158.1058 C   0  0  0  0  0  0  0  0  0  0  0  0
  151.3021  142.9585  158.7639 O   0  0  0  0  0  0  0  0  0  0  0  0
  152.1692  141.8916  159.1230 C   0  0  0  0  0  0  0  0  0  0  0  0
  152.6363  141.1805  157.8468 C   0  0  0  0  0  0  0  0  0  0  0  0
  151.4896  140.7176  157.0738 N   0  0  0  0  0  0  0  0  0  0  0  0
  151.8973  139.9491  156.0382 C   0  0  0  0  0  0  0  0  0  0  0  0
  152.7307  140.5254  155.1375 N   0  0  0  0  0  0  0  0  0  0  0  0
  153.1756  139.8205  154.0930 C   0  0  0  0  0  0  0  0  0  0  0  0
  152.9087  138.5543  153.7655 N   0  0  0  0  0  0  0  0  0  0  0  0
  152.0585  137.9767  154.6627 C   0  0  0  0  0  0  0  0  0  0  0  0
  151.5086  138.5962  155.8197 C   0  0  0  0  0  0  0  0  0  0  0  0
  150.6890  137.6981  156.4926 N   0  0  0  0  0  0  0  0  0  0  0  0
  150.7572  136.6080  155.7788 C   0  0  0  0  0  0  0  0  0  0  0  0
  151.5474  136.6902  154.6542 N   0  0  0  0  0  0  0  0  0  0  0  0
  151.7963  135.6378  153.6805 C   0  0  0  0  0  0  0  0  0  0  0  0
  150.5060  135.0089  153.1025 C   0  0  1  0  0  0  0  0  0  0  0  0
  149.5679  136.0359  152.8298 O   0  0  0  0  0  0  0  0  0  0  0  0
  150.7540  134.2338  151.8140 C   0  0  0  0  0  0  0  0  0  0  0  0
  149.6676  133.1676  151.8471 C   0  0  0  0  0  0  0  0  0  0  0  0
  149.6340  132.7964  153.2143 O   0  0  0  0  0  0  0  0  0  0  0  0
  149.8321  133.9599  154.0123 C   0  0  0  0  0  0  0  0  0  0  0  0
  149.7829  140.7347  152.8743 H   0  0  0  0  0  0  0  0  0  0  0  0
  149.3972  142.6893  154.3522 H   0  0  0  0  0  0  0  0  0  0  0  0
  147.4793  141.8009  153.1839 H   0  0  0  0  0  0  0  0  0  0  0  0
  147.6778  140.2236  153.9419 H   0  0  0  0  0  0  0  0  0  0  0  0
  146.5994  142.7402  155.1865 H   0  0  0  0  0  0  0  0  0  0  0  0
  146.0737  141.0814  155.4357 H   0  0  0  0  0  0  0  0  0  0  0  0
  147.9096  142.6102  157.0319 H   0  0  0  0  0  0  0  0  0  0  0  0
  147.5390  140.9154  157.2621 H   0  0  0  0  0  0  0  0  0  0  0  0
  149.3005  140.1530  156.0004 H   0  0  0  0  0  0  0  0  0  0  0  0
  151.0023  142.5159  156.1631 H   0  0  0  0  0  0  0  0  0  0  0  0
  149.5037  143.3601  157.9125 H   0  0  0  0  0  0  0  0  0  0  0  0
  149.5740  141.8420  158.7821 H   0  0  0  0  0  0  0  0  0  0  0  0
  153.0254  142.2943  159.6643 H   0  0  0  0  0  0  0  0  0  0  0  0
  151.6613  141.1983  159.7956 H   0  0  0  0  0  0  0  0  0  0  0  0
  153.2340  141.8627  157.2402 H   0  0  0  0  0  0  0  0  0  0  0  0
  153.2770  140.3373  158.1097 H   0  0  0  0  0  0  0  0  0  0  0  0
  153.8415  140.3457  153.4243 H   0  0  0  0  0  0  0  0  0  0  0  0
  150.2248  135.7096  156.0551 H   0  0  0  0  0  0  0  0  0  0  0  0
  152.4046  136.0529  152.8758 H   0  0  0  0  0  0  0  0  0  0  0  0
  152.4069  134.8710  154.1592 H   0  0  0  0  0  0  0  0  0  0  0  0
  149.7799  136.4217  151.9938 H   0  0  0  0  0  0  0  0  0  0  0  0
  150.7225  134.8520  150.9156 H   0  0  0  0  0  0  0  0  0  0  0  0
  151.7296  133.7467  151.8465 H   0  0  0  0  0  0  0  0  0  0  0  0
  148.7014  133.5815  151.5546 H   0  0  0  0  0  0  0  0  0  0  0  0
  149.8896  132.3161  151.2034 H   0  0  0  0  0  0  0  0  0  0  0  0
  150.4572  133.6818  154.8601 H   0  0  0  0  0  0  0  0  0  0  0  0
  148.8777  134.3086  154.4102 H   0  0  0  0  0  0  0  0  0  0  0  0
  1  2  1  0  0  0  0
  1 29  1  0  0  0  0
  2  6  1  0  0  0  0
  2  3  1  0  0  0  0
  2 30  1  0  0  0  0
  3  4  1  0  0  0  0
  3 31  1  0  0  0  0
  3 32  1  0  0  0  0
  4  5  1  0  0  0  0
  4 33  1  0  0  0  0
  4 34  1  0  0  0  0
  5  6  1  0  0  0  0
  5 35  1  0  0  0  0
  5 36  1  0  0  0  0
  6  7  1  0  0  0  0
  6 37  1  0  0  0  0
  7 12  1  0  0  0  0
  7  8  1  0  0  0  0
  7 38  1  0  0  0  0
  8  9  1  0  0  0  0
  8 39  1  0  0  0  0
  8 40  1  0  0  0  0
  9 10  1  0  0  0  0
 10 11  1  0  0  0  0
 10 41  1  0  0  0  0
 10 42  1  0  0  0  0
 11 12  1  0  0  0  0
 11 43  1  0  0  0  0
 11 44  1  0  0  0  0
 12 13  1  0  0  0  0
 13 18  1  0  0  0  0
 13 14  2  0  0  0  0
 14 15  1  0  0  0  0
 15 16  2  0  0  0  0
 15 45  1  0  0  0  0
 16 17  1  0  0  0  0
 17 21  1  0  0  0  0
 17 18  2  0  0  0  0
 18 19  1  0  0  0  0
 19 20  2  0  0  0  0
 20 21  1  0  0  0  0
 20 46  1  0  0  0  0
 21 22  1  0  0  0  0
 22 23  1  0  0  0  0
 22 47  1  0  0  0  0
 22 48  1  0  0  0  0
 23 28  1  0  0  0  0
 23 24  1  0  0  0  0
 23 25  1  0  0  0  0
 24 49  1  0  0  0  0
 25 26  1  0  0  0  0
 25 50  1  0  0  0  0
 25 51  1  0  0  0  0
 26 27  1  0  0  0  0
 26 52  1  0  0  0  0
 26 53  1  0  0  0  0
 27 28  1  0  0  0  0
 28 54  1  0  0  0  0
 28 55  1  0  0  0  0
M  END
> <s_m_source_file>
AV-unprocessed.smi

> <i_m_source_file_index>
240

> <i_lp_mmshare_version>
43012

> <i_f3d_flags>
0

> <s_epik_input>
W09IXVtDQEBIXTFbQ0gyXVtDSDJdW0NIMl1bQ0BIXTFbQ0BASF0yW0NIMl1PW0NIMl1bQ0gyXU4yYyhuW2NIXW4zKWMoYzM0KW5bY0hdbjRbQ0gyXVtDQEBdNShbT0hdKVtDSDJdW0NIMl1PW0NIMl01

> <s_epik_cmdline>
J2VwaWtfcHl0aG9uJywgJy1waCcsICc3LjAnLCAnLXRuJywgJzgnLCAnLW1hJywgJzIwMCcsICctbWV0YWxfYmluZGluZycsICctaW1hZScsICc8aW5maWxlLm1hZT4nLCAnLW9tYWUnLCAnPG91dGZpbGUubWFlPic=

> <r_lp_tautomer_probability>
1

> <r_epik_Ionization_Penalty>
0.000130618

> <r_epik_Ionization_Penalty_Charging>
0

> <r_epik_Ionization_Penalty_Neutral>
0.000130618

> <r_epik_State_Penalty>
-0

> <r_epik_Charging_Adjusted_Penalty>
0

> <i_epik_Tot_Q>
0

> <i_epik_Tot_abs_Q>
0

> <r_epik_Metal_State_Penalty>
-0

> <b_epik_Metal_Only>
0

> <s_lp_Force_Field>
OPLS_2005

> <r_lp_Energy>
62.0257

> <b_lp_Chiralities_Consistent>
1

> <s_lp_Variant>
AV-unprocessed.smi:240-8

> <Gold.Version>
5.8.1

> <Gold.Id.Protein>
6NUR|6NUR_protein|mol2

> <Gold.PLP.Fitness>
51.5988

> <Gold.PLP.PLP>
-41.0239

> <Gold.PLP.part.hbond>
-4.6518

> <Gold.PLP.part.metal>
0.0000

> <Gold.PLP.part.buried>
-5.5638

> <Gold.PLP.part.nonpolar>
-32.0464

> <Gold.PLP.part.repulsive>
0.1363

> <Gold.PLP.ligand.clash>
0.0000

> <Gold.PLP.ligand.torsion>
1.8293

> <Gold.PLP.Chemscore.Hbond>
4.6800

> <Gold.PLP.Chemscore.CHOScore>
0.0000

> <Gold.PLP.Chemscore.Metal>
0.0000

> <Gold.Chemscore.Hbonds>
donor molecule, donor type, donor heavy atom, donor atom, acceptor molecule, acceptor atom, score
      L1  H     1    29       P1  7957  1.00
      P1  H  7989  7998       L1     1  0.37
      P1  H  7997  8009       L1    14  0.36

> <Gold.PLP.Chemscore.Internal.Correction>
0.1934

> <Gold.Rescore>
     Score         DG    S(hbond)    S(metal)    S(lipo)     H(rot)  DE(clash)    DE(int)     intcor
     17.61     -19.68       3.62        0.00      83.80       3.00       0.14       1.93       ----

> <Gold.Chemscore.Fitness>
17.6127

> <Gold.Chemscore.DG>
-19.6843

> <Gold.Chemscore.ZeroCoef>
-5.4800

> <Gold.Chemscore.Hbond>
3.6196

> <Gold.Chemscore.Metal>
0.0000

> <Gold.Chemscore.Lipo>
83.8024

> <Gold.Chemscore.Internal_Hbond>
0.0000

> <Gold.Chemscore.DEClash>
0.1448

> <Gold.Chemscore.DEInternal>
1.9269

> <Gold.Chemscore.Rot>
3.0039

> <Gold.Chemscore.Internal.Correction>
   9.000000E+99

> <Gold.Chemscore.Hbonds>
donor molecule, donor type, donor heavy atom, donor atom, acceptor molecule, acceptor atom, score
      L1  H     1    29       P1  7957  0.99
      P1  H  7989  7998       L1     1  0.14

> <Gold.Chemscore.Hbond.Weighted>
-12.0894

> <Gold.Chemscore.Metal.Weighted>
-0.0000

> <Gold.Chemscore.Lipo.Weighted>
-9.8049

> <Gold.Chemscore.Internal_Hbond.Weighted>
0.0000

> <Gold.Chemscore.DEClash.Weighted>
0.1448

> <Gold.Chemscore.DEInternal.Weighted>
1.9269

> <Gold.Chemscore.Rot.Weighted>
7.6899

> <Gold.Chemscore.Internal.Correction.Weighted>
   9.000000E+99

> <Gold.Protein.RotatedTorsions>
[ 6907 6896 6895 6894 ] final  -73.83 input  -60.11 | X-H torsion
[ 7974 7965 7964 7962 ] final   78.71 input  175.53 | X-H torsion
[ 8008 7997 7996 7995 ] final -157.69 input   59.86 | X-H torsion
[ 10167 10162 10161 10158 ] final -160.59 input  -65.29 | X-H torsion
[ 10718 10713 10712 10709 ] final -176.52 input   66.30 | X-H torsion
[ 10763 10752 10751 10750 ] final   49.53 input  -60.55 | X-H torsion
[ 11005 11000 10999 10996 ] final   48.84 input  -57.11 | X-H torsion

> <Gold.Protein.ActiveResidues>
 VAL166  LYS551  ARG553  GLY616  TRP617  ASP618  TYR619  PRO620  LYS621  CYS622 
 ASP623  PHE694  ASN695  SER759  ASP760  ASP761  ALA762  ILE779  LEU786  VAL792 
 PHE793  MET794  SER795  GLU796  ALA797  LYS798  CYS799  TRP800  GLU811  SER814 

> <Gold.Protein.RotatedAtoms>
  150.7115  134.4958  159.5537 H   0  0  0  0  0  0  0  0  0  0  0  0  # atno 6907 bound_to 6896
  152.2566  134.8074  160.0446 H   0  0  0  0  0  0  0  0  0  0  0  0  # atno 6908 bound_to 6896
  151.8803  133.3458  159.3801 H   0  0  0  0  0  0  0  0  0  0  0  0  # atno 6909 bound_to 6896
  145.6737  139.2504  143.1854 H   0  0  0  0  0  0  0  0  0  0  0  0  # atno 7974 bound_to 7965
  155.7362  140.0808  157.2266 H   0  0  0  0  0  0  0  0  0  0  0  0  # atno 8008 bound_to 7997
  154.4027  140.1586  156.2619 H   0  0  0  0  0  0  0  0  0  0  0  0  # atno 8009 bound_to 7997
  155.9063  140.3406  155.6067 H   0  0  0  0  0  0  0  0  0  0  0  0  # atno 8010 bound_to 7997
  139.6528  144.0053  152.2173 H   0  0  0  0  0  0  0  0  0  0  0  0  # atno 10167 bound_to 10162
  156.8159  130.9603  151.3114 H   0  0  0  0  0  0  0  0  0  0  0  0  # atno 10718 bound_to 10713
  152.9786  135.5908  154.4104 H   0  0  0  0  0  0  0  0  0  0  0  0  # atno 10763 bound_to 10752
  154.3740  135.2767  155.2252 H   0  0  0  0  0  0  0  0  0  0  0  0  # atno 10764 bound_to 10752
  154.4194  135.6062  153.6055 H   0  0  0  0  0  0  0  0  0  0  0  0  # atno 10765 bound_to 10752
  140.1155  134.4898  155.8641 H   0  0  0  0  0  0  0  0  0  0  0  0  # atno 11005 bound_to 11000
  146.1024  140.7528  142.9543 LP  0  0  0  0  0  0  0  0  0  0  0  0  # atno 17320 bound_to 7965
  144.7048  140.3808  143.7126 LP  0  0  0  0  0  0  0  0  0  0  0  0  # atno 17321 bound_to 7965
  139.9772  144.6453  150.7934 LP  0  0  0  0  0  0  0  0  0  0  0  0  # atno 17342 bound_to 10162
  140.7545  143.3029  151.3035 LP  0  0  0  0  0  0  0  0  0  0  0  0  # atno 17343 bound_to 10162
  157.6482  130.8862  149.9580 LP  0  0  0  0  0  0  0  0  0  0  0  0  # atno 17370 bound_to 10713
  156.1017  130.3655  150.0206 LP  0  0  0  0  0  0  0  0  0  0  0  0  # atno 17371 bound_to 10713
  141.2140  133.6742  156.6788 LP  0  0  0  0  0  0  0  0  0  0  0  0  # atno 17394 bound_to 11000
  140.3034  134.8145  157.4116 LP  0  0  0  0  0  0  0  0  0  0  0  0  # atno 17395 bound_to 11000

$$$$
