AV-unprocessed.smi:972|AV-procd|sdf|4298|dock6
  -GOLD-   22720 2203D 1   1.00000     0.00000
 Structure written by MMmdl.
 50 52  0  0  0  0  0  0  0  0  1 V2000
  146.8414  128.0955  154.1246 C   0  0  0  0  0  0  0  0  0  0  0  0
  147.1735  128.8976  152.8441 C   0  0  0  0  0  0  0  0  0  0  0  0
  148.3018  128.1154  152.1316 C   0  0  0  0  0  0  0  0  0  0  0  0
  145.9304  128.9548  151.9373 C   0  0  0  0  0  0  0  0  0  0  0  0
  147.6244  130.3285  153.1858 C   0  0  0  0  0  0  0  0  0  0  0  0
  147.0020  131.3323  152.5538 N   0  0  0  0  0  0  0  0  0  0  0  0
  147.4750  132.5813  152.7445 C   0  0  0  0  0  0  0  0  0  0  0  0
  148.6086  132.8375  153.5413 C   0  0  0  0  0  0  0  0  0  0  0  0
  149.0430  134.1806  153.7034 N   0  0  0  0  0  0  0  0  0  0  0  0
  149.7069  134.7290  154.7351 C   0  0  0  0  0  0  0  0  0  0  0  0
  150.0747  134.1291  155.7446 O   0  0  0  0  0  0  0  0  0  0  0  0
  149.9388  136.0313  154.5172 N   0  0  0  0  0  0  0  0  0  0  0  0
  150.6500  136.9364  155.4158 C   0  0  0  0  0  0  0  0  0  0  0  0
  149.7192  137.3939  156.5501 C   0  0  0  0  0  0  0  0  0  0  0  0
  150.3914  138.4754  157.4144 C   0  0  0  0  0  0  0  0  0  0  0  0
  150.7697  139.6210  156.5864 N   0  0  0  0  0  0  0  0  0  0  0  0
  151.3601  140.6416  157.4367 C   0  0  0  0  0  0  0  0  0  0  0  0
  150.4334  141.6741  158.0372 C   0  0  0  0  0  0  0  0  0  0  0  0
  151.3706  142.0619  156.9189 C   0  0  0  0  0  0  0  0  0  0  0  0
  151.7573  139.2090  155.5888 C   0  0  0  0  0  0  0  0  0  0  0  0
  151.1467  138.1650  154.6380 C   0  0  0  0  0  0  0  0  0  0  0  0
  149.2093  131.7030  154.1376 C   0  0  0  0  0  0  0  0  0  0  0  0
  148.7236  130.4590  153.9400 N   0  0  0  0  0  0  0  0  0  0  0  0
  146.5677  127.0666  153.8886 H   0  0  0  0  0  0  0  0  0  0  0  0
  146.0011  128.5262  154.6706 H   0  0  0  0  0  0  0  0  0  0  0  0
  147.6941  128.0599  154.8037 H   0  0  0  0  0  0  0  0  0  0  0  0
  149.2068  128.0822  152.7396 H   0  0  0  0  0  0  0  0  0  0  0  0
  148.5652  128.5600  151.1711 H   0  0  0  0  0  0  0  0  0  0  0  0
  148.0055  127.0854  151.9298 H   0  0  0  0  0  0  0  0  0  0  0  0
  145.5842  127.9554  151.6724 H   0  0  0  0  0  0  0  0  0  0  0  0
  146.1415  129.4870  151.0090 H   0  0  0  0  0  0  0  0  0  0  0  0
  145.1048  129.4694  152.4303 H   0  0  0  0  0  0  0  0  0  0  0  0
  146.9473  133.3815  152.2466 H   0  0  0  0  0  0  0  0  0  0  0  0
  148.8641  134.7894  152.9181 H   0  0  0  0  0  0  0  0  0  0  0  0
  149.5988  136.4313  153.6550 H   0  0  0  0  0  0  0  0  0  0  0  0
  151.5154  136.4413  155.8604 H   0  0  0  0  0  0  0  0  0  0  0  0
  148.7901  137.7891  156.1360 H   0  0  0  0  0  0  0  0  0  0  0  0
  149.4429  136.5423  157.1727 H   0  0  0  0  0  0  0  0  0  0  0  0
  149.6990  138.8008  158.1916 H   0  0  0  0  0  0  0  0  0  0  0  0
  151.2693  138.0670  157.9180 H   0  0  0  0  0  0  0  0  0  0  0  0
  152.2135  140.3695  158.0560 H   0  0  0  0  0  0  0  0  0  0  0  0
  149.3727  141.6074  157.8016 H   0  0  0  0  0  0  0  0  0  0  0  0
  150.6665  142.0351  159.0368 H   0  0  0  0  0  0  0  0  0  0  0  0
  152.2289  142.6807  157.1726 H   0  0  0  0  0  0  0  0  0  0  0  0
  150.9319  142.2525  155.9412 H   0  0  0  0  0  0  0  0  0  0  0  0
  152.0794  140.0784  155.0144 H   0  0  0  0  0  0  0  0  0  0  0  0
  152.6436  138.8032  156.0797 H   0  0  0  0  0  0  0  0  0  0  0  0
  151.8871  137.8636  153.8963 H   0  0  0  0  0  0  0  0  0  0  0  0
  150.3218  138.6185  154.0858 H   0  0  0  0  0  0  0  0  0  0  0  0
  150.0704  131.7659  154.7840 H   0  0  0  0  0  0  0  0  0  0  0  0
  1  2  1  0  0  0  0
  1 24  1  0  0  0  0
  1 25  1  0  0  0  0
  1 26  1  0  0  0  0
  2  3  1  0  0  0  0
  2  4  1  0  0  0  0
  2  5  1  0  0  0  0
  3 27  1  0  0  0  0
  3 28  1  0  0  0  0
  3 29  1  0  0  0  0
  4 30  1  0  0  0  0
  4 31  1  0  0  0  0
  4 32  1  0  0  0  0
  5 23  1  0  0  0  0
  5  6  2  0  0  0  0
  6  7  1  0  0  0  0
  7  8  2  0  0  0  0
  7 33  1  0  0  0  0
  8  9  1  0  0  0  0
  8 22  1  0  0  0  0
  9 10  1  0  0  0  0
  9 34  1  0  0  0  0
 10 11  2  0  0  0  0
 10 12  1  0  0  0  0
 12 13  1  0  0  0  0
 12 35  1  0  0  0  0
 13 21  1  0  0  0  0
 13 14  1  0  0  0  0
 13 36  1  0  0  0  0
 14 15  1  0  0  0  0
 14 37  1  0  0  0  0
 14 38  1  0  0  0  0
 15 16  1  0  0  0  0
 15 39  1  0  0  0  0
 15 40  1  0  0  0  0
 16 17  1  0  0  0  0
 16 20  1  0  0  0  0
 17 19  1  0  0  0  0
 17 18  1  0  0  0  0
 17 41  1  0  0  0  0
 18 19  1  0  0  0  0
 18 42  1  0  0  0  0
 18 43  1  0  0  0  0
 19 44  1  0  0  0  0
 19 45  1  0  0  0  0
 20 21  1  0  0  0  0
 20 46  1  0  0  0  0
 20 47  1  0  0  0  0
 21 48  1  0  0  0  0
 21 49  1  0  0  0  0
 22 23  2  0  0  0  0
 22 50  1  0  0  0  0
M  END
> <s_m_source_file>
AV-unprocessed.smi

> <i_m_source_file_index>
972

> <i_lp_mmshare_version>
43012

> <i_f3d_flags>
0

> <s_epik_input>
W0NIM11DKFtDSDNdKShbQ0gzXSljMW5bY0hdYyhbY0hdbjEpW05IXUMoPU8pW05IXVtDSF0yW0NIMl1bQ0gyXU4oW0NIMl1bQ0gyXTIpW0NIXTNbQ0gyXVtDSDJdMw==

> <s_epik_cmdline>
J2VwaWtfcHl0aG9uJywgJy1waCcsICc3LjAnLCAnLXRuJywgJzgnLCAnLW1hJywgJzIwMCcsICctbWV0YWxfYmluZGluZycsICctaW1hZScsICc8aW5maWxlLm1hZT4nLCAnLW9tYWUnLCAnPG91dGZpbGUubWFlPic=

> <r_lp_tautomer_probability>
1

> <r_epik_Ionization_Penalty>
0.990889

> <r_epik_Ionization_Penalty_Charging>
0

> <r_epik_Ionization_Penalty_Neutral>
0.990889

> <r_epik_State_Penalty>
1.03856

> <r_epik_Charging_Adjusted_Penalty>
1.03856

> <i_epik_Tot_Q>
0

> <i_epik_Tot_abs_Q>
0

> <r_epik_Metal_State_Penalty>
1.03856

> <b_epik_Metal_Only>
0

> <s_lp_Force_Field>
OPLS_2005

> <r_lp_Energy>
19.7386

> <b_lp_Chiralities_Consistent>
1

> <s_lp_Variant>
AV-unprocessed.smi:972-3

> <Gold.Version>
5.8.1

> <Gold.Id.Protein>
6NUR|6NUR_protein|mol2

> <Gold.PLP.Fitness>
42.4467

> <Gold.PLP.PLP>
-37.5292

> <Gold.PLP.part.hbond>
-2.0379

> <Gold.PLP.part.metal>
0.0000

> <Gold.PLP.part.buried>
-4.9746

> <Gold.PLP.part.nonpolar>
-29.9207

> <Gold.PLP.part.repulsive>
0.2912

> <Gold.PLP.ligand.clash>
0.0000

> <Gold.PLP.ligand.torsion>
1.1110

> <Gold.PLP.Chemscore.Hbond>
1.9440

> <Gold.PLP.Chemscore.CHOScore>
0.0000

> <Gold.PLP.Chemscore.Metal>
0.0000

> <Gold.Chemscore.Hbonds>
donor molecule, donor type, donor heavy atom, donor atom, acceptor molecule, acceptor atom, score
      L1  H     9    34       P1  7948  0.75
      L1  H    12    35       P1  7948  1.00

> <Gold.PLP.Chemscore.Internal.Correction>
1.3075

> <Gold.Rescore>
     Score         DG    S(hbond)    S(metal)    S(lipo)     H(rot)  DE(clash)    DE(int)     intcor
     15.32     -17.41       1.47        0.00      88.33       1.30       0.03       2.06       ----

> <Gold.Chemscore.Fitness>
15.3226

> <Gold.Chemscore.DG>
-17.4142

> <Gold.Chemscore.ZeroCoef>
-5.4800

> <Gold.Chemscore.Hbond>
1.4716

> <Gold.Chemscore.Metal>
0.0000

> <Gold.Chemscore.Lipo>
88.3294

> <Gold.Chemscore.Internal_Hbond>
0.0000

> <Gold.Chemscore.DEClash>
0.0311

> <Gold.Chemscore.DEInternal>
2.0605

> <Gold.Chemscore.Rot>
1.2951

> <Gold.Chemscore.Internal.Correction>
   9.000000E+99

> <Gold.Chemscore.Hbonds>
donor molecule, donor type, donor heavy atom, donor atom, acceptor molecule, acceptor atom, score
      L1  H     9    34       P1  7948  0.09
      L1  H    12    35       P1  7948  0.57

> <Gold.Chemscore.Hbond.Weighted>
-4.9150

> <Gold.Chemscore.Metal.Weighted>
-0.0000

> <Gold.Chemscore.Lipo.Weighted>
-10.3345

> <Gold.Chemscore.Internal_Hbond.Weighted>
0.0000

> <Gold.Chemscore.DEClash.Weighted>
0.0311

> <Gold.Chemscore.DEInternal.Weighted>
2.0605

> <Gold.Chemscore.Rot.Weighted>
3.3154

> <Gold.Chemscore.Internal.Correction.Weighted>
   9.000000E+99

> <Gold.Protein.RotatedTorsions>
[ 6907 6896 6895 6894 ] final  176.24 input  -60.11 | X-H torsion
[ 7974 7965 7964 7962 ] final   45.13 input  175.53 | X-H torsion
[ 8008 7997 7996 7995 ] final   91.79 input   59.86 | X-H torsion
[ 10167 10162 10161 10158 ] final -102.95 input  -65.29 | X-H torsion
[ 10718 10713 10712 10709 ] final  -42.41 input   66.30 | X-H torsion
[ 10763 10752 10751 10750 ] final   19.82 input  -60.55 | X-H torsion
[ 11005 11000 10999 10996 ] final  -73.80 input  -57.11 | X-H torsion

> <Gold.Protein.ActiveResidues>
 VAL166  LYS551  ARG553  GLY616  TRP617  ASP618  TYR619  PRO620  LYS621  CYS622 
 ASP623  PHE694  ASN695  SER759  ASP760  ASP761  ALA762  ILE779  LEU786  VAL792 
 PHE793  MET794  SER795  GLU796  ALA797  LYS798  CYS799  TRP800  GLU811  SER814 

> <Gold.Protein.RotatedAtoms>
  151.7233  133.3315  159.3320 H   0  0  0  0  0  0  0  0  0  0  0  0  # atno 6907 bound_to 6896
  150.7643  134.6428  159.6256 H   0  0  0  0  0  0  0  0  0  0  0  0  # atno 6908 bound_to 6896
  152.3638  134.6836  160.0250 H   0  0  0  0  0  0  0  0  0  0  0  0  # atno 6909 bound_to 6896
  146.0507  139.4998  142.9720 H   0  0  0  0  0  0  0  0  0  0  0  0  # atno 7974 bound_to 7965
  156.0278  140.3333  155.7107 H   0  0  0  0  0  0  0  0  0  0  0  0  # atno 8008 bound_to 7997
  155.5928  140.0648  157.2771 H   0  0  0  0  0  0  0  0  0  0  0  0  # atno 8009 bound_to 7997
  154.4341  140.1824  156.1080 H   0  0  0  0  0  0  0  0  0  0  0  0  # atno 8010 bound_to 7997
  140.2252  143.3647  152.0935 H   0  0  0  0  0  0  0  0  0  0  0  0  # atno 10167 bound_to 10162
  156.2599  130.4196  149.8554 H   0  0  0  0  0  0  0  0  0  0  0  0  # atno 10718 bound_to 10713
  153.1130  135.6701  153.9468 H   0  0  0  0  0  0  0  0  0  0  0  0  # atno 10763 bound_to 10752
  153.9005  135.3036  155.3450 H   0  0  0  0  0  0  0  0  0  0  0  0  # atno 10764 bound_to 10752
  154.7548  135.5017  153.9432 H   0  0  0  0  0  0  0  0  0  0  0  0  # atno 10765 bound_to 10752
  141.1627  133.6890  156.7267 H   0  0  0  0  0  0  0  0  0  0  0  0  # atno 11005 bound_to 11000
  145.6728  141.0212  143.1648 LP  0  0  0  0  0  0  0  0  0  0  0  0  # atno 17320 bound_to 7965
  144.7121  139.8331  143.7411 LP  0  0  0  0  0  0  0  0  0  0  0  0  # atno 17321 bound_to 7965
  139.5130  144.6925  151.5721 LP  0  0  0  0  0  0  0  0  0  0  0  0  # atno 17342 bound_to 10162
  140.6226  143.9230  150.6538 LP  0  0  0  0  0  0  0  0  0  0  0  0  # atno 17343 bound_to 10162
  156.6073  130.8572  151.3446 LP  0  0  0  0  0  0  0  0  0  0  0  0  # atno 17370 bound_to 10713
  157.7246  130.9605  150.1582 LP  0  0  0  0  0  0  0  0  0  0  0  0  # atno 17371 bound_to 10713
  140.2776  134.8343  157.3904 LP  0  0  0  0  0  0  0  0  0  0  0  0  # atno 17394 bound_to 11000
  140.1463  134.4907  155.7994 LP  0  0  0  0  0  0  0  0  0  0  0  0  # atno 17395 bound_to 11000

$$$$
