#       Name:                AV-unprocessed.smi:2896
#       Creating user name   scv26
#       Creation time:       Fri Mar 27 16:01:13 2020


#       File generated by GOLD software.
#

@<TRIPOS>MOLECULE
AV-unprocessed.smi:2896
    55    56     1
SMALL
NO_CHARGES


@<TRIPOS>ATOM
      1 ****        -3.6293  -0.4494  -0.3143 C.3            1 S1                 0.0000
      2 ****        -2.1123  -0.2306  -0.4546 C.3            1 S1                 0.0000
      3 ****        -1.3635  -1.5209  -0.0532 C.3            1 S1                 0.0000
      4 ****         0.0674  -1.4539  -0.3379 N.am           1 S1                 0.0000
      5 ****         1.0368  -1.1952   0.5574 C.2            1 S1                 0.0000
      6 ****         0.7894  -0.9730   1.7437 O.2            1 S1                 0.0000
      7 ****         2.5064  -1.1957   0.0642 C.3            1 S1                 0.0000
      8 ****         2.6082  -1.1055  -1.4805 C.3            1 S1                 0.0000
      9 ****         3.2030   0.0677   0.6304 C.3            1 S1                 0.0000
     10 ****         3.1543  -2.5068   0.5496 C.ar           1 S1                 0.0000
     11 ****         2.6880  -3.7561   0.0727 C.ar           1 S1                 0.0000
     12 ****         3.2902  -4.9443   0.5263 C.ar           1 S1                 0.0000
     13 ****         4.3468  -4.8473   1.4499 C.ar           1 S1                 0.0000
     14 ****         4.8086  -3.6710   1.9201 N.ar           1 S1                 0.0000
     15 ****         4.2243  -2.5360   1.4796 C.ar           1 S1                 0.0000
     16 ****        -1.6449   0.9981   0.3644 C.3            1 S1                 0.0000
     17 ****        -2.3123   2.2640  -0.0338 N.4            1 S1                 1.0000
     18 ****        -2.2232   3.3015   1.0215 C.3            1 S1                 0.0000
     19 ****        -2.9708   4.5750   0.5920 C.3            1 S1                 0.0000
     20 ****        -2.4386   5.0469  -0.6392 O.3            1 S1                 0.0000
     21 ****        -2.5982   4.0970  -1.6852 C.3            1 S1                 0.0000
     22 ****        -1.8403   2.8055  -1.3328 C.3            1 S1                 0.0000
     23 ****        -3.9108  -0.6175   0.7258 H              1 S1                 0.0000
     24 ****        -3.9557  -1.3163  -0.8896 H              1 S1                 0.0000
     25 ****        -4.1957   0.4076  -0.6787 H              1 S1                 0.0000
     26 ****        -1.9000  -0.0572  -1.5094 H              1 S1                 0.0000
     27 ****        -1.5448  -1.7569   0.9969 H              1 S1                 0.0000
     28 ****        -1.7584  -2.3642  -0.6206 H              1 S1                 0.0000
     29 ****         0.3484  -1.6356  -1.2908 H              1 S1                 0.0000
     30 ****         2.1270  -1.9414  -1.9889 H              1 S1                 0.0000
     31 ****         3.6509  -1.1007  -1.8001 H              1 S1                 0.0000
     32 ****         2.1523  -0.1892  -1.8588 H              1 S1                 0.0000
     33 ****         3.1821   0.1062   1.7205 H              1 S1                 0.0000
     34 ****         2.7203   0.9783   0.2725 H              1 S1                 0.0000
     35 ****         4.2473   0.1192   0.3203 H              1 S1                 0.0000
     36 ****         1.8722  -3.8112  -0.6326 H              1 S1                 0.0000
     37 ****         2.9492  -5.9069   0.1750 H              1 S1                 0.0000
     38 ****         4.8336  -5.7372   1.8205 H              1 S1                 0.0000
     39 ****         4.6435  -1.6337   1.8968 H              1 S1                 0.0000
     40 ****        -1.8450   0.8007   1.4188 H              1 S1                 0.0000
     41 ****        -0.5675   1.1419   0.2816 H              1 S1                 0.0000
     42 ****        -2.6506   2.9231   1.9508 H              1 S1                 0.0000
     43 ****        -1.1753   3.5325   1.2203 H              1 S1                 0.0000
     44 ****        -4.0408   4.3849   0.4917 H              1 S1                 0.0000
     45 ****        -2.8547   5.3518   1.3481 H              1 S1                 0.0000
     46 ****        -3.6576   3.8943  -1.8513 H              1 S1                 0.0000
     47 ****        -2.2070   4.5215  -2.6101 H              1 S1                 0.0000
     48 ****        -0.7690   3.0061  -1.2793 H              1 S1                 0.0000
     49 ****        -1.9897   2.0772  -2.1288 H              1 S1                 0.0000
     50 ****        -3.2943   2.0524  -0.1392 H              1 S1                 0.0000
     51 ****        -0.1568  -0.9816   2.0672 LP             1 S1                 0.0000
     52 ****         1.5348  -0.7841   2.3830 LP             1 S1                 0.0000
     53 ****         5.5624  -3.6399   2.5764 LP             1 S1                 0.0000
     54 ****        -1.4638   5.2347  -0.5191 LP             1 S1                 0.0000
     55 ****        -2.9116   5.8904  -0.8937 LP             1 S1                 0.0000
@<TRIPOS>BOND
    1    1    2 1     
    2    1   23 1     
    3    1   24 1     
    4    1   25 1     
    5    2    3 1     
    6    2   16 1     
    7    2   26 1     
    8    3    4 1     
    9    3   27 1     
   10    3   28 1     
   11    4    5 am    
   12    4   29 1     
   13    5    6 2     
   14    5    7 1     
   15    7    8 1     
   16    7    9 1     
   17    7   10 1     
   18    8   30 1     
   19    8   31 1     
   20    8   32 1     
   21    9   33 1     
   22    9   34 1     
   23    9   35 1     
   24   10   15 ar    
   25   10   11 ar    
   26   11   12 ar    
   27   11   36 1     
   28   12   13 ar    
   29   12   37 1     
   30   13   14 ar    
   31   13   38 1     
   32   14   15 ar    
   33   15   39 1     
   34   16   17 1     
   35   16   40 1     
   36   16   41 1     
   37   17   22 1     
   38   17   18 1     
   39   17   50 1     
   40   18   19 1     
   41   18   42 1     
   42   18   43 1     
   43   19   20 1     
   44   19   44 1     
   45   19   45 1     
   46   20   21 1     
   47   21   22 1     
   48   21   46 1     
   49   21   47 1     
   50   22   48 1     
   51   22   49 1     
   52    6   51 1     
   53    6   52 1     
   54   14   53 1     
   55   20   54 1     
   56   20   55 1     
@<TRIPOS>SUBSTRUCTURE
      1 S1             1
@<TRIPOS>SET
LONE_PAIRS      STATIC     ATOMS    <user>   **** ""
5 51 52 53 54 55
DONOR_HYDROGENS      STATIC     ATOMS    <user>   **** ""
2 29 50
ATOM$BLUE        STATIC     ATOMS    COLORGROUP SYSTEM
5 51 52 53 54 55
ATOM$RED        STATIC     ATOMS    COLORGROUP SYSTEM
2 29 50
