AV-unprocessed.smi:3076|AV-procd|sdf|11728|dock2
  -GOLD-   2272017123D 1   1.00000     0.00000
 Structure written by MMmdl.
 20 20  0  0  0  0  0  0  0  0  1 V2000
  145.4663  137.5620  151.4956 N   0  0  0  0  0  0  0  0  0  0  0  0
  145.4875  136.0964  151.6191 C   0  0  0  0  0  0  0  0  0  0  0  0
  144.4573  135.4053  150.7090 C   0  0  1  0  0  0  0  0  0  0  0  0
  144.6086  135.9133  149.3980 O   0  0  0  0  0  0  0  0  0  0  0  0
  144.6342  133.8955  150.7380 C   0  0  0  0  0  0  0  0  0  0  0  0
  145.6130  133.2855  151.5528 C   0  0  0  0  0  0  0  0  0  0  0  0
  145.7237  131.8818  151.5491 C   0  0  0  0  0  0  0  0  0  0  0  0
  144.8477  131.1422  150.7303 C   0  0  0  0  0  0  0  0  0  0  0  0
  143.9057  131.7121  149.9487 N   0  0  0  0  0  0  0  0  0  0  0  0
  143.8061  133.0590  149.9582 C   0  0  0  0  0  0  0  0  0  0  0  0
  146.3793  137.9085  151.2049 H   0  0  0  0  0  0  0  0  0  0  0  0
  144.7961  137.8497  150.7841 H   0  0  0  0  0  0  0  0  0  0  0  0
  146.4885  135.7109  151.4223 H   0  0  0  0  0  0  0  0  0  0  0  0
  145.2636  135.8394  152.6549 H   0  0  0  0  0  0  0  0  0  0  0  0
  143.4481  135.6439  151.0484 H   0  0  0  0  0  0  0  0  0  0  0  0
  145.1656  135.3258  148.9109 H   0  0  0  0  0  0  0  0  0  0  0  0
  146.2669  133.8812  152.1729 H   0  0  0  0  0  0  0  0  0  0  0  0
  146.4611  131.3836  152.1609 H   0  0  0  0  0  0  0  0  0  0  0  0
  144.9040  130.0641  150.7041 H   0  0  0  0  0  0  0  0  0  0  0  0
  143.0391  133.4795  149.3244 H   0  0  0  0  0  0  0  0  0  0  0  0
  1  2  1  0  0  0  0
  1 11  1  0  0  0  0
  1 12  1  0  0  0  0
  2  3  1  0  0  0  0
  2 13  1  0  0  0  0
  2 14  1  0  0  0  0
  3  4  1  0  0  0  0
  3  5  1  0  0  0  0
  3 15  1  0  0  0  0
  4 16  1  0  0  0  0
  5 10  1  0  0  0  0
  5  6  2  0  0  0  0
  6  7  1  0  0  0  0
  6 17  1  0  0  0  0
  7  8  2  0  0  0  0
  7 18  1  0  0  0  0
  8  9  1  0  0  0  0
  8 19  1  0  0  0  0
  9 10  2  0  0  0  0
 10 20  1  0  0  0  0
M  END
> <s_m_source_file>
AV-unprocessed.smi

> <i_m_source_file_index>
3076

> <i_lp_mmshare_version>
43012

> <i_f3d_flags>
0

> <s_epik_input>
W05IMl1bQ0gyXVtDQEhdKFtPSF0pYzFbY0hdW2NIXVtjSF1uW2NIXTE=

> <s_epik_cmdline>
J2VwaWtfcHl0aG9uJywgJy1waCcsICc3LjAnLCAnLXRuJywgJzgnLCAnLW1hJywgJzIwMCcsICctbWV0YWxfYmluZGluZycsICctaW1hZScsICc8aW5maWxlLm1hZT4nLCAnLW9tYWUnLCAnPG91dGZpbGUubWFlPic=

> <r_epik_Ionization_Penalty>
2.22627

> <r_epik_Ionization_Penalty_Charging>
0

> <r_epik_Ionization_Penalty_Neutral>
2.22627

> <r_epik_State_Penalty>
2.36938

> <r_epik_Charging_Adjusted_Penalty>
2.36938

> <i_epik_Tot_Q>
0

> <i_epik_Tot_abs_Q>
0

> <r_epik_Metal_State_Penalty>
2.36785

> <b_epik_Metal_Only>
0

> <s_lp_Force_Field>
OPLS_2005

> <r_lp_Energy>
11.5599

> <b_lp_Chiralities_Consistent>
1

> <s_lp_Variant>
AV-unprocessed.smi:3076-4

> <Gold.Version>
5.8.1

> <Gold.Id.Protein>
6NUR|6NUR_protein|mol2

> <Gold.PLP.Fitness>
33.5051

> <Gold.PLP.PLP>
-22.5965

> <Gold.PLP.part.hbond>
-3.5978

> <Gold.PLP.part.metal>
0.0000

> <Gold.PLP.part.buried>
-5.1858

> <Gold.PLP.part.nonpolar>
-15.1916

> <Gold.PLP.part.repulsive>
0.1667

> <Gold.PLP.ligand.clash>
0.0000

> <Gold.PLP.ligand.torsion>
0.0416

> <Gold.PLP.Chemscore.Hbond>
2.6630

> <Gold.PLP.Chemscore.CHOScore>
1.0000

> <Gold.PLP.Chemscore.Metal>
0.0000

> <Gold.Chemscore.Hbonds>
donor molecule, donor type, donor heavy atom, donor atom, acceptor molecule, acceptor atom, score
      L1  H     1    12       P1 10171  1.00
      L1  H     4    16       P1  7921  1.00
      P1  H 10785 10796       L1     9  0.65
      L1  C    10    20       P1 10186  1.00

> <Gold.PLP.Chemscore.Internal.Correction>
0.0029

> <Gold.Rescore>
     Score         DG    S(hbond)    S(metal)    S(lipo)     H(rot)  DE(clash)    DE(int)     intcor
     14.93     -15.01       2.43        0.00      52.46       1.85       0.05       0.03       ----

> <Gold.Chemscore.Fitness>
14.9322

> <Gold.Chemscore.DG>
-15.0111

> <Gold.Chemscore.ZeroCoef>
-5.4800

> <Gold.Chemscore.Hbond>
2.4306

> <Gold.Chemscore.Metal>
0.0000

> <Gold.Chemscore.Lipo>
52.4553

> <Gold.Chemscore.Internal_Hbond>
0.0000

> <Gold.Chemscore.DEClash>
0.0456

> <Gold.Chemscore.DEInternal>
0.0333

> <Gold.Chemscore.Rot>
1.8455

> <Gold.Chemscore.Internal.Correction>
   9.000000E+99

> <Gold.Chemscore.Hbonds>
donor molecule, donor type, donor heavy atom, donor atom, acceptor molecule, acceptor atom, score
      L1  H     1    12       P1 10171  0.93
      L1  H     4    16       P1  7921  0.98
      P1  H 10785 10796       L1     9  0.29

> <Gold.Chemscore.Hbond.Weighted>
-8.1183

> <Gold.Chemscore.Metal.Weighted>
-0.0000

> <Gold.Chemscore.Lipo.Weighted>
-6.1373

> <Gold.Chemscore.Internal_Hbond.Weighted>
0.0000

> <Gold.Chemscore.DEClash.Weighted>
0.0456

> <Gold.Chemscore.DEInternal.Weighted>
0.0333

> <Gold.Chemscore.Rot.Weighted>
4.7245

> <Gold.Chemscore.Internal.Correction.Weighted>
   9.000000E+99

> <Gold.Protein.RotatedTorsions>
[ 6907 6896 6895 6894 ] final -112.40 input  -60.11 | X-H torsion
[ 7974 7965 7964 7962 ] final  -57.36 input  175.53 | X-H torsion
[ 8008 7997 7996 7995 ] final  105.06 input   59.86 | X-H torsion
[ 10167 10162 10161 10158 ] final -105.58 input  -65.29 | X-H torsion
[ 10718 10713 10712 10709 ] final  101.24 input   66.30 | X-H torsion
[ 10763 10752 10751 10750 ] final  -88.94 input  -60.55 | X-H torsion
[ 11005 11000 10999 10996 ] final -115.54 input  -57.11 | X-H torsion

> <Gold.Protein.ActiveResidues>
 VAL166  LYS551  ARG553  GLY616  TRP617  ASP618  TYR619  PRO620  LYS621  CYS622 
 ASP623  PHE694  ASN695  SER759  ASP760  ASP761  ALA762  ILE779  LEU786  VAL792 
 PHE793  MET794  SER795  GLU796  ALA797  LYS798  CYS799  TRP800  GLU811  SER814 

> <Gold.Protein.RotatedAtoms>
  150.7756  133.9094  159.3364 H   0  0  0  0  0  0  0  0  0  0  0  0  # atno 6907 bound_to 6896
  151.6970  135.0935  160.0253 H   0  0  0  0  0  0  0  0  0  0  0  0  # atno 6908 bound_to 6896
  152.3791  133.6483  159.6182 H   0  0  0  0  0  0  0  0  0  0  0  0  # atno 6909 bound_to 6896
  145.8519  140.8346  142.9981 H   0  0  0  0  0  0  0  0  0  0  0  0  # atno 7974 bound_to 7965
  156.1626  140.3137  155.8834 H   0  0  0  0  0  0  0  0  0  0  0  0  # atno 8008 bound_to 7997
  155.3750  140.0484  157.3062 H   0  0  0  0  0  0  0  0  0  0  0  0  # atno 8009 bound_to 7997
  154.5161  140.2182  155.9073 H   0  0  0  0  0  0  0  0  0  0  0  0  # atno 8010 bound_to 7997
  140.1969  143.3848  152.1161 H   0  0  0  0  0  0  0  0  0  0  0  0  # atno 10167 bound_to 10162
  157.6834  131.0721  150.5222 H   0  0  0  0  0  0  0  0  0  0  0  0  # atno 10718 bound_to 10713
  154.6499  135.5359  153.7889 H   0  0  0  0  0  0  0  0  0  0  0  0  # atno 10763 bound_to 10752
  153.0380  135.6480  154.1032 H   0  0  0  0  0  0  0  0  0  0  0  0  # atno 10764 bound_to 10752
  154.0950  135.2937  155.3243 H   0  0  0  0  0  0  0  0  0  0  0  0  # atno 10765 bound_to 10752
  141.0481  133.9731  157.2883 H   0  0  0  0  0  0  0  0  0  0  0  0  # atno 11005 bound_to 11000
  144.6729  140.0966  143.7462 LP  0  0  0  0  0  0  0  0  0  0  0  0  # atno 17320 bound_to 7965
  145.9347  139.2629  143.1304 LP  0  0  0  0  0  0  0  0  0  0  0  0  # atno 17321 bound_to 7965
  139.5233  144.7069  151.5326 LP  0  0  0  0  0  0  0  0  0  0  0  0  # atno 17342 bound_to 10162
  140.6417  143.8876  150.6698 LP  0  0  0  0  0  0  0  0  0  0  0  0  # atno 17343 bound_to 10162
  156.5535  130.4237  149.6096 LP  0  0  0  0  0  0  0  0  0  0  0  0  # atno 17370 bound_to 10713
  156.2882  130.7109  151.1951 LP  0  0  0  0  0  0  0  0  0  0  0  0  # atno 17371 bound_to 10713
  139.9328  135.0199  156.8456 LP  0  0  0  0  0  0  0  0  0  0  0  0  # atno 17394 bound_to 11000
  140.6108  134.0084  155.7576 LP  0  0  0  0  0  0  0  0  0  0  0  0  # atno 17395 bound_to 11000

$$$$
