AV-unprocessed.smi:177|AV-procd|sdf|1442|dock3
  -GOLD-   2262019233D 1   1.00000     0.00000
 Structure written by MMmdl.
 61 65  0  0  0  0  0  0  0  0  1 V2000
  148.0433  145.0568  160.5412 C   0  0  0  0  0  0  0  0  0  0  0  0
  148.4002  143.8107  159.9625 O   0  0  0  0  0  0  0  0  0  0  0  0
  149.5055  143.8749  159.0701 C   0  0  1  0  0  0  0  0  0  0  0  0
  150.6582  144.5732  159.8093 C   0  0  0  0  0  0  0  0  0  0  0  0
  151.9178  144.6540  158.9328 C   0  0  0  0  0  0  0  0  0  0  0  0
  152.3576  143.2729  158.4163 C   0  0  1  0  0  0  0  0  0  0  0  0
  152.8620  142.4958  159.4996 O   0  0  0  0  0  0  0  0  0  0  0  0
  153.4029  141.2551  159.0580 C   0  0  0  0  0  0  0  0  0  0  0  0
  152.3040  140.4158  158.3866 C   0  0  0  0  0  0  0  0  0  0  0  0
  151.6524  141.1830  157.3239 N   0  0  0  0  0  0  0  0  0  0  0  0
  150.8571  140.5100  156.4484 C   0  0  0  0  0  0  0  0  0  0  0  0
  150.5482  141.0765  155.2505 N   0  0  0  0  0  0  0  0  0  0  0  0
  149.7819  140.4286  154.3691 C   0  0  0  0  0  0  0  0  0  0  0  0
  149.2255  139.2217  154.4774 N   0  0  0  0  0  0  0  0  0  0  0  0
  149.5253  138.6455  155.6763 C   0  0  0  0  0  0  0  0  0  0  0  0
  150.3204  139.2160  156.7117 C   0  0  0  0  0  0  0  0  0  0  0  0
  150.3768  138.3424  157.7917 N   0  0  0  0  0  0  0  0  0  0  0  0
  149.6726  137.3127  157.4112 C   0  0  0  0  0  0  0  0  0  0  0  0
  149.1366  137.4023  156.1466 N   0  0  0  0  0  0  0  0  0  0  0  0
  148.3056  136.4085  155.4809 C   0  0  0  0  0  0  0  0  0  0  0  0
  149.0162  135.0561  155.1561 C   0  0  0  0  0  0  0  0  0  0  0  0
  150.3156  135.3603  154.3597 C   0  0  0  0  0  0  0  0  0  0  0  0
  151.2324  136.1727  155.0666 O   0  0  0  0  0  0  0  0  0  0  0  0
  149.3629  134.2564  156.4389 C   0  0  0  0  0  0  0  0  0  0  0  0
  148.1081  133.7211  157.1509 C   0  0  0  0  0  0  0  0  0  0  0  0
  147.3590  132.9063  156.2578 O   0  0  0  0  0  0  0  0  0  0  0  0
  146.8794  133.6185  155.1235 C   0  0  0  0  0  0  0  0  0  0  0  0
  148.0606  134.1779  154.3067 C   0  0  0  0  0  0  0  0  0  0  0  0
  151.1965  142.5167  157.7278 C   0  0  1  0  0  0  0  0  0  0  0  0
  149.9388  142.4646  158.6265 C   0  0  0  0  0  0  0  0  0  0  0  0
  147.2074  144.9114  161.2252 H   0  0  0  0  0  0  0  0  0  0  0  0
  147.7324  145.7823  159.7903 H   0  0  0  0  0  0  0  0  0  0  0  0
  148.8714  145.4775  161.1128 H   0  0  0  0  0  0  0  0  0  0  0  0
  149.2421  144.4747  158.1966 H   0  0  0  0  0  0  0  0  0  0  0  0
  150.3534  145.5771  160.1064 H   0  0  0  0  0  0  0  0  0  0  0  0
  150.8870  144.0351  160.7304 H   0  0  0  0  0  0  0  0  0  0  0  0
  151.7170  145.3055  158.0817 H   0  0  0  0  0  0  0  0  0  0  0  0
  152.7315  145.1202  159.4892 H   0  0  0  0  0  0  0  0  0  0  0  0
  153.1657  143.4261  157.6984 H   0  0  0  0  0  0  0  0  0  0  0  0
  154.2307  141.4313  158.3695 H   0  0  0  0  0  0  0  0  0  0  0  0
  153.8119  140.7199  159.9151 H   0  0  0  0  0  0  0  0  0  0  0  0
  152.7478  139.5077  157.9762 H   0  0  0  0  0  0  0  0  0  0  0  0
  151.5651  140.1061  159.1264 H   0  0  0  0  0  0  0  0  0  0  0  0
  149.5890  140.9521  153.4442 H   0  0  0  0  0  0  0  0  0  0  0  0
  149.5267  136.4526  158.0481 H   0  0  0  0  0  0  0  0  0  0  0  0
  147.4292  136.2553  156.1084 H   0  0  0  0  0  0  0  0  0  0  0  0
  147.9239  136.8541  154.5614 H   0  0  0  0  0  0  0  0  0  0  0  0
  150.8236  134.4324  154.0949 H   0  0  0  0  0  0  0  0  0  0  0  0
  150.0862  135.8734  153.4260 H   0  0  0  0  0  0  0  0  0  0  0  0
  151.3045  135.8453  155.9502 H   0  0  0  0  0  0  0  0  0  0  0  0
  149.9819  133.3962  156.1821 H   0  0  0  0  0  0  0  0  0  0  0  0
  149.9652  134.8507  157.1250 H   0  0  0  0  0  0  0  0  0  0  0  0
  148.4003  133.1167  158.0098 H   0  0  0  0  0  0  0  0  0  0  0  0
  147.4866  134.5295  157.5364 H   0  0  0  0  0  0  0  0  0  0  0  0
  146.2977  132.9335  154.5066 H   0  0  0  0  0  0  0  0  0  0  0  0
  146.1932  134.4055  155.4368 H   0  0  0  0  0  0  0  0  0  0  0  0
  147.6877  134.7399  153.4495 H   0  0  0  0  0  0  0  0  0  0  0  0
  148.5989  133.3248  153.8933 H   0  0  0  0  0  0  0  0  0  0  0  0
  150.9381  143.0930  156.8420 H   0  0  0  0  0  0  0  0  0  0  0  0
  150.1288  141.8575  159.5119 H   0  0  0  0  0  0  0  0  0  0  0  0
  149.1292  141.9748  158.0864 H   0  0  0  0  0  0  0  0  0  0  0  0
  1  2  1  0  0  0  0
  1 31  1  0  0  0  0
  1 32  1  0  0  0  0
  1 33  1  0  0  0  0
  2  3  1  0  0  0  0
  3 30  1  0  0  0  0
  3  4  1  0  0  0  0
  3 34  1  0  0  0  0
  4  5  1  0  0  0  0
  4 35  1  0  0  0  0
  4 36  1  0  0  0  0
  5  6  1  0  0  0  0
  5 37  1  0  0  0  0
  5 38  1  0  0  0  0
  6 29  1  0  0  0  0
  6  7  1  0  0  0  0
  6 39  1  0  0  0  0
  7  8  1  0  0  0  0
  8  9  1  0  0  0  0
  8 40  1  0  0  0  0
  8 41  1  0  0  0  0
  9 10  1  0  0  0  0
  9 42  1  0  0  0  0
  9 43  1  0  0  0  0
 10 11  1  0  0  0  0
 10 29  1  0  0  0  0
 11 16  1  0  0  0  0
 11 12  2  0  0  0  0
 12 13  1  0  0  0  0
 13 14  2  0  0  0  0
 13 44  1  0  0  0  0
 14 15  1  0  0  0  0
 15 19  1  0  0  0  0
 15 16  2  0  0  0  0
 16 17  1  0  0  0  0
 17 18  2  0  0  0  0
 18 19  1  0  0  0  0
 18 45  1  0  0  0  0
 19 20  1  0  0  0  0
 20 21  1  0  0  0  0
 20 46  1  0  0  0  0
 20 47  1  0  0  0  0
 21 28  1  0  0  0  0
 21 22  1  0  0  0  0
 21 24  1  0  0  0  0
 22 23  1  0  0  0  0
 22 48  1  0  0  0  0
 22 49  1  0  0  0  0
 23 50  1  0  0  0  0
 24 25  1  0  0  0  0
 24 51  1  0  0  0  0
 24 52  1  0  0  0  0
 25 26  1  0  0  0  0
 25 53  1  0  0  0  0
 25 54  1  0  0  0  0
 26 27  1  0  0  0  0
 27 28  1  0  0  0  0
 27 55  1  0  0  0  0
 27 56  1  0  0  0  0
 28 57  1  0  0  0  0
 28 58  1  0  0  0  0
 29 30  1  0  0  0  0
 29 59  1  0  0  0  0
 30 60  1  0  0  0  0
 30 61  1  0  0  0  0
M  END
> <s_m_source_file>
AV-unprocessed.smi

> <i_m_source_file_index>
177

> <i_lp_mmshare_version>
43012

> <i_f3d_flags>
0

> <s_epik_input>
W0NIM11PW0NASF0oW0NIMl1bQ0gyXTEpW0NIMl1bQ0BIXShbQ0BASF0xMilOKFtDSDJdW0NIMl1PMiljKG5bY0hdbjMpYyhjMzQpbltjSF1uNFtDSDJdQzUoW0NIMl1bT0hdKVtDSDJdW0NIMl1PW0NIMl1bQ0gyXTU=

> <s_epik_cmdline>
J2VwaWtfcHl0aG9uJywgJy1waCcsICc3LjAnLCAnLXRuJywgJzgnLCAnLW1hJywgJzIwMCcsICctbWV0YWxfYmluZGluZycsICctaW1hZScsICc8aW5maWxlLm1hZT4nLCAnLW9tYWUnLCAnPG91dGZpbGUubWFlPic=

> <r_lp_tautomer_probability>
1

> <r_epik_Ionization_Penalty>
0.0065899

> <r_epik_Ionization_Penalty_Charging>
0

> <r_epik_Ionization_Penalty_Neutral>
0.0065899

> <r_epik_State_Penalty>
0.00470042

> <r_epik_Charging_Adjusted_Penalty>
0.00470042

> <i_epik_Tot_Q>
0

> <i_epik_Tot_abs_Q>
0

> <r_epik_Metal_State_Penalty>
-0

> <b_epik_Metal_Only>
0

> <s_lp_Force_Field>
OPLS_2005

> <r_lp_Energy>
44.6168

> <b_lp_Chiralities_Consistent>
1

> <s_lp_Variant>
AV-unprocessed.smi:177-6

> <Gold.Version>
5.8.1

> <Gold.Id.Protein>
6NUR|6NUR_protein|mol2

> <Gold.PLP.Fitness>
45.1128

> <Gold.PLP.PLP>
-36.7305

> <Gold.PLP.part.hbond>
-3.0000

> <Gold.PLP.part.metal>
0.0000

> <Gold.PLP.part.buried>
-6.1424

> <Gold.PLP.part.nonpolar>
-28.8662

> <Gold.PLP.part.repulsive>
0.3334

> <Gold.PLP.ligand.clash>
0.0000

> <Gold.PLP.ligand.torsion>
0.3613

> <Gold.PLP.Chemscore.Hbond>
1.8723

> <Gold.PLP.Chemscore.CHOScore>
1.0000

> <Gold.PLP.Chemscore.Metal>
0.0000

> <Gold.Chemscore.Hbonds>
donor molecule, donor type, donor heavy atom, donor atom, acceptor molecule, acceptor atom, score
      P1  H  6933  6944       L1     2  0.77
      P1  H 10752 10765       L1    23  0.50
      L1  C    13    44       P1  7957  0.97

> <Gold.PLP.Chemscore.Internal.Correction>
0.4879

> <Gold.Rescore>
     Score         DG    S(hbond)    S(metal)    S(lipo)     H(rot)  DE(clash)    DE(int)     intcor
     12.12     -15.13       1.46        0.00      97.35       2.58       0.07       2.94       ----

> <Gold.Chemscore.Fitness>
12.1180

> <Gold.Chemscore.DG>
-15.1271

> <Gold.Chemscore.ZeroCoef>
-5.4800

> <Gold.Chemscore.Hbond>
1.4561

> <Gold.Chemscore.Metal>
0.0000

> <Gold.Chemscore.Lipo>
97.3502

> <Gold.Chemscore.Internal_Hbond>
0.0000

> <Gold.Chemscore.DEClash>
0.0672

> <Gold.Chemscore.DEInternal>
2.9419

> <Gold.Chemscore.Rot>
2.5806

> <Gold.Chemscore.Internal.Correction>
   9.000000E+99

> <Gold.Chemscore.Hbonds>
donor molecule, donor type, donor heavy atom, donor atom, acceptor molecule, acceptor atom, score
      P1  H  6933  6944       L1     2  0.51
      P1  H 10752 10765       L1    23  0.01

> <Gold.Chemscore.Hbond.Weighted>
-4.8634

> <Gold.Chemscore.Metal.Weighted>
-0.0000

> <Gold.Chemscore.Lipo.Weighted>
-11.3900

> <Gold.Chemscore.Internal_Hbond.Weighted>
0.0000

> <Gold.Chemscore.DEClash.Weighted>
0.0672

> <Gold.Chemscore.DEInternal.Weighted>
2.9419

> <Gold.Chemscore.Rot.Weighted>
6.6062

> <Gold.Chemscore.Internal.Correction.Weighted>
   9.000000E+99

> <Gold.Protein.RotatedTorsions>
[ 6907 6896 6895 6894 ] final  -78.49 input  -60.11 | X-H torsion
[ 7974 7965 7964 7962 ] final   12.81 input  175.53 | X-H torsion
[ 8008 7997 7996 7995 ] final  -52.14 input   59.86 | X-H torsion
[ 10167 10162 10161 10158 ] final  -16.96 input  -65.29 | X-H torsion
[ 10718 10713 10712 10709 ] final -135.75 input   66.30 | X-H torsion
[ 10763 10752 10751 10750 ] final -172.54 input  -60.55 | X-H torsion
[ 11005 11000 10999 10996 ] final  -18.90 input  -57.11 | X-H torsion

> <Gold.Protein.ActiveResidues>
 VAL166  LYS551  ARG553  GLY616  TRP617  ASP618  TYR619  PRO620  LYS621  CYS622 
 ASP623  PHE694  ASN695  SER759  ASP760  ASP761  ALA762  ILE779  LEU786  VAL792 
 PHE793  MET794  SER795  GLU796  ALA797  LYS798  CYS799  TRP800  GLU811  SER814 

> <Gold.Protein.RotatedAtoms>
  150.6972  134.4264  159.5228 H   0  0  0  0  0  0  0  0  0  0  0  0  # atno 6907 bound_to 6896
  152.1998  134.8595  160.0518 H   0  0  0  0  0  0  0  0  0  0  0  0  # atno 6908 bound_to 6896
  151.9519  133.3634  159.4040 H   0  0  0  0  0  0  0  0  0  0  0  0  # atno 6909 bound_to 6896
  146.2343  139.9281  142.8500 H   0  0  0  0  0  0  0  0  0  0  0  0  # atno 7974 bound_to 7965
  154.4099  140.1231  156.4943 H   0  0  0  0  0  0  0  0  0  0  0  0  # atno 8008 bound_to 7997
  155.6959  140.3495  155.4893 H   0  0  0  0  0  0  0  0  0  0  0  0  # atno 8009 bound_to 7997
  155.9428  140.1090  157.1032 H   0  0  0  0  0  0  0  0  0  0  0  0  # atno 8010 bound_to 7997
  140.7241  143.5064  150.9805 H   0  0  0  0  0  0  0  0  0  0  0  0  # atno 10167 bound_to 10162
  156.2696  130.7257  151.1220 H   0  0  0  0  0  0  0  0  0  0  0  0  # atno 10718 bound_to 10713
  154.6181  135.2872  155.0357 H   0  0  0  0  0  0  0  0  0  0  0  0  # atno 10763 bound_to 10752
  154.1562  135.6495  153.4979 H   0  0  0  0  0  0  0  0  0  0  0  0  # atno 10764 bound_to 10752
  153.0224  135.5367  154.6960 H   0  0  0  0  0  0  0  0  0  0  0  0  # atno 10765 bound_to 10752
  140.8314  133.7994  155.9762 H   0  0  0  0  0  0  0  0  0  0  0  0  # atno 11005 bound_to 11000
  145.2071  140.9879  143.4122 LP  0  0  0  0  0  0  0  0  0  0  0  0  # atno 17320 bound_to 7965
  144.9723  139.3867  143.6303 LP  0  0  0  0  0  0  0  0  0  0  0  0  # atno 17321 bound_to 7965
  139.8775  143.7114  152.3160 LP  0  0  0  0  0  0  0  0  0  0  0  0  # atno 17342 bound_to 10162
  139.7384  144.7565  151.0691 LP  0  0  0  0  0  0  0  0  0  0  0  0  # atno 17343 bound_to 10162
  157.7279  131.0635  150.5844 LP  0  0  0  0  0  0  0  0  0  0  0  0  # atno 17370 bound_to 10713
  156.5939  130.4336  149.5925 LP  0  0  0  0  0  0  0  0  0  0  0  0  # atno 17371 bound_to 10713
  140.8994  134.2397  157.5050 LP  0  0  0  0  0  0  0  0  0  0  0  0  # atno 17394 bound_to 11000
  139.8705  134.9699  156.4683 LP  0  0  0  0  0  0  0  0  0  0  0  0  # atno 17395 bound_to 11000

$$$$
