#       Name:                AV-unprocessed.smi:113
#       Creating user name   scv26
#       Creation time:       Thu Mar 26 18:21:16 2020


#       File generated by GOLD software.
#

@<TRIPOS>MOLECULE
AV-unprocessed.smi:113
    63    66     1
SMALL
NO_CHARGES


@<TRIPOS>ATOM
      1 ****        -1.3181  -0.7503  -4.2449 C.3            1 S1                 0.0000
      2 ****        -1.6157  -1.4378  -2.9294 C.ar           1 S1                 0.0000
      3 ****        -1.5296  -0.7637  -1.6961 C.ar           1 S1                 0.0000
      4 ****        -1.8129  -1.4532  -0.4910 C.ar           1 S1                 0.0000
      5 ****        -1.7230  -0.7454   0.8654 C.3            1 S1                 0.0000
      6 ****        -1.2471   0.6308   0.8560 N.am           1 S1                 0.0000
      7 ****        -2.2084   1.6659   0.7582 C.2            1 S1                 0.0000
      8 ****        -3.4137   1.4211   0.6712 O.2            1 S1                 0.0000
      9 ****        -1.6596   3.0238   0.7491 C.2            1 S1                 0.0000
     10 ****        -2.6340   4.1900   0.6931 C.3            1 S1                 0.0000
     11 ****        -0.3178   3.2073   0.7910 C.2            1 S1                 0.0000
     12 ****         0.6043   2.1757   0.8323 N.am           1 S1                 0.0000
     13 ****         2.0825   2.5047   0.8974 C.3            1 S1                 0.0000
     14 ****         2.8903   1.9452  -0.2797 C.3            1 S1                 0.0000
     15 ****         4.2004   1.6065   0.4009 C.3            1 S1                 0.0000
     16 ****         4.8844   0.5884  -0.3005 O.3            1 S1                 0.0000
     17 ****         3.7494   1.1538   1.7937 C.3            1 S1                 0.0000
     18 ****         4.8208   1.3560   2.8761 C.3            1 S1                 0.0000
     19 ****         4.5206   0.5708   4.0101 O.3            1 S1                 0.0000
     20 ****         2.6159   1.9758   2.0759 O.3            1 S1                 0.0000
     21 ****         0.1499   0.8394   0.8940 C.2            1 S1                 0.0000
     22 ****         0.9387  -0.1050   0.9632 O.2            1 S1                 0.0000
     23 ****        -2.1848  -2.8234  -0.5703 C.ar           1 S1                 0.0000
     24 ****        -2.4909  -3.5900   0.5797 C.2            1 S1                 0.0000
     25 ****        -2.8517  -4.9463   0.4598 C.2            1 S1                 0.0000
     26 ****        -2.9135  -5.5554  -0.8074 C.2            1 S1                 0.0000
     27 ****        -2.6142  -4.8076  -1.9611 C.2            1 S1                 0.0000
     28 ****        -2.2528  -3.4509  -1.8436 C.ar           1 S1                 0.0000
     29 ****        -1.9674  -2.7393  -2.9544 N.pl3          1 S1                 1.0000
     30 ****        -1.4723   0.3261  -4.1635 H              1 S1                 0.0000
     31 ****        -1.9680  -1.1260  -5.0358 H              1 S1                 0.0000
     32 ****        -0.2826  -0.9270  -4.5362 H              1 S1                 0.0000
     33 ****        -1.2445   0.2777  -1.6915 H              1 S1                 0.0000
     34 ****        -2.6953  -0.7584   1.3600 H              1 S1                 0.0000
     35 ****        -1.0720  -1.3024   1.5414 H              1 S1                 0.0000
     36 ****        -2.1189   5.1506   0.7139 H              1 S1                 0.0000
     37 ****        -3.3160   4.1602   1.5439 H              1 S1                 0.0000
     38 ****        -3.2259   4.1488  -0.2220 H              1 S1                 0.0000
     39 ****         0.0507   4.2232   0.7840 H              1 S1                 0.0000
     40 ****         2.1548   3.5909   0.9559 H              1 S1                 0.0000
     41 ****         2.4204   1.0553  -0.6967 H              1 S1                 0.0000
     42 ****         2.9904   2.6868  -1.0726 H              1 S1                 0.0000
     43 ****         4.8233   2.4997   0.4699 H              1 S1                 0.0000
     44 ****         4.3313  -0.1774  -0.3342 H              1 S1                 0.0000
     45 ****         3.4310   0.1108   1.7519 H              1 S1                 0.0000
     46 ****         5.7938   1.0324   2.5049 H              1 S1                 0.0000
     47 ****         4.9127   2.4065   3.1533 H              1 S1                 0.0000
     48 ****         5.2009   0.6988   4.6536 H              1 S1                 0.0000
     49 ****        -2.4554  -3.1575   1.5681 H              1 S1                 0.0000
     50 ****        -3.0821  -5.5218   1.3447 H              1 S1                 0.0000
     51 ****        -3.1909  -6.5959  -0.8939 H              1 S1                 0.0000
     52 ****        -2.6636  -5.2801  -2.9316 H              1 S1                 0.0000
     53 ****        -2.0215  -3.2091  -3.8580 H              1 S1                 0.0000
     54 ****        -3.7325   0.4733   0.6686 LP             1 S1                 0.0000
     55 ****        -4.0725   2.1704   0.6033 LP             1 S1                 0.0000
     56 ****         5.7373   0.3677   0.1726 LP             1 S1                 0.0000
     57 ****         5.0888   0.8977  -1.2292 LP             1 S1                 0.0000
     58 ****         4.4793  -0.3940   3.7506 LP             1 S1                 0.0000
     59 ****         3.6395   0.8515   4.3908 LP             1 S1                 0.0000
     60 ****         1.9177   1.4258   2.5342 LP             1 S1                 0.0000
     61 ****         2.8956   2.7260   2.6751 LP             1 S1                 0.0000
     62 ****         0.5939  -1.0432   0.9937 LP             1 S1                 0.0000
     63 ****         1.9234   0.0669   0.9889 LP             1 S1                 0.0000
@<TRIPOS>BOND
    1    1    2 1     
    2    1   30 1     
    3    1   31 1     
    4    1   32 1     
    5    2   29 ar    
    6    2    3 ar    
    7    3    4 ar    
    8    3   33 1     
    9    4    5 1     
   10    4   23 ar    
   11    5    6 1     
   12    5   34 1     
   13    5   35 1     
   14    6   21 am    
   15    6    7 am    
   16    7    8 2     
   17    7    9 1     
   18    9   10 1     
   19    9   11 2     
   20   10   36 1     
   21   10   37 1     
   22   10   38 1     
   23   11   12 1     
   24   11   39 1     
   25   12   13 1     
   26   12   21 am    
   27   13   20 1     
   28   13   14 1     
   29   13   40 1     
   30   14   15 1     
   31   14   41 1     
   32   14   42 1     
   33   15   16 1     
   34   15   17 1     
   35   15   43 1     
   36   16   44 1     
   37   17   18 1     
   38   17   20 1     
   39   17   45 1     
   40   18   19 1     
   41   18   46 1     
   42   18   47 1     
   43   19   48 1     
   44   21   22 2     
   45   23   28 ar    
   46   23   24 1     
   47   24   25 2     
   48   24   49 1     
   49   25   26 1     
   50   25   50 1     
   51   26   27 2     
   52   26   51 1     
   53   27   28 1     
   54   27   52 1     
   55   28   29 ar    
   56   29   53 1     
   57    8   54 1     
   58    8   55 1     
   59   16   56 1     
   60   16   57 1     
   61   19   58 1     
   62   19   59 1     
   63   20   60 1     
   64   20   61 1     
   65   22   62 1     
   66   22   63 1     
@<TRIPOS>SUBSTRUCTURE
      1 S1             1
@<TRIPOS>SET
LONE_PAIRS      STATIC     ATOMS    <user>   **** ""
10 54 55 56 57 58 59 60 61 62 63
DONOR_HYDROGENS      STATIC     ATOMS    <user>   **** ""
3 44 48 53
ATOM$BLUE        STATIC     ATOMS    COLORGROUP SYSTEM
10 54 55 56 57 58 59 60 61 62 63
ATOM$RED        STATIC     ATOMS    COLORGROUP SYSTEM
3 44 48 53
