AV-unprocessed.smi:2720|AV-procd|sdf|10499|dock5
  -GOLD-   2272014543D 1   1.00000     0.00000
 Structure written by MMmdl.
 32 33  0  0  0  0  0  0  0  0  3 V2000
  150.6857  139.7004  157.5390 O   0  0  0  0  0  0  0  0  0  0  0  0
  150.7460  141.1110  157.6568 C   0  0  0  0  0  0  0  0  0  0  0  0
  151.9360  141.4345  158.5998 C   0  0  0  0  0  0  0  0  0  0  0  0
  151.9419  142.8425  159.1782 C   0  0  0  0  0  0  0  0  0  0  0  0
  152.1785  143.0576  160.5550 C   0  0  0  0  0  0  0  0  0  0  0  0
  152.1737  144.3751  161.0574 C   0  0  0  0  0  0  0  0  0  0  0  0
  151.9434  145.4125  160.2233 N   0  3  0  0  0  0  0  0  0  0  0  0
  151.7104  145.2516  158.9024 C   0  0  0  0  0  0  0  0  0  0  0  0
  151.7020  143.9571  158.3440 C   0  0  0  0  0  0  0  0  0  0  0  0
  151.0012  141.6985  156.2489 C   0  0  0  0  0  0  0  0  0  0  0  0
  149.8164  141.4836  155.2885 C   0  0  0  0  0  0  0  0  0  0  0  0
  148.5675  142.0199  155.8676 N   0  3  0  0  0  0  0  0  0  0  0  0
  148.2366  141.4104  157.1723 C   0  0  0  0  0  0  0  0  0  0  0  0
  149.3793  141.6164  158.1855 C   0  0  0  0  0  0  0  0  0  0  0  0
  150.6209  139.4738  156.6232 H   0  0  0  0  0  0  0  0  0  0  0  0
  151.9903  140.7098  159.4139 H   0  0  0  0  0  0  0  0  0  0  0  0
  152.8697  141.3150  158.0487 H   0  0  0  0  0  0  0  0  0  0  0  0
  152.3626  142.2265  161.2204 H   0  0  0  0  0  0  0  0  0  0  0  0
  152.3450  144.6285  162.0935 H   0  0  0  0  0  0  0  0  0  0  0  0
  151.5383  146.1559  158.3371 H   0  0  0  0  0  0  0  0  0  0  0  0
  151.5151  143.8238  157.2881 H   0  0  0  0  0  0  0  0  0  0  0  0
  151.1867  142.7706  156.3325 H   0  0  0  0  0  0  0  0  0  0  0  0
  151.9070  141.2699  155.8178 H   0  0  0  0  0  0  0  0  0  0  0  0
  150.0073  141.9815  154.3377 H   0  0  0  0  0  0  0  0  0  0  0  0
  149.6856  140.4232  155.0685 H   0  0  0  0  0  0  0  0  0  0  0  0
  148.6690  143.0172  155.9916 H   0  0  0  0  0  0  0  0  0  0  0  0
  147.3155  141.8566  157.5479 H   0  0  0  0  0  0  0  0  0  0  0  0
  148.0370  140.3473  157.0312 H   0  0  0  0  0  0  0  0  0  0  0  0
  149.1160  141.1189  159.1198 H   0  0  0  0  0  0  0  0  0  0  0  0
  149.4547  142.6800  158.4171 H   0  0  0  0  0  0  0  0  0  0  0  0
  147.8082  141.8478  155.2237 H   0  0  0  0  0  0  0  0  0  0  0  0
  151.9438  146.3579  160.6074 H   0  0  0  0  0  0  0  0  0  0  0  0
  1  2  1  0  0  0  0
  1 15  1  0  0  0  0
  2 14  1  0  0  0  0
  2  3  1  0  0  0  0
  2 10  1  0  0  0  0
  3  4  1  0  0  0  0
  3 16  1  0  0  0  0
  3 17  1  0  0  0  0
  4  9  1  0  0  0  0
  4  5  2  0  0  0  0
  5  6  1  0  0  0  0
  5 18  1  0  0  0  0
  6  7  2  0  0  0  0
  6 19  1  0  0  0  0
  7  8  1  0  0  0  0
  7 32  1  0  0  0  0
  8  9  2  0  0  0  0
  8 20  1  0  0  0  0
  9 21  1  0  0  0  0
 10 11  1  0  0  0  0
 10 22  1  0  0  0  0
 10 23  1  0  0  0  0
 11 12  1  0  0  0  0
 11 24  1  0  0  0  0
 11 25  1  0  0  0  0
 12 13  1  0  0  0  0
 12 26  1  0  0  0  0
 12 31  1  0  0  0  0
 13 14  1  0  0  0  0
 13 27  1  0  0  0  0
 13 28  1  0  0  0  0
 14 29  1  0  0  0  0
 14 30  1  0  0  0  0
M  CHG  1   7   1
M  CHG  1  12   1
M  END
> <s_m_source_file>
AV-unprocessed.smi

> <i_m_source_file_index>
2720

> <i_lp_mmshare_version>
43012

> <i_f3d_flags>
0

> <s_epik_input>
W0NIMl0xW0NIMl1bTkhdW0NIMl1bQ0gyXUMxKFtPSF0pW0NIMl1jMltjSF1bY0hdbltjSF1bY0hdMg==

> <s_epik_cmdline>
J2VwaWtfcHl0aG9uJywgJy1waCcsICc3LjAnLCAnLXRuJywgJzgnLCAnLW1hJywgJzIwMCcsICctbWV0YWxfYmluZGluZycsICctaW1hZScsICc8aW5maWxlLm1hZT4nLCAnLW9tYWUnLCAnPG91dGZpbGUubWFlPic=

> <r_epik_Ionization_Penalty>
1.30405

> <r_epik_Ionization_Penalty_Charging>
1.30405

> <r_epik_Ionization_Penalty_Neutral>
5.30574e-07

> <r_epik_State_Penalty>
1.37793

> <r_epik_Charging_Adjusted_Penalty>
2.68198

> <i_epik_Tot_Q>
2

> <i_epik_Tot_abs_Q>
2

> <r_epik_Metal_State_Penalty>
5.40982

> <b_epik_Metal_Only>
0

> <s_lp_Force_Field>
OPLS_2005

> <r_lp_Energy>
28.3784

> <b_lp_Chiralities_Consistent>
1

> <s_lp_Variant>
AV-unprocessed.smi:2720-2

> <Gold.Version>
5.8.1

> <Gold.Id.Protein>
6NUR|6NUR_protein|mol2

> <Gold.PLP.Fitness>
37.2743

> <Gold.PLP.PLP>
-32.0250

> <Gold.PLP.part.hbond>
-1.0000

> <Gold.PLP.part.metal>
0.0000

> <Gold.PLP.part.buried>
-5.1489

> <Gold.PLP.part.nonpolar>
-25.6997

> <Gold.PLP.part.repulsive>
0.2091

> <Gold.PLP.ligand.clash>
0.0000

> <Gold.PLP.ligand.torsion>
0.3771

> <Gold.PLP.Chemscore.Hbond>
2.0000

> <Gold.PLP.Chemscore.CHOScore>
0.0000

> <Gold.PLP.Chemscore.Metal>
0.0000

> <Gold.Chemscore.Hbonds>
donor molecule, donor type, donor heavy atom, donor atom, acceptor molecule, acceptor atom, score
      L1  H    12    26       P1  8028  2.00

> <Gold.PLP.Chemscore.Internal.Correction>
0.0035

> <Gold.Rescore>
     Score         DG    S(hbond)    S(metal)    S(lipo)     H(rot)  DE(clash)    DE(int)     intcor
     15.25     -15.55       1.00        0.00      94.02       1.67       0.03       0.26       ----

> <Gold.Chemscore.Fitness>
15.2516

> <Gold.Chemscore.DG>
-15.5464

> <Gold.Chemscore.ZeroCoef>
-5.4800

> <Gold.Chemscore.Hbond>
0.9995

> <Gold.Chemscore.Metal>
0.0000

> <Gold.Chemscore.Lipo>
94.0242

> <Gold.Chemscore.Internal_Hbond>
0.0000

> <Gold.Chemscore.DEClash>
0.0312

> <Gold.Chemscore.DEInternal>
0.2637

> <Gold.Chemscore.Rot>
1.6691

> <Gold.Chemscore.Internal.Correction>
   9.000000E+99

> <Gold.Chemscore.Hbonds>
donor molecule, donor type, donor heavy atom, donor atom, acceptor molecule, acceptor atom, score
      L1  H    12    26       P1  8028  0.99

> <Gold.Chemscore.Hbond.Weighted>
-3.3384

> <Gold.Chemscore.Metal.Weighted>
-0.0000

> <Gold.Chemscore.Lipo.Weighted>
-11.0008

> <Gold.Chemscore.Internal_Hbond.Weighted>
0.0000

> <Gold.Chemscore.DEClash.Weighted>
0.0312

> <Gold.Chemscore.DEInternal.Weighted>
0.2637

> <Gold.Chemscore.Rot.Weighted>
4.2728

> <Gold.Chemscore.Internal.Correction.Weighted>
   9.000000E+99

> <Gold.Protein.RotatedTorsions>
[ 6907 6896 6895 6894 ] final   20.82 input  -60.11 | X-H torsion
[ 7974 7965 7964 7962 ] final -139.52 input  175.53 | X-H torsion
[ 8008 7997 7996 7995 ] final  123.53 input   59.86 | X-H torsion
[ 10167 10162 10161 10158 ] final  -40.28 input  -65.29 | X-H torsion
[ 10718 10713 10712 10709 ] final  -31.99 input   66.30 | X-H torsion
[ 10763 10752 10751 10750 ] final -118.86 input  -60.55 | X-H torsion
[ 11005 11000 10999 10996 ] final  172.85 input  -57.11 | X-H torsion

> <Gold.Protein.ActiveResidues>
 VAL166  LYS551  ARG553  GLY616  TRP617  ASP618  TYR619  PRO620  LYS621  CYS622 
 ASP623  PHE694  ASN695  SER759  ASP760  ASP761  ALA762  ILE779  LEU786  VAL792 
 PHE793  MET794  SER795  GLU796  ALA797  LYS798  CYS799  TRP800  GLU811  SER814 

> <Gold.Protein.RotatedAtoms>
  151.9023  135.0373  160.0507 H   0  0  0  0  0  0  0  0  0  0  0  0  # atno 6907 bound_to 6896
  152.2348  133.5083  159.5245 H   0  0  0  0  0  0  0  0  0  0  0  0  # atno 6908 bound_to 6896
  150.7036  134.1084  159.4034 H   0  0  0  0  0  0  0  0  0  0  0  0  # atno 6909 bound_to 6896
  144.8671  140.6309  143.5291 H   0  0  0  0  0  0  0  0  0  0  0  0  # atno 7974 bound_to 7965
  156.2769  140.2761  156.1642 H   0  0  0  0  0  0  0  0  0  0  0  0  # atno 8008 bound_to 7997
  155.0722  140.0387  157.2630 H   0  0  0  0  0  0  0  0  0  0  0  0  # atno 8009 bound_to 7997
  154.7031  140.2653  155.6706 H   0  0  0  0  0  0  0  0  0  0  0  0  # atno 8010 bound_to 7997
  140.7039  143.3163  151.2902 H   0  0  0  0  0  0  0  0  0  0  0  0  # atno 10167 bound_to 10162
  156.3804  130.4355  149.7474 H   0  0  0  0  0  0  0  0  0  0  0  0  # atno 10718 bound_to 10713
  154.8600  135.4259  154.2206 H   0  0  0  0  0  0  0  0  0  0  0  0  # atno 10763 bound_to 10752
  153.3212  135.6982  153.7035 H   0  0  0  0  0  0  0  0  0  0  0  0  # atno 10764 bound_to 10752
  153.6089  135.3523  155.2945 H   0  0  0  0  0  0  0  0  0  0  0  0  # atno 10765 bound_to 10752
  140.3342  134.7332  157.4156 H   0  0  0  0  0  0  0  0  0  0  0  0  # atno 11005 bound_to 11000
  145.4201  139.1565  143.4078 LP  0  0  0  0  0  0  0  0  0  0  0  0  # atno 17320 bound_to 7965
  146.2903  140.4311  142.8742 LP  0  0  0  0  0  0  0  0  0  0  0  0  # atno 17321 bound_to 7965
  139.6602  144.0202  152.2687 LP  0  0  0  0  0  0  0  0  0  0  0  0  # atno 17342 bound_to 10162
  139.9767  144.6456  150.7938 LP  0  0  0  0  0  0  0  0  0  0  0  0  # atno 17343 bound_to 10162
  156.4566  130.7932  151.2953 LP  0  0  0  0  0  0  0  0  0  0  0  0  # atno 17370 bound_to 10713
  157.7492  131.0079  150.3206 LP  0  0  0  0  0  0  0  0  0  0  0  0  # atno 17371 bound_to 10713
  140.0835  134.5698  155.8516 LP  0  0  0  0  0  0  0  0  0  0  0  0  # atno 17394 bound_to 11000
  141.2055  133.6648  156.6188 LP  0  0  0  0  0  0  0  0  0  0  0  0  # atno 17395 bound_to 11000

$$$$
