AV-unprocessed.smi:109|AV-procd|sdf|1050|dock1
  -GOLD-   2262018103D 1   1.00000     0.00000
 Structure written by MMmdl.
 58 61  0  0  0  0  0  0  0  0  1 V2000
  147.5183  138.4943  151.6348 O   0  0  0  0  0  0  0  0  0  0  0  0
  146.1556  138.1387  151.5441 C   0  0  0  0  0  0  0  0  0  0  0  0
  146.0249  136.6826  151.0647 C   0  0  0  0  0  0  0  0  0  0  0  0
  145.0481  135.8224  151.9045 C   0  0  1  0  0  0  0  0  0  0  0  0
  143.8100  136.5713  152.1341 N   0  0  0  0  0  0  0  0  0  0  0  0
  142.8288  136.1139  152.9445 C   0  0  0  0  0  0  0  0  0  0  0  0
  142.7866  134.8176  153.3449 N   0  0  0  0  0  0  0  0  0  0  0  0
  141.8088  134.3993  154.1511 C   0  0  0  0  0  0  0  0  0  0  0  0
  140.7964  135.1001  154.6631 N   0  0  0  0  0  0  0  0  0  0  0  0
  140.8247  136.4063  154.2666 C   0  0  0  0  0  0  0  0  0  0  0  0
  141.8066  136.9813  153.4096 C   0  0  0  0  0  0  0  0  0  0  0  0
  141.5302  138.3252  153.2094 N   0  0  0  0  0  0  0  0  0  0  0  0
  140.4446  138.5285  153.9039 C   0  0  0  0  0  0  0  0  0  0  0  0
  139.9547  137.4369  154.5884 N   0  0  0  0  0  0  0  0  0  0  0  0
  138.7092  137.4196  155.4352 C   0  0  1  0  0  0  0  0  0  0  0  0
  138.8926  138.2841  156.5098 O   0  0  0  0  0  0  0  0  0  0  0  0
  138.3618  139.5631  156.1951 C   0  0  2  0  0  0  0  0  0  0  0  0
  138.0211  140.3170  157.4896 C   0  0  0  0  0  0  0  0  0  0  0  0
  137.0860  139.5820  158.2500 O   0  0  0  0  0  0  0  0  0  0  0  0
  137.1256  139.2309  155.3429 C   0  0  1  0  0  0  0  0  0  0  0  0
  136.9310  140.2290  154.3614 O   0  0  0  0  0  0  0  0  0  0  0  0
  137.4452  137.8810  154.6906 C   0  0  2  0  0  0  0  0  0  0  0  0
  136.3783  136.9761  154.8930 O   0  0  0  0  0  0  0  0  0  0  0  0
  144.7097  134.4500  151.2538 C   0  0  0  0  0  0  0  0  0  0  0  0
  145.9348  133.4992  151.2847 C   0  0  0  0  0  0  0  0  0  0  0  0
  145.6400  132.1348  150.6426 C   0  0  0  0  0  0  0  0  0  0  0  0
  145.1535  132.2975  149.1980 C   0  0  0  0  0  0  0  0  0  0  0  0
  143.9242  133.2123  149.1447 C   0  0  0  0  0  0  0  0  0  0  0  0
  144.2075  134.5775  149.7932 C   0  0  0  0  0  0  0  0  0  0  0  0
  138.6504  136.3884  155.7863 H   0  0  0  0  0  0  0  0  0  0  0  0
  139.0939  140.1223  155.6120 H   0  0  0  0  0  0  0  0  0  0  0  0
  136.2385  139.1581  155.9747 H   0  0  0  0  0  0  0  0  0  0  0  0
  137.6297  137.9456  153.6186 H   0  0  0  0  0  0  0  0  0  0  0  0
  147.9753  137.8164  152.1087 H   0  0  0  0  0  0  0  0  0  0  0  0
  145.6922  138.2641  152.5231 H   0  0  0  0  0  0  0  0  0  0  0  0
  145.6640  138.8278  150.8573 H   0  0  0  0  0  0  0  0  0  0  0  0
  145.7221  136.6655  150.0168 H   0  0  0  0  0  0  0  0  0  0  0  0
  147.0238  136.2517  151.1024 H   0  0  0  0  0  0  0  0  0  0  0  0
  145.5394  135.5975  152.8509 H   0  0  0  0  0  0  0  0  0  0  0  0
  143.7205  137.4291  151.6089 H   0  0  0  0  0  0  0  0  0  0  0  0
  141.8436  133.3556  154.4263 H   0  0  0  0  0  0  0  0  0  0  0  0
  139.9654  139.4961  153.9380 H   0  0  0  0  0  0  0  0  0  0  0  0
  138.9173  140.4338  158.1001 H   0  0  0  0  0  0  0  0  0  0  0  0
  137.6395  141.3166  157.2797 H   0  0  0  0  0  0  0  0  0  0  0  0
  136.9363  140.0374  159.0645 H   0  0  0  0  0  0  0  0  0  0  0  0
  137.7735  140.4539  153.9951 H   0  0  0  0  0  0  0  0  0  0  0  0
  136.7391  136.1163  155.0460 H   0  0  0  0  0  0  0  0  0  0  0  0
  143.9125  133.9873  151.8381 H   0  0  0  0  0  0  0  0  0  0  0  0
  146.7738  133.9679  150.7684 H   0  0  0  0  0  0  0  0  0  0  0  0
  146.2667  133.3278  152.3088 H   0  0  0  0  0  0  0  0  0  0  0  0
  146.5354  131.5130  150.6645 H   0  0  0  0  0  0  0  0  0  0  0  0
  144.8841  131.6099  151.2280 H   0  0  0  0  0  0  0  0  0  0  0  0
  145.9524  132.7166  148.5850 H   0  0  0  0  0  0  0  0  0  0  0  0
  144.9128  131.3229  148.7726 H   0  0  0  0  0  0  0  0  0  0  0  0
  143.6108  133.3518  148.1097 H   0  0  0  0  0  0  0  0  0  0  0  0
  143.0897  132.7322  149.6572 H   0  0  0  0  0  0  0  0  0  0  0  0
  143.2857  135.1550  149.7483 H   0  0  0  0  0  0  0  0  0  0  0  0
  144.9434  135.1190  149.1973 H   0  0  0  0  0  0  0  0  0  0  0  0
  1  2  1  0  0  0  0
  1 34  1  0  0  0  0
  2  3  1  0  0  0  0
  2 35  1  0  0  0  0
  2 36  1  0  0  0  0
  3  4  1  0  0  0  0
  3 37  1  0  0  0  0
  3 38  1  0  0  0  0
  4  5  1  0  0  0  0
  4 24  1  0  0  0  0
  4 39  1  0  0  0  0
  5  6  1  0  0  0  0
  5 40  1  0  0  0  0
  6 11  1  0  0  0  0
  6  7  2  0  0  0  0
  7  8  1  0  0  0  0
  8  9  2  0  0  0  0
  8 41  1  0  0  0  0
  9 10  1  0  0  0  0
 10 14  1  0  0  0  0
 10 11  2  0  0  0  0
 11 12  1  0  0  0  0
 12 13  2  0  0  0  0
 13 14  1  0  0  0  0
 13 42  1  0  0  0  0
 14 15  1  0  0  0  0
 15 30  1  0  0  0  0
 15 22  1  0  0  0  0
 15 16  1  0  0  0  0
 16 17  1  0  0  0  0
 17 31  1  0  0  0  0
 17 18  1  0  0  0  0
 17 20  1  0  0  0  0
 18 19  1  0  0  0  0
 18 43  1  0  0  0  0
 18 44  1  0  0  0  0
 19 45  1  0  0  0  0
 20 32  1  0  0  0  0
 20 21  1  0  0  0  0
 20 22  1  0  0  0  0
 21 46  1  0  0  0  0
 22 33  1  0  0  0  0
 22 23  1  0  0  0  0
 23 47  1  0  0  0  0
 24 29  1  0  0  0  0
 24 25  1  0  0  0  0
 24 48  1  0  0  0  0
 25 26  1  0  0  0  0
 25 49  1  0  0  0  0
 25 50  1  0  0  0  0
 26 27  1  0  0  0  0
 26 51  1  0  0  0  0
 26 52  1  0  0  0  0
 27 28  1  0  0  0  0
 27 53  1  0  0  0  0
 27 54  1  0  0  0  0
 28 29  1  0  0  0  0
 28 55  1  0  0  0  0
 28 56  1  0  0  0  0
 29 57  1  0  0  0  0
 29 58  1  0  0  0  0
M  END
> <s_m_source_file>
AV-unprocessed.smi

> <i_m_source_file_index>
109

> <i_lp_mmshare_version>
43012

> <i_f3d_flags>
0

> <s_epik_input>
W0NIMl0xW0NIMl1bQ0gyXVtDSDJdW0NIMl1bQ0hdMVtDQEhdKFtDSDJdW0NIMl1bT0hdKVtOSF1jKG5bY0hdbjIpYyhjMjMpbltjSF1uM1tDQEBIXTRPW0NASF0oW0NIMl1bT0hdKVtDQEBIXShbT0hdKVtDQEhdNFtPSF0=

> <s_epik_cmdline>
J2VwaWtfcHl0aG9uJywgJy1waCcsICc3LjAnLCAnLXRuJywgJzgnLCAnLW1hJywgJzIwMCcsICctbWV0YWxfYmluZGluZycsICctaW1hZScsICc8aW5maWxlLm1hZT4nLCAnLW9tYWUnLCAnPG91dGZpbGUubWFlPic=

> <r_lp_tautomer_probability>
1

> <r_epik_Ionization_Penalty>
0.000793976

> <r_epik_Ionization_Penalty_Charging>
0

> <r_epik_Ionization_Penalty_Neutral>
0.000793976

> <r_epik_State_Penalty>
-0

> <r_epik_Charging_Adjusted_Penalty>
0

> <i_epik_Tot_Q>
0

> <i_epik_Tot_abs_Q>
0

> <r_epik_Metal_State_Penalty>
-0

> <b_epik_Metal_Only>
0

> <s_epik_Chemistry_Notes>
This compound contains an acetal/aminal-like group ( X-CH(R)-Y where X, Y are N, S, or O) that may be acid/base labile, releasing an aldehyde.

> <s_lp_Force_Field>
OPLS_2005

> <r_lp_Energy>
47.2869

> <b_lp_Chiralities_Consistent>
1

> <s_lp_Variant>
AV-unprocessed.smi:109-20

> <Gold.Version>
5.8.1

> <Gold.Id.Protein>
6NUR|6NUR_protein|mol2

> <Gold.PLP.Fitness>
52.6710

> <Gold.PLP.PLP>
-38.7461

> <Gold.PLP.part.hbond>
-5.2013

> <Gold.PLP.part.metal>
0.0000

> <Gold.PLP.part.buried>
3.4298

> <Gold.PLP.part.nonpolar>
-38.4941

> <Gold.PLP.part.repulsive>
2.7041

> <Gold.PLP.ligand.clash>
0.0000

> <Gold.PLP.ligand.torsion>
0.6210

> <Gold.PLP.Chemscore.Hbond>
3.6300

> <Gold.PLP.Chemscore.CHOScore>
1.2997

> <Gold.PLP.Chemscore.Metal>
0.0000

> <Gold.Chemscore.Hbonds>
donor molecule, donor type, donor heavy atom, donor atom, acceptor molecule, acceptor atom, score
      L1  H     1    34       P1  7948  0.82
      L1  H     5    40       P1 10171  0.75
      P1  H  7954  7966       L1     1  0.65
      P1  H 11000 11005       L1     9  0.64
      L1  C     8    41       P1 10957  0.42

> <Gold.PLP.Chemscore.Internal.Correction>
0.3777

> <Gold.Rescore>
     Score         DG    S(hbond)    S(metal)    S(lipo)     H(rot)  DE(clash)    DE(int)     intcor
      4.33     -12.05       2.59        0.00     101.79       5.47       5.86       1.86       ----

> <Gold.Chemscore.Fitness>
4.3332

> <Gold.Chemscore.DG>
-12.0489

> <Gold.Chemscore.ZeroCoef>
-5.4800

> <Gold.Chemscore.Hbond>
2.5909

> <Gold.Chemscore.Metal>
0.0000

> <Gold.Chemscore.Lipo>
101.7855

> <Gold.Chemscore.Internal_Hbond>
0.0000

> <Gold.Chemscore.DEClash>
5.8564

> <Gold.Chemscore.DEInternal>
1.8593

> <Gold.Chemscore.Rot>
5.4662

> <Gold.Chemscore.Internal.Correction>
   9.000000E+99

> <Gold.Chemscore.Hbonds>
donor molecule, donor type, donor heavy atom, donor atom, acceptor molecule, acceptor atom, score
      L1  H     1    34       P1  7948  0.81
      L1  H     5    40       P1 10171  0.70
      P1  H  7954  7966       L1     1  0.02
      P1  H 11000 11005       L1     9  0.56

> <Gold.Chemscore.Hbond.Weighted>
-8.6535

> <Gold.Chemscore.Metal.Weighted>
-0.0000

> <Gold.Chemscore.Lipo.Weighted>
-11.9089

> <Gold.Chemscore.Internal_Hbond.Weighted>
0.0000

> <Gold.Chemscore.DEClash.Weighted>
5.8564

> <Gold.Chemscore.DEInternal.Weighted>
1.8593

> <Gold.Chemscore.Rot.Weighted>
13.9935

> <Gold.Chemscore.Internal.Correction.Weighted>
   9.000000E+99

> <Gold.Protein.RotatedTorsions>
[ 6907 6896 6895 6894 ] final -161.54 input  -60.11 | X-H torsion
[ 7974 7965 7964 7962 ] final  -88.65 input  175.53 | X-H torsion
[ 8008 7997 7996 7995 ] final  -41.68 input   59.86 | X-H torsion
[ 10167 10162 10161 10158 ] final   19.76 input  -65.29 | X-H torsion
[ 10718 10713 10712 10709 ] final  156.32 input   66.30 | X-H torsion
[ 10763 10752 10751 10750 ] final   83.71 input  -60.55 | X-H torsion
[ 11005 11000 10999 10996 ] final   44.96 input  -57.11 | X-H torsion

> <Gold.Protein.ActiveResidues>
 VAL166  LYS551  ARG553  GLY616  TRP617  ASP618  TYR619  PRO620  LYS621  CYS622 
 ASP623  PHE694  ASN695  SER759  ASP760  ASP761  ALA762  ILE779  LEU786  VAL792 
 PHE793  MET794  SER795  GLU796  ALA797  LYS798  CYS799  TRP800  GLU811  SER814 

> <Gold.Protein.RotatedAtoms>
  151.3662  133.3871  159.2694 H   0  0  0  0  0  0  0  0  0  0  0  0  # atno 6907 bound_to 6896
  150.9686  134.9064  159.7785 H   0  0  0  0  0  0  0  0  0  0  0  0  # atno 6908 bound_to 6896
  152.5176  134.3624  159.9341 H   0  0  0  0  0  0  0  0  0  0  0  0  # atno 6909 bound_to 6896
  145.4504  140.9560  143.2026 H   0  0  0  0  0  0  0  0  0  0  0  0  # atno 7974 bound_to 7965
  154.4003  140.1493  156.3230 H   0  0  0  0  0  0  0  0  0  0  0  0  # atno 8008 bound_to 7997
  155.8512  140.3457  155.5673 H   0  0  0  0  0  0  0  0  0  0  0  0  # atno 8009 bound_to 7997
  155.7982  140.0866  157.1962 H   0  0  0  0  0  0  0  0  0  0  0  0  # atno 8010 bound_to 7997
  140.5555  143.9432  150.6606 H   0  0  0  0  0  0  0  0  0  0  0  0  # atno 10167 bound_to 10162
  157.2066  131.0688  151.1994 H   0  0  0  0  0  0  0  0  0  0  0  0  # atno 10718 bound_to 10713
  153.1315  135.4681  154.9357 H   0  0  0  0  0  0  0  0  0  0  0  0  # atno 10763 bound_to 10752
  154.7669  135.3147  154.8271 H   0  0  0  0  0  0  0  0  0  0  0  0  # atno 10764 bound_to 10752
  153.8813  135.6894  153.4821 H   0  0  0  0  0  0  0  0  0  0  0  0  # atno 10765 bound_to 10752
  140.1504  134.4469  155.8386 H   0  0  0  0  0  0  0  0  0  0  0  0  # atno 11005 bound_to 11000
  144.8065  139.6041  143.7048 LP  0  0  0  0  0  0  0  0  0  0  0  0  # atno 17320 bound_to 7965
  146.2508  139.6195  142.9429 LP  0  0  0  0  0  0  0  0  0  0  0  0  # atno 17321 bound_to 7965
  140.2869  143.3350  152.1099 LP  0  0  0  0  0  0  0  0  0  0  0  0  # atno 17342 bound_to 10162
  139.5046  144.6778  151.6084 LP  0  0  0  0  0  0  0  0  0  0  0  0  # atno 17343 bound_to 10162
  157.3714  130.7183  149.6567 LP  0  0  0  0  0  0  0  0  0  0  0  0  # atno 17370 bound_to 10713
  155.9695  130.4198  150.4391 LP  0  0  0  0  0  0  0  0  0  0  0  0  # atno 17371 bound_to 10713
  141.2198  133.6870  156.7411 LP  0  0  0  0  0  0  0  0  0  0  0  0  # atno 17394 bound_to 11000
  140.2612  134.8465  157.3760 LP  0  0  0  0  0  0  0  0  0  0  0  0  # atno 17395 bound_to 11000

$$$$
