#       Name:                AV-unprocessed.smi:1256
#       Creating user name   scv26
#       Creation time:       Fri Mar 27 04:40:26 2020


#       File generated by GOLD software.
#

@<TRIPOS>MOLECULE
AV-unprocessed.smi:1256
    44    45     1
SMALL
NO_CHARGES


@<TRIPOS>ATOM
      1 ****        -6.7474   0.9928  -0.3524 C.3            1 S1                 0.0000
      2 ****        -5.3681   1.5699  -0.2293 C.2            1 S1                 0.0000
      3 ****        -4.1480   0.8808   0.0311 C.2            1 S1                 0.0000
      4 ****        -3.2261   1.8917   0.0351 C.2            1 S1                 0.0000
      5 ****        -1.8837   1.8243   0.2398 N.am           1 S1                 0.0000
      6 ****        -1.1185   0.7389   0.4492 C.2            1 S1                 0.0000
      7 ****        -1.5230  -0.4233   0.4934 O.2            1 S1                 0.0000
      8 ****         0.1692   1.0783   0.6047 N.am           1 S1                 0.0000
      9 ****         1.2590   0.1387   0.8403 C.3            1 S1                 0.0000
     10 ****         1.7327  -0.5138  -0.4704 C.3            1 S1                 0.0000
     11 ****         2.9334  -1.4245  -0.2753 C.2            1 S1                 0.0000
     12 ****         4.1602  -1.0876  -0.7188 C.2            1 S1                 0.0000
     13 ****         5.3869  -1.9738  -0.5931 C.3            1 S1                 0.0000
     14 ****         5.0254  -3.4277  -0.2469 C.3            1 S1                 0.0000
     15 ****         3.9489  -3.4855   0.8438 C.3            1 S1                 0.0000
     16 ****         2.6624  -2.7615   0.4070 C.3            1 S1                 0.0000
     17 ****        -3.8717   3.0837  -0.2083 N.pl3          1 S1                 0.0000
     18 ****        -3.3279   4.4248  -0.2995 C.3            1 S1                 0.0000
     19 ****        -5.1970   2.8797  -0.3701 N.2            1 S1                 0.0000
     20 ****        -6.7363  -0.0881  -0.2100 H              1 S1                 0.0000
     21 ****        -7.1702   1.1932  -1.3371 H              1 S1                 0.0000
     22 ****        -7.4194   1.4183   0.3935 H              1 S1                 0.0000
     23 ****        -3.9985  -0.1769   0.1867 H              1 S1                 0.0000
     24 ****        -1.4020   2.7110   0.2244 H              1 S1                 0.0000
     25 ****         0.4152   2.0562   0.5538 H              1 S1                 0.0000
     26 ****         2.0823   0.6879   1.2979 H              1 S1                 0.0000
     27 ****         0.9467  -0.6131   1.5663 H              1 S1                 0.0000
     28 ****         0.9277  -1.0932  -0.9242 H              1 S1                 0.0000
     29 ****         1.9889   0.2670  -1.1882 H              1 S1                 0.0000
     30 ****         4.3159  -0.1290  -1.1924 H              1 S1                 0.0000
     31 ****         5.9483  -1.9444  -1.5273 H              1 S1                 0.0000
     32 ****         6.0311  -1.5510   0.1784 H              1 S1                 0.0000
     33 ****         4.6578  -3.9352  -1.1398 H              1 S1                 0.0000
     34 ****         5.9177  -3.9682   0.0703 H              1 S1                 0.0000
     35 ****         3.7233  -4.5210   1.0995 H              1 S1                 0.0000
     36 ****         4.3363  -3.0212   1.7516 H              1 S1                 0.0000
     37 ****         2.0216  -2.6188   1.2764 H              1 S1                 0.0000
     38 ****         2.1046  -3.3851  -0.2925 H              1 S1                 0.0000
     39 ****        -2.4785   4.4315  -0.9827 H              1 S1                 0.0000
     40 ****        -2.9968   4.7527   0.6860 H              1 S1                 0.0000
     41 ****        -4.0819   5.1204  -0.6700 H              1 S1                 0.0000
     42 ****        -2.4955  -0.6193   0.3678 LP             1 S1                 0.0000
     43 ****        -0.8790  -1.1710   0.6548 LP             1 S1                 0.0000
     44 ****        -5.8990   3.5673  -0.5560 LP             1 S1                 0.0000
@<TRIPOS>BOND
    1    1    2 1     
    2    1   20 1     
    3    1   21 1     
    4    1   22 1     
    5    2   19 2     
    6    2    3 1     
    7    3    4 2     
    8    3   23 1     
    9    4    5 1     
   10    4   17 1     
   11    5    6 am    
   12    5   24 1     
   13    6    7 2     
   14    6    8 am    
   15    8    9 1     
   16    8   25 1     
   17    9   10 1     
   18    9   26 1     
   19    9   27 1     
   20   10   11 1     
   21   10   28 1     
   22   10   29 1     
   23   11   16 1     
   24   11   12 2     
   25   12   13 1     
   26   12   30 1     
   27   13   14 1     
   28   13   31 1     
   29   13   32 1     
   30   14   15 1     
   31   14   33 1     
   32   14   34 1     
   33   15   16 1     
   34   15   35 1     
   35   15   36 1     
   36   16   37 1     
   37   16   38 1     
   38   17   18 1     
   39   17   19 1     
   40   18   39 1     
   41   18   40 1     
   42   18   41 1     
   43    7   42 1     
   44    7   43 1     
   45   19   44 1     
@<TRIPOS>SUBSTRUCTURE
      1 S1             1
@<TRIPOS>SET
LONE_PAIRS      STATIC     ATOMS    <user>   **** ""
3 42 43 44
DONOR_HYDROGENS      STATIC     ATOMS    <user>   **** ""
2 24 25
ATOM$BLUE        STATIC     ATOMS    COLORGROUP SYSTEM
3 42 43 44
ATOM$RED        STATIC     ATOMS    COLORGROUP SYSTEM
2 24 25
