AV-unprocessed.smi:1856|AV-procd|sdf|7534|dock5
  -GOLD-   22720 9243D 1   1.00000     0.00000
 Structure written by MMmdl.
 44 45  0  0  0  0  0  0  0  0  1 V2000
  146.2711  142.4466  155.8180 C   0  0  0  0  0  0  0  0  0  0  0  0
  146.6510  141.9597  154.4153 C   0  0  0  0  0  0  0  0  0  0  0  0
  147.3331  140.5801  154.4370 C   0  0  0  0  0  0  0  0  0  0  0  0
  148.8271  140.6573  154.7646 C   0  0  0  0  0  0  0  0  0  0  0  0
  149.5581  141.4453  154.1642 O   0  0  0  0  0  0  0  0  0  0  0  0
  149.2705  139.8185  155.7143 N   0  0  0  0  0  0  0  0  0  0  0  0
  150.6566  139.7031  156.1660 C   0  0  1  0  0  0  0  0  0  0  0  0
  151.5855  139.4989  154.9625 C   0  0  0  0  0  0  0  0  0  0  0  0
  151.0226  140.9374  156.9537 C   0  0  0  0  0  0  0  0  0  0  0  0
  150.9050  142.1667  156.4432 N   0  0  0  0  0  0  0  0  0  0  0  0
  151.3508  142.9720  157.4709 C   0  0  0  0  0  0  0  0  0  0  0  0
  151.4645  144.3783  157.5509 C   0  0  0  0  0  0  0  0  0  0  0  0
  151.9565  144.9889  158.7226 C   0  0  0  0  0  0  0  0  0  0  0  0
  152.3416  144.2035  159.8283 C   0  0  0  0  0  0  0  0  0  0  0  0
  152.2377  142.8005  159.7682 C   0  0  0  0  0  0  0  0  0  0  0  0
  151.7452  142.1953  158.5960 C   0  0  0  0  0  0  0  0  0  0  0  0
  151.5206  140.8745  158.2162 N   0  0  0  0  0  0  0  0  0  0  0  0
  151.7873  139.6941  159.0288 C   0  0  0  0  0  0  0  0  0  0  0  0
  152.9391  138.8238  158.4836 C   0  0  2  0  0  0  0  0  0  0  0  0
  153.2783  137.6054  159.3561 C   0  0  0  0  0  0  0  0  0  0  0  0
  154.0911  139.6315  158.3707 O   0  0  0  0  0  0  0  0  0  0  0  0
  145.7947  143.4261  155.7727 H   0  0  0  0  0  0  0  0  0  0  0  0
  147.1501  142.5338  156.4572 H   0  0  0  0  0  0  0  0  0  0  0  0
  145.5733  141.7597  156.2976 H   0  0  0  0  0  0  0  0  0  0  0  0
  145.7512  141.9231  153.7995 H   0  0  0  0  0  0  0  0  0  0  0  0
  147.3137  142.6915  153.9515 H   0  0  0  0  0  0  0  0  0  0  0  0
  146.8347  139.9385  155.1655 H   0  0  0  0  0  0  0  0  0  0  0  0
  147.2222  140.0947  153.4666 H   0  0  0  0  0  0  0  0  0  0  0  0
  148.6017  139.1966  156.1450 H   0  0  0  0  0  0  0  0  0  0  0  0
  150.7301  138.8185  156.7972 H   0  0  0  0  0  0  0  0  0  0  0  0
  152.6216  139.3928  155.2850 H   0  0  0  0  0  0  0  0  0  0  0  0
  151.5366  140.3432  154.2738 H   0  0  0  0  0  0  0  0  0  0  0  0
  151.3182  138.5992  154.4077 H   0  0  0  0  0  0  0  0  0  0  0  0
  151.1720  144.9879  156.7089 H   0  0  0  0  0  0  0  0  0  0  0  0
  152.0384  146.0648  158.7733 H   0  0  0  0  0  0  0  0  0  0  0  0
  152.7164  144.6789  160.7229 H   0  0  0  0  0  0  0  0  0  0  0  0
  152.5305  142.1979  160.6147 H   0  0  0  0  0  0  0  0  0  0  0  0
  151.9922  140.0076  160.0530 H   0  0  0  0  0  0  0  0  0  0  0  0
  150.8716  139.1038  159.0795 H   0  0  0  0  0  0  0  0  0  0  0  0
  152.6910  138.4750  157.4822 H   0  0  0  0  0  0  0  0  0  0  0  0
  152.4420  136.9077  159.4075 H   0  0  0  0  0  0  0  0  0  0  0  0
  153.5285  137.9046  160.3744 H   0  0  0  0  0  0  0  0  0  0  0  0
  154.1296  137.0580  158.9507 H   0  0  0  0  0  0  0  0  0  0  0  0
  154.7829  139.2394  158.8818 H   0  0  0  0  0  0  0  0  0  0  0  0
  1  2  1  0  0  0  0
  1 22  1  0  0  0  0
  1 23  1  0  0  0  0
  1 24  1  0  0  0  0
  2  3  1  0  0  0  0
  2 25  1  0  0  0  0
  2 26  1  0  0  0  0
  3  4  1  0  0  0  0
  3 27  1  0  0  0  0
  3 28  1  0  0  0  0
  4  5  2  0  0  0  0
  4  6  1  0  0  0  0
  6  7  1  0  0  0  0
  6 29  1  0  0  0  0
  7  8  1  0  0  0  0
  7  9  1  0  0  0  0
  7 30  1  0  0  0  0
  8 31  1  0  0  0  0
  8 32  1  0  0  0  0
  8 33  1  0  0  0  0
  9 17  1  0  0  0  0
  9 10  2  0  0  0  0
 10 11  1  0  0  0  0
 11 16  2  0  0  0  0
 11 12  1  0  0  0  0
 12 13  2  0  0  0  0
 12 34  1  0  0  0  0
 13 14  1  0  0  0  0
 13 35  1  0  0  0  0
 14 15  2  0  0  0  0
 14 36  1  0  0  0  0
 15 16  1  0  0  0  0
 15 37  1  0  0  0  0
 16 17  1  0  0  0  0
 17 18  1  0  0  0  0
 18 19  1  0  0  0  0
 18 38  1  0  0  0  0
 18 39  1  0  0  0  0
 19 20  1  0  0  0  0
 19 21  1  0  0  0  0
 19 40  1  0  0  0  0
 20 41  1  0  0  0  0
 20 42  1  0  0  0  0
 20 43  1  0  0  0  0
 21 44  1  0  0  0  0
M  END
> <s_m_source_file>
AV-unprocessed.smi

> <i_m_source_file_index>
1856

> <i_lp_mmshare_version>
43012

> <i_f3d_flags>
0

> <s_epik_input>
W0NIM11bQ0gyXVtDSDJdQyg9TylbTkhdW0NASF0oW0NIM10pYyhuMSluKFtDSDJdW0NASF0oW0NIM10pW09IXSljKGMxMilbY0hdW2NIXVtjSF1bY0hdMg==

> <s_epik_cmdline>
J2VwaWtfcHl0aG9uJywgJy1waCcsICc3LjAnLCAnLXRuJywgJzgnLCAnLW1hJywgJzIwMCcsICctbWV0YWxfYmluZGluZycsICctaW1hZScsICc8aW5maWxlLm1hZT4nLCAnLW9tYWUnLCAnPG91dGZpbGUubWFlPic=

> <r_epik_Ionization_Penalty>
0.134222

> <r_epik_Ionization_Penalty_Charging>
0

> <r_epik_Ionization_Penalty_Neutral>
0.134222

> <r_epik_State_Penalty>
0.123585

> <r_epik_Charging_Adjusted_Penalty>
0.123585

> <i_epik_Tot_Q>
0

> <i_epik_Tot_abs_Q>
0

> <r_epik_Metal_State_Penalty>
0.100548

> <b_epik_Metal_Only>
0

> <s_lp_Force_Field>
OPLS_2005

> <r_lp_Energy>
2.96492

> <b_lp_Chiralities_Consistent>
1

> <s_lp_Variant>
AV-unprocessed.smi:1856-2

> <Gold.Version>
5.8.1

> <Gold.Id.Protein>
6NUR|6NUR_protein|mol2

> <Gold.PLP.Fitness>
49.6253

> <Gold.PLP.PLP>
-44.3372

> <Gold.PLP.part.hbond>
-3.0000

> <Gold.PLP.part.metal>
0.0000

> <Gold.PLP.part.buried>
-2.0700

> <Gold.PLP.part.nonpolar>
-38.6776

> <Gold.PLP.part.repulsive>
0.3254

> <Gold.PLP.ligand.clash>
0.0000

> <Gold.PLP.ligand.torsion>
0.4364

> <Gold.PLP.Chemscore.Hbond>
2.0080

> <Gold.PLP.Chemscore.CHOScore>
0.0000

> <Gold.PLP.Chemscore.Metal>
0.0000

> <Gold.Chemscore.Hbonds>
donor molecule, donor type, donor heavy atom, donor atom, acceptor molecule, acceptor atom, score
      P1  H  7989  7998       L1     5  0.15
      P1  H  7997  8008       L1    21  0.83
      P1  H  8011  8017       L1     5  0.58

> <Gold.PLP.Chemscore.Internal.Correction>
0.1368

> <Gold.Rescore>
     Score         DG    S(hbond)    S(metal)    S(lipo)     H(rot)  DE(clash)    DE(int)     intcor
     15.67     -19.96       2.15        0.00     115.79       2.45       1.64       2.65       ----

> <Gold.Chemscore.Fitness>
15.6712

> <Gold.Chemscore.DG>
-19.9580

> <Gold.Chemscore.ZeroCoef>
-5.4800

> <Gold.Chemscore.Hbond>
2.1532

> <Gold.Chemscore.Metal>
0.0000

> <Gold.Chemscore.Lipo>
115.7926

> <Gold.Chemscore.Internal_Hbond>
0.0000

> <Gold.Chemscore.DEClash>
1.6384

> <Gold.Chemscore.DEInternal>
2.6484

> <Gold.Chemscore.Rot>
2.4459

> <Gold.Chemscore.Internal.Correction>
   9.000000E+99

> <Gold.Chemscore.Hbonds>
donor molecule, donor type, donor heavy atom, donor atom, acceptor molecule, acceptor atom, score
      P1  H  7989  7998       L1     5  0.16
      P1  H  7997  8008       L1    21  0.52
      P1  H  8011  8017       L1     5  0.55

> <Gold.Chemscore.Hbond.Weighted>
-7.1917

> <Gold.Chemscore.Metal.Weighted>
-0.0000

> <Gold.Chemscore.Lipo.Weighted>
-13.5477

> <Gold.Chemscore.Internal_Hbond.Weighted>
0.0000

> <Gold.Chemscore.DEClash.Weighted>
1.6384

> <Gold.Chemscore.DEInternal.Weighted>
2.6484

> <Gold.Chemscore.Rot.Weighted>
6.2614

> <Gold.Chemscore.Internal.Correction.Weighted>
   9.000000E+99

> <Gold.Protein.RotatedTorsions>
[ 6907 6896 6895 6894 ] final  -57.38 input  -60.11 | X-H torsion
[ 7974 7965 7964 7962 ] final   64.80 input  175.53 | X-H torsion
[ 8008 7997 7996 7995 ] final  -88.27 input   59.86 | X-H torsion
[ 10167 10162 10161 10158 ] final -131.50 input  -65.29 | X-H torsion
[ 10718 10713 10712 10709 ] final  -74.24 input   66.30 | X-H torsion
[ 10763 10752 10751 10750 ] final  -36.30 input  -60.55 | X-H torsion
[ 11005 11000 10999 10996 ] final -151.10 input  -57.11 | X-H torsion

> <Gold.Protein.ActiveResidues>
 VAL166  LYS551  ARG553  GLY616  TRP617  ASP618  TYR619  PRO620  LYS621  CYS622 
 ASP623  PHE694  ASN695  SER759  ASP760  ASP761  ALA762  ILE779  LEU786  VAL792 
 PHE793  MET794  SER795  GLU796  ALA797  LYS798  CYS799  TRP800  GLU811  SER814 

> <Gold.Protein.RotatedAtoms>
  150.8091  134.7234  159.6670 H   0  0  0  0  0  0  0  0  0  0  0  0  # atno 6907 bound_to 6896
  152.4210  134.5951  159.9994 H   0  0  0  0  0  0  0  0  0  0  0  0  # atno 6908 bound_to 6896
  151.6166  133.3305  159.3115 H   0  0  0  0  0  0  0  0  0  0  0  0  # atno 6909 bound_to 6896
  145.8459  139.3224  143.0904 H   0  0  0  0  0  0  0  0  0  0  0  0  # atno 7974 bound_to 7965
  154.6729  140.0555  157.0185 H   0  0  0  0  0  0  0  0  0  0  0  0  # atno 8008 bound_to 7997
  155.1062  140.3234  155.4515 H   0  0  0  0  0  0  0  0  0  0  0  0  # atno 8009 bound_to 7997
  156.2664  140.2022  156.6188 H   0  0  0  0  0  0  0  0  0  0  0  0  # atno 8010 bound_to 7997
  139.9183  143.6413  152.2560 H   0  0  0  0  0  0  0  0  0  0  0  0  # atno 10167 bound_to 10162
  156.0250  130.4412  150.2862 H   0  0  0  0  0  0  0  0  0  0  0  0  # atno 10718 bound_to 10713
  153.8774  135.6825  153.4769 H   0  0  0  0  0  0  0  0  0  0  0  0  # atno 10763 bound_to 10752
  153.1253  135.4722  154.9259 H   0  0  0  0  0  0  0  0  0  0  0  0  # atno 10764 bound_to 10752
  154.7685  135.3231  154.8189 H   0  0  0  0  0  0  0  0  0  0  0  0  # atno 10765 bound_to 10752
  140.7332  134.3597  157.5162 H   0  0  0  0  0  0  0  0  0  0  0  0  # atno 11005 bound_to 11000
  145.9412  140.8978  143.0306 LP  0  0  0  0  0  0  0  0  0  0  0  0  # atno 17320 bound_to 7965
  144.6731  140.1552  143.7427 LP  0  0  0  0  0  0  0  0  0  0  0  0  # atno 17321 bound_to 7965
  139.6884  144.7649  151.1483 LP  0  0  0  0  0  0  0  0  0  0  0  0  # atno 17342 bound_to 10162
  140.7668  143.5625  150.9084 LP  0  0  0  0  0  0  0  0  0  0  0  0  # atno 17343 bound_to 10162
  157.0965  131.0184  151.3102 LP  0  0  0  0  0  0  0  0  0  0  0  0  # atno 17370 bound_to 10713
  157.4813  130.7767  149.7417 LP  0  0  0  0  0  0  0  0  0  0  0  0  # atno 17371 bound_to 10713
  139.8822  134.9032  156.2850 LP  0  0  0  0  0  0  0  0  0  0  0  0  # atno 17394 bound_to 11000
  140.9902  133.7213  156.0803 LP  0  0  0  0  0  0  0  0  0  0  0  0  # atno 17395 bound_to 11000

$$$$
