AV-unprocessed.smi:1534|AV-procd|sdf|6168|dock9
  -GOLD-   22720 6313D 1   1.00000     0.00000
 Structure written by MMmdl.
 37 38  0  0  0  0  0  0  0  0  2 V2000
  149.6225  134.2297  155.8321 O   0  0  0  0  0  0  0  0  0  0  0  0
  149.3226  134.7525  154.7605 C   0  0  0  0  0  0  0  0  0  0  0  0
  148.3977  134.2474  153.9262 N   0  0  0  0  0  0  0  0  0  0  0  0
  147.6272  133.0338  154.1696 C   0  0  0  0  0  0  0  0  0  0  0  0
  147.6459  132.0968  152.9499 C   0  0  0  0  0  0  0  0  0  0  0  0
  146.5286  132.4048  151.9726 C   0  0  0  0  0  0  0  0  0  0  0  0
  145.4823  133.2988  152.2879 C   0  0  0  0  0  0  0  0  0  0  0  0
  144.4688  133.5368  151.3361 C   0  0  0  0  0  0  0  0  0  0  0  0
  144.5222  132.8759  150.0912 C   0  0  0  0  0  0  0  0  0  0  0  0
  145.5888  131.9916  149.8301 C   0  0  0  0  0  0  0  0  0  0  0  0
  146.5404  131.7893  150.7680 N   0  3  0  0  0  0  0  0  0  0  0  0
  149.8977  135.8938  154.3419 N   0  0  0  0  0  0  0  0  0  0  0  0
  150.9291  136.6858  155.0131 C   0  0  2  0  0  0  0  0  0  0  0  0
  150.4408  137.1687  156.3915 C   0  0  0  0  0  0  0  0  0  0  0  0
  151.3848  138.2683  156.8951 C   0  0  0  0  0  0  0  0  0  0  0  0
  152.0427  139.1025  155.4009 S   0  0  0  0  0  0  0  0  0  0  0  0
  151.3987  140.4147  155.2393 O   0  0  0  0  0  0  0  0  0  0  0  0
  153.5075  138.9700  155.3897 O   0  0  0  0  0  0  0  0  0  0  0  0
  151.3209  137.9279  154.1961 C   0  0  0  0  0  0  0  0  0  0  0  0
  148.2140  134.7413  153.0648 H   0  0  0  0  0  0  0  0  0  0  0  0
  148.0547  132.5294  155.0367 H   0  0  0  0  0  0  0  0  0  0  0  0
  146.6012  133.2942  154.4359 H   0  0  0  0  0  0  0  0  0  0  0  0
  148.5997  132.1745  152.4262 H   0  0  0  0  0  0  0  0  0  0  0  0
  147.5585  131.0588  153.2744 H   0  0  0  0  0  0  0  0  0  0  0  0
  145.4536  133.7949  153.2474 H   0  0  0  0  0  0  0  0  0  0  0  0
  143.6598  134.2170  151.5590 H   0  0  0  0  0  0  0  0  0  0  0  0
  143.7557  133.0440  149.3486 H   0  0  0  0  0  0  0  0  0  0  0  0
  145.7087  131.4442  148.9066 H   0  0  0  0  0  0  0  0  0  0  0  0
  149.5661  136.2646  153.4628 H   0  0  0  0  0  0  0  0  0  0  0  0
  151.8188  136.0750  155.1772 H   0  0  0  0  0  0  0  0  0  0  0  0
  149.4401  137.5915  156.2897 H   0  0  0  0  0  0  0  0  0  0  0  0
  150.3670  136.3485  157.1064 H   0  0  0  0  0  0  0  0  0  0  0  0
  150.8872  138.9907  157.5424 H   0  0  0  0  0  0  0  0  0  0  0  0
  152.2266  137.8377  157.4381 H   0  0  0  0  0  0  0  0  0  0  0  0
  152.0391  137.7178  153.4037 H   0  0  0  0  0  0  0  0  0  0  0  0
  150.4438  138.4024  153.7547 H   0  0  0  0  0  0  0  0  0  0  0  0
  147.3027  131.1443  150.5576 H   0  0  0  0  0  0  0  0  0  0  0  0
  1  2  2  0  0  0  0
  2  3  1  0  0  0  0
  2 12  1  0  0  0  0
  3  4  1  0  0  0  0
  3 20  1  0  0  0  0
  4  5  1  0  0  0  0
  4 21  1  0  0  0  0
  4 22  1  0  0  0  0
  5  6  1  0  0  0  0
  5 23  1  0  0  0  0
  5 24  1  0  0  0  0
  6 11  1  0  0  0  0
  6  7  2  0  0  0  0
  7  8  1  0  0  0  0
  7 25  1  0  0  0  0
  8  9  2  0  0  0  0
  8 26  1  0  0  0  0
  9 10  1  0  0  0  0
  9 27  1  0  0  0  0
 10 11  2  0  0  0  0
 10 28  1  0  0  0  0
 11 37  1  0  0  0  0
 12 13  1  0  0  0  0
 12 29  1  0  0  0  0
 13 19  1  0  0  0  0
 13 14  1  0  0  0  0
 13 30  1  0  0  0  0
 14 15  1  0  0  0  0
 14 31  1  0  0  0  0
 14 32  1  0  0  0  0
 15 16  1  0  0  0  0
 15 33  1  0  0  0  0
 15 34  1  0  0  0  0
 16 17  2  0  0  0  0
 16 18  2  0  0  0  0
 16 19  1  0  0  0  0
 19 35  1  0  0  0  0
 19 36  1  0  0  0  0
M  CHG  1  11   1
M  END
> <s_m_source_file>
AV-unprocessed.smi

> <i_m_source_file_index>
1534

> <i_lp_mmshare_version>
43012

> <i_f3d_flags>
0

> <s_epik_input>
Tz1TMSg9TylbQ0gyXVtDSDJdW0NASF0oW0NIMl0xKVtOSF1DKD1PKVtOSF1bQ0gyXVtDSDJdYzJbY0hdW2NIXVtjSF1bY0hdbjI=

> <s_epik_cmdline>
J2VwaWtfcHl0aG9uJywgJy1waCcsICc3LjAnLCAnLXRuJywgJzgnLCAnLW1hJywgJzIwMCcsICctbWV0YWxfYmluZGluZycsICctaW1hZScsICc8aW5maWxlLm1hZT4nLCAnLW9tYWUnLCAnPG91dGZpbGUubWFlPic=

> <r_epik_Ionization_Penalty>
1.58466

> <r_epik_Ionization_Penalty_Charging>
1.58462

> <r_epik_Ionization_Penalty_Neutral>
3.4911e-05

> <r_epik_State_Penalty>
1.6815

> <r_epik_Charging_Adjusted_Penalty>
3.26612

> <i_epik_Tot_Q>
1

> <i_epik_Tot_abs_Q>
1

> <r_epik_Metal_State_Penalty>
1.72144

> <b_epik_Metal_Only>
0

> <s_lp_Force_Field>
OPLS_2005

> <r_lp_Energy>
16.0644

> <b_lp_Chiralities_Consistent>
1

> <s_lp_Variant>
AV-unprocessed.smi:1534-3

> <Gold.Version>
5.8.1

> <Gold.Id.Protein>
6NUR|6NUR_protein|mol2

> <Gold.PLP.Fitness>
46.3154

> <Gold.PLP.PLP>
-32.6138

> <Gold.PLP.part.hbond>
-5.5549

> <Gold.PLP.part.metal>
0.0000

> <Gold.PLP.part.buried>
-4.1834

> <Gold.PLP.part.nonpolar>
-23.4231

> <Gold.PLP.part.repulsive>
0.1781

> <Gold.PLP.ligand.clash>
0.0000

> <Gold.PLP.ligand.torsion>
0.3176

> <Gold.PLP.Chemscore.Hbond>
4.7760

> <Gold.PLP.Chemscore.CHOScore>
0.0000

> <Gold.PLP.Chemscore.Metal>
0.0000

> <Gold.Chemscore.Hbonds>
donor molecule, donor type, donor heavy atom, donor atom, acceptor molecule, acceptor atom, score
      L1  H     3    20       P1  7948  0.85
      L1  H    11    37       P1 10747  1.00
      L1  H    12    29       P1  7948  1.00
      P1  H  7989  7998       L1    17  0.93
      P1  H  7997  8009       L1    18  0.99

> <Gold.PLP.Chemscore.Internal.Correction>
0.0087

> <Gold.Rescore>
     Score         DG    S(hbond)    S(metal)    S(lipo)     H(rot)  DE(clash)    DE(int)     intcor
     22.28     -22.67       4.09        0.00      70.04       1.82       0.04       0.35       ----

> <Gold.Chemscore.Fitness>
22.2846

> <Gold.Chemscore.DG>
-22.6691

> <Gold.Chemscore.ZeroCoef>
-5.4800

> <Gold.Chemscore.Hbond>
4.0894

> <Gold.Chemscore.Metal>
0.0000

> <Gold.Chemscore.Lipo>
70.0407

> <Gold.Chemscore.Internal_Hbond>
0.0000

> <Gold.Chemscore.DEClash>
0.0382

> <Gold.Chemscore.DEInternal>
0.3463

> <Gold.Chemscore.Rot>
1.8220

> <Gold.Chemscore.Internal.Correction>
   9.000000E+99

> <Gold.Chemscore.Hbonds>
donor molecule, donor type, donor heavy atom, donor atom, acceptor molecule, acceptor atom, score
      L1  H     3    20       P1  7948  0.58
      L1  H    11    37       P1 10747  0.95
      L1  H    12    29       P1  7948  0.44
      P1  H  7989  7998       L1    17  0.49
      P1  H  7997  8009       L1    18  0.91

> <Gold.Chemscore.Hbond.Weighted>
-13.6585

> <Gold.Chemscore.Metal.Weighted>
-0.0000

> <Gold.Chemscore.Lipo.Weighted>
-8.1948

> <Gold.Chemscore.Internal_Hbond.Weighted>
0.0000

> <Gold.Chemscore.DEClash.Weighted>
0.0382

> <Gold.Chemscore.DEInternal.Weighted>
0.3463

> <Gold.Chemscore.Rot.Weighted>
4.6642

> <Gold.Chemscore.Internal.Correction.Weighted>
   9.000000E+99

> <Gold.Protein.RotatedTorsions>
[ 6907 6896 6895 6894 ] final -142.02 input  -60.11 | X-H torsion
[ 7974 7965 7964 7962 ] final   63.91 input  175.53 | X-H torsion
[ 8008 7997 7996 7995 ] final -147.38 input   59.86 | X-H torsion
[ 10167 10162 10161 10158 ] final  116.84 input  -65.29 | X-H torsion
[ 10718 10713 10712 10709 ] final   34.67 input   66.30 | X-H torsion
[ 10763 10752 10751 10750 ] final   16.21 input  -60.55 | X-H torsion
[ 11005 11000 10999 10996 ] final  145.20 input  -57.11 | X-H torsion

> <Gold.Protein.ActiveResidues>
 VAL166  LYS551  ARG553  GLY616  TRP617  ASP618  TYR619  PRO620  LYS621  CYS622 
 ASP623  PHE694  ASN695  SER759  ASP760  ASP761  ALA762  ILE779  LEU786  VAL792 
 PHE793  MET794  SER795  GLU796  ALA797  LYS798  CYS799  TRP800  GLU811  SER814 

> <Gold.Protein.RotatedAtoms>
  151.0815  133.5386  159.2620 H   0  0  0  0  0  0  0  0  0  0  0  0  # atno 6907 bound_to 6896
  151.2288  135.0546  159.8989 H   0  0  0  0  0  0  0  0  0  0  0  0  # atno 6908 bound_to 6896
  152.5424  134.0607  159.8204 H   0  0  0  0  0  0  0  0  0  0  0  0  # atno 6909 bound_to 6896
  145.8563  139.3286  143.0845 H   0  0  0  0  0  0  0  0  0  0  0  0  # atno 7974 bound_to 7965
  155.5745  140.0637  157.2798 H   0  0  0  0  0  0  0  0  0  0  0  0  # atno 8008 bound_to 7997
  154.4351  140.1863  156.0959 H   0  0  0  0  0  0  0  0  0  0  0  0  # atno 8009 bound_to 7997
  156.0351  140.3302  155.7186 H   0  0  0  0  0  0  0  0  0  0  0  0  # atno 8010 bound_to 7997
  139.6220  144.7102  151.2615 H   0  0  0  0  0  0  0  0  0  0  0  0  # atno 10167 bound_to 10162
  157.3132  130.7410  149.6738 H   0  0  0  0  0  0  0  0  0  0  0  0  # atno 10718 bound_to 10713
  153.1452  135.6768  153.8965 H   0  0  0  0  0  0  0  0  0  0  0  0  # atno 10763 bound_to 10752
  153.8409  135.3105  155.3427 H   0  0  0  0  0  0  0  0  0  0  0  0  # atno 10764 bound_to 10752
  154.7819  135.4883  153.9949 H   0  0  0  0  0  0  0  0  0  0  0  0  # atno 10765 bound_to 10752
  140.0693  134.9161  157.1317 H   0  0  0  0  0  0  0  0  0  0  0  0  # atno 11005 bound_to 11000
  145.9300  140.9055  143.0361 LP  0  0  0  0  0  0  0  0  0  0  0  0  # atno 17320 bound_to 7965
  144.6727  140.1405  143.7437 LP  0  0  0  0  0  0  0  0  0  0  0  0  # atno 17321 bound_to 7965
  140.7387  143.6638  150.8140 LP  0  0  0  0  0  0  0  0  0  0  0  0  # atno 17342 bound_to 10162
  140.0251  143.5502  152.2784 LP  0  0  0  0  0  0  0  0  0  0  0  0  # atno 17343 bound_to 10162
  155.9679  130.4245  150.4611 LP  0  0  0  0  0  0  0  0  0  0  0  0  # atno 17370 bound_to 10713
  157.2614  131.0567  151.2318 LP  0  0  0  0  0  0  0  0  0  0  0  0  # atno 17371 bound_to 10713
  140.3651  134.2451  155.7183 LP  0  0  0  0  0  0  0  0  0  0  0  0  # atno 17394 bound_to 11000
  141.2005  133.7985  157.0485 LP  0  0  0  0  0  0  0  0  0  0  0  0  # atno 17395 bound_to 11000

$$$$
