AV-unprocessed.smi:2682|AV-procd|sdf|10375|dock4
  -GOLD-   2272014403D 1   1.00000     0.00000
 Structure written by MMmdl.
 29 29  0  0  0  0  0  0  0  0  2 V2000
  149.4210  132.8707  153.9336 C   0  0  0  0  0  0  0  0  0  0  0  0
  149.7717  132.1998  155.1310 O   0  0  0  0  0  0  0  0  0  0  0  0
  150.9616  132.7096  155.7100 C   0  0  0  0  0  0  0  0  0  0  0  0
  151.3535  131.8364  156.9055 C   0  0  0  0  0  0  0  0  0  0  0  0
  150.6384  132.2694  158.0503 O   0  0  0  0  0  0  0  0  0  0  0  0
  149.2619  131.9278  157.9977 C   0  0  0  0  0  0  0  0  0  0  0  0
  148.5571  132.4991  159.2273 C   0  0  0  0  0  0  0  0  0  0  0  0
  148.0389  131.7257  160.0314 O   0  0  0  0  0  0  0  0  0  0  0  0
  148.5719  133.8431  159.3261 N   0  0  0  0  0  0  0  0  0  0  0  0
  148.0547  134.6849  160.3266 C   0  0  0  0  0  0  0  0  0  0  0  0
  147.0609  134.3507  161.1968 C   0  0  0  0  0  0  0  0  0  0  0  0
  146.5905  135.2799  162.2096 C   0  0  0  0  0  0  0  0  0  0  0  0
  147.2457  136.4911  162.1938 C   0  0  0  0  0  0  0  0  0  0  0  0
  148.2397  136.8943  161.3733 N   0  5  0  0  0  0  0  0  0  0  0  0
  148.6802  136.0233  160.4195 C   0  0  0  0  0  0  0  0  0  0  0  0
  149.5840  136.3286  159.6402 O   0  0  0  0  0  0  0  0  0  0  0  0
  148.4997  132.4478  153.5331 H   0  0  0  0  0  0  0  0  0  0  0  0
  150.1990  132.7597  153.1772 H   0  0  0  0  0  0  0  0  0  0  0  0
  149.2540  133.9338  154.1116 H   0  0  0  0  0  0  0  0  0  0  0  0
  151.7594  132.6855  154.9663 H   0  0  0  0  0  0  0  0  0  0  0  0
  150.8344  133.7478  156.0209 H   0  0  0  0  0  0  0  0  0  0  0  0
  151.1561  130.7843  156.6934 H   0  0  0  0  0  0  0  0  0  0  0  0
  152.4233  131.9386  157.0933 H   0  0  0  0  0  0  0  0  0  0  0  0
  148.8066  132.3253  157.0888 H   0  0  0  0  0  0  0  0  0  0  0  0
  149.1362  130.8440  157.9882 H   0  0  0  0  0  0  0  0  0  0  0  0
  149.0031  134.3357  158.5572 H   0  0  0  0  0  0  0  0  0  0  0  0
  146.5908  133.3820  161.1772 H   0  0  0  0  0  0  0  0  0  0  0  0
  145.8014  135.0428  162.9074 H   0  0  0  0  0  0  0  0  0  0  0  0
  146.9245  137.2407  162.9482 H   0  0  0  0  0  0  0  0  0  0  0  0
  1  2  1  0  0  0  0
  1 17  1  0  0  0  0
  1 18  1  0  0  0  0
  1 19  1  0  0  0  0
  2  3  1  0  0  0  0
  3  4  1  0  0  0  0
  3 20  1  0  0  0  0
  3 21  1  0  0  0  0
  4  5  1  0  0  0  0
  4 22  1  0  0  0  0
  4 23  1  0  0  0  0
  5  6  1  0  0  0  0
  6  7  1  0  0  0  0
  6 24  1  0  0  0  0
  6 25  1  0  0  0  0
  7  8  2  0  0  0  0
  7  9  1  0  0  0  0
  9 26  1  0  0  0  0
  9 10  1  0  0  0  0
 10 11  2  0  0  0  0
 10 15  1  0  0  0  0
 11 12  1  0  0  0  0
 11 27  1  0  0  0  0
 12 13  2  0  0  0  0
 12 28  1  0  0  0  0
 13 14  1  0  0  0  0
 13 29  1  0  0  0  0
 14 15  1  0  0  0  0
 15 16  2  0  0  0  0
M  CHG  1  14  -1
M  END
> <s_m_source_file>
AV-unprocessed.smi

> <i_m_source_file_index>
2682

> <i_lp_mmshare_version>
43012

> <i_f3d_flags>
0

> <s_epik_input>
W0NIM11PW0NIMl1bQ0gyXU9bQ0gyXUMoPU8pW05IXWMxW2NIXVtjSF1bY0hdbmMxW09IXQ==

> <s_epik_cmdline>
J2VwaWtfcHl0aG9uJywgJy1waCcsICc3LjAnLCAnLXRuJywgJzgnLCAnLW1hJywgJzIwMCcsICctbWV0YWxfYmluZGluZycsICctaW1hZScsICc8aW5maWxlLm1hZT4nLCAnLW9tYWUnLCAnPG91dGZpbGUubWFlPic=

> <r_lp_tautomer_probability>
1

> <r_epik_Ionization_Penalty>
5.6643

> <r_epik_Ionization_Penalty_Charging>
0.525144

> <r_epik_Ionization_Penalty_Neutral>
5.13916

> <r_epik_State_Penalty>
5.13906

> <r_epik_Charging_Adjusted_Penalty>
5.6642

> <i_epik_Tot_Q>
-1

> <i_epik_Tot_abs_Q>
1

> <r_epik_Metal_State_Penalty>
1.22048

> <b_epik_Metal_Only>
1

> <s_lp_Force_Field>
OPLS_2005

> <r_lp_Energy>
18.608

> <b_lp_Chiralities_Consistent>
1

> <s_lp_Variant>
AV-unprocessed.smi:2682-2

> <Gold.Version>
5.8.1

> <Gold.Id.Protein>
6NUR|6NUR_protein|mol2

> <Gold.PLP.Fitness>
36.8873

> <Gold.PLP.PLP>
-24.9224

> <Gold.PLP.part.hbond>
-3.5262

> <Gold.PLP.part.metal>
0.0000

> <Gold.PLP.part.buried>
-4.1646

> <Gold.PLP.part.nonpolar>
-18.3130

> <Gold.PLP.part.repulsive>
0.5054

> <Gold.PLP.ligand.clash>
0.0000

> <Gold.PLP.ligand.torsion>
0.3010

> <Gold.PLP.Chemscore.Hbond>
4.1866

> <Gold.PLP.Chemscore.CHOScore>
0.0000

> <Gold.PLP.Chemscore.Metal>
0.0000

> <Gold.Chemscore.Hbonds>
donor molecule, donor type, donor heavy atom, donor atom, acceptor molecule, acceptor atom, score
      P1  H  6896  6907       L1    16  1.00
      P1  H  6896  6909       L1     5  1.00
      P1  H  6931  6943       L1    14  2.00
      P1  H  6934  6947       L1    14  0.04

> <Gold.PLP.Chemscore.Internal.Correction>
0.0071

> <Gold.Rescore>
     Score         DG    S(hbond)    S(metal)    S(lipo)     H(rot)  DE(clash)    DE(int)     intcor
     14.66     -15.22       2.90        0.00      46.79       2.11       0.02       0.54       ----

> <Gold.Chemscore.Fitness>
14.6565

> <Gold.Chemscore.DG>
-15.2243

> <Gold.Chemscore.ZeroCoef>
-5.4800

> <Gold.Chemscore.Hbond>
2.8992

> <Gold.Chemscore.Metal>
0.0000

> <Gold.Chemscore.Lipo>
46.7875

> <Gold.Chemscore.Internal_Hbond>
0.0000

> <Gold.Chemscore.DEClash>
0.0230

> <Gold.Chemscore.DEInternal>
0.5449

> <Gold.Chemscore.Rot>
2.1146

> <Gold.Chemscore.Internal.Correction>
   9.000000E+99

> <Gold.Chemscore.Hbonds>
donor molecule, donor type, donor heavy atom, donor atom, acceptor molecule, acceptor atom, score
      P1  H  6896  6907       L1    16  0.50
      P1  H  6896  6909       L1     5  0.94
      P1  H  6931  6943       L1    14  0.88

> <Gold.Chemscore.Hbond.Weighted>
-9.6835

> <Gold.Chemscore.Metal.Weighted>
-0.0000

> <Gold.Chemscore.Lipo.Weighted>
-5.4741

> <Gold.Chemscore.Internal_Hbond.Weighted>
0.0000

> <Gold.Chemscore.DEClash.Weighted>
0.0230

> <Gold.Chemscore.DEInternal.Weighted>
0.5449

> <Gold.Chemscore.Rot.Weighted>
5.4133

> <Gold.Chemscore.Internal.Correction.Weighted>
   9.000000E+99

> <Gold.Protein.RotatedTorsions>
[ 6907 6896 6895 6894 ] final  -50.46 input  -60.11 | X-H torsion
[ 7974 7965 7964 7962 ] final -168.16 input  175.53 | X-H torsion
[ 8008 7997 7996 7995 ] final  -10.49 input   59.86 | X-H torsion
[ 10167 10162 10161 10158 ] final -120.43 input  -65.29 | X-H torsion
[ 10718 10713 10712 10709 ] final   86.37 input   66.30 | X-H torsion
[ 10763 10752 10751 10750 ] final  -27.40 input  -60.55 | X-H torsion
[ 11005 11000 10999 10996 ] final   59.22 input  -57.11 | X-H torsion

> <Gold.Protein.ActiveResidues>
 VAL166  LYS551  ARG553  GLY616  TRP617  ASP618  TYR619  PRO620  LYS621  CYS622 
 ASP623  PHE694  ASN695  SER759  ASP760  ASP761  ALA762  ILE779  LEU786  VAL792 
 PHE793  MET794  SER795  GLU796  ALA797  LYS798  CYS799  TRP800  GLU811  SER814 

> <Gold.Protein.RotatedAtoms>
  150.8705  134.8077  159.7150 H   0  0  0  0  0  0  0  0  0  0  0  0  # atno 6907 bound_to 6896
  152.4711  134.4955  159.9718 H   0  0  0  0  0  0  0  0  0  0  0  0  # atno 6908 bound_to 6896
  151.5044  133.3459  159.2910 H   0  0  0  0  0  0  0  0  0  0  0  0  # atno 6909 bound_to 6896
  144.7208  140.2412  143.6291 H   0  0  0  0  0  0  0  0  0  0  0  0  # atno 7974 bound_to 7965
  154.5550  140.2327  155.8424 H   0  0  0  0  0  0  0  0  0  0  0  0  # atno 8008 bound_to 7997
  156.1980  140.3060  155.9428 H   0  0  0  0  0  0  0  0  0  0  0  0  # atno 8009 bound_to 7997
  155.2997  140.0430  157.3019 H   0  0  0  0  0  0  0  0  0  0  0  0  # atno 8010 bound_to 7997
  140.0359  143.5201  152.2154 H   0  0  0  0  0  0  0  0  0  0  0  0  # atno 10167 bound_to 10162
  157.6928  131.0213  150.2963 H   0  0  0  0  0  0  0  0  0  0  0  0  # atno 10718 bound_to 10713
  153.7315  135.6938  153.4988 H   0  0  0  0  0  0  0  0  0  0  0  0  # atno 10763 bound_to 10752
  153.2133  135.4395  155.0403 H   0  0  0  0  0  0  0  0  0  0  0  0  # atno 10764 bound_to 10752
  154.8251  135.3442  154.6844 H   0  0  0  0  0  0  0  0  0  0  0  0  # atno 10765 bound_to 10752
  140.0320  134.5998  155.9494 H   0  0  0  0  0  0  0  0  0  0  0  0  # atno 11005 bound_to 11000
  145.8318  139.2089  143.1878 LP  0  0  0  0  0  0  0  0  0  0  0  0  # atno 17320 bound_to 7965
  146.0424  140.8151  142.9822 LP  0  0  0  0  0  0  0  0  0  0  0  0  # atno 17321 bound_to 7965
  139.6045  144.7592  151.3093 LP  0  0  0  0  0  0  0  0  0  0  0  0  # atno 17342 bound_to 10162
  140.7281  143.6943  150.7896 LP  0  0  0  0  0  0  0  0  0  0  0  0  # atno 17343 bound_to 10162
  156.3486  130.3827  149.7348 LP  0  0  0  0  0  0  0  0  0  0  0  0  # atno 17370 bound_to 10713
  156.4834  130.8051  151.3065 LP  0  0  0  0  0  0  0  0  0  0  0  0  # atno 17371 bound_to 10713
  141.1836  133.6551  156.5124 LP  0  0  0  0  0  0  0  0  0  0  0  0  # atno 17394 bound_to 11000
  140.4210  134.7187  157.4889 LP  0  0  0  0  0  0  0  0  0  0  0  0  # atno 17395 bound_to 11000

$$$$
