AV-unprocessed.smi:2115|AV-procd|sdf|8624|dock5
  -GOLD-   2272011373D 1   1.00000     0.00000
 Structure written by MMmdl.
 37 38  0  0  0  0  0  0  0  0  1 V2000
  150.2457  145.3169  158.6060 C   0  0  0  0  0  0  0  0  0  0  0  0
  150.0518  143.9183  158.4886 O   0  0  0  0  0  0  0  0  0  0  0  0
  150.5234  143.4066  157.2531 C   0  0  0  0  0  0  0  0  0  0  0  0
  150.4412  141.8774  157.2770 C   0  0  0  0  0  0  0  0  0  0  0  0
  150.7246  141.3804  155.9723 O   0  0  0  0  0  0  0  0  0  0  0  0
  150.2200  140.1476  155.6126 C   0  0  0  0  0  0  0  0  0  0  0  0
  149.7102  139.3081  156.6227 C   0  0  0  0  0  0  0  0  0  0  0  0
  149.1886  138.0518  156.2610 C   0  0  0  0  0  0  0  0  0  0  0  0
  149.1812  137.6751  154.9030 C   0  0  0  0  0  0  0  0  0  0  0  0
  148.6626  136.3957  154.5669 N   0  0  0  0  0  0  0  0  0  0  0  0
  148.2013  135.4368  155.3906 C   0  0  0  0  0  0  0  0  0  0  0  0
  148.1644  135.5279  156.6179 O   0  0  0  0  0  0  0  0  0  0  0  0
  147.7068  134.1561  154.7079 C   0  0  1  0  0  0  0  0  0  0  0  0
  148.7983  133.4054  153.9217 C   0  0  0  0  0  0  0  0  0  0  0  0
  149.0215  132.1423  154.7302 C   0  0  0  0  0  0  0  0  0  0  0  0
  147.6569  131.9356  155.3708 C   0  0  0  0  0  0  0  0  0  0  0  0
  147.2674  133.2538  155.7215 O   0  0  0  0  0  0  0  0  0  0  0  0
  149.7312  138.5821  153.9646 C   0  0  0  0  0  0  0  0  0  0  0  0
  150.2344  139.7877  154.3054 N   0  0  0  0  0  0  0  0  0  0  0  0
  149.8675  145.6598  159.5690 H   0  0  0  0  0  0  0  0  0  0  0  0
  149.7110  145.8559  157.8229 H   0  0  0  0  0  0  0  0  0  0  0  0
  151.3041  145.5747  158.5492 H   0  0  0  0  0  0  0  0  0  0  0  0
  149.9479  143.8070  156.4168 H   0  0  0  0  0  0  0  0  0  0  0  0
  151.5615  143.7116  157.1127 H   0  0  0  0  0  0  0  0  0  0  0  0
  151.1812  141.4922  157.9804 H   0  0  0  0  0  0  0  0  0  0  0  0
  149.4551  141.5580  157.6185 H   0  0  0  0  0  0  0  0  0  0  0  0
  149.7193  139.6224  157.6560 H   0  0  0  0  0  0  0  0  0  0  0  0
  148.7941  137.3906  157.0190 H   0  0  0  0  0  0  0  0  0  0  0  0
  148.7060  136.1525  153.5879 H   0  0  0  0  0  0  0  0  0  0  0  0
  146.8679  134.3791  154.0458 H   0  0  0  0  0  0  0  0  0  0  0  0
  148.4251  133.1515  152.9284 H   0  0  0  0  0  0  0  0  0  0  0  0
  149.7212  133.9714  153.7860 H   0  0  0  0  0  0  0  0  0  0  0  0
  149.3427  131.2952  154.1237 H   0  0  0  0  0  0  0  0  0  0  0  0
  149.7726  132.3188  155.5014 H   0  0  0  0  0  0  0  0  0  0  0  0
  146.9468  131.5218  154.6533 H   0  0  0  0  0  0  0  0  0  0  0  0
  147.6926  131.2809  156.2417 H   0  0  0  0  0  0  0  0  0  0  0  0
  149.7982  138.3465  152.9139 H   0  0  0  0  0  0  0  0  0  0  0  0
  1  2  1  0  0  0  0
  1 20  1  0  0  0  0
  1 21  1  0  0  0  0
  1 22  1  0  0  0  0
  2  3  1  0  0  0  0
  3  4  1  0  0  0  0
  3 23  1  0  0  0  0
  3 24  1  0  0  0  0
  4  5  1  0  0  0  0
  4 25  1  0  0  0  0
  4 26  1  0  0  0  0
  5  6  1  0  0  0  0
  6 19  1  0  0  0  0
  6  7  2  0  0  0  0
  7  8  1  0  0  0  0
  7 27  1  0  0  0  0
  8  9  2  0  0  0  0
  8 28  1  0  0  0  0
  9 10  1  0  0  0  0
  9 18  1  0  0  0  0
 10 11  1  0  0  0  0
 10 29  1  0  0  0  0
 11 12  2  0  0  0  0
 11 13  1  0  0  0  0
 13 17  1  0  0  0  0
 13 14  1  0  0  0  0
 13 30  1  0  0  0  0
 14 15  1  0  0  0  0
 14 31  1  0  0  0  0
 14 32  1  0  0  0  0
 15 16  1  0  0  0  0
 15 33  1  0  0  0  0
 15 34  1  0  0  0  0
 16 17  1  0  0  0  0
 16 35  1  0  0  0  0
 16 36  1  0  0  0  0
 18 19  2  0  0  0  0
 18 37  1  0  0  0  0
M  END
> <s_m_source_file>
AV-unprocessed.smi

> <i_m_source_file_index>
2115

> <i_lp_mmshare_version>
43012

> <i_f3d_flags>
0

> <s_epik_input>
W0NIM11PW0NIMl1bQ0gyXU9jMVtjSF1bY0hdYyhbY0hdbjEpW05IXUMoPU8pW0NAQEhdMltDSDJdW0NIMl1bQ0gyXU8y

> <s_epik_cmdline>
J2VwaWtfcHl0aG9uJywgJy1waCcsICc3LjAnLCAnLXRuJywgJzgnLCAnLW1hJywgJzIwMCcsICctbWV0YWxfYmluZGluZycsICctaW1hZScsICc8aW5maWxlLm1hZT4nLCAnLW9tYWUnLCAnPG91dGZpbGUubWFlPic=

> <r_lp_tautomer_probability>
1

> <r_epik_Ionization_Penalty>
1.60185e-05

> <r_epik_Ionization_Penalty_Charging>
0

> <r_epik_Ionization_Penalty_Neutral>
1.60185e-05

> <r_epik_State_Penalty>
-0

> <r_epik_Charging_Adjusted_Penalty>
0

> <i_epik_Tot_Q>
0

> <i_epik_Tot_abs_Q>
0

> <r_epik_Metal_State_Penalty>
-0

> <b_epik_Metal_Only>
0

> <s_lp_Force_Field>
OPLS_2005

> <r_lp_Energy>
23.9239

> <b_lp_Chiralities_Consistent>
1

> <s_lp_Variant>
AV-unprocessed.smi:2115-2

> <Gold.Version>
5.8.1

> <Gold.Id.Protein>
6NUR|6NUR_protein|mol2

> <Gold.PLP.Fitness>
37.4695

> <Gold.PLP.PLP>
-26.2239

> <Gold.PLP.part.hbond>
-2.4415

> <Gold.PLP.part.metal>
0.0000

> <Gold.PLP.part.buried>
-3.5331

> <Gold.PLP.part.nonpolar>
-21.1587

> <Gold.PLP.part.repulsive>
0.2613

> <Gold.PLP.ligand.clash>
0.1072

> <Gold.PLP.ligand.torsion>
0.3450

> <Gold.PLP.Chemscore.Hbond>
2.0000

> <Gold.PLP.Chemscore.CHOScore>
1.9775

> <Gold.PLP.Chemscore.Metal>
0.0000

> <Gold.Chemscore.Hbonds>
donor molecule, donor type, donor heavy atom, donor atom, acceptor molecule, acceptor atom, score
      L1  H    10    29       P1  7948  1.00
      P1  H  7989  7998       L1    19  1.00
      L1  C    18    37       P1  7948  0.92
      L1  C    18    37       P1  7957  0.88

> <Gold.PLP.Chemscore.Internal.Correction>
0.1104

> <Gold.Rescore>
     Score         DG    S(hbond)    S(metal)    S(lipo)     H(rot)  DE(clash)    DE(int)     intcor
     12.83     -14.97       1.94        0.00      65.93       1.84       0.04       2.10       ----

> <Gold.Chemscore.Fitness>
12.8335

> <Gold.Chemscore.DG>
-14.9724

> <Gold.Chemscore.ZeroCoef>
-5.4800

> <Gold.Chemscore.Hbond>
1.9427

> <Gold.Chemscore.Metal>
0.0000

> <Gold.Chemscore.Lipo>
65.9293

> <Gold.Chemscore.Internal_Hbond>
0.0000

> <Gold.Chemscore.DEClash>
0.0383

> <Gold.Chemscore.DEInternal>
2.1005

> <Gold.Chemscore.Rot>
1.8398

> <Gold.Chemscore.Internal.Correction>
   9.000000E+99

> <Gold.Chemscore.Hbonds>
donor molecule, donor type, donor heavy atom, donor atom, acceptor molecule, acceptor atom, score
      L1  H    10    29       P1  7948  1.00
      P1  H  7989  7998       L1    19  0.54

> <Gold.Chemscore.Hbond.Weighted>
-6.4885

> <Gold.Chemscore.Metal.Weighted>
-0.0000

> <Gold.Chemscore.Lipo.Weighted>
-7.7137

> <Gold.Chemscore.Internal_Hbond.Weighted>
0.0000

> <Gold.Chemscore.DEClash.Weighted>
0.0383

> <Gold.Chemscore.DEInternal.Weighted>
2.1005

> <Gold.Chemscore.Rot.Weighted>
4.7099

> <Gold.Chemscore.Internal.Correction.Weighted>
   9.000000E+99

> <Gold.Protein.RotatedTorsions>
[ 6907 6896 6895 6894 ] final  -29.48 input  -60.11 | X-H torsion
[ 7974 7965 7964 7962 ] final   46.41 input  175.53 | X-H torsion
[ 8008 7997 7996 7995 ] final  177.46 input   59.86 | X-H torsion
[ 10167 10162 10161 10158 ] final  -53.21 input  -65.29 | X-H torsion
[ 10718 10713 10712 10709 ] final  -76.83 input   66.30 | X-H torsion
[ 10763 10752 10751 10750 ] final    5.23 input  -60.55 | X-H torsion
[ 11005 11000 10999 10996 ] final   53.98 input  -57.11 | X-H torsion

> <Gold.Protein.ActiveResidues>
 VAL166  LYS551  ARG553  GLY616  TRP617  ASP618  TYR619  PRO620  LYS621  CYS622 
 ASP623  PHE694  ASN695  SER759  ASP760  ASP761  ALA762  ILE779  LEU786  VAL792 
 PHE793  MET794  SER795  GLU796  ALA797  LYS798  CYS799  TRP800  GLU811  SER814 

> <Gold.Protein.RotatedAtoms>
  151.1186  135.0067  159.8527 H   0  0  0  0  0  0  0  0  0  0  0  0  # atno 6907 bound_to 6896
  152.5447  134.1750  159.8622 H   0  0  0  0  0  0  0  0  0  0  0  0  # atno 6908 bound_to 6896
  151.1806  133.4682  159.2627 H   0  0  0  0  0  0  0  0  0  0  0  0  # atno 6909 bound_to 6896
  146.0392  139.4859  142.9788 H   0  0  0  0  0  0  0  0  0  0  0  0  # atno 7974 bound_to 7965
  156.0654  140.1358  156.9892 H   0  0  0  0  0  0  0  0  0  0  0  0  # atno 8008 bound_to 7997
  154.4503  140.0983  156.6651 H   0  0  0  0  0  0  0  0  0  0  0  0  # atno 8009 bound_to 7997
  155.5312  140.3458  155.4429 H   0  0  0  0  0  0  0  0  0  0  0  0  # atno 8010 bound_to 7997
  140.6496  143.2557  151.4760 H   0  0  0  0  0  0  0  0  0  0  0  0  # atno 10167 bound_to 10162
  156.0163  130.4476  150.3254 H   0  0  0  0  0  0  0  0  0  0  0  0  # atno 10718 bound_to 10713
  153.2618  135.6924  153.7570 H   0  0  0  0  0  0  0  0  0  0  0  0  # atno 10763 bound_to 10752
  153.6626  135.3358  155.3132 H   0  0  0  0  0  0  0  0  0  0  0  0  # atno 10764 bound_to 10752
  154.8433  135.4481  154.1611 H   0  0  0  0  0  0  0  0  0  0  0  0  # atno 10765 bound_to 10752
  140.0723  134.5453  155.9033 H   0  0  0  0  0  0  0  0  0  0  0  0  # atno 11005 bound_to 11000
  145.6912  141.0163  143.1554 LP  0  0  0  0  0  0  0  0  0  0  0  0  # atno 17320 bound_to 7965
  144.7066  139.8535  143.7428 LP  0  0  0  0  0  0  0  0  0  0  0  0  # atno 17321 bound_to 7965
  139.5710  144.1928  152.1836 LP  0  0  0  0  0  0  0  0  0  0  0  0  # atno 17342 bound_to 10162
  140.1224  144.5361  150.6854 LP  0  0  0  0  0  0  0  0  0  0  0  0  # atno 17343 bound_to 10162
  157.1353  131.0282  151.2951 LP  0  0  0  0  0  0  0  0  0  0  0  0  # atno 17370 bound_to 10713
  157.4517  130.7602  149.7157 LP  0  0  0  0  0  0  0  0  0  0  0  0  # atno 17371 bound_to 10713
  141.2016  133.6620  156.5962 LP  0  0  0  0  0  0  0  0  0  0  0  0  # atno 17394 bound_to 11000
  140.3609  134.7688  157.4533 LP  0  0  0  0  0  0  0  0  0  0  0  0  # atno 17395 bound_to 11000

$$$$
