#       Name:                AV-unprocessed.smi:2295
#       Creating user name   scv26
#       Creation time:       Fri Mar 27 12:43:51 2020


#       File generated by GOLD software.
#

@<TRIPOS>MOLECULE
AV-unprocessed.smi:2295
    40    41     1
SMALL
NO_CHARGES


@<TRIPOS>ATOM
      1 ****        -4.5699   3.7500  -0.2102 C.3            1 S1                 0.0000
      2 ****        -3.9039   2.3936  -0.3095 C.ar           1 S1                 0.0000
      3 ****        -4.6667   1.2103  -0.2922 C.ar           1 S1                 0.0000
      4 ****        -3.9873  -0.0200  -0.3887 C.ar           1 S1                 0.0000
      5 ****        -4.7429  -1.3320  -0.3707 C.3            1 S1                 0.0000
      6 ****        -2.6449  -0.1134  -0.4976 N.ar           1 S1                 0.0000
      7 ****        -1.8997   1.0195  -0.5155 C.ar           1 S1                 0.0000
      8 ****        -0.4835   1.0286  -0.6222 N.am           1 S1                 0.0000
      9 ****         0.3440  -0.0196  -0.7805 C.2            1 S1                 0.0000
     10 ****        -0.0081  -1.1946  -0.8894 O.2            1 S1                 0.0000
     11 ****         1.6252   0.3761  -0.8118 N.am           1 S1                 0.0000
     12 ****         2.7807  -0.5010  -0.9784 C.3            1 S1                 0.0000
     13 ****         3.5289  -0.7291   0.3484 C.3            1 S1                 0.0000
     14 ****         4.8576  -1.4725   0.1516 C.3            1 S1                 0.0000
     15 ****         5.2202  -2.1108   1.4929 C.3            1 S1                 0.0000
     16 ****         3.9422  -2.7675   2.0138 C.3            1 S1                 0.0000
     17 ****         2.5615  -1.6926   1.5499 S.3            1 S1                 0.0000
     18 ****        -2.5023   2.2942  -0.4205 C.ar           1 S1                 0.0000
     19 ****        -5.6561   3.6576  -0.1845 H              1 S1                 0.0000
     20 ****        -4.3015   4.3669  -1.0680 H              1 S1                 0.0000
     21 ****        -4.2488   4.2623   0.6969 H              1 S1                 0.0000
     22 ****        -5.7431   1.2439  -0.2069 H              1 S1                 0.0000
     23 ****        -5.8208  -1.1685  -0.3693 H              1 S1                 0.0000
     24 ****        -4.4835  -1.9044   0.5203 H              1 S1                 0.0000
     25 ****        -4.4906  -1.9286  -1.2478 H              1 S1                 0.0000
     26 ****        -0.0501   1.9382  -0.5689 H              1 S1                 0.0000
     27 ****         1.8179   1.3619  -0.7124 H              1 S1                 0.0000
     28 ****         2.4974  -1.4551  -1.4263 H              1 S1                 0.0000
     29 ****         3.4494  -0.0198  -1.6926 H              1 S1                 0.0000
     30 ****         3.7445   0.2328   0.8157 H              1 S1                 0.0000
     31 ****         4.7388  -2.2583  -0.5961 H              1 S1                 0.0000
     32 ****         5.6432  -0.8053  -0.2043 H              1 S1                 0.0000
     33 ****         6.0347  -2.8293   1.3962 H              1 S1                 0.0000
     34 ****         5.5474  -1.3381   2.1898 H              1 S1                 0.0000
     35 ****         3.7959  -3.7350   1.5327 H              1 S1                 0.0000
     36 ****         3.9698  -2.9305   3.0913 H              1 S1                 0.0000
     37 ****        -1.8974   3.1895  -0.4343 H              1 S1                 0.0000
     38 ****        -2.2045  -1.0087  -0.5644 LP             1 S1                 0.0000
     39 ****        -0.9796  -1.4299  -0.8630 LP             1 S1                 0.0000
     40 ****         0.6776  -1.9134  -1.0043 LP             1 S1                 0.0000
@<TRIPOS>BOND
    1    1    2 1     
    2    1   19 1     
    3    1   20 1     
    4    1   21 1     
    5    2   18 ar    
    6    2    3 ar    
    7    3    4 ar    
    8    3   22 1     
    9    4    5 1     
   10    4    6 ar    
   11    5   23 1     
   12    5   24 1     
   13    5   25 1     
   14    6    7 ar    
   15    7    8 1     
   16    7   18 ar    
   17    8    9 am    
   18    8   26 1     
   19    9   10 2     
   20    9   11 am    
   21   11   12 1     
   22   11   27 1     
   23   12   13 1     
   24   12   28 1     
   25   12   29 1     
   26   13   17 1     
   27   13   14 1     
   28   13   30 1     
   29   14   15 1     
   30   14   31 1     
   31   14   32 1     
   32   15   16 1     
   33   15   33 1     
   34   15   34 1     
   35   16   17 1     
   36   16   35 1     
   37   16   36 1     
   38   18   37 1     
   39    6   38 1     
   40   10   39 1     
   41   10   40 1     
@<TRIPOS>SUBSTRUCTURE
      1 S1             1
@<TRIPOS>SET
LONE_PAIRS      STATIC     ATOMS    <user>   **** ""
3 38 39 40
DONOR_HYDROGENS      STATIC     ATOMS    <user>   **** ""
2 26 27
ATOM$BLUE        STATIC     ATOMS    COLORGROUP SYSTEM
3 38 39 40
ATOM$RED        STATIC     ATOMS    COLORGROUP SYSTEM
2 26 27
