#       Name:                AV-unprocessed.smi:1554
#       Creating user name   scv26
#       Creation time:       Fri Mar 27 06:45:07 2020


#       File generated by GOLD software.
#

@<TRIPOS>MOLECULE
AV-unprocessed.smi:1554
    53    55     1
SMALL
NO_CHARGES


@<TRIPOS>ATOM
      1 ****        -4.0348   4.8847  -1.0056 C.3            1 S1                 0.0000
      2 ****        -3.5283   3.5735  -0.4286 C.ar           1 S1                 0.0000
      3 ****        -3.7797   3.2943   0.9338 C.ar           1 S1                 0.0000
      4 ****        -3.3072   2.0855   1.4311 C.ar           1 S1                 0.0000
      5 ****        -3.3920   1.5244   2.7073 N.pl3          1 S1                 1.0000
      6 ****        -2.7763   0.3096   2.7116 C.2            1 S1                 0.0000
      7 ****        -2.2970   0.0886   1.4571 N.pl3          1 S1                 0.0000
      8 ****        -1.5552  -1.0595   0.9184 C.3            1 S1                 0.0000
      9 ****        -0.0320  -0.8242   0.8759 C.3            1 S1                 0.0000
     10 ****         0.4252  -0.5554   2.1884 O.3            1 S1                 0.0000
     11 ****         0.7136  -2.0552   0.3199 C.3            1 S1                 0.0000
     12 ****         2.1727  -1.8320   0.1484 N.4            1 S1                 1.0000
     13 ****         2.5144  -0.9720  -1.0120 C.3            1 S1                 0.0000
     14 ****         4.0357  -0.7661  -1.0982 C.3            1 S1                 0.0000
     15 ****         4.6848  -2.0287  -1.1783 O.3            1 S1                 0.0000
     16 ****         4.4444  -2.8324  -0.0286 C.3            1 S1                 0.0000
     17 ****         5.2566  -4.1247  -0.1699 C.3            1 S1                 0.0000
     18 ****         2.9318  -3.1044   0.0871 C.3            1 S1                 0.0000
     19 ****        -2.6053   1.1691   0.6241 C.ar           1 S1                 0.0000
     20 ****        -2.3464   1.4292  -0.7193 C.ar           1 S1                 0.0000
     21 ****        -2.8203   2.6530  -1.2443 C.ar           1 S1                 0.0000
     22 ****        -2.5582   2.9637  -2.7082 C.3            1 S1                 0.0000
     23 ****        -4.5453   5.4831  -0.2503 H              1 S1                 0.0000
     24 ****        -4.7402   4.6987  -1.8160 H              1 S1                 0.0000
     25 ****        -3.2069   5.4770  -1.3955 H              1 S1                 0.0000
     26 ****        -4.3178   3.9903   1.5608 H              1 S1                 0.0000
     27 ****        -2.6821  -0.3558   3.5578 H              1 S1                 0.0000
     28 ****        -1.7888  -1.9213   1.5455 H              1 S1                 0.0000
     29 ****        -1.9450  -1.2865  -0.0748 H              1 S1                 0.0000
     30 ****         0.1639   0.0529   0.2607 H              1 S1                 0.0000
     31 ****         1.3257  -0.2724   2.1482 H              1 S1                 0.0000
     32 ****         0.5515  -2.8927   1.0007 H              1 S1                 0.0000
     33 ****         0.2862  -2.3574  -0.6376 H              1 S1                 0.0000
     34 ****         2.1507  -1.4350  -1.9308 H              1 S1                 0.0000
     35 ****         2.0281  -0.0009  -0.9298 H              1 S1                 0.0000
     36 ****         4.2863  -0.1834  -1.9848 H              1 S1                 0.0000
     37 ****         4.4036  -0.2071  -0.2362 H              1 S1                 0.0000
     38 ****         4.7914  -2.3008   0.8595 H              1 S1                 0.0000
     39 ****         5.1137  -4.7752   0.6934 H              1 S1                 0.0000
     40 ****         6.3223  -3.9082  -0.2490 H              1 S1                 0.0000
     41 ****         4.9634  -4.6806  -1.0610 H              1 S1                 0.0000
     42 ****         2.7344  -3.6928   0.9843 H              1 S1                 0.0000
     43 ****         2.5869  -3.6930  -0.7650 H              1 S1                 0.0000
     44 ****        -1.8089   0.7280  -1.3402 H              1 S1                 0.0000
     45 ****        -2.0043   2.1601  -3.1947 H              1 S1                 0.0000
     46 ****        -1.9737   3.8787  -2.8078 H              1 S1                 0.0000
     47 ****        -3.4981   3.0927  -3.2455 H              1 S1                 0.0000
     48 ****         2.4933  -1.3551   0.9789 H              1 S1                 0.0000
     49 ****        -3.8379   1.9366   3.5171 H              1 S1                 0.0000
     50 ****         0.3588  -1.3848   2.7431 LP             1 S1                 0.0000
     51 ****        -0.1347   0.1650   2.5977 LP             1 S1                 0.0000
     52 ****         5.6697  -1.8792  -1.2661 LP             1 S1                 0.0000
     53 ****         4.3479  -2.5131  -1.9856 LP             1 S1                 0.0000
@<TRIPOS>BOND
    1    1    2 1     
    2    1   23 1     
    3    1   24 1     
    4    1   25 1     
    5    2   21 ar    
    6    2    3 ar    
    7    3    4 ar    
    8    3   26 1     
    9    4   19 ar    
   10    4    5 1     
   11    5    6 2     
   12    5   49 1     
   13    6    7 1     
   14    6   27 1     
   15    7    8 1     
   16    7   19 1     
   17    8    9 1     
   18    8   28 1     
   19    8   29 1     
   20    9   10 1     
   21    9   11 1     
   22    9   30 1     
   23   10   31 1     
   24   11   12 1     
   25   11   32 1     
   26   11   33 1     
   27   12   18 1     
   28   12   13 1     
   29   12   48 1     
   30   13   14 1     
   31   13   34 1     
   32   13   35 1     
   33   14   15 1     
   34   14   36 1     
   35   14   37 1     
   36   15   16 1     
   37   16   17 1     
   38   16   18 1     
   39   16   38 1     
   40   17   39 1     
   41   17   40 1     
   42   17   41 1     
   43   18   42 1     
   44   18   43 1     
   45   19   20 ar    
   46   20   21 ar    
   47   20   44 1     
   48   21   22 1     
   49   22   45 1     
   50   22   46 1     
   51   22   47 1     
   52   10   50 1     
   53   10   51 1     
   54   15   52 1     
   55   15   53 1     
@<TRIPOS>SUBSTRUCTURE
      1 S1             1
@<TRIPOS>SET
LONE_PAIRS      STATIC     ATOMS    <user>   **** ""
4 50 51 52 53
DONOR_HYDROGENS      STATIC     ATOMS    <user>   **** ""
3 49 31 48
ATOM$BLUE        STATIC     ATOMS    COLORGROUP SYSTEM
4 50 51 52 53
ATOM$RED        STATIC     ATOMS    COLORGROUP SYSTEM
3 49 31 48
