AV-unprocessed.smi:3158|AV-procd|sdf|12044|dock4
  -GOLD-   2272017473D 1   1.00000     0.00000
 Structure written by MMmdl.
 40 40  0  0  0  0  0  0  0  0  2 V2000
  151.7266  138.9851  155.0558 C   0  0  0  0  0  0  0  0  0  0  0  0
  150.5923  138.5544  154.1143 C   0  0  0  0  0  0  0  0  0  0  0  0
  149.2489  139.2464  154.4107 C   0  0  1  0  0  0  0  0  0  0  0  0
  149.4000  140.7722  154.4979 C   0  0  0  0  0  0  0  0  0  0  0  0
  148.2701  138.9099  153.3792 N   0  0  0  0  0  0  0  0  0  0  0  0
  147.0481  138.3987  153.5957 C   0  0  0  0  0  0  0  0  0  0  0  0
  146.6078  138.1434  154.7174 O   0  0  0  0  0  0  0  0  0  0  0  0
  146.1968  138.1241  152.3476 C   0  0  1  0  0  0  0  0  0  0  0  0
  146.5616  139.1183  151.2343 C   0  0  0  0  0  0  0  0  0  0  0  0
  146.3657  136.7372  151.8550 N   0  3  0  0  0  0  0  0  0  0  0  0
  145.7246  135.6936  152.6834 C   0  0  0  0  0  0  0  0  0  0  0  0
  144.5067  135.0957  151.9658 C   0  0  0  0  0  0  0  0  0  0  0  0
  144.8865  134.0199  151.0713 N   0  0  0  0  0  0  0  0  0  0  0  0
  144.0947  133.3195  150.1855 C   0  0  0  0  0  0  0  0  0  0  0  0
  144.8936  132.4023  149.5654 C   0  0  0  0  0  0  0  0  0  0  0  0
  146.1737  132.6197  150.1475 C   0  0  0  0  0  0  0  0  0  0  0  0
  146.1661  133.5893  151.0487 N   0  0  0  0  0  0  0  0  0  0  0  0
  152.6643  138.5043  154.7764 H   0  0  0  0  0  0  0  0  0  0  0  0
  151.5150  138.7159  156.0909 H   0  0  0  0  0  0  0  0  0  0  0  0
  151.8823  140.0635  155.0149 H   0  0  0  0  0  0  0  0  0  0  0  0
  150.8901  138.7763  153.0889 H   0  0  0  0  0  0  0  0  0  0  0  0
  150.4715  137.4714  154.1663 H   0  0  0  0  0  0  0  0  0  0  0  0
  148.9018  138.8884  155.3818 H   0  0  0  0  0  0  0  0  0  0  0  0
  150.1111  141.0517  155.2758 H   0  0  0  0  0  0  0  0  0  0  0  0
  148.4491  141.2496  154.7371 H   0  0  0  0  0  0  0  0  0  0  0  0
  149.7559  141.1914  153.5561 H   0  0  0  0  0  0  0  0  0  0  0  0
  148.5489  139.0794  152.4236 H   0  0  0  0  0  0  0  0  0  0  0  0
  145.1448  138.2690  152.5994 H   0  0  0  0  0  0  0  0  0  0  0  0
  146.4171  140.1499  151.5584 H   0  0  0  0  0  0  0  0  0  0  0  0
  145.9374  138.9653  150.3536 H   0  0  0  0  0  0  0  0  0  0  0  0
  147.6024  139.0099  150.9252 H   0  0  0  0  0  0  0  0  0  0  0  0
  145.9621  136.6831  150.9309 H   0  0  0  0  0  0  0  0  0  0  0  0
  146.4427  134.9031  152.9049 H   0  0  0  0  0  0  0  0  0  0  0  0
  145.4228  136.1302  153.6364 H   0  0  0  0  0  0  0  0  0  0  0  0
  143.7858  134.7088  152.6877 H   0  0  0  0  0  0  0  0  0  0  0  0
  143.9940  135.8636  151.3849 H   0  0  0  0  0  0  0  0  0  0  0  0
  143.0413  133.5291  150.0700 H   0  0  0  0  0  0  0  0  0  0  0  0
  144.6071  131.6842  148.8114 H   0  0  0  0  0  0  0  0  0  0  0  0
  147.1011  132.1056  149.9430 H   0  0  0  0  0  0  0  0  0  0  0  0
  147.3549  136.5427  151.7875 H   0  0  0  0  0  0  0  0  0  0  0  0
  1  2  1  0  0  0  0
  1 18  1  0  0  0  0
  1 19  1  0  0  0  0
  1 20  1  0  0  0  0
  2  3  1  0  0  0  0
  2 21  1  0  0  0  0
  2 22  1  0  0  0  0
  3  4  1  0  0  0  0
  3  5  1  0  0  0  0
  3 23  1  0  0  0  0
  4 24  1  0  0  0  0
  4 25  1  0  0  0  0
  4 26  1  0  0  0  0
  5  6  1  0  0  0  0
  5 27  1  0  0  0  0
  6  7  2  0  0  0  0
  6  8  1  0  0  0  0
  8  9  1  0  0  0  0
  8 10  1  0  0  0  0
  8 28  1  0  0  0  0
  9 29  1  0  0  0  0
  9 30  1  0  0  0  0
  9 31  1  0  0  0  0
 10 11  1  0  0  0  0
 10 32  1  0  0  0  0
 10 40  1  0  0  0  0
 11 12  1  0  0  0  0
 11 33  1  0  0  0  0
 11 34  1  0  0  0  0
 12 13  1  0  0  0  0
 12 35  1  0  0  0  0
 12 36  1  0  0  0  0
 13 17  1  0  0  0  0
 13 14  1  0  0  0  0
 14 15  2  0  0  0  0
 14 37  1  0  0  0  0
 15 16  1  0  0  0  0
 15 38  1  0  0  0  0
 16 17  2  0  0  0  0
 16 39  1  0  0  0  0
M  CHG  1  10   1
M  END
> <s_m_source_file>
AV-unprocessed.smi

> <i_m_source_file_index>
3158

> <i_lp_mmshare_version>
43012

> <i_f3d_flags>
0

> <s_epik_input>
W0NIM11bQ0gyXVtDQEhdKFtDSDNdKVtOSF1DKD1PKVtDQEhdKFtDSDNdKVtOSF1bQ0gyXVtDSDJdbjFbY0hdW2NIXVtjSF1uMQ==

> <s_epik_cmdline>
J2VwaWtfcHl0aG9uJywgJy1waCcsICc3LjAnLCAnLXRuJywgJzgnLCAnLW1hJywgJzIwMCcsICctbWV0YWxfYmluZGluZycsICctaW1hZScsICc8aW5maWxlLm1hZT4nLCAnLW9tYWUnLCAnPG91dGZpbGUubWFlPic=

> <r_lp_tautomer_probability>
1

> <r_epik_Ionization_Penalty>
0.20724

> <r_epik_Ionization_Penalty_Charging>
0.207237

> <r_epik_Ionization_Penalty_Neutral>
3.33806e-06

> <r_epik_State_Penalty>
0.197234

> <r_epik_Charging_Adjusted_Penalty>
0.404471

> <i_epik_Tot_Q>
1

> <i_epik_Tot_abs_Q>
1

> <r_epik_Metal_State_Penalty>
0.197524

> <b_epik_Metal_Only>
0

> <s_lp_Force_Field>
OPLS_2005

> <r_lp_Energy>
5.19885

> <b_lp_Chiralities_Consistent>
1

> <s_lp_Variant>
AV-unprocessed.smi:3158-4

> <Gold.Version>
5.8.1

> <Gold.Id.Protein>
6NUR|6NUR_protein|mol2

> <Gold.PLP.Fitness>
47.5360

> <Gold.PLP.PLP>
-35.2994

> <Gold.PLP.part.hbond>
-2.6668

> <Gold.PLP.part.metal>
0.0000

> <Gold.PLP.part.buried>
-2.4801

> <Gold.PLP.part.nonpolar>
-31.2357

> <Gold.PLP.part.repulsive>
0.3686

> <Gold.PLP.ligand.clash>
0.0000

> <Gold.PLP.ligand.torsion>
1.4591

> <Gold.PLP.Chemscore.Hbond>
3.0000

> <Gold.PLP.Chemscore.CHOScore>
2.0000

> <Gold.PLP.Chemscore.Metal>
0.0000

> <Gold.Chemscore.Hbonds>
donor molecule, donor type, donor heavy atom, donor atom, acceptor molecule, acceptor atom, score
      L1  H     5    27       P1  7957  1.00
      L1  H    10    40       P1  7948  2.00
      L1  C    14    37       P1 10186  1.00
      L1  C    16    39       P1 10747  1.00

> <Gold.PLP.Chemscore.Internal.Correction>
0.1548

> <Gold.Rescore>
     Score         DG    S(hbond)    S(metal)    S(lipo)     H(rot)  DE(clash)    DE(int)     intcor
     15.12     -16.55       1.95        0.00      87.42       2.21       0.12       1.31       ----

> <Gold.Chemscore.Fitness>
15.1193

> <Gold.Chemscore.DG>
-16.5540

> <Gold.Chemscore.ZeroCoef>
-5.4800

> <Gold.Chemscore.Hbond>
1.9496

> <Gold.Chemscore.Metal>
0.0000

> <Gold.Chemscore.Lipo>
87.4195

> <Gold.Chemscore.Internal_Hbond>
0.0000

> <Gold.Chemscore.DEClash>
0.1235

> <Gold.Chemscore.DEInternal>
1.3112

> <Gold.Chemscore.Rot>
2.2132

> <Gold.Chemscore.Internal.Correction>
   9.000000E+99

> <Gold.Chemscore.Hbonds>
donor molecule, donor type, donor heavy atom, donor atom, acceptor molecule, acceptor atom, score
      L1  H     5    27       P1  7957  0.95
      L1  H    10    40       P1  7948  0.99

> <Gold.Chemscore.Hbond.Weighted>
-6.5117

> <Gold.Chemscore.Metal.Weighted>
-0.0000

> <Gold.Chemscore.Lipo.Weighted>
-10.2281

> <Gold.Chemscore.Internal_Hbond.Weighted>
0.0000

> <Gold.Chemscore.DEClash.Weighted>
0.1235

> <Gold.Chemscore.DEInternal.Weighted>
1.3112

> <Gold.Chemscore.Rot.Weighted>
5.6658

> <Gold.Chemscore.Internal.Correction.Weighted>
   9.000000E+99

> <Gold.Protein.RotatedTorsions>
[ 6907 6896 6895 6894 ] final  -31.28 input  -60.11 | X-H torsion
[ 7974 7965 7964 7962 ] final  137.85 input  175.53 | X-H torsion
[ 8008 7997 7996 7995 ] final  111.08 input   59.86 | X-H torsion
[ 10167 10162 10161 10158 ] final -142.21 input  -65.29 | X-H torsion
[ 10718 10713 10712 10709 ] final  -66.97 input   66.30 | X-H torsion
[ 10763 10752 10751 10750 ] final  -88.75 input  -60.55 | X-H torsion
[ 11005 11000 10999 10996 ] final  170.73 input  -57.11 | X-H torsion

> <Gold.Protein.ActiveResidues>
 VAL166  LYS551  ARG553  GLY616  TRP617  ASP618  TYR619  PRO620  LYS621  CYS622 
 ASP623  PHE694  ASN695  SER759  ASP760  ASP761  ALA762  ILE779  LEU786  VAL792 
 PHE793  MET794  SER795  GLU796  ALA797  LYS798  CYS799  TRP800  GLU811  SER814 

> <Gold.Protein.RotatedAtoms>
  151.0941  134.9934  159.8416 H   0  0  0  0  0  0  0  0  0  0  0  0  # atno 6907 bound_to 6896
  152.5431  134.2029  159.8729 H   0  0  0  0  0  0  0  0  0  0  0  0  # atno 6908 bound_to 6896
  151.2067  133.4535  159.2630 H   0  0  0  0  0  0  0  0  0  0  0  0  # atno 6909 bound_to 6896
  144.9429  139.4910  143.5563 H   0  0  0  0  0  0  0  0  0  0  0  0  # atno 7974 bound_to 7965
  156.2098  140.3026  155.9708 H   0  0  0  0  0  0  0  0  0  0  0  0  # atno 8008 bound_to 7997
  155.2751  140.0435  157.3027 H   0  0  0  0  0  0  0  0  0  0  0  0  # atno 8009 bound_to 7997
  154.5684  140.2341  155.8237 H   0  0  0  0  0  0  0  0  0  0  0  0  # atno 8010 bound_to 7997
  139.8110  143.7703  152.2663 H   0  0  0  0  0  0  0  0  0  0  0  0  # atno 10167 bound_to 10162
  156.0583  130.4270  150.1786 H   0  0  0  0  0  0  0  0  0  0  0  0  # atno 10718 bound_to 10713
  154.6479  135.5366  153.7866 H   0  0  0  0  0  0  0  0  0  0  0  0  # atno 10763 bound_to 10752
  153.0369  135.6475  154.1062 H   0  0  0  0  0  0  0  0  0  0  0  0  # atno 10764 bound_to 10752
  154.0981  135.2935  155.3237 H   0  0  0  0  0  0  0  0  0  0  0  0  # atno 10765 bound_to 10752
  140.3115  134.7513  157.3995 H   0  0  0  0  0  0  0  0  0  0  0  0  # atno 11005 bound_to 11000
  146.3292  139.8460  142.8881 LP  0  0  0  0  0  0  0  0  0  0  0  0  # atno 17320 bound_to 7965
  145.2964  141.0182  143.3634 LP  0  0  0  0  0  0  0  0  0  0  0  0  # atno 17321 bound_to 7965
  139.7852  144.7430  151.0032 LP  0  0  0  0  0  0  0  0  0  0  0  0  # atno 17342 bound_to 10162
  140.7818  143.4500  151.0426 LP  0  0  0  0  0  0  0  0  0  0  0  0  # atno 17343 bound_to 10162
  156.9858  130.9878  151.3426 LP  0  0  0  0  0  0  0  0  0  0  0  0  # atno 17370 bound_to 10713
  157.5571  130.8221  149.8219 LP  0  0  0  0  0  0  0  0  0  0  0  0  # atno 17371 bound_to 10713
  140.1021  134.5459  155.8343 LP  0  0  0  0  0  0  0  0  0  0  0  0  # atno 17394 bound_to 11000
  141.2107  133.6698  156.6528 LP  0  0  0  0  0  0  0  0  0  0  0  0  # atno 17395 bound_to 11000

$$$$
