AV-unprocessed.smi:2958|AV-procd|sdf|11307|dock3
  -GOLD-   2272016203D 1   1.00000     0.00000
 Structure written by MMmdl.
 39 41  0  0  0  0  0  0  0  0  1 V2000
  154.5924  140.8594  160.6297 C   0  0  0  0  0  0  0  0  0  0  0  0
  153.5353  141.9367  160.7606 C   0  0  0  0  0  0  0  0  0  0  0  0
  153.3441  142.6011  161.9887 C   0  0  0  0  0  0  0  0  0  0  0  0
  152.3594  143.5995  162.1010 C   0  0  0  0  0  0  0  0  0  0  0  0
  151.5658  143.9348  160.9877 C   0  0  0  0  0  0  0  0  0  0  0  0
  151.7448  143.2819  159.7510 C   0  0  0  0  0  0  0  0  0  0  0  0
  150.9266  143.6748  158.7138 O   0  0  0  0  0  0  0  0  0  0  0  0
  151.1143  143.0672  157.4440 C   0  0  0  0  0  0  0  0  0  0  0  0
  150.7088  141.5922  157.5438 C   0  0  0  0  0  0  0  0  0  0  0  0
  150.2623  141.0740  156.2606 N   0  0  0  0  0  0  0  0  0  0  0  0
  150.8846  140.1781  155.4541 C   0  0  0  0  0  0  0  0  0  0  0  0
  152.2049  139.5660  155.8089 C   0  0  0  0  0  0  0  0  0  0  0  0
  153.1265  139.6019  154.7404 O   0  0  0  0  0  0  0  0  0  0  0  0
  150.2458  139.8739  154.3235 N   0  0  0  0  0  0  0  0  0  0  0  0
  149.0991  140.6397  154.4075 C   0  0  0  0  0  0  0  0  0  0  0  0
  148.0087  140.7616  153.5167 C   0  0  0  0  0  0  0  0  0  0  0  0
  146.9289  141.6159  153.8224 C   0  0  0  0  0  0  0  0  0  0  0  0
  146.9234  142.3588  155.0209 C   0  0  0  0  0  0  0  0  0  0  0  0
  148.0010  142.2539  155.9214 C   0  0  0  0  0  0  0  0  0  0  0  0
  149.0768  141.4008  155.6107 C   0  0  0  0  0  0  0  0  0  0  0  0
  152.7391  142.2759  159.6469 C   0  0  0  0  0  0  0  0  0  0  0  0
  155.1172  140.6993  161.5720 H   0  0  0  0  0  0  0  0  0  0  0  0
  155.3270  141.1405  159.8747 H   0  0  0  0  0  0  0  0  0  0  0  0
  154.1353  139.9157  160.3307 H   0  0  0  0  0  0  0  0  0  0  0  0
  153.9494  142.3486  162.8471 H   0  0  0  0  0  0  0  0  0  0  0  0
  152.2121  144.1092  163.0418 H   0  0  0  0  0  0  0  0  0  0  0  0
  150.8124  144.7029  161.0833 H   0  0  0  0  0  0  0  0  0  0  0  0
  150.5025  143.5687  156.6924 H   0  0  0  0  0  0  0  0  0  0  0  0
  152.1597  143.1427  157.1400 H   0  0  0  0  0  0  0  0  0  0  0  0
  151.5529  140.9928  157.8867 H   0  0  0  0  0  0  0  0  0  0  0  0
  149.9199  141.4608  158.2842 H   0  0  0  0  0  0  0  0  0  0  0  0
  152.6304  140.0773  156.6724 H   0  0  0  0  0  0  0  0  0  0  0  0
  152.0526  138.5274  156.1040 H   0  0  0  0  0  0  0  0  0  0  0  0
  152.7762  140.1574  154.0611 H   0  0  0  0  0  0  0  0  0  0  0  0
  148.0028  140.1963  152.5965 H   0  0  0  0  0  0  0  0  0  0  0  0
  146.1006  141.7008  153.1345 H   0  0  0  0  0  0  0  0  0  0  0  0
  146.0918  143.0099  155.2478 H   0  0  0  0  0  0  0  0  0  0  0  0
  148.0001  142.8218  156.8401 H   0  0  0  0  0  0  0  0  0  0  0  0
  152.9095  141.7483  158.7206 H   0  0  0  0  0  0  0  0  0  0  0  0
  1  2  1  0  0  0  0
  1 22  1  0  0  0  0
  1 23  1  0  0  0  0
  1 24  1  0  0  0  0
  2 21  1  0  0  0  0
  2  3  2  0  0  0  0
  3  4  1  0  0  0  0
  3 25  1  0  0  0  0
  4  5  2  0  0  0  0
  4 26  1  0  0  0  0
  5  6  1  0  0  0  0
  5 27  1  0  0  0  0
  6  7  1  0  0  0  0
  6 21  2  0  0  0  0
  7  8  1  0  0  0  0
  8  9  1  0  0  0  0
  8 28  1  0  0  0  0
  8 29  1  0  0  0  0
  9 10  1  0  0  0  0
  9 30  1  0  0  0  0
  9 31  1  0  0  0  0
 10 20  1  0  0  0  0
 10 11  1  0  0  0  0
 11 12  1  0  0  0  0
 11 14  2  0  0  0  0
 12 13  1  0  0  0  0
 12 32  1  0  0  0  0
 12 33  1  0  0  0  0
 13 34  1  0  0  0  0
 14 15  1  0  0  0  0
 15 20  2  0  0  0  0
 15 16  1  0  0  0  0
 16 17  2  0  0  0  0
 16 35  1  0  0  0  0
 17 18  1  0  0  0  0
 17 36  1  0  0  0  0
 18 19  2  0  0  0  0
 18 37  1  0  0  0  0
 19 20  1  0  0  0  0
 19 38  1  0  0  0  0
 21 39  1  0  0  0  0
M  END
> <s_m_source_file>
AV-unprocessed.smi

> <i_m_source_file_index>
2958

> <i_lp_mmshare_version>
43012

> <i_f3d_flags>
0

> <s_epik_input>
W0NIM11jMVtjSF1bY0hdW2NIXWMoW2NIXTEpT1tDSDJdW0NIMl1uKGMobjIpW0NIMl1bT0hdKWMoYzIzKVtjSF1bY0hdW2NIXVtjSF0z

> <s_epik_cmdline>
J2VwaWtfcHl0aG9uJywgJy1waCcsICc3LjAnLCAnLXRuJywgJzgnLCAnLW1hJywgJzIwMCcsICctbWV0YWxfYmluZGluZycsICctaW1hZScsICc8aW5maWxlLm1hZT4nLCAnLW9tYWUnLCAnPG91dGZpbGUubWFlPic=

> <r_lp_tautomer_probability>
1

> <r_epik_Ionization_Penalty>
0.0482759

> <r_epik_Ionization_Penalty_Charging>
0

> <r_epik_Ionization_Penalty_Neutral>
0.0482759

> <r_epik_State_Penalty>
0.0410957

> <r_epik_Charging_Adjusted_Penalty>
0.0410957

> <i_epik_Tot_Q>
0

> <i_epik_Tot_abs_Q>
0

> <r_epik_Metal_State_Penalty>
4.25529e-05

> <b_epik_Metal_Only>
0

> <s_lp_Force_Field>
OPLS_2005

> <r_lp_Energy>
16.0806

> <b_lp_Chiralities_Consistent>
1

> <s_lp_Variant>
AV-unprocessed.smi:2958-1

> <Gold.Version>
5.8.1

> <Gold.Id.Protein>
6NUR|6NUR_protein|mol2

> <Gold.PLP.Fitness>
52.8989

> <Gold.PLP.PLP>
-49.9173

> <Gold.PLP.part.hbond>
-3.0000

> <Gold.PLP.part.metal>
0.0000

> <Gold.PLP.part.buried>
2.1982

> <Gold.PLP.part.nonpolar>
-48.7540

> <Gold.PLP.part.repulsive>
0.2360

> <Gold.PLP.ligand.clash>
0.0000

> <Gold.PLP.ligand.torsion>
0.4193

> <Gold.PLP.Chemscore.Hbond>
1.2500

> <Gold.PLP.Chemscore.CHOScore>
0.0000

> <Gold.PLP.Chemscore.Metal>
0.0000

> <Gold.Chemscore.Hbonds>
donor molecule, donor type, donor heavy atom, donor atom, acceptor molecule, acceptor atom, score
      P1  H  7989  7998       L1    14  0.25
      P1  H  7997  8010       L1    13  1.00

> <Gold.PLP.Chemscore.Internal.Correction>
0.0703

> <Gold.Rescore>
     Score         DG    S(hbond)    S(metal)    S(lipo)     H(rot)  DE(clash)    DE(int)     intcor
     15.18     -18.08       0.65        0.00     136.23       2.15       1.59       1.30       ----

> <Gold.Chemscore.Fitness>
15.1793

> <Gold.Chemscore.DG>
-18.0777

> <Gold.Chemscore.ZeroCoef>
-5.4800

> <Gold.Chemscore.Hbond>
0.6476

> <Gold.Chemscore.Metal>
0.0000

> <Gold.Chemscore.Lipo>
136.2279

> <Gold.Chemscore.Internal_Hbond>
0.0000

> <Gold.Chemscore.DEClash>
1.5938

> <Gold.Chemscore.DEInternal>
1.3046

> <Gold.Chemscore.Rot>
2.1499

> <Gold.Chemscore.Internal.Correction>
   9.000000E+99

> <Gold.Chemscore.Hbonds>
donor molecule, donor type, donor heavy atom, donor atom, acceptor molecule, acceptor atom, score
      P1  H  7997  8010       L1    13  0.38

> <Gold.Chemscore.Hbond.Weighted>
-2.1629

> <Gold.Chemscore.Metal.Weighted>
-0.0000

> <Gold.Chemscore.Lipo.Weighted>
-15.9387

> <Gold.Chemscore.Internal_Hbond.Weighted>
0.0000

> <Gold.Chemscore.DEClash.Weighted>
1.5938

> <Gold.Chemscore.DEInternal.Weighted>
1.3046

> <Gold.Chemscore.Rot.Weighted>
5.5038

> <Gold.Chemscore.Internal.Correction.Weighted>
   9.000000E+99

> <Gold.Protein.RotatedTorsions>
[ 6907 6896 6895 6894 ] final  -53.59 input  -60.11 | X-H torsion
[ 7974 7965 7964 7962 ] final    4.85 input  175.53 | X-H torsion
[ 8008 7997 7996 7995 ] final  131.46 input   59.86 | X-H torsion
[ 10167 10162 10161 10158 ] final -109.92 input  -65.29 | X-H torsion
[ 10718 10713 10712 10709 ] final  -32.87 input   66.30 | X-H torsion
[ 10763 10752 10751 10750 ] final  142.48 input  -60.55 | X-H torsion
[ 11005 11000 10999 10996 ] final  -61.91 input  -57.11 | X-H torsion

> <Gold.Protein.ActiveResidues>
 VAL166  LYS551  ARG553  GLY616  TRP617  ASP618  TYR619  PRO620  LYS621  CYS622 
 ASP623  PHE694  ASN695  SER759  ASP760  ASP761  ALA762  ILE779  LEU786  VAL792 
 PHE793  MET794  SER795  GLU796  ALA797  LYS798  CYS799  TRP800  GLU811  SER814 

> <Gold.Protein.RotatedAtoms>
  150.8413  134.7706  159.6934 H   0  0  0  0  0  0  0  0  0  0  0  0  # atno 6907 bound_to 6896
  152.4500  134.5410  159.9849 H   0  0  0  0  0  0  0  0  0  0  0  0  # atno 6908 bound_to 6896
  151.5550  133.3374  159.2996 H   0  0  0  0  0  0  0  0  0  0  0  0  # atno 6909 bound_to 6896
  146.2443  140.0472  142.8377 H   0  0  0  0  0  0  0  0  0  0  0  0  # atno 7974 bound_to 7965
  156.2970  140.2571  156.2929 H   0  0  0  0  0  0  0  0  0  0  0  0  # atno 8008 bound_to 7997
  154.9492  140.0394  157.2154 H   0  0  0  0  0  0  0  0  0  0  0  0  # atno 8009 bound_to 7997
  154.8052  140.2835  155.5897 H   0  0  0  0  0  0  0  0  0  0  0  0  # atno 8010 bound_to 7997
  140.1500  143.4207  152.1501 H   0  0  0  0  0  0  0  0  0  0  0  0  # atno 10167 bound_to 10162
  156.3696  130.4337  149.7556 H   0  0  0  0  0  0  0  0  0  0  0  0  # atno 10718 bound_to 10713
  153.9564  135.2964  155.3436 H   0  0  0  0  0  0  0  0  0  0  0  0  # atno 10763 bound_to 10752
  154.7398  135.5030  153.9107 H   0  0  0  0  0  0  0  0  0  0  0  0  # atno 10764 bound_to 10752
  153.0968  135.6723  153.9857 H   0  0  0  0  0  0  0  0  0  0  0  0  # atno 10765 bound_to 10752
  141.1341  133.6634  156.5447 H   0  0  0  0  0  0  0  0  0  0  0  0  # atno 11005 bound_to 11000
  145.1017  140.9350  143.4709 LP  0  0  0  0  0  0  0  0  0  0  0  0  # atno 17320 bound_to 7965
  145.0666  139.3064  143.5853 LP  0  0  0  0  0  0  0  0  0  0  0  0  # atno 17321 bound_to 7965
  139.5430  144.7274  151.4672 LP  0  0  0  0  0  0  0  0  0  0  0  0  # atno 17342 bound_to 10162
  140.6708  143.8298  150.6997 LP  0  0  0  0  0  0  0  0  0  0  0  0  # atno 17343 bound_to 10162
  156.4689  130.7987  151.3005 LP  0  0  0  0  0  0  0  0  0  0  0  0  # atno 17370 bound_to 10713
  157.7482  131.0042  150.3067 LP  0  0  0  0  0  0  0  0  0  0  0  0  # atno 17371 bound_to 10713
  140.4112  134.7271  157.4837 LP  0  0  0  0  0  0  0  0  0  0  0  0  # atno 17394 bound_to 11000
  140.0426  134.6245  155.8961 LP  0  0  0  0  0  0  0  0  0  0  0  0  # atno 17395 bound_to 11000

$$$$
