AV-unprocessed.smi:781|AV-procd|sdf|3707|dock5
  -GOLD-   22720 1133D 1   1.00000     0.00000
 Structure written by MMmdl.
 38 40  0  0  0  0  0  0  0  0  1 V2000
  143.8953  132.4793  149.9404 C   0  0  0  0  0  0  0  0  0  0  0  0
  144.3733  133.5582  150.8505 C   0  0  0  0  0  0  0  0  0  0  0  0
  145.5280  134.2869  150.9033 C   0  0  0  0  0  0  0  0  0  0  0  0
  145.3178  135.1392  152.0199 C   0  0  0  0  0  0  0  0  0  0  0  0
  146.3073  136.0737  152.4176 N   0  0  0  0  0  0  0  0  0  0  0  0
  146.1963  137.0411  153.3437 C   0  0  0  0  0  0  0  0  0  0  0  0
  145.1881  137.2734  154.0112 O   0  0  0  0  0  0  0  0  0  0  0  0
  147.3364  137.7366  153.4572 N   0  0  0  0  0  0  0  0  0  0  0  0
  147.5528  138.8508  154.3766 C   0  0  2  0  0  0  0  0  0  0  0  0
  146.4846  139.9450  154.1586 C   0  0  1  0  0  0  0  0  0  0  0  0
  146.4881  140.8892  155.3743 C   0  0  0  0  0  0  0  0  0  0  0  0
  147.7981  141.6758  155.1804 C   0  0  0  0  0  0  0  0  0  0  0  0
  148.3821  141.0646  153.8884 C   0  0  2  0  0  0  0  0  0  0  0  0
  147.1123  140.8257  153.0814 C   0  0  0  0  0  0  0  0  0  0  0  0
  148.8754  139.6113  154.1002 C   0  0  1  0  0  0  0  0  0  0  0  0
  149.9557  139.4095  155.1808 C   0  0  0  0  0  0  0  0  0  0  0  0
  151.0983  140.1843  154.8848 O   0  0  0  0  0  0  0  0  0  0  0  0
  144.1416  134.9474  152.5974 N   0  0  0  0  0  0  0  0  0  0  0  0
  143.5304  133.9327  151.8511 O   0  0  0  0  0  0  0  0  0  0  0  0
  144.5112  132.4263  149.0425 H   0  0  0  0  0  0  0  0  0  0  0  0
  142.8657  132.6601  149.6316 H   0  0  0  0  0  0  0  0  0  0  0  0
  143.9355  131.5097  150.4365 H   0  0  0  0  0  0  0  0  0  0  0  0
  146.3833  134.2195  150.2476 H   0  0  0  0  0  0  0  0  0  0  0  0
  147.1956  135.9984  151.9448 H   0  0  0  0  0  0  0  0  0  0  0  0
  148.1152  137.4754  152.8705 H   0  0  0  0  0  0  0  0  0  0  0  0
  147.5040  138.4801  155.4026 H   0  0  0  0  0  0  0  0  0  0  0  0
  145.4931  139.5581  153.9202 H   0  0  0  0  0  0  0  0  0  0  0  0
  145.6300  141.5618  155.3469 H   0  0  0  0  0  0  0  0  0  0  0  0
  146.4595  140.3509  156.3224 H   0  0  0  0  0  0  0  0  0  0  0  0
  147.5807  142.7345  155.0331 H   0  0  0  0  0  0  0  0  0  0  0  0
  148.4667  141.6031  156.0371 H   0  0  0  0  0  0  0  0  0  0  0  0
  149.1156  141.7046  153.3969 H   0  0  0  0  0  0  0  0  0  0  0  0
  147.2873  140.3029  152.1394 H   0  0  0  0  0  0  0  0  0  0  0  0
  146.5457  141.7370  152.8819 H   0  0  0  0  0  0  0  0  0  0  0  0
  149.2946  139.2684  153.1518 H   0  0  0  0  0  0  0  0  0  0  0  0
  149.5915  139.6590  156.1766 H   0  0  0  0  0  0  0  0  0  0  0  0
  150.2549  138.3618  155.2139 H   0  0  0  0  0  0  0  0  0  0  0  0
  151.8653  139.7008  155.1512 H   0  0  0  0  0  0  0  0  0  0  0  0
  1  2  1  0  0  0  0
  1 20  1  0  0  0  0
  1 21  1  0  0  0  0
  1 22  1  0  0  0  0
  2 19  1  0  0  0  0
  2  3  2  0  0  0  0
  3  4  1  0  0  0  0
  3 23  1  0  0  0  0
  4  5  1  0  0  0  0
  4 18  2  0  0  0  0
  5  6  1  0  0  0  0
  5 24  1  0  0  0  0
  6  7  2  0  0  0  0
  6  8  1  0  0  0  0
  8  9  1  0  0  0  0
  8 25  1  0  0  0  0
  9 15  1  0  0  0  0
  9 10  1  0  0  0  0
  9 26  1  0  0  0  0
 10 14  1  0  0  0  0
 10 11  1  0  0  0  0
 10 27  1  0  0  0  0
 11 12  1  0  0  0  0
 11 28  1  0  0  0  0
 11 29  1  0  0  0  0
 12 13  1  0  0  0  0
 12 30  1  0  0  0  0
 12 31  1  0  0  0  0
 13 14  1  0  0  0  0
 13 15  1  0  0  0  0
 13 32  1  0  0  0  0
 14 33  1  0  0  0  0
 14 34  1  0  0  0  0
 15 16  1  0  0  0  0
 15 35  1  0  0  0  0
 16 17  1  0  0  0  0
 16 36  1  0  0  0  0
 16 37  1  0  0  0  0
 17 38  1  0  0  0  0
 18 19  1  0  0  0  0
M  END
> <s_m_source_file>
AV-unprocessed.smi

> <i_m_source_file_index>
781

> <i_lp_mmshare_version>
43012

> <i_f3d_flags>
0

> <s_epik_input>
W0NIM11jMVtjSF1jKG5vMSlbTkhdQyg9TylbTkhdW0NASF0oW0NAQEhdMjMpW0NASF0oW0NIMl1bT0hdKVtDQEBIXShbQ0gyXTMpW0NIMl1bQ0gyXTI=

> <s_epik_cmdline>
J2VwaWtfcHl0aG9uJywgJy1waCcsICc3LjAnLCAnLXRuJywgJzgnLCAnLW1hJywgJzIwMCcsICctbWV0YWxfYmluZGluZycsICctaW1hZScsICc8aW5maWxlLm1hZT4nLCAnLW9tYWUnLCAnPG91dGZpbGUubWFlPic=

> <r_lp_tautomer_probability>
1

> <r_epik_Ionization_Penalty>
2.32222e-05

> <r_epik_Ionization_Penalty_Charging>
0

> <r_epik_Ionization_Penalty_Neutral>
2.32222e-05

> <r_epik_State_Penalty>
-0

> <r_epik_Charging_Adjusted_Penalty>
0

> <i_epik_Tot_Q>
0

> <i_epik_Tot_abs_Q>
0

> <r_epik_Metal_State_Penalty>
-0

> <b_epik_Metal_Only>
0

> <s_lp_Force_Field>
OPLS_2005

> <r_lp_Energy>
47.0606

> <b_lp_Chiralities_Consistent>
1

> <s_lp_Variant>
AV-unprocessed.smi:781-1

> <Gold.Version>
5.8.1

> <Gold.Id.Protein>
6NUR|6NUR_protein|mol2

> <Gold.PLP.Fitness>
36.8055

> <Gold.PLP.PLP>
-27.9658

> <Gold.PLP.part.hbond>
-3.0000

> <Gold.PLP.part.metal>
0.0000

> <Gold.PLP.part.buried>
-2.5120

> <Gold.PLP.part.nonpolar>
-22.2634

> <Gold.PLP.part.repulsive>
0.4265

> <Gold.PLP.ligand.clash>
0.0000

> <Gold.PLP.ligand.torsion>
0.0776

> <Gold.PLP.Chemscore.Hbond>
2.9920

> <Gold.PLP.Chemscore.CHOScore>
0.0000

> <Gold.PLP.Chemscore.Metal>
0.0000

> <Gold.Chemscore.Hbonds>
donor molecule, donor type, donor heavy atom, donor atom, acceptor molecule, acceptor atom, score
      L1  H     5    24       P1  7948  1.00
      L1  H     8    25       P1  7948  1.00
      P1  H  7989  7998       L1    17  1.00

> <Gold.PLP.Chemscore.Internal.Correction>
0.0188

> <Gold.Rescore>
     Score         DG    S(hbond)    S(metal)    S(lipo)     H(rot)  DE(clash)    DE(int)     intcor
     16.57     -17.93       2.89        0.00      64.61       1.86       0.06       1.30       ----

> <Gold.Chemscore.Fitness>
16.5744

> <Gold.Chemscore.DG>
-17.9342

> <Gold.Chemscore.ZeroCoef>
-5.4800

> <Gold.Chemscore.Hbond>
2.8900

> <Gold.Chemscore.Metal>
0.0000

> <Gold.Chemscore.Lipo>
64.6139

> <Gold.Chemscore.Internal_Hbond>
0.0000

> <Gold.Chemscore.DEClash>
0.0580

> <Gold.Chemscore.DEInternal>
1.3019

> <Gold.Chemscore.Rot>
1.8587

> <Gold.Chemscore.Internal.Correction>
   9.000000E+99

> <Gold.Chemscore.Hbonds>
donor molecule, donor type, donor heavy atom, donor atom, acceptor molecule, acceptor atom, score
      L1  H     5    24       P1  7948  0.98
      L1  H     8    25       P1  7948  0.94
      P1  H  7989  7998       L1    17  0.30

> <Gold.Chemscore.Hbond.Weighted>
-9.6527

> <Gold.Chemscore.Metal.Weighted>
-0.0000

> <Gold.Chemscore.Lipo.Weighted>
-7.5598

> <Gold.Chemscore.Internal_Hbond.Weighted>
0.0000

> <Gold.Chemscore.DEClash.Weighted>
0.0580

> <Gold.Chemscore.DEInternal.Weighted>
1.3019

> <Gold.Chemscore.Rot.Weighted>
4.7583

> <Gold.Chemscore.Internal.Correction.Weighted>
   9.000000E+99

> <Gold.Protein.RotatedTorsions>
[ 6907 6896 6895 6894 ] final -153.49 input  -60.11 | X-H torsion
[ 7974 7965 7964 7962 ] final  178.42 input  175.53 | X-H torsion
[ 8008 7997 7996 7995 ] final -126.79 input   59.86 | X-H torsion
[ 10167 10162 10161 10158 ] final   72.92 input  -65.29 | X-H torsion
[ 10718 10713 10712 10709 ] final  -96.35 input   66.30 | X-H torsion
[ 10763 10752 10751 10750 ] final  152.90 input  -60.55 | X-H torsion
[ 11005 11000 10999 10996 ] final   64.09 input  -57.11 | X-H torsion

> <Gold.Protein.ActiveResidues>
 VAL166  LYS551  ARG553  GLY616  TRP617  ASP618  TYR619  PRO620  LYS621  CYS622 
 ASP623  PHE694  ASN695  SER759  ASP760  ASP761  ALA762  ILE779  LEU786  VAL792 
 PHE793  MET794  SER795  GLU796  ALA797  LYS798  CYS799  TRP800  GLU811  SER814 

> <Gold.Protein.RotatedAtoms>
  151.2434  133.4387  159.2608 H   0  0  0  0  0  0  0  0  0  0  0  0  # atno 6907 bound_to 6896
  151.0684  134.9783  159.8306 H   0  0  0  0  0  0  0  0  0  0  0  0  # atno 6908 bound_to 6896
  152.5408  134.2380  159.8904 H   0  0  0  0  0  0  0  0  0  0  0  0  # atno 6909 bound_to 6896
  144.7156  140.0395  143.6437 H   0  0  0  0  0  0  0  0  0  0  0  0  # atno 7974 bound_to 7965
  155.2356  140.0427  157.2968 H   0  0  0  0  0  0  0  0  0  0  0  0  # atno 8008 bound_to 7997
  154.5861  140.2414  155.7956 H   0  0  0  0  0  0  0  0  0  0  0  0  # atno 8009 bound_to 7997
  156.2227  140.2964  155.9999 H   0  0  0  0  0  0  0  0  0  0  0  0  # atno 8010 bound_to 7997
  140.0301  144.5472  150.7514 H   0  0  0  0  0  0  0  0  0  0  0  0  # atno 10167 bound_to 10162
  156.0060  130.5147  150.6212 H   0  0  0  0  0  0  0  0  0  0  0  0  # atno 10718 bound_to 10713
  154.1275  135.2829  155.3193 H   0  0  0  0  0  0  0  0  0  0  0  0  # atno 10763 bound_to 10752
  154.6379  135.5412  153.7758 H   0  0  0  0  0  0  0  0  0  0  0  0  # atno 10764 bound_to 10752
  153.0292  135.6479  154.1427 H   0  0  0  0  0  0  0  0  0  0  0  0  # atno 10765 bound_to 10752
  139.9982  134.6484  155.9975 H   0  0  0  0  0  0  0  0  0  0  0  0  # atno 11005 bound_to 11000
  146.0035  139.3111  143.0913 LP  0  0  0  0  0  0  0  0  0  0  0  0  # atno 17320 bound_to 7965
  145.8765  140.9389  143.0623 LP  0  0  0  0  0  0  0  0  0  0  0  0  # atno 17321 bound_to 7965
  140.7306  143.2685  151.3966 LP  0  0  0  0  0  0  0  0  0  0  0  0  # atno 17342 bound_to 10162
  139.6082  144.1153  152.2271 LP  0  0  0  0  0  0  0  0  0  0  0  0  # atno 17343 bound_to 10162
  157.4027  131.0812  151.1293 LP  0  0  0  0  0  0  0  0  0  0  0  0  # atno 17370 bound_to 10713
  157.1949  130.6369  149.5718 LP  0  0  0  0  0  0  0  0  0  0  0  0  # atno 17371 bound_to 10713
  141.1621  133.6538  156.4354 LP  0  0  0  0  0  0  0  0  0  0  0  0  # atno 17394 bound_to 11000
  140.4778  134.6693  157.5158 LP  0  0  0  0  0  0  0  0  0  0  0  0  # atno 17395 bound_to 11000

$$$$
