AV-unprocessed.smi:1839|AV-procd|sdf|7487|dock2
  -GOLD-   22720 9183D 1   1.00000     0.00000
 Structure written by MMmdl.
 47 48  0  0  0  0  0  0  0  0  2 V2000
  152.0374  145.0794  160.1586 C   0  0  0  0  0  0  0  0  0  0  0  0
  152.2745  143.6397  160.2656 N   0  0  0  0  0  0  0  0  0  0  0  0
  152.4767  143.1653  161.6401 C   0  0  0  0  0  0  0  0  0  0  0  0
  152.0170  142.8234  159.2132 C   0  0  0  0  0  0  0  0  0  0  0  0
  151.2774  143.1646  158.2880 O   0  0  0  0  0  0  0  0  0  0  0  0
  152.5893  141.5968  159.2559 N   0  0  0  0  0  0  0  0  0  0  0  0
  153.9581  141.3731  159.7435 C   0  0  0  0  0  0  0  0  0  0  0  0
  153.9996  140.0915  160.5937 C   0  0  0  0  0  0  0  0  0  0  0  0
  153.4656  138.8887  159.7971 C   0  0  0  0  0  0  0  0  0  0  0  0
  152.0838  139.1930  159.1769 C   0  0  2  0  0  0  0  0  0  0  0  0
  151.6040  138.0376  158.2892 C   0  0  0  0  0  0  0  0  0  0  0  0
  151.4317  136.9157  158.7667 O   0  0  0  0  0  0  0  0  0  0  0  0
  151.3994  138.3224  156.9936 N   0  0  0  0  0  0  0  0  0  0  0  0
  150.9631  137.3628  155.9866 C   0  0  0  0  0  0  0  0  0  0  0  0
  151.1202  137.9236  154.5627 C   0  0  0  0  0  0  0  0  0  0  0  0
  150.1663  139.0697  154.2903 C   0  0  0  0  0  0  0  0  0  0  0  0
  150.2785  140.3114  154.9523 C   0  0  0  0  0  0  0  0  0  0  0  0
  149.3645  141.3411  154.6448 C   0  0  0  0  0  0  0  0  0  0  0  0
  148.3598  141.1076  153.6828 C   0  0  0  0  0  0  0  0  0  0  0  0
  148.2950  139.8488  153.0510 C   0  0  0  0  0  0  0  0  0  0  0  0
  149.1895  138.8881  153.3724 N   0  3  0  0  0  0  0  0  0  0  0  0
  152.1365  140.5132  158.3763 C   0  0  0  0  0  0  0  0  0  0  0  0
  152.3423  145.4648  159.1840 H   0  0  0  0  0  0  0  0  0  0  0  0
  152.6036  145.6291  160.9116 H   0  0  0  0  0  0  0  0  0  0  0  0
  150.9788  145.3020  160.2988 H   0  0  0  0  0  0  0  0  0  0  0  0
  152.0307  142.1839  161.8087 H   0  0  0  0  0  0  0  0  0  0  0  0
  152.0180  143.8423  162.3620 H   0  0  0  0  0  0  0  0  0  0  0  0
  153.5395  143.1063  161.8735 H   0  0  0  0  0  0  0  0  0  0  0  0
  154.6266  141.2720  158.8872 H   0  0  0  0  0  0  0  0  0  0  0  0
  154.3426  142.2165  160.3177 H   0  0  0  0  0  0  0  0  0  0  0  0
  155.0193  139.8952  160.9261 H   0  0  0  0  0  0  0  0  0  0  0  0
  153.4017  140.2274  161.4953 H   0  0  0  0  0  0  0  0  0  0  0  0
  154.1820  138.6434  159.0112 H   0  0  0  0  0  0  0  0  0  0  0  0
  153.4069  138.0135  160.4453 H   0  0  0  0  0  0  0  0  0  0  0  0
  151.3693  139.3209  159.9926 H   0  0  0  0  0  0  0  0  0  0  0  0
  151.5618  139.2701  156.6847 H   0  0  0  0  0  0  0  0  0  0  0  0
  151.5220  136.4316  156.0952 H   0  0  0  0  0  0  0  0  0  0  0  0
  149.9175  137.1217  156.1805 H   0  0  0  0  0  0  0  0  0  0  0  0
  152.1434  138.2685  154.4069 H   0  0  0  0  0  0  0  0  0  0  0  0
  150.9461  137.1400  153.8240 H   0  0  0  0  0  0  0  0  0  0  0  0
  151.0561  140.4751  155.6844 H   0  0  0  0  0  0  0  0  0  0  0  0
  149.4343  142.2984  155.1403 H   0  0  0  0  0  0  0  0  0  0  0  0
  147.6502  141.8829  153.4327 H   0  0  0  0  0  0  0  0  0  0  0  0
  147.5611  139.5836  152.3042 H   0  0  0  0  0  0  0  0  0  0  0  0
  151.1461  140.7225  157.9663 H   0  0  0  0  0  0  0  0  0  0  0  0
  152.8144  140.4315  157.5246 H   0  0  0  0  0  0  0  0  0  0  0  0
  149.1249  137.9846  152.9026 H   0  0  0  0  0  0  0  0  0  0  0  0
  1  2  1  0  0  0  0
  1 23  1  0  0  0  0
  1 24  1  0  0  0  0
  1 25  1  0  0  0  0
  2  3  1  0  0  0  0
  2  4  1  0  0  0  0
  3 26  1  0  0  0  0
  3 27  1  0  0  0  0
  3 28  1  0  0  0  0
  4  5  2  0  0  0  0
  4  6  1  0  0  0  0
  6 22  1  0  0  0  0
  6  7  1  0  0  0  0
  7  8  1  0  0  0  0
  7 29  1  0  0  0  0
  7 30  1  0  0  0  0
  8  9  1  0  0  0  0
  8 31  1  0  0  0  0
  8 32  1  0  0  0  0
  9 10  1  0  0  0  0
  9 33  1  0  0  0  0
  9 34  1  0  0  0  0
 10 11  1  0  0  0  0
 10 22  1  0  0  0  0
 10 35  1  0  0  0  0
 11 12  2  0  0  0  0
 11 13  1  0  0  0  0
 13 14  1  0  0  0  0
 13 36  1  0  0  0  0
 14 15  1  0  0  0  0
 14 37  1  0  0  0  0
 14 38  1  0  0  0  0
 15 16  1  0  0  0  0
 15 39  1  0  0  0  0
 15 40  1  0  0  0  0
 16 21  1  0  0  0  0
 16 17  2  0  0  0  0
 17 18  1  0  0  0  0
 17 41  1  0  0  0  0
 18 19  2  0  0  0  0
 18 42  1  0  0  0  0
 19 20  1  0  0  0  0
 19 43  1  0  0  0  0
 20 21  2  0  0  0  0
 20 44  1  0  0  0  0
 21 47  1  0  0  0  0
 22 45  1  0  0  0  0
 22 46  1  0  0  0  0
M  CHG  1  21   1
M  END
> <s_m_source_file>
AV-unprocessed.smi

> <i_m_source_file_index>
1839

> <i_lp_mmshare_version>
43012

> <i_f3d_flags>
0

> <s_epik_input>
W0NIM11OKFtDSDNdKUMoPU8pTjFbQ0gyXVtDSDJdW0NIMl1bQ0BIXShbQ0gyXTEpQyg9TylbTkhdW0NIMl1bQ0gyXWMyW2NIXVtjSF1bY0hdW2NIXW4y

> <s_epik_cmdline>
J2VwaWtfcHl0aG9uJywgJy1waCcsICc3LjAnLCAnLXRuJywgJzgnLCAnLW1hJywgJzIwMCcsICctbWV0YWxfYmluZGluZycsICctaW1hZScsICc8aW5maWxlLm1hZT4nLCAnLW9tYWUnLCAnPG91dGZpbGUubWFlPic=

> <r_epik_Ionization_Penalty>
1.8476

> <r_epik_Ionization_Penalty_Charging>
1.84754

> <r_epik_Ionization_Penalty_Neutral>
5.83857e-05

> <r_epik_State_Penalty>
1.96477

> <r_epik_Charging_Adjusted_Penalty>
3.81231

> <i_epik_Tot_Q>
1

> <i_epik_Tot_abs_Q>
1

> <r_epik_Metal_State_Penalty>
1.99061

> <b_epik_Metal_Only>
0

> <s_lp_Force_Field>
OPLS_2005

> <r_lp_Energy>
52.6854

> <b_lp_Chiralities_Consistent>
1

> <s_lp_Variant>
AV-unprocessed.smi:1839-4

> <Gold.Version>
5.8.1

> <Gold.Id.Protein>
6NUR|6NUR_protein|mol2

> <Gold.PLP.Fitness>
53.7146

> <Gold.PLP.PLP>
-47.1076

> <Gold.PLP.part.hbond>
-2.9931

> <Gold.PLP.part.metal>
0.0000

> <Gold.PLP.part.buried>
-1.9002

> <Gold.PLP.part.nonpolar>
-42.7487

> <Gold.PLP.part.repulsive>
0.1852

> <Gold.PLP.ligand.clash>
2.0366

> <Gold.PLP.ligand.torsion>
0.7890

> <Gold.PLP.Chemscore.Hbond>
2.9600

> <Gold.PLP.Chemscore.CHOScore>
0.0000

> <Gold.PLP.Chemscore.Metal>
0.0000

> <Gold.Chemscore.Hbonds>
donor molecule, donor type, donor heavy atom, donor atom, acceptor molecule, acceptor atom, score
      L1  H    21    47       P1  7948  2.00
      P1  H  6896  6908       L1    12  0.75

> <Gold.PLP.Chemscore.Internal.Correction>
1.3416

> <Gold.Rescore>
     Score         DG    S(hbond)    S(metal)    S(lipo)     H(rot)  DE(clash)    DE(int)     intcor
     17.73     -19.56       1.92        0.00     100.68       1.60       0.03       1.80       ----

> <Gold.Chemscore.Fitness>
17.7283

> <Gold.Chemscore.DG>
-19.5585

> <Gold.Chemscore.ZeroCoef>
-5.4800

> <Gold.Chemscore.Hbond>
1.9185

> <Gold.Chemscore.Metal>
0.0000

> <Gold.Chemscore.Lipo>
100.6781

> <Gold.Chemscore.Internal_Hbond>
0.0000

> <Gold.Chemscore.DEClash>
0.0270

> <Gold.Chemscore.DEInternal>
1.8032

> <Gold.Chemscore.Rot>
1.6049

> <Gold.Chemscore.Internal.Correction>
   9.000000E+99

> <Gold.Chemscore.Hbonds>
donor molecule, donor type, donor heavy atom, donor atom, acceptor molecule, acceptor atom, score
      L1  H    21    47       P1  7948  0.94
      P1  H  6896  6908       L1    12  0.72

> <Gold.Chemscore.Hbond.Weighted>
-6.4078

> <Gold.Chemscore.Metal.Weighted>
-0.0000

> <Gold.Chemscore.Lipo.Weighted>
-11.7793

> <Gold.Chemscore.Internal_Hbond.Weighted>
0.0000

> <Gold.Chemscore.DEClash.Weighted>
0.0270

> <Gold.Chemscore.DEInternal.Weighted>
1.8032

> <Gold.Chemscore.Rot.Weighted>
4.1087

> <Gold.Chemscore.Internal.Correction.Weighted>
   9.000000E+99

> <Gold.Protein.RotatedTorsions>
[ 6907 6896 6895 6894 ] final -129.33 input  -60.11 | X-H torsion
[ 7974 7965 7964 7962 ] final  136.48 input  175.53 | X-H torsion
[ 8008 7997 7996 7995 ] final  -76.13 input   59.86 | X-H torsion
[ 10167 10162 10161 10158 ] final  148.68 input  -65.29 | X-H torsion
[ 10718 10713 10712 10709 ] final   73.17 input   66.30 | X-H torsion
[ 10763 10752 10751 10750 ] final  137.04 input  -60.55 | X-H torsion
[ 11005 11000 10999 10996 ] final   78.48 input  -57.11 | X-H torsion

> <Gold.Protein.ActiveResidues>
 VAL166  LYS551  ARG553  GLY616  TRP617  ASP618  TYR619  PRO620  LYS621  CYS622 
 ASP623  PHE694  ASN695  SER759  ASP760  ASP761  ALA762  ILE779  LEU786  VAL792 
 PHE793  MET794  SER795  GLU796  ALA797  LYS798  CYS799  TRP800  GLU811  SER814 

> <Gold.Protein.RotatedAtoms>
  150.9276  133.6805  159.2817 H   0  0  0  0  0  0  0  0  0  0  0  0  # atno 6907 bound_to 6896
  151.4238  135.1000  159.9631 H   0  0  0  0  0  0  0  0  0  0  0  0  # atno 6908 bound_to 6896
  152.5010  133.8721  159.7359 H   0  0  0  0  0  0  0  0  0  0  0  0  # atno 6909 bound_to 6896
  144.9561  139.4763  143.5502 H   0  0  0  0  0  0  0  0  0  0  0  0  # atno 7974 bound_to 7965
  154.5478  140.0732  156.8618 H   0  0  0  0  0  0  0  0  0  0  0  0  # atno 8008 bound_to 7997
  155.3053  140.3387  155.4228 H   0  0  0  0  0  0  0  0  0  0  0  0  # atno 8009 bound_to 7997
  156.1934  140.1694  156.8033 H   0  0  0  0  0  0  0  0  0  0  0  0  # atno 8010 bound_to 7997
  139.4871  144.5661  151.7142 H   0  0  0  0  0  0  0  0  0  0  0  0  # atno 10167 bound_to 10162
  157.6535  130.9615  150.1031 H   0  0  0  0  0  0  0  0  0  0  0  0  # atno 10718 bound_to 10713
  153.8664  135.3061  155.3440 H   0  0  0  0  0  0  0  0  0  0  0  0  # atno 10763 bound_to 10752
  154.7825  135.4827  153.9879 H   0  0  0  0  0  0  0  0  0  0  0  0  # atno 10764 bound_to 10752
  153.1431  135.6828  153.9091 H   0  0  0  0  0  0  0  0  0  0  0  0  # atno 10765 bound_to 10752
  139.9211  134.7766  156.1655 H   0  0  0  0  0  0  0  0  0  0  0  0  # atno 11005 bound_to 11000
  146.3338  139.8680  142.8845 LP  0  0  0  0  0  0  0  0  0  0  0  0  # atno 17320 bound_to 7965
  145.2770  141.0127  143.3739 LP  0  0  0  0  0  0  0  0  0  0  0  0  # atno 17321 bound_to 7965
  140.5239  144.0836  150.6031 LP  0  0  0  0  0  0  0  0  0  0  0  0  # atno 17342 bound_to 10162
  140.3803  143.2806  152.0178 LP  0  0  0  0  0  0  0  0  0  0  0  0  # atno 17343 bound_to 10162
  156.1948  130.3657  149.8863 LP  0  0  0  0  0  0  0  0  0  0  0  0  # atno 17370 bound_to 10713
  156.6782  130.8847  151.3572 LP  0  0  0  0  0  0  0  0  0  0  0  0  # atno 17371 bound_to 10713
  141.0732  133.6787  156.2183 LP  0  0  0  0  0  0  0  0  0  0  0  0  # atno 17394 bound_to 11000
  140.6472  134.5105  157.5574 LP  0  0  0  0  0  0  0  0  0  0  0  0  # atno 17395 bound_to 11000

$$$$
