AV-unprocessed.smi:2817|AV-procd|sdf|10846|dock7
  -GOLD-   2272015283D 1   1.00000     0.00000
 Structure written by MMmdl.
 42 44  0  0  0  0  0  0  0  0  1 V2000
  148.1558  141.9170  157.0872 O   0  0  0  0  0  0  0  0  0  0  0  0
  149.2009  141.5667  157.6355 C   0  0  0  0  0  0  0  0  0  0  0  0
  150.2384  142.5188  158.0329 C   0  0  0  0  0  0  0  0  0  0  0  0
  151.3745  142.0985  158.6379 C   0  0  0  0  0  0  0  0  0  0  0  0
  152.4628  143.0907  159.0391 C   0  0  0  0  0  0  0  0  0  0  0  0
  152.6747  143.2788  160.5511 C   0  0  0  0  0  0  0  0  0  0  0  0
  151.9036  144.6016  160.4772 C   0  0  0  0  0  0  0  0  0  0  0  0
  152.0458  144.5671  158.9512 C   0  0  0  0  0  0  0  0  0  0  0  0
  151.5845  140.7348  158.8833 N   0  0  0  0  0  0  0  0  0  0  0  0
  150.6837  139.8712  158.5382 C   0  0  0  0  0  0  0  0  0  0  0  0
  149.4807  140.2620  157.9192 N   0  0  0  0  0  0  0  0  0  0  0  0
  148.5426  139.1834  157.5700 C   0  0  0  0  0  0  0  0  0  0  0  0
  148.3467  138.1884  158.7371 C   0  0  2  0  0  0  0  0  0  0  0  0
  148.4659  136.8691  158.2447 O   0  0  0  0  0  0  0  0  0  0  0  0
  146.9555  138.3084  159.3776 C   0  0  0  0  0  0  0  0  0  0  0  0
  147.0450  137.8978  160.7355 O   0  0  0  0  0  0  0  0  0  0  0  0
  146.6938  136.6037  161.0532 C   0  0  0  0  0  0  0  0  0  0  0  0
  146.7927  136.2299  162.4095 C   0  0  0  0  0  0  0  0  0  0  0  0
  146.4552  134.9276  162.8249 C   0  0  0  0  0  0  0  0  0  0  0  0
  146.0132  133.9810  161.8825 C   0  0  0  0  0  0  0  0  0  0  0  0
  145.9099  134.3403  160.5258 C   0  0  0  0  0  0  0  0  0  0  0  0
  146.2474  135.6432  160.1101 C   0  0  0  0  0  0  0  0  0  0  0  0
  150.0870  143.5706  157.8378 H   0  0  0  0  0  0  0  0  0  0  0  0
  153.4005  142.8962  158.5165 H   0  0  0  0  0  0  0  0  0  0  0  0
  152.2145  142.5214  161.1870 H   0  0  0  0  0  0  0  0  0  0  0  0
  153.7246  143.4243  160.8086 H   0  0  0  0  0  0  0  0  0  0  0  0
  150.8685  144.5072  160.8078 H   0  0  0  0  0  0  0  0  0  0  0  0
  152.4043  145.4429  160.9573 H   0  0  0  0  0  0  0  0  0  0  0  0
  152.8519  145.2079  158.5916 H   0  0  0  0  0  0  0  0  0  0  0  0
  151.1177  144.7533  158.4094 H   0  0  0  0  0  0  0  0  0  0  0  0
  150.8008  138.7978  158.6990 H   0  0  0  0  0  0  0  0  0  0  0  0
  147.5822  139.6298  157.3048 H   0  0  0  0  0  0  0  0  0  0  0  0
  148.8457  138.6603  156.6611 H   0  0  0  0  0  0  0  0  0  0  0  0
  149.1017  138.3376  159.5102 H   0  0  0  0  0  0  0  0  0  0  0  0
  147.7089  136.6762  157.7130 H   0  0  0  0  0  0  0  0  0  0  0  0
  146.5935  139.3355  159.3045 H   0  0  0  0  0  0  0  0  0  0  0  0
  146.2513  137.6611  158.8516 H   0  0  0  0  0  0  0  0  0  0  0  0
  147.1312  136.9502  163.1399 H   0  0  0  0  0  0  0  0  0  0  0  0
  146.5361  134.6555  163.8670 H   0  0  0  0  0  0  0  0  0  0  0  0
  145.7546  132.9814  162.1999 H   0  0  0  0  0  0  0  0  0  0  0  0
  145.5715  133.6145  159.8011 H   0  0  0  0  0  0  0  0  0  0  0  0
  146.1562  135.8805  159.0611 H   0  0  0  0  0  0  0  0  0  0  0  0
  1  2  2  0  0  0  0
  2 11  1  0  0  0  0
  2  3  1  0  0  0  0
  3  4  2  0  0  0  0
  3 23  1  0  0  0  0
  4  5  1  0  0  0  0
  4  9  1  0  0  0  0
  5  8  1  0  0  0  0
  5  6  1  0  0  0  0
  5 24  1  0  0  0  0
  6  7  1  0  0  0  0
  6 25  1  0  0  0  0
  6 26  1  0  0  0  0
  7  8  1  0  0  0  0
  7 27  1  0  0  0  0
  7 28  1  0  0  0  0
  8 29  1  0  0  0  0
  8 30  1  0  0  0  0
  9 10  2  0  0  0  0
 10 11  1  0  0  0  0
 10 31  1  0  0  0  0
 11 12  1  0  0  0  0
 12 13  1  0  0  0  0
 12 32  1  0  0  0  0
 12 33  1  0  0  0  0
 13 14  1  0  0  0  0
 13 15  1  0  0  0  0
 13 34  1  0  0  0  0
 14 35  1  0  0  0  0
 15 16  1  0  0  0  0
 15 36  1  0  0  0  0
 15 37  1  0  0  0  0
 16 17  1  0  0  0  0
 17 22  1  0  0  0  0
 17 18  2  0  0  0  0
 18 19  1  0  0  0  0
 18 38  1  0  0  0  0
 19 20  2  0  0  0  0
 19 39  1  0  0  0  0
 20 21  1  0  0  0  0
 20 40  1  0  0  0  0
 21 22  2  0  0  0  0
 21 41  1  0  0  0  0
 22 42  1  0  0  0  0
M  END
> <s_m_source_file>
AV-unprocessed.smi

> <i_m_source_file_index>
2817

> <i_lp_mmshare_version>
43012

> <i_f3d_flags>
0

> <s_epik_input>
W0NIMl0xW0NIMl1bQ0gyXVtDSF0xYyhbY0hdYzI9TyluW2NIXW4yW0NIMl1bQ0BIXShbT0hdKVtDSDJdT2MzW2NIXVtjSF1bY0hdW2NIXVtjSF0z

> <s_epik_cmdline>
J2VwaWtfcHl0aG9uJywgJy1waCcsICc3LjAnLCAnLXRuJywgJzgnLCAnLW1hJywgJzIwMCcsICctbWV0YWxfYmluZGluZycsICctaW1hZScsICc8aW5maWxlLm1hZT4nLCAnLW9tYWUnLCAnPG91dGZpbGUubWFlPic=

> <r_lp_tautomer_probability>
1

> <r_epik_Ionization_Penalty>
2.12778e-05

> <r_epik_Ionization_Penalty_Charging>
7.42033e-08

> <r_epik_Ionization_Penalty_Neutral>
2.12036e-05

> <r_epik_State_Penalty>
-0

> <r_epik_Charging_Adjusted_Penalty>
7.42033e-08

> <i_epik_Tot_Q>
0

> <i_epik_Tot_abs_Q>
0

> <r_epik_Metal_State_Penalty>
-0

> <b_epik_Metal_Only>
0

> <s_lp_Force_Field>
OPLS_2005

> <r_lp_Energy>
32.2435

> <b_lp_Chiralities_Consistent>
1

> <s_lp_Variant>
AV-unprocessed.smi:2817-1

> <Gold.Version>
5.8.1

> <Gold.Id.Protein>
6NUR|6NUR_protein|mol2

> <Gold.PLP.Fitness>
54.6567

> <Gold.PLP.PLP>
-50.4767

> <Gold.PLP.part.hbond>
-3.0000

> <Gold.PLP.part.metal>
0.0000

> <Gold.PLP.part.buried>
-6.1743

> <Gold.PLP.part.nonpolar>
-41.9190

> <Gold.PLP.part.repulsive>
0.0458

> <Gold.PLP.ligand.clash>
0.0000

> <Gold.PLP.ligand.torsion>
1.5946

> <Gold.PLP.Chemscore.Hbond>
2.3120

> <Gold.PLP.Chemscore.CHOScore>
0.0000

> <Gold.PLP.Chemscore.Metal>
0.0000

> <Gold.Chemscore.Hbonds>
donor molecule, donor type, donor heavy atom, donor atom, acceptor molecule, acceptor atom, score
      P1  H  6931  6943       L1    16  0.12
      P1  H  6934  6947       L1    16  0.01

> <Gold.PLP.Chemscore.Internal.Correction>
0.4332

> <Gold.Rescore>
     Score         DG    S(hbond)    S(metal)    S(lipo)     H(rot)  DE(clash)    DE(int)     intcor
     16.21     -18.48       1.74        0.00     114.62       2.42       0.08       2.19       ----

> <Gold.Chemscore.Fitness>
16.2116

> <Gold.Chemscore.DG>
-18.4794

> <Gold.Chemscore.ZeroCoef>
-5.4800

> <Gold.Chemscore.Hbond>
1.7350

> <Gold.Chemscore.Metal>
0.0000

> <Gold.Chemscore.Lipo>
114.6247

> <Gold.Chemscore.Internal_Hbond>
0.0000

> <Gold.Chemscore.DEClash>
0.0775

> <Gold.Chemscore.DEInternal>
2.1903

> <Gold.Chemscore.Rot>
2.4245

> <Gold.Chemscore.Internal.Correction>
   9.000000E+99

> <Gold.Chemscore.Hbonds>
donor molecule, donor type, donor heavy atom, donor atom, acceptor molecule, acceptor atom, score
      P1  H  6931  6943       L1    16  0.06

> <Gold.Chemscore.Hbond.Weighted>
-5.7950

> <Gold.Chemscore.Metal.Weighted>
-0.0000

> <Gold.Chemscore.Lipo.Weighted>
-13.4111

> <Gold.Chemscore.Internal_Hbond.Weighted>
0.0000

> <Gold.Chemscore.DEClash.Weighted>
0.0775

> <Gold.Chemscore.DEInternal.Weighted>
2.1903

> <Gold.Chemscore.Rot.Weighted>
6.2066

> <Gold.Chemscore.Internal.Correction.Weighted>
   9.000000E+99

> <Gold.Protein.RotatedTorsions>
[ 6907 6896 6895 6894 ] final -165.27 input  -60.11 | X-H torsion
[ 7974 7965 7964 7962 ] final   50.78 input  175.53 | X-H torsion
[ 8008 7997 7996 7995 ] final  -25.53 input   59.86 | X-H torsion
[ 10167 10162 10161 10158 ] final -110.52 input  -65.29 | X-H torsion
[ 10718 10713 10712 10709 ] final -142.00 input   66.30 | X-H torsion
[ 10763 10752 10751 10750 ] final -165.45 input  -60.55 | X-H torsion
[ 11005 11000 10999 10996 ] final   51.96 input  -57.11 | X-H torsion

> <Gold.Protein.ActiveResidues>
 VAL166  LYS551  ARG553  GLY616  TRP617  ASP618  TYR619  PRO620  LYS621  CYS622 
 ASP623  PHE694  ASN695  SER759  ASP760  ASP761  ALA762  ILE779  LEU786  VAL792 
 PHE793  MET794  SER795  GLU796  ALA797  LYS798  CYS799  TRP800  GLU811  SER814 

> <Gold.Protein.RotatedAtoms>
  151.4250  133.3687  159.2760 H   0  0  0  0  0  0  0  0  0  0  0  0  # atno 6907 bound_to 6896
  150.9266  134.8684  159.7534 H   0  0  0  0  0  0  0  0  0  0  0  0  # atno 6908 bound_to 6896
  152.5008  134.4192  159.9527 H   0  0  0  0  0  0  0  0  0  0  0  0  # atno 6909 bound_to 6896
  145.9978  139.4406  143.0034 H   0  0  0  0  0  0  0  0  0  0  0  0  # atno 7974 bound_to 7965
  154.4471  140.1924  156.0634 H   0  0  0  0  0  0  0  0  0  0  0  0  # atno 8008 bound_to 7997
  156.0566  140.3302  155.7385 H   0  0  0  0  0  0  0  0  0  0  0  0  # atno 8009 bound_to 7997
  155.5476  140.0592  157.2847 H   0  0  0  0  0  0  0  0  0  0  0  0  # atno 8010 bound_to 7997
  140.1435  143.4259  152.1545 H   0  0  0  0  0  0  0  0  0  0  0  0  # atno 10167 bound_to 10162
  156.3407  130.7636  151.1771 H   0  0  0  0  0  0  0  0  0  0  0  0  # atno 10718 bound_to 10713
  154.6930  135.2974  154.9452 H   0  0  0  0  0  0  0  0  0  0  0  0  # atno 10763 bound_to 10752
  154.0409  135.6657  153.4794 H   0  0  0  0  0  0  0  0  0  0  0  0  # atno 10764 bound_to 10752
  153.0626  135.5107  154.8033 H   0  0  0  0  0  0  0  0  0  0  0  0  # atno 10765 bound_to 10752
  140.0889  134.5237  155.8872 H   0  0  0  0  0  0  0  0  0  0  0  0  # atno 11005 bound_to 11000
  145.7534  140.9964  143.1238 LP  0  0  0  0  0  0  0  0  0  0  0  0  # atno 17320 bound_to 7965
  144.6909  139.9241  143.7469 LP  0  0  0  0  0  0  0  0  0  0  0  0  # atno 17321 bound_to 7965
  139.5460  144.7299  151.4582 LP  0  0  0  0  0  0  0  0  0  0  0  0  # atno 17342 bound_to 10162
  140.6746  143.8219  150.7042 LP  0  0  0  0  0  0  0  0  0  0  0  0  # atno 17343 bound_to 10162
  157.7446  131.0455  150.4847 LP  0  0  0  0  0  0  0  0  0  0  0  0  # atno 17370 bound_to 10713
  156.5027  130.4121  149.6344 LP  0  0  0  0  0  0  0  0  0  0  0  0  # atno 17371 bound_to 10713
  141.2071  133.6661  156.6286 LP  0  0  0  0  0  0  0  0  0  0  0  0  # atno 17394 bound_to 11000
  140.3381  134.7872  157.4377 LP  0  0  0  0  0  0  0  0  0  0  0  0  # atno 17395 bound_to 11000

$$$$
