#       Name:                AV-unprocessed.smi:671
#       Creating user name   scv26
#       Creation time:       Fri Mar 27 00:23:24 2020


#       File generated by GOLD software.
#

@<TRIPOS>MOLECULE
AV-unprocessed.smi:671
    52    53     1
SMALL
NO_CHARGES


@<TRIPOS>ATOM
      1 ****        -1.1241  -4.4847   0.1266 C.3            1 S1                 0.0000
      2 ****        -0.8197  -4.4999  -1.3441 C.2            1 S1                 0.0000
      3 ****         0.0430  -5.3829  -1.8190 N.2            1 S1                 0.0000
      4 ****         0.1046  -5.1277  -3.1413 N.pl3          1 S1                 0.0000
      5 ****         0.9820  -5.9221  -3.9788 C.3            1 S1                 0.0000
      6 ****        -0.7280  -4.0869  -3.5039 C.2            1 S1                 0.0000
      7 ****        -0.8386  -3.6069  -4.9151 C.3            1 S1                 0.0000
      8 ****        -1.3443  -3.6505  -2.3620 C.2            1 S1                 0.0000
      9 ****        -2.3334  -2.5221  -2.2007 C.3            1 S1                 0.0000
     10 ****        -1.6705  -1.1368  -2.3306 C.3            1 S1                 0.0000
     11 ****        -2.6717   0.0037  -2.0933 C.3            1 S1                 0.0000
     12 ****        -0.5450  -1.0240  -1.3966 N.am           1 S1                 0.0000
     13 ****         0.6271  -0.3872  -1.5676 C.2            1 S1                 0.0000
     14 ****         0.8990   0.2008  -2.6125 O.2            1 S1                 0.0000
     15 ****         1.4653  -0.4626  -0.5211 N.am           1 S1                 0.0000
     16 ****         2.7799   0.1663  -0.4467 C.3            1 S1                 0.0000
     17 ****         3.8567  -0.6717  -1.1677 C.3            1 S1                 0.0000
     18 ****         4.8470  -1.1196  -0.0907 C.3            1 S1                 0.0000
     19 ****         4.7316  -0.0578   0.9980 C.3            1 S1                 0.0000
     20 ****         3.2407   0.2869   1.0202 C.3            1 S1                 0.0000
     21 ****         2.9289   1.6466   1.6595 C.3            1 S1                 0.0000
     22 ****        -1.0473  -3.4747   0.5300 H              1 S1                 0.0000
     23 ****        -0.4348  -5.1157   0.6893 H              1 S1                 0.0000
     24 ****        -2.1354  -4.8435   0.3186 H              1 S1                 0.0000
     25 ****         1.6273  -5.2642  -4.5616 H              1 S1                 0.0000
     26 ****         0.3860  -6.5317  -4.6582 H              1 S1                 0.0000
     27 ****         1.6063  -6.5781  -3.3703 H              1 S1                 0.0000
     28 ****        -1.7113  -2.9671  -5.0464 H              1 S1                 0.0000
     29 ****        -0.9350  -4.4435  -5.6075 H              1 S1                 0.0000
     30 ****         0.0440  -3.0322  -5.1964 H              1 S1                 0.0000
     31 ****        -3.1299  -2.6074  -2.9406 H              1 S1                 0.0000
     32 ****        -2.8325  -2.5896  -1.2333 H              1 S1                 0.0000
     33 ****        -1.3063  -1.0599  -3.3560 H              1 S1                 0.0000
     34 ****        -3.5106  -0.0613  -2.7866 H              1 S1                 0.0000
     35 ****        -2.2019   0.9771  -2.2375 H              1 S1                 0.0000
     36 ****        -3.0742  -0.0251  -1.0801 H              1 S1                 0.0000
     37 ****        -0.6473  -1.5379  -0.5334 H              1 S1                 0.0000
     38 ****         1.1612  -0.9778   0.2918 H              1 S1                 0.0000
     39 ****         2.7383   1.1573  -0.9036 H              1 S1                 0.0000
     40 ****         3.4488  -1.5245  -1.7125 H              1 S1                 0.0000
     41 ****         4.3698  -0.0445  -1.8978 H              1 S1                 0.0000
     42 ****         4.5415  -2.0874   0.3090 H              1 S1                 0.0000
     43 ****         5.8635  -1.2221  -0.4713 H              1 S1                 0.0000
     44 ****         5.0953  -0.4087   1.9640 H              1 S1                 0.0000
     45 ****         5.3180   0.8184   0.7175 H              1 S1                 0.0000
     46 ****         2.7458  -0.4873   1.6101 H              1 S1                 0.0000
     47 ****         3.4081   2.4612   1.1157 H              1 S1                 0.0000
     48 ****         3.2792   1.6819   2.6912 H              1 S1                 0.0000
     49 ****         1.8552   1.8366   1.6667 H              1 S1                 0.0000
     50 ****         0.5400  -6.0852  -1.3094 LP             1 S1                 0.0000
     51 ****         0.2402   0.2143  -3.3647 LP             1 S1                 0.0000
     52 ****         1.7791   0.6655  -2.7103 LP             1 S1                 0.0000
@<TRIPOS>BOND
    1    1    2 1     
    2    1   22 1     
    3    1   23 1     
    4    1   24 1     
    5    2    8 1     
    6    2    3 2     
    7    3    4 1     
    8    4    5 1     
    9    4    6 1     
   10    5   25 1     
   11    5   26 1     
   12    5   27 1     
   13    6    7 1     
   14    6    8 2     
   15    7   28 1     
   16    7   29 1     
   17    7   30 1     
   18    8    9 1     
   19    9   10 1     
   20    9   31 1     
   21    9   32 1     
   22   10   11 1     
   23   10   12 1     
   24   10   33 1     
   25   11   34 1     
   26   11   35 1     
   27   11   36 1     
   28   12   13 am    
   29   12   37 1     
   30   13   14 2     
   31   13   15 am    
   32   15   16 1     
   33   15   38 1     
   34   16   20 1     
   35   16   17 1     
   36   16   39 1     
   37   17   18 1     
   38   17   40 1     
   39   17   41 1     
   40   18   19 1     
   41   18   42 1     
   42   18   43 1     
   43   19   20 1     
   44   19   44 1     
   45   19   45 1     
   46   20   21 1     
   47   20   46 1     
   48   21   47 1     
   49   21   48 1     
   50   21   49 1     
   51    3   50 1     
   52   14   51 1     
   53   14   52 1     
@<TRIPOS>SUBSTRUCTURE
      1 S1             1
@<TRIPOS>SET
LONE_PAIRS      STATIC     ATOMS    <user>   **** ""
3 50 51 52
DONOR_HYDROGENS      STATIC     ATOMS    <user>   **** ""
2 37 38
ATOM$BLUE        STATIC     ATOMS    COLORGROUP SYSTEM
3 50 51 52
ATOM$RED        STATIC     ATOMS    COLORGROUP SYSTEM
2 37 38
