AV-unprocessed.smi:3096|AV-procd|sdf|11797|dock5
  -GOLD-   2272017173D 1   1.00000     0.00000
 Structure written by MMmdl.
 33 33  0  0  0  0  0  0  0  0  2 V2000
  145.0959  132.7816  150.3566 C   0  0  0  0  0  0  0  0  0  0  0  0
  145.3551  134.0604  150.6805 C   0  0  0  0  0  0  0  0  0  0  0  0
  146.3284  134.5583  151.7396 C   0  0  0  0  0  0  0  0  0  0  0  0
  146.3509  136.0282  151.8266 N   0  0  0  0  0  0  0  0  0  0  0  0
  145.2995  136.8225  152.1107 C   0  0  0  0  0  0  0  0  0  0  0  0
  145.4625  138.1583  152.1740 N   0  3  0  0  0  0  0  0  0  0  0  0
  146.7250  138.8756  151.9601 C   0  0  0  0  0  0  0  0  0  0  0  0
  144.0851  136.2822  152.3276 N   0  0  0  0  0  0  0  0  0  0  0  0
  142.8482  137.0140  152.6321 C   0  0  0  0  0  0  0  0  0  0  0  0
  142.1093  136.3958  153.8289 C   0  0  0  0  0  0  0  0  0  0  0  0
  140.7241  136.8245  153.8979 N   0  0  0  0  0  0  0  0  0  0  0  0
  140.1146  137.8635  153.2269 C   0  0  0  0  0  0  0  0  0  0  0  0
  138.8027  137.8771  153.6052 C   0  0  0  0  0  0  0  0  0  0  0  0
  138.7039  136.7949  154.5234 C   0  0  0  0  0  0  0  0  0  0  0  0
  139.8554  136.1661  154.6964 N   0  0  0  0  0  0  0  0  0  0  0  0
  145.5821  131.9514  150.8475 H   0  0  0  0  0  0  0  0  0  0  0  0
  144.3805  132.5480  149.5818 H   0  0  0  0  0  0  0  0  0  0  0  0
  144.8293  134.8367  150.1439 H   0  0  0  0  0  0  0  0  0  0  0  0
  146.0359  134.1506  152.7073 H   0  0  0  0  0  0  0  0  0  0  0  0
  147.3297  134.1867  151.5202 H   0  0  0  0  0  0  0  0  0  0  0  0
  147.2454  136.4680  151.6644 H   0  0  0  0  0  0  0  0  0  0  0  0
  146.5715  139.9488  152.0728 H   0  0  0  0  0  0  0  0  0  0  0  0
  147.1066  138.6844  150.9571 H   0  0  0  0  0  0  0  0  0  0  0  0
  147.4728  138.5553  152.6859 H   0  0  0  0  0  0  0  0  0  0  0  0
  143.9939  135.2790  152.2455 H   0  0  0  0  0  0  0  0  0  0  0  0
  143.1101  138.0464  152.8645 H   0  0  0  0  0  0  0  0  0  0  0  0
  142.2075  137.0350  151.7500 H   0  0  0  0  0  0  0  0  0  0  0  0
  142.1412  135.3061  153.7812 H   0  0  0  0  0  0  0  0  0  0  0  0
  142.6045  136.6802  154.7580 H   0  0  0  0  0  0  0  0  0  0  0  0
  140.6583  138.4987  152.5432 H   0  0  0  0  0  0  0  0  0  0  0  0
  138.0309  138.5569  153.2761 H   0  0  0  0  0  0  0  0  0  0  0  0
  137.8356  136.4495  155.0649 H   0  0  0  0  0  0  0  0  0  0  0  0
  144.6548  138.7271  152.3850 H   0  0  0  0  0  0  0  0  0  0  0  0
  1  2  2  0  0  0  0
  1 16  1  0  0  0  0
  1 17  1  0  0  0  0
  2  3  1  0  0  0  0
  2 18  1  0  0  0  0
  3  4  1  0  0  0  0
  3 19  1  0  0  0  0
  3 20  1  0  0  0  0
  4  5  1  0  0  0  0
  4 21  1  0  0  0  0
  5  6  2  0  0  0  0
  5  8  1  0  0  0  0
  6  7  1  0  0  0  0
  6 33  1  0  0  0  0
  7 22  1  0  0  0  0
  7 23  1  0  0  0  0
  7 24  1  0  0  0  0
  8  9  1  0  0  0  0
  8 25  1  0  0  0  0
  9 10  1  0  0  0  0
  9 26  1  0  0  0  0
  9 27  1  0  0  0  0
 10 11  1  0  0  0  0
 10 28  1  0  0  0  0
 10 29  1  0  0  0  0
 11 15  1  0  0  0  0
 11 12  1  0  0  0  0
 12 13  2  0  0  0  0
 12 30  1  0  0  0  0
 13 14  1  0  0  0  0
 13 31  1  0  0  0  0
 14 15  2  0  0  0  0
 14 32  1  0  0  0  0
M  CHG  1   6   1
M  END
> <s_m_source_file>
AV-unprocessed.smi

> <i_m_source_file_index>
3096

> <i_lp_mmshare_version>
43012

> <i_f3d_flags>
0

> <s_epik_input>
W0NIMl09W0NIXVtDSDJdW05IXS9DKD1OL1tDSDNdKVtOSF1bQ0gyXVtDSDJdbjFbY0hdW2NIXVtjSF1uMQ==

> <s_epik_cmdline>
J2VwaWtfcHl0aG9uJywgJy1waCcsICc3LjAnLCAnLXRuJywgJzgnLCAnLW1hJywgJzIwMCcsICctbWV0YWxfYmluZGluZycsICctaW1hZScsICc8aW5maWxlLm1hZT4nLCAnLW9tYWUnLCAnPG91dGZpbGUubWFlPic=

> <r_lp_tautomer_probability>
1

> <r_epik_Ionization_Penalty>
5.14269e-05

> <r_epik_Ionization_Penalty_Charging>
1.55211e-07

> <r_epik_Ionization_Penalty_Neutral>
5.12717e-05

> <r_epik_State_Penalty>
-0

> <r_epik_Charging_Adjusted_Penalty>
1.55211e-07

> <i_epik_Tot_Q>
1

> <i_epik_Tot_abs_Q>
1

> <r_epik_Metal_State_Penalty>
-0

> <b_epik_Metal_Only>
0

> <s_epik_Chemistry_Notes>
This compound has an imine and may undergo hydrolysis.

> <s_lp_Force_Field>
OPLS_2005

> <r_lp_Energy>
6.72739

> <b_lp_Chiralities_Consistent>
1

> <s_lp_Variant>
AV-unprocessed.smi:3096-2

> <Gold.Version>
5.8.1

> <Gold.Id.Protein>
6NUR|6NUR_protein|mol2

> <Gold.PLP.Fitness>
48.7812

> <Gold.PLP.PLP>
-31.6366

> <Gold.PLP.part.hbond>
-4.0000

> <Gold.PLP.part.metal>
0.0000

> <Gold.PLP.part.buried>
-5.9283

> <Gold.PLP.part.nonpolar>
-22.3556

> <Gold.PLP.part.repulsive>
0.1583

> <Gold.PLP.ligand.clash>
0.0000

> <Gold.PLP.ligand.torsion>
0.3126

> <Gold.PLP.Chemscore.Hbond>
4.9913

> <Gold.PLP.Chemscore.CHOScore>
0.9306

> <Gold.PLP.Chemscore.Metal>
0.0000

> <Gold.Chemscore.Hbonds>
donor molecule, donor type, donor heavy atom, donor atom, acceptor molecule, acceptor atom, score
      L1  H     4    21       P1  7948  1.73
      L1  H     6    33       P1 10175  2.00
      P1  H 11000 11005       L1    15  1.00
      L1  C    12    30       P1 10160  0.78

> <Gold.PLP.Chemscore.Internal.Correction>
0.0040

> <Gold.Rescore>
     Score         DG    S(hbond)    S(metal)    S(lipo)     H(rot)  DE(clash)    DE(int)     intcor
     17.23     -17.64       2.86        0.00      63.61       1.89       0.07       0.34       ----

> <Gold.Chemscore.Fitness>
17.2260

> <Gold.Chemscore.DG>
-17.6368

> <Gold.Chemscore.ZeroCoef>
-5.4800

> <Gold.Chemscore.Hbond>
2.8594

> <Gold.Chemscore.Metal>
0.0000

> <Gold.Chemscore.Lipo>
63.6099

> <Gold.Chemscore.Internal_Hbond>
0.0000

> <Gold.Chemscore.DEClash>
0.0668

> <Gold.Chemscore.DEInternal>
0.3441

> <Gold.Chemscore.Rot>
1.8891

> <Gold.Chemscore.Internal.Correction>
   9.000000E+99

> <Gold.Chemscore.Hbonds>
donor molecule, donor type, donor heavy atom, donor atom, acceptor molecule, acceptor atom, score
      L1  H     4    21       P1  7948  0.85
      L1  H     6    33       P1 10175  0.94
      P1  H 11000 11005       L1    15  0.97

> <Gold.Chemscore.Hbond.Weighted>
-9.5505

> <Gold.Chemscore.Metal.Weighted>
-0.0000

> <Gold.Chemscore.Lipo.Weighted>
-7.4424

> <Gold.Chemscore.Internal_Hbond.Weighted>
0.0000

> <Gold.Chemscore.DEClash.Weighted>
0.0668

> <Gold.Chemscore.DEInternal.Weighted>
0.3441

> <Gold.Chemscore.Rot.Weighted>
4.8361

> <Gold.Chemscore.Internal.Correction.Weighted>
   9.000000E+99

> <Gold.Protein.RotatedTorsions>
[ 6907 6896 6895 6894 ] final -170.10 input  -60.11 | X-H torsion
[ 7974 7965 7964 7962 ] final  -31.11 input  175.53 | X-H torsion
[ 8008 7997 7996 7995 ] final  -83.43 input   59.86 | X-H torsion
[ 10167 10162 10161 10158 ] final   31.86 input  -65.29 | X-H torsion
[ 10718 10713 10712 10709 ] final -151.99 input   66.30 | X-H torsion
[ 10763 10752 10751 10750 ] final  -77.44 input  -60.55 | X-H torsion
[ 11005 11000 10999 10996 ] final   66.45 input  -57.11 | X-H torsion

> <Gold.Protein.ActiveResidues>
 VAL166  LYS551  ARG553  GLY616  TRP617  ASP618  TYR619  PRO620  LYS621  CYS622 
 ASP623  PHE694  ASN695  SER759  ASP760  ASP761  ALA762  ILE779  LEU786  VAL792 
 PHE793  MET794  SER795  GLU796  ALA797  LYS798  CYS799  TRP800  GLU811  SER814 

> <Gold.Protein.RotatedAtoms>
  151.5023  133.3502  159.2870 H   0  0  0  0  0  0  0  0  0  0  0  0  # atno 6907 bound_to 6896
  150.8765  134.8151  159.7204 H   0  0  0  0  0  0  0  0  0  0  0  0  # atno 6908 bound_to 6896
  152.4734  134.4914  159.9748 H   0  0  0  0  0  0  0  0  0  0  0  0  # atno 6909 bound_to 6896
  146.1092  140.5625  142.8785 H   0  0  0  0  0  0  0  0  0  0  0  0  # atno 7974 bound_to 7965
  154.6190  140.0619  156.9591 H   0  0  0  0  0  0  0  0  0  0  0  0  # atno 8008 bound_to 7997
  155.1848  140.3302  155.4350 H   0  0  0  0  0  0  0  0  0  0  0  0  # atno 8009 bound_to 7997
  156.2421  140.1891  156.6942 H   0  0  0  0  0  0  0  0  0  0  0  0  # atno 8010 bound_to 7997
  140.4551  144.0991  150.6200 H   0  0  0  0  0  0  0  0  0  0  0  0  # atno 10167 bound_to 10162
  156.4666  130.8238  151.2468 H   0  0  0  0  0  0  0  0  0  0  0  0  # atno 10718 bound_to 10713
  154.5130  135.5764  153.6620 H   0  0  0  0  0  0  0  0  0  0  0  0  # atno 10763 bound_to 10752
  152.9901  135.6163  154.2854 H   0  0  0  0  0  0  0  0  0  0  0  0  # atno 10764 bound_to 10752
  154.2770  135.2852  155.2693 H   0  0  0  0  0  0  0  0  0  0  0  0  # atno 10765 bound_to 10752
  139.9831  134.6712  156.0226 H   0  0  0  0  0  0  0  0  0  0  0  0  # atno 11005 bound_to 11000
  144.7497  140.5160  143.6810 LP  0  0  0  0  0  0  0  0  0  0  0  0  # atno 17320 bound_to 7965
  145.5698  139.1483  143.3295 LP  0  0  0  0  0  0  0  0  0  0  0  0  # atno 17321 bound_to 7965
  140.4161  143.2633  151.9773 LP  0  0  0  0  0  0  0  0  0  0  0  0  # atno 17342 bound_to 10162
  139.4800  144.5872  151.7833 LP  0  0  0  0  0  0  0  0  0  0  0  0  # atno 17343 bound_to 10162
  157.7494  131.0090  150.3250 LP  0  0  0  0  0  0  0  0  0  0  0  0  # atno 17370 bound_to 10713
  156.3662  130.3855  149.7212 LP  0  0  0  0  0  0  0  0  0  0  0  0  # atno 17371 bound_to 10713
  141.1500  133.6550  156.3984 LP  0  0  0  0  0  0  0  0  0  0  0  0  # atno 17394 bound_to 11000
  140.5056  134.6444  157.5265 LP  0  0  0  0  0  0  0  0  0  0  0  0  # atno 17395 bound_to 11000

$$$$
