AV-unprocessed.smi:1024|AV-procd|sdf|4464|dock9
  -GOLD-   22720 2443D 1   1.00000     0.00000
 Structure written by MMmdl.
 48 50  0  0  0  0  0  0  0  0  2 V2000
  150.6927  142.6256  155.0641 O   0  0  0  0  0  0  0  0  0  0  0  0
  150.7284  141.9670  156.1049 C   0  0  0  0  0  0  0  0  0  0  0  0
  150.6507  140.6252  156.0986 N   0  0  0  0  0  0  0  0  0  0  0  0
  150.4964  139.8017  154.9057 C   0  0  0  0  0  0  0  0  0  0  0  0
  149.0815  139.2067  154.8121 C   0  0  0  0  0  0  0  0  0  0  0  0
  148.1038  140.2057  154.3802 N   0  0  0  0  0  0  0  0  0  0  0  0
  148.2929  141.5577  154.2518 C   0  0  0  0  0  0  0  0  0  0  0  0
  147.0983  142.0797  153.8264 C   0  0  0  0  0  0  0  0  0  0  0  0
  146.2320  141.0250  153.7135 N   0  3  0  0  0  0  0  0  0  0  0  0
  146.8455  139.8862  154.0519 C   0  0  0  0  0  0  0  0  0  0  0  0
  150.8692  142.5243  157.3344 N   0  0  0  0  0  0  0  0  0  0  0  0
  151.5784  143.7740  157.6493 C   0  0  0  0  0  0  0  0  0  0  0  0
  152.9225  143.4230  158.3159 C   0  0  0  0  0  0  0  0  0  0  0  0
  152.7618  142.5542  159.5953 C   0  0  0  0  0  0  0  0  0  0  0  0
  154.1625  142.0247  159.9998 C   0  0  0  0  0  0  0  0  0  0  0  0
  154.1776  141.3027  161.3588 C   0  0  0  0  0  0  0  0  0  0  0  0
  153.6386  142.2088  162.4733 C   0  0  0  0  0  0  0  0  0  0  0  0
  152.2372  142.7308  162.1300 C   0  0  0  0  0  0  0  0  0  0  0  0
  152.2191  143.4329  160.7594 C   0  0  0  0  0  0  0  0  0  0  0  0
  151.8088  141.3643  159.2727 C   0  0  0  0  0  0  0  0  0  0  0  0
  150.5144  141.8012  158.5596 C   0  0  0  0  0  0  0  0  0  0  0  0
  150.6987  140.1452  156.9857 H   0  0  0  0  0  0  0  0  0  0  0  0
  150.7254  140.3919  154.0166 H   0  0  0  0  0  0  0  0  0  0  0  0
  151.2354  139.0009  154.9449 H   0  0  0  0  0  0  0  0  0  0  0  0
  149.0559  138.3793  154.1017 H   0  0  0  0  0  0  0  0  0  0  0  0
  148.7549  138.8120  155.7755 H   0  0  0  0  0  0  0  0  0  0  0  0
  149.2376  142.0354  154.4681 H   0  0  0  0  0  0  0  0  0  0  0  0
  146.8074  143.0956  153.6020 H   0  0  0  0  0  0  0  0  0  0  0  0
  146.4099  138.9027  154.0605 H   0  0  0  0  0  0  0  0  0  0  0  0
  151.7577  144.4096  156.7825 H   0  0  0  0  0  0  0  0  0  0  0  0
  150.9650  144.3781  158.3180 H   0  0  0  0  0  0  0  0  0  0  0  0
  153.5339  142.8878  157.5875 H   0  0  0  0  0  0  0  0  0  0  0  0
  153.4698  144.3383  158.5446 H   0  0  0  0  0  0  0  0  0  0  0  0
  154.5500  141.3556  159.2307 H   0  0  0  0  0  0  0  0  0  0  0  0
  154.8639  142.8592  160.0468 H   0  0  0  0  0  0  0  0  0  0  0  0
  153.5870  140.3880  161.3060 H   0  0  0  0  0  0  0  0  0  0  0  0
  155.1948  140.9927  161.5983 H   0  0  0  0  0  0  0  0  0  0  0  0
  153.6146  141.6648  163.4180 H   0  0  0  0  0  0  0  0  0  0  0  0
  154.3161  143.0512  162.6176 H   0  0  0  0  0  0  0  0  0  0  0  0
  151.5219  141.9089  162.1441 H   0  0  0  0  0  0  0  0  0  0  0  0
  151.9081  143.4270  162.9019 H   0  0  0  0  0  0  0  0  0  0  0  0
  152.8253  144.3364  160.8371 H   0  0  0  0  0  0  0  0  0  0  0  0
  151.2075  143.7792  160.5522 H   0  0  0  0  0  0  0  0  0  0  0  0
  152.3273  140.6540  158.6271 H   0  0  0  0  0  0  0  0  0  0  0  0
  151.5531  140.8050  160.1712 H   0  0  0  0  0  0  0  0  0  0  0  0
  149.9138  142.4439  159.2036 H   0  0  0  0  0  0  0  0  0  0  0  0
  149.8905  140.9283  158.3644 H   0  0  0  0  0  0  0  0  0  0  0  0
  145.2663  141.0937  153.4179 H   0  0  0  0  0  0  0  0  0  0  0  0
  1  2  2  0  0  0  0
  2  3  1  0  0  0  0
  2 11  1  0  0  0  0
  3  4  1  0  0  0  0
  3 22  1  0  0  0  0
  4  5  1  0  0  0  0
  4 23  1  0  0  0  0
  4 24  1  0  0  0  0
  5  6  1  0  0  0  0
  5 25  1  0  0  0  0
  5 26  1  0  0  0  0
  6 10  1  0  0  0  0
  6  7  1  0  0  0  0
  7  8  2  0  0  0  0
  7 27  1  0  0  0  0
  8  9  1  0  0  0  0
  8 28  1  0  0  0  0
  9 10  2  0  0  0  0
  9 48  1  0  0  0  0
 10 29  1  0  0  0  0
 11 21  1  0  0  0  0
 11 12  1  0  0  0  0
 12 13  1  0  0  0  0
 12 30  1  0  0  0  0
 12 31  1  0  0  0  0
 13 14  1  0  0  0  0
 13 32  1  0  0  0  0
 13 33  1  0  0  0  0
 14 19  1  0  0  0  0
 14 15  1  0  0  0  0
 14 20  1  0  0  0  0
 15 16  1  0  0  0  0
 15 34  1  0  0  0  0
 15 35  1  0  0  0  0
 16 17  1  0  0  0  0
 16 36  1  0  0  0  0
 16 37  1  0  0  0  0
 17 18  1  0  0  0  0
 17 38  1  0  0  0  0
 17 39  1  0  0  0  0
 18 19  1  0  0  0  0
 18 40  1  0  0  0  0
 18 41  1  0  0  0  0
 19 42  1  0  0  0  0
 19 43  1  0  0  0  0
 20 21  1  0  0  0  0
 20 44  1  0  0  0  0
 20 45  1  0  0  0  0
 21 46  1  0  0  0  0
 21 47  1  0  0  0  0
M  CHG  1   9   1
M  END
> <s_m_source_file>
AV-unprocessed.smi

> <i_m_source_file_index>
1024

> <i_lp_mmshare_version>
43012

> <i_f3d_flags>
0

> <s_epik_input>
W2NIXTFuW2NIXVtjSF1uMVtDSDJdW0NIMl1bTkhdQyg9TylOKFtDSDJdW0NIMl0yKVtDSDJdW0NIMl1DMjNbQ0gyXVtDSDJdW0NIMl1bQ0gyXVtDSDJdMw==

> <s_epik_cmdline>
J2VwaWtfcHl0aG9uJywgJy1waCcsICc3LjAnLCAnLXRuJywgJzgnLCAnLW1hJywgJzIwMCcsICctbWV0YWxfYmluZGluZycsICctaW1hZScsICc8aW5maWxlLm1hZT4nLCAnLW9tYWUnLCAnPG91dGZpbGUubWFlPic=

> <r_lp_tautomer_probability>
1

> <r_epik_Ionization_Penalty>
0.249817

> <r_epik_Ionization_Penalty_Charging>
0

> <r_epik_Ionization_Penalty_Neutral>
0.249817

> <r_epik_State_Penalty>
0.241048

> <r_epik_Charging_Adjusted_Penalty>
0.241048

> <i_epik_Tot_Q>
1

> <i_epik_Tot_abs_Q>
1

> <r_epik_Metal_State_Penalty>
0.532587

> <b_epik_Metal_Only>
0

> <s_lp_Force_Field>
OPLS_2005

> <r_lp_Energy>
44.4362

> <b_lp_Chiralities_Consistent>
1

> <s_lp_Variant>
AV-unprocessed.smi:1024-1

> <Gold.Version>
5.8.1

> <Gold.Id.Protein>
6NUR|6NUR_protein|mol2

> <Gold.PLP.Fitness>
45.2649

> <Gold.PLP.PLP>
-40.4908

> <Gold.PLP.part.hbond>
-2.4465

> <Gold.PLP.part.metal>
0.0000

> <Gold.PLP.part.buried>
3.8020

> <Gold.PLP.part.nonpolar>
-43.1303

> <Gold.PLP.part.repulsive>
2.6066

> <Gold.PLP.ligand.clash>
0.7118

> <Gold.PLP.ligand.torsion>
0.4857

> <Gold.PLP.Chemscore.Hbond>
2.0000

> <Gold.PLP.Chemscore.CHOScore>
0.1408

> <Gold.PLP.Chemscore.Metal>
0.0000

> <Gold.Chemscore.Hbonds>
donor molecule, donor type, donor heavy atom, donor atom, acceptor molecule, acceptor atom, score
      L1  H     9    48       P1 10175  2.00

> <Gold.PLP.Chemscore.Internal.Correction>
0.0348

> <Gold.Rescore>
     Score         DG    S(hbond)    S(metal)    S(lipo)     H(rot)  DE(clash)    DE(int)     intcor
     16.68     -19.39       1.00        0.00     124.89       1.57       2.35       0.36       ----

> <Gold.Chemscore.Fitness>
16.6841

> <Gold.Chemscore.DG>
-19.3875

> <Gold.Chemscore.ZeroCoef>
-5.4800

> <Gold.Chemscore.Hbond>
0.9959

> <Gold.Chemscore.Metal>
0.0000

> <Gold.Chemscore.Lipo>
124.8918

> <Gold.Chemscore.Internal_Hbond>
0.0000

> <Gold.Chemscore.DEClash>
2.3457

> <Gold.Chemscore.DEInternal>
0.3577

> <Gold.Chemscore.Rot>
1.5747

> <Gold.Chemscore.Internal.Correction>
   9.000000E+99

> <Gold.Chemscore.Hbonds>
donor molecule, donor type, donor heavy atom, donor atom, acceptor molecule, acceptor atom, score
      L1  H     9    48       P1 10175  0.44

> <Gold.Chemscore.Hbond.Weighted>
-3.3265

> <Gold.Chemscore.Metal.Weighted>
-0.0000

> <Gold.Chemscore.Lipo.Weighted>
-14.6123

> <Gold.Chemscore.Internal_Hbond.Weighted>
0.0000

> <Gold.Chemscore.DEClash.Weighted>
2.3457

> <Gold.Chemscore.DEInternal.Weighted>
0.3577

> <Gold.Chemscore.Rot.Weighted>
4.0313

> <Gold.Chemscore.Internal.Correction.Weighted>
   9.000000E+99

> <Gold.Protein.RotatedTorsions>
[ 6907 6896 6895 6894 ] final -105.17 input  -60.11 | X-H torsion
[ 7974 7965 7964 7962 ] final  -29.45 input  175.53 | X-H torsion
[ 8008 7997 7996 7995 ] final  -57.47 input   59.86 | X-H torsion
[ 10167 10162 10161 10158 ] final  -83.43 input  -65.29 | X-H torsion
[ 10718 10713 10712 10709 ] final   63.31 input   66.30 | X-H torsion
[ 10763 10752 10751 10750 ] final -178.60 input  -60.55 | X-H torsion
[ 11005 11000 10999 10996 ] final -139.47 input  -57.11 | X-H torsion

> <Gold.Protein.ActiveResidues>
 VAL166  LYS551  ARG553  GLY616  TRP617  ASP618  TYR619  PRO620  LYS621  CYS622 
 ASP623  PHE694  ASN695  SER759  ASP760  ASP761  ALA762  ILE779  LEU786  VAL792 
 PHE793  MET794  SER795  GLU796  ALA797  LYS798  CYS799  TRP800  GLU811  SER814 

> <Gold.Protein.RotatedAtoms>
  150.7323  134.0167  159.3687 H   0  0  0  0  0  0  0  0  0  0  0  0  # atno 6907 bound_to 6896
  151.8129  135.0673  160.0424 H   0  0  0  0  0  0  0  0  0  0  0  0  # atno 6908 bound_to 6896
  152.3059  133.5667  159.5685 H   0  0  0  0  0  0  0  0  0  0  0  0  # atno 6909 bound_to 6896
  146.1216  140.5413  142.8733 H   0  0  0  0  0  0  0  0  0  0  0  0  # atno 7974 bound_to 7965
  154.4269  140.1106  156.5803 H   0  0  0  0  0  0  0  0  0  0  0  0  # atno 8008 bound_to 7997
  155.6120  140.3494  155.4606 H   0  0  0  0  0  0  0  0  0  0  0  0  # atno 8009 bound_to 7997
  156.0092  140.1215  157.0460 H   0  0  0  0  0  0  0  0  0  0  0  0  # atno 8010 bound_to 7997
  140.4227  143.2578  151.8868 H   0  0  0  0  0  0  0  0  0  0  0  0  # atno 10167 bound_to 10162
  157.5962  130.9098  149.9700 H   0  0  0  0  0  0  0  0  0  0  0  0  # atno 10718 bound_to 10713
  154.5456  135.2809  155.1056 H   0  0  0  0  0  0  0  0  0  0  0  0  # atno 10763 bound_to 10752
  154.2521  135.6337  153.5248 H   0  0  0  0  0  0  0  0  0  0  0  0  # atno 10764 bound_to 10752
  152.9990  135.5585  154.6007 H   0  0  0  0  0  0  0  0  0  0  0  0  # atno 10765 bound_to 10752
  140.8517  134.2278  157.4757 H   0  0  0  0  0  0  0  0  0  0  0  0  # atno 11005 bound_to 11000
  144.7602  140.5404  143.6741 LP  0  0  0  0  0  0  0  0  0  0  0  0  # atno 17320 bound_to 7965
  145.5455  139.1476  143.3423 LP  0  0  0  0  0  0  0  0  0  0  0  0  # atno 17321 bound_to 7965
  139.4783  144.5420  151.8514 LP  0  0  0  0  0  0  0  0  0  0  0  0  # atno 17342 bound_to 10162
  140.4515  144.1848  150.5898 LP  0  0  0  0  0  0  0  0  0  0  0  0  # atno 17343 bound_to 10162
  156.1025  130.3655  150.0192 LP  0  0  0  0  0  0  0  0  0  0  0  0  # atno 17370 bound_to 10713
  156.8304  130.9390  151.3637 LP  0  0  0  0  0  0  0  0  0  0  0  0  # atno 17371 bound_to 10713
  139.8704  134.9686  156.4638 LP  0  0  0  0  0  0  0  0  0  0  0  0  # atno 17394 bound_to 11000
  140.8783  133.7937  155.9438 LP  0  0  0  0  0  0  0  0  0  0  0  0  # atno 17395 bound_to 11000

$$$$
