AV-unprocessed.smi:3089|AV-procd|sdf|11770|dock4
  -GOLD-   2272017153D 1   1.00000     0.00000
 Structure written by MMmdl.
 25 25  0  0  0  0  0  0  0  0  2 V2000
  152.1143  141.1715  158.8924 C   0  0  0  0  0  0  0  0  0  0  0  0
  151.7167  140.6910  157.5863 N   0  0  0  0  0  0  0  0  0  0  0  0
  150.5545  140.9459  156.8919 C   0  0  0  0  0  0  0  0  0  0  0  0
  150.6254  140.2749  155.7014 C   0  0  0  0  0  0  0  0  0  0  0  0
  149.6031  140.2221  154.5853 C   0  0  1  0  0  0  0  0  0  0  0  0
  148.3901  141.0986  154.9415 C   0  0  0  0  0  0  0  0  0  0  0  0
  150.1159  140.7454  153.3740 O   0  0  0  0  0  0  0  0  0  0  0  0
  149.1567  138.7698  154.3058 C   0  0  0  0  0  0  0  0  0  0  0  0
  148.4013  138.6505  153.0445 N   0  3  0  0  0  0  0  0  0  0  0  0
  151.8984  139.6345  155.7686 C   0  0  0  0  0  0  0  0  0  0  0  0
  152.5438  139.8807  156.8965 N   0  0  0  0  0  0  0  0  0  0  0  0
  151.3353  141.8097  159.3101 H   0  0  0  0  0  0  0  0  0  0  0  0
  153.0365  141.7472  158.8094 H   0  0  0  0  0  0  0  0  0  0  0  0
  152.2778  140.3274  159.5632 H   0  0  0  0  0  0  0  0  0  0  0  0
  149.7781  141.5776  157.2980 H   0  0  0  0  0  0  0  0  0  0  0  0
  147.8999  140.7497  155.8512 H   0  0  0  0  0  0  0  0  0  0  0  0
  147.6432  141.0912  154.1466 H   0  0  0  0  0  0  0  0  0  0  0  0
  148.6848  142.1361  155.1057 H   0  0  0  0  0  0  0  0  0  0  0  0
  149.9910  140.1058  152.6892 H   0  0  0  0  0  0  0  0  0  0  0  0
  150.0257  138.1139  154.2398 H   0  0  0  0  0  0  0  0  0  0  0  0
  148.5396  138.3904  155.1213 H   0  0  0  0  0  0  0  0  0  0  0  0
  148.4389  137.6975  152.7126 H   0  0  0  0  0  0  0  0  0  0  0  0
  148.8057  139.2663  152.3535 H   0  0  0  0  0  0  0  0  0  0  0  0
  152.3690  138.9964  155.0350 H   0  0  0  0  0  0  0  0  0  0  0  0
  147.4401  138.9162  153.2059 H   0  0  0  0  0  0  0  0  0  0  0  0
  1  2  1  0  0  0  0
  1 12  1  0  0  0  0
  1 13  1  0  0  0  0
  1 14  1  0  0  0  0
  2 11  1  0  0  0  0
  2  3  1  0  0  0  0
  3  4  2  0  0  0  0
  3 15  1  0  0  0  0
  4  5  1  0  0  0  0
  4 10  1  0  0  0  0
  5  6  1  0  0  0  0
  5  7  1  0  0  0  0
  5  8  1  0  0  0  0
  6 16  1  0  0  0  0
  6 17  1  0  0  0  0
  6 18  1  0  0  0  0
  7 19  1  0  0  0  0
  8  9  1  0  0  0  0
  8 20  1  0  0  0  0
  8 21  1  0  0  0  0
  9 22  1  0  0  0  0
  9 23  1  0  0  0  0
  9 25  1  0  0  0  0
 10 11  2  0  0  0  0
 10 24  1  0  0  0  0
M  CHG  1   9   1
M  END
> <s_m_source_file>
AV-unprocessed.smi

> <i_m_source_file_index>
3089

> <i_lp_mmshare_version>
43012

> <i_f3d_flags>
0

> <s_epik_input>
W0NIM11uMVtjSF1jKFtjSF1uMSlbQ0BAXShbQ0gzXSkoW09IXSlbQ0gyXVtOSDJd

> <s_epik_cmdline>
J2VwaWtfcHl0aG9uJywgJy1waCcsICc3LjAnLCAnLXRuJywgJzgnLCAnLW1hJywgJzIwMCcsICctbWV0YWxfYmluZGluZycsICctaW1hZScsICc8aW5maWxlLm1hZT4nLCAnLW9tYWUnLCAnPG91dGZpbGUubWFlPic=

> <r_lp_tautomer_probability>
1

> <r_epik_Ionization_Penalty>
0.0140512

> <r_epik_Ionization_Penalty_Charging>
0.0140431

> <r_epik_Ionization_Penalty_Neutral>
8.10489e-06

> <r_epik_State_Penalty>
0.0109628

> <r_epik_Charging_Adjusted_Penalty>
0.0250059

> <i_epik_Tot_Q>
1

> <i_epik_Tot_abs_Q>
1

> <r_epik_Metal_State_Penalty>
0.0109638

> <b_epik_Metal_Only>
0

> <s_lp_Force_Field>
OPLS_2005

> <r_lp_Energy>
3.27267

> <b_lp_Chiralities_Consistent>
1

> <s_lp_Variant>
AV-unprocessed.smi:3089-1

> <Gold.Version>
5.8.1

> <Gold.Id.Protein>
6NUR|6NUR_protein|mol2

> <Gold.PLP.Fitness>
40.9894

> <Gold.PLP.PLP>
-22.8922

> <Gold.PLP.part.hbond>
-4.9370

> <Gold.PLP.part.metal>
0.0000

> <Gold.PLP.part.buried>
-2.1700

> <Gold.PLP.part.nonpolar>
-15.8671

> <Gold.PLP.part.repulsive>
0.0477

> <Gold.PLP.ligand.clash>
0.0000

> <Gold.PLP.ligand.torsion>
0.1288

> <Gold.PLP.Chemscore.Hbond>
6.1127

> <Gold.PLP.Chemscore.CHOScore>
0.0000

> <Gold.PLP.Chemscore.Metal>
0.0000

> <Gold.Chemscore.Hbonds>
donor molecule, donor type, donor heavy atom, donor atom, acceptor molecule, acceptor atom, score
      L1  H     7    19       P1  7957  0.80
      L1  H     9    22       P1  7948  2.00
      L1  H     9    23       P1  7957  1.00
      P1  H  7989  7998       L1     7  0.29
      P1  H  7997  8008       L1    11  1.00
      P1  H  8011  8017       L1     7  0.95

> <Gold.PLP.Chemscore.Internal.Correction>
0.0166

> <Gold.Rescore>
     Score         DG    S(hbond)    S(metal)    S(lipo)     H(rot)  DE(clash)    DE(int)     intcor
     19.49     -19.80       4.16        0.00      44.98       1.89       0.00       0.31       ----

> <Gold.Chemscore.Fitness>
19.4877

> <Gold.Chemscore.DG>
-19.8009

> <Gold.Chemscore.ZeroCoef>
-5.4800

> <Gold.Chemscore.Hbond>
4.1593

> <Gold.Chemscore.Metal>
0.0000

> <Gold.Chemscore.Lipo>
44.9830

> <Gold.Chemscore.Internal_Hbond>
0.0000

> <Gold.Chemscore.DEClash>
0.0004

> <Gold.Chemscore.DEInternal>
0.3128

> <Gold.Chemscore.Rot>
1.8883

> <Gold.Chemscore.Internal.Correction>
   9.000000E+99

> <Gold.Chemscore.Hbonds>
donor molecule, donor type, donor heavy atom, donor atom, acceptor molecule, acceptor atom, score
      L1  H     7    19       P1  7957  0.77
      L1  H     9    22       P1  7948  1.00
      L1  H     9    23       P1  7957  0.99
      P1  H  7989  7998       L1     7  0.10
      P1  H  7997  8008       L1    11  0.70
      P1  H  8011  8017       L1     7  0.20

> <Gold.Chemscore.Hbond.Weighted>
-13.8919

> <Gold.Chemscore.Metal.Weighted>
-0.0000

> <Gold.Chemscore.Lipo.Weighted>
-5.2630

> <Gold.Chemscore.Internal_Hbond.Weighted>
0.0000

> <Gold.Chemscore.DEClash.Weighted>
0.0004

> <Gold.Chemscore.DEInternal.Weighted>
0.3128

> <Gold.Chemscore.Rot.Weighted>
4.8341

> <Gold.Chemscore.Internal.Correction.Weighted>
   9.000000E+99

> <Gold.Protein.RotatedTorsions>
[ 6907 6896 6895 6894 ] final  -58.47 input  -60.11 | X-H torsion
[ 7974 7965 7964 7962 ] final  -34.79 input  175.53 | X-H torsion
[ 8008 7997 7996 7995 ] final  -53.74 input   59.86 | X-H torsion
[ 10167 10162 10161 10158 ] final -157.67 input  -65.29 | X-H torsion
[ 10718 10713 10712 10709 ] final  110.59 input   66.30 | X-H torsion
[ 10763 10752 10751 10750 ] final  164.20 input  -60.55 | X-H torsion
[ 11005 11000 10999 10996 ] final  -84.09 input  -57.11 | X-H torsion

> <Gold.Protein.ActiveResidues>
 VAL166  LYS551  ARG553  GLY616  TRP617  ASP618  TYR619  PRO620  LYS621  CYS622 
 ASP623  PHE694  ASN695  SER759  ASP760  ASP761  ALA762  ILE779  LEU786  VAL792 
 PHE793  MET794  SER795  GLU796  ALA797  LYS798  CYS799  TRP800  GLU811  SER814 

> <Gold.Protein.RotatedAtoms>
  150.8004  134.7094  159.6594 H   0  0  0  0  0  0  0  0  0  0  0  0  # atno 6907 bound_to 6896
  152.4121  134.6103  160.0033 H   0  0  0  0  0  0  0  0  0  0  0  0  # atno 6908 bound_to 6896
  151.6343  133.3293  159.3152 H   0  0  0  0  0  0  0  0  0  0  0  0  # atno 6909 bound_to 6896
  146.0800  140.6081  142.8912 H   0  0  0  0  0  0  0  0  0  0  0  0  # atno 7974 bound_to 7965
  154.4142  140.1193  156.5203 H   0  0  0  0  0  0  0  0  0  0  0  0  # atno 8008 bound_to 7997
  155.6709  140.3496  155.4799 H   0  0  0  0  0  0  0  0  0  0  0  0  # atno 8009 bound_to 7997
  155.9633  140.1127  157.0866 H   0  0  0  0  0  0  0  0  0  0  0  0  # atno 8010 bound_to 7997
  139.6752  143.9676  152.2306 H   0  0  0  0  0  0  0  0  0  0  0  0  # atno 10167 bound_to 10162
  157.6487  131.0935  150.6624 H   0  0  0  0  0  0  0  0  0  0  0  0  # atno 10718 bound_to 10713
  154.3053  135.2758  155.2591 H   0  0  0  0  0  0  0  0  0  0  0  0  # atno 10763 bound_to 10752
  154.5010  135.5808  153.6535 H   0  0  0  0  0  0  0  0  0  0  0  0  # atno 10764 bound_to 10752
  152.9895  135.6158  154.3227 H   0  0  0  0  0  0  0  0  0  0  0  0  # atno 10765 bound_to 10752
  141.1653  133.7328  156.8816 H   0  0  0  0  0  0  0  0  0  0  0  0  # atno 11005 bound_to 11000
  144.7287  140.4605  143.6954 LP  0  0  0  0  0  0  0  0  0  0  0  0  # atno 17320 bound_to 7965
  145.6235  139.1527  143.3009 LP  0  0  0  0  0  0  0  0  0  0  0  0  # atno 17321 bound_to 7965
  139.9451  144.6657  150.8227 LP  0  0  0  0  0  0  0  0  0  0  0  0  # atno 17342 bound_to 10162
  140.7633  143.3219  151.2603 LP  0  0  0  0  0  0  0  0  0  0  0  0  # atno 17343 bound_to 10162
  156.6938  130.4603  149.5592 LP  0  0  0  0  0  0  0  0  0  0  0  0  # atno 17370 bound_to 10713
  156.1843  130.6519  151.0988 LP  0  0  0  0  0  0  0  0  0  0  0  0  # atno 17371 bound_to 10713
  140.1711  134.9099  157.2834 LP  0  0  0  0  0  0  0  0  0  0  0  0  # atno 17394 bound_to 11000
  140.2501  134.3693  155.7445 LP  0  0  0  0  0  0  0  0  0  0  0  0  # atno 17395 bound_to 11000

$$$$
