AV-unprocessed.smi:20|AV-procd|sdf|115|dock10
  -GOLD-   2262015283D 1   1.00000     0.00000
 Structure written by MMmdl.
 57 61  0  0  0  0  0  0  0  0  1 V2000
  144.0658  135.9996  154.5321 O   0  0  0  0  0  0  0  0  0  0  0  0
  144.4188  135.7811  153.3755 C   0  0  0  0  0  0  0  0  0  0  0  0
  143.9454  134.5907  152.5586 C   0  0  0  0  0  0  0  0  0  0  0  0
  144.9349  134.5580  151.3700 C   0  0  2  0  0  0  0  0  0  0  0  0
  144.2716  134.1393  150.0379 C   0  0  0  0  0  0  0  0  0  0  0  0
  143.8742  132.6544  150.0507 C   0  0  0  0  0  0  0  0  0  0  0  0
  145.0819  131.7654  150.3809 C   0  0  0  0  0  0  0  0  0  0  0  0
  145.7181  132.2012  151.6207 N   0  0  0  0  0  0  0  0  0  0  0  0
  146.5168  131.3328  152.2913 C   0  0  0  0  0  0  0  0  0  0  0  0
  146.3321  130.0086  152.0508 N   0  0  0  0  0  0  0  0  0  0  0  0
  147.0835  129.0951  152.6709 C   0  0  0  0  0  0  0  0  0  0  0  0
  148.0571  129.2829  153.5623 N   0  0  0  0  0  0  0  0  0  0  0  0
  148.2440  130.6088  153.8179 C   0  0  0  0  0  0  0  0  0  0  0  0
  147.5314  131.6931  153.2284 C   0  0  0  0  0  0  0  0  0  0  0  0
  148.0069  132.8951  153.7432 N   0  0  0  0  0  0  0  0  0  0  0  0
  148.9432  132.5433  154.5806 C   0  0  0  0  0  0  0  0  0  0  0  0
  149.1354  131.1867  154.7051 N   0  0  0  0  0  0  0  0  0  0  0  0
  150.1019  130.5230  155.5621 C   0  0  0  0  0  0  0  0  0  0  0  0
  151.3643  131.3641  155.9038 C   0  0  1  0  0  0  0  0  0  0  0  0
  151.0176  132.3546  157.0421 C   0  0  0  0  0  0  0  0  0  0  0  0
  150.9496  131.7007  158.2929 O   0  0  0  0  0  0  0  0  0  0  0  0
  152.6060  130.4925  156.2634 C   0  0  2  0  0  0  0  0  0  0  0  0
  153.8519  131.2724  156.6589 C   0  0  0  0  0  0  0  0  0  0  0  0
  154.9528  130.2372  156.4867 C   0  0  0  0  0  0  0  0  0  0  0  0
  154.5806  129.5243  155.3191 O   0  0  0  0  0  0  0  0  0  0  0  0
  153.1739  129.6314  155.1205 C   0  0  0  0  0  0  0  0  0  0  0  0
  146.1229  133.6074  151.6698 C   0  0  0  0  0  0  0  0  0  0  0  0
  145.4473  136.0160  151.3146 C   0  0  0  0  0  0  0  0  0  0  0  0
  145.2521  136.5298  152.6568 N   0  0  0  0  0  0  0  0  0  0  0  0
  143.9482  133.6732  153.1482 H   0  0  0  0  0  0  0  0  0  0  0  0
  142.9232  134.7815  152.2300 H   0  0  0  0  0  0  0  0  0  0  0  0
  143.3956  134.7566  149.8354 H   0  0  0  0  0  0  0  0  0  0  0  0
  144.9659  134.3151  149.2149 H   0  0  0  0  0  0  0  0  0  0  0  0
  143.0869  132.4895  150.7873 H   0  0  0  0  0  0  0  0  0  0  0  0
  143.4572  132.3699  149.0844 H   0  0  0  0  0  0  0  0  0  0  0  0
  144.7542  130.7288  150.4686 H   0  0  0  0  0  0  0  0  0  0  0  0
  145.8082  131.8129  149.5688 H   0  0  0  0  0  0  0  0  0  0  0  0
  146.8728  128.0664  152.4180 H   0  0  0  0  0  0  0  0  0  0  0  0
  149.5104  133.2685  155.1455 H   0  0  0  0  0  0  0  0  0  0  0  0
  149.5715  130.2425  156.4724 H   0  0  0  0  0  0  0  0  0  0  0  0
  150.4000  129.5883  155.0854 H   0  0  0  0  0  0  0  0  0  0  0  0
  151.6273  131.9644  155.0319 H   0  0  0  0  0  0  0  0  0  0  0  0
  151.7524  133.1587  157.0940 H   0  0  0  0  0  0  0  0  0  0  0  0
  150.0448  132.8186  156.8866 H   0  0  0  0  0  0  0  0  0  0  0  0
  151.7755  131.2698  158.4529 H   0  0  0  0  0  0  0  0  0  0  0  0
  152.3500  129.8363  157.0969 H   0  0  0  0  0  0  0  0  0  0  0  0
  154.0156  132.1075  155.9762 H   0  0  0  0  0  0  0  0  0  0  0  0
  153.8130  131.6612  157.6768 H   0  0  0  0  0  0  0  0  0  0  0  0
  155.9425  130.6832  156.3879 H   0  0  0  0  0  0  0  0  0  0  0  0
  154.9684  129.5497  157.3337 H   0  0  0  0  0  0  0  0  0  0  0  0
  152.7304  128.6370  155.0966 H   0  0  0  0  0  0  0  0  0  0  0  0
  153.0087  130.0996  154.1495 H   0  0  0  0  0  0  0  0  0  0  0  0
  146.9089  133.7514  150.9270 H   0  0  0  0  0  0  0  0  0  0  0  0
  146.5651  133.8621  152.6336 H   0  0  0  0  0  0  0  0  0  0  0  0
  146.4921  136.0888  151.0103 H   0  0  0  0  0  0  0  0  0  0  0  0
  144.8570  136.6230  150.6264 H   0  0  0  0  0  0  0  0  0  0  0  0
  145.6941  137.3739  152.9913 H   0  0  0  0  0  0  0  0  0  0  0  0
  1  2  2  0  0  0  0
  2 29  1  0  0  0  0
  2  3  1  0  0  0  0
  3  4  1  0  0  0  0
  3 30  1  0  0  0  0
  3 31  1  0  0  0  0
  4 27  1  0  0  0  0
  4  5  1  0  0  0  0
  4 28  1  0  0  0  0
  5  6  1  0  0  0  0
  5 32  1  0  0  0  0
  5 33  1  0  0  0  0
  6  7  1  0  0  0  0
  6 34  1  0  0  0  0
  6 35  1  0  0  0  0
  7  8  1  0  0  0  0
  7 36  1  0  0  0  0
  7 37  1  0  0  0  0
  8  9  1  0  0  0  0
  8 27  1  0  0  0  0
  9 14  1  0  0  0  0
  9 10  2  0  0  0  0
 10 11  1  0  0  0  0
 11 12  2  0  0  0  0
 11 38  1  0  0  0  0
 12 13  1  0  0  0  0
 13 17  1  0  0  0  0
 13 14  2  0  0  0  0
 14 15  1  0  0  0  0
 15 16  2  0  0  0  0
 16 17  1  0  0  0  0
 16 39  1  0  0  0  0
 17 18  1  0  0  0  0
 18 19  1  0  0  0  0
 18 40  1  0  0  0  0
 18 41  1  0  0  0  0
 19 20  1  0  0  0  0
 19 22  1  0  0  0  0
 19 42  1  0  0  0  0
 20 21  1  0  0  0  0
 20 43  1  0  0  0  0
 20 44  1  0  0  0  0
 21 45  1  0  0  0  0
 22 26  1  0  0  0  0
 22 23  1  0  0  0  0
 22 46  1  0  0  0  0
 23 24  1  0  0  0  0
 23 47  1  0  0  0  0
 23 48  1  0  0  0  0
 24 25  1  0  0  0  0
 24 49  1  0  0  0  0
 24 50  1  0  0  0  0
 25 26  1  0  0  0  0
 26 51  1  0  0  0  0
 26 52  1  0  0  0  0
 27 53  1  0  0  0  0
 27 54  1  0  0  0  0
 28 29  1  0  0  0  0
 28 55  1  0  0  0  0
 28 56  1  0  0  0  0
 29 57  1  0  0  0  0
M  END
> <s_m_source_file>
AV-unprocessed.smi

> <i_m_source_file_index>
20

> <i_lp_mmshare_version>
43012

> <i_f3d_flags>
0

> <s_epik_input>
W0NIMl0xW05IXUMoPU8pW0NIMl1bQ0BAXTEyW0NIMl1bQ0gyXVtDSDJdTihbQ0gyXTIpYyhuW2NIXW4zKWMoYzM0KW5bY0hdbjRbQ0gyXVtDQEhdKFtDSDJdW09IXSlbQ0BASF01W0NIMl1bQ0gyXU9bQ0gyXTU=

> <s_epik_cmdline>
J2VwaWtfcHl0aG9uJywgJy1waCcsICc3LjAnLCAnLXRuJywgJzgnLCAnLW1hJywgJzIwMCcsICctbWV0YWxfYmluZGluZycsICctaW1hZScsICc8aW5maWxlLm1hZT4nLCAnLW9tYWUnLCAnPG91dGZpbGUubWFlPic=

> <r_lp_tautomer_probability>
1

> <r_epik_Ionization_Penalty>
0.0019697

> <r_epik_Ionization_Penalty_Charging>
0

> <r_epik_Ionization_Penalty_Neutral>
0.0019697

> <r_epik_State_Penalty>
0.00113613

> <r_epik_Charging_Adjusted_Penalty>
0.00113613

> <i_epik_Tot_Q>
0

> <i_epik_Tot_abs_Q>
0

> <r_epik_Metal_State_Penalty>
-0

> <b_epik_Metal_Only>
0

> <s_lp_Force_Field>
OPLS_2005

> <r_lp_Energy>
60.5509

> <b_lp_Chiralities_Consistent>
1

> <s_lp_Variant>
AV-unprocessed.smi:20-3

> <Gold.Version>
5.8.1

> <Gold.Id.Protein>
6NUR|6NUR_protein|mol2

> <Gold.PLP.Fitness>
47.9972

> <Gold.PLP.PLP>
-46.4203

> <Gold.PLP.part.hbond>
-1.0000

> <Gold.PLP.part.metal>
0.0000

> <Gold.PLP.part.buried>
-6.2307

> <Gold.PLP.part.nonpolar>
-39.6990

> <Gold.PLP.part.repulsive>
0.4156

> <Gold.PLP.ligand.clash>
0.0000

> <Gold.PLP.ligand.torsion>
0.8676

> <Gold.PLP.Chemscore.Hbond>
1.0000

> <Gold.PLP.Chemscore.CHOScore>
0.0000

> <Gold.PLP.Chemscore.Metal>
0.0000

> <Gold.Chemscore.Hbonds>
donor molecule, donor type, donor heavy atom, donor atom, acceptor molecule, acceptor atom, score
      P1  H  6896  6909       L1    21  0.42

> <Gold.PLP.Chemscore.Internal.Correction>
0.3119

> <Gold.Rescore>
     Score         DG    S(hbond)    S(metal)    S(lipo)     H(rot)  DE(clash)    DE(int)     intcor
     11.43     -13.72       0.97        0.00      95.94       2.43       0.08       2.21       ----

> <Gold.Chemscore.Fitness>
11.4283

> <Gold.Chemscore.DG>
-13.7167

> <Gold.Chemscore.ZeroCoef>
-5.4800

> <Gold.Chemscore.Hbond>
0.9684

> <Gold.Chemscore.Metal>
0.0000

> <Gold.Chemscore.Lipo>
95.9438

> <Gold.Chemscore.Internal_Hbond>
0.0000

> <Gold.Chemscore.DEClash>
0.0771

> <Gold.Chemscore.DEInternal>
2.2113

> <Gold.Chemscore.Rot>
2.4309

> <Gold.Chemscore.Internal.Correction>
   9.000000E+99

> <Gold.Chemscore.Hbond.Weighted>
-3.2344

> <Gold.Chemscore.Metal.Weighted>
-0.0000

> <Gold.Chemscore.Lipo.Weighted>
-11.2254

> <Gold.Chemscore.Internal_Hbond.Weighted>
0.0000

> <Gold.Chemscore.DEClash.Weighted>
0.0771

> <Gold.Chemscore.DEInternal.Weighted>
2.2113

> <Gold.Chemscore.Rot.Weighted>
6.2231

> <Gold.Chemscore.Internal.Correction.Weighted>
   9.000000E+99

> <Gold.Protein.RotatedTorsions>
[ 6907 6896 6895 6894 ] final  -50.67 input  -60.11 | X-H torsion
[ 7974 7965 7964 7962 ] final -174.44 input  175.53 | X-H torsion
[ 8008 7997 7996 7995 ] final  -34.92 input   59.86 | X-H torsion
[ 10167 10162 10161 10158 ] final -119.85 input  -65.29 | X-H torsion
[ 10718 10713 10712 10709 ] final   13.82 input   66.30 | X-H torsion
[ 10763 10752 10751 10750 ] final  159.45 input  -60.55 | X-H torsion
[ 11005 11000 10999 10996 ] final  -11.96 input  -57.11 | X-H torsion

> <Gold.Protein.ActiveResidues>
 VAL166  LYS551  ARG553  GLY616  TRP617  ASP618  TYR619  PRO620  LYS621  CYS622 
 ASP623  PHE694  ASN695  SER759  ASP760  ASP761  ALA762  ILE779  LEU786  VAL792 
 PHE793  MET794  SER795  GLU796  ALA797  LYS798  CYS799  TRP800  GLU811  SER814 

> <Gold.Protein.RotatedAtoms>
  150.8685  134.8053  159.7136 H   0  0  0  0  0  0  0  0  0  0  0  0  # atno 6907 bound_to 6896
  152.4698  134.4985  159.9727 H   0  0  0  0  0  0  0  0  0  0  0  0  # atno 6908 bound_to 6896
  151.5078  133.3452  159.2915 H   0  0  0  0  0  0  0  0  0  0  0  0  # atno 6909 bound_to 6896
  144.7132  140.1471  143.6387 H   0  0  0  0  0  0  0  0  0  0  0  0  # atno 7974 bound_to 7965
  154.4108  140.1671  156.2128 H   0  0  0  0  0  0  0  0  0  0  0  0  # atno 8008 bound_to 7997
  155.9429  140.3406  155.6319 H   0  0  0  0  0  0  0  0  0  0  0  0  # atno 8009 bound_to 7997
  155.6966  140.0740  157.2418 H   0  0  0  0  0  0  0  0  0  0  0  0  # atno 8010 bound_to 7997
  140.0422  143.5142  152.2124 H   0  0  0  0  0  0  0  0  0  0  0  0  # atno 10167 bound_to 10162
  157.0301  130.6189  149.5734 H   0  0  0  0  0  0  0  0  0  0  0  0  # atno 10718 bound_to 10713
  154.2320  135.2778  155.2886 H   0  0  0  0  0  0  0  0  0  0  0  0  # atno 10763 bound_to 10752
  154.5616  135.5645  153.7016 H   0  0  0  0  0  0  0  0  0  0  0  0  # atno 10764 bound_to 10752
  153.0018  135.6299  154.2462 H   0  0  0  0  0  0  0  0  0  0  0  0  # atno 10765 bound_to 10752
  140.7607  133.8517  155.9122 H   0  0  0  0  0  0  0  0  0  0  0  0  # atno 11005 bound_to 11000
  145.9149  139.2510  143.1415 LP  0  0  0  0  0  0  0  0  0  0  0  0  # atno 17320 bound_to 7965
  145.9679  140.8784  143.0178 LP  0  0  0  0  0  0  0  0  0  0  0  0  # atno 17321 bound_to 7965
  139.6007  144.7581  151.3179 LP  0  0  0  0  0  0  0  0  0  0  0  0  # atno 17342 bound_to 10162
  140.7255  143.7016  150.7841 LP  0  0  0  0  0  0  0  0  0  0  0  0  # atno 17343 bound_to 10162
  156.0072  130.5160  150.7870 LP  0  0  0  0  0  0  0  0  0  0  0  0  # atno 17370 bound_to 10713
  157.5184  131.0930  151.0110 LP  0  0  0  0  0  0  0  0  0  0  0  0  # atno 17371 bound_to 10713
  140.9666  134.1586  157.4611 LP  0  0  0  0  0  0  0  0  0  0  0  0  # atno 17394 bound_to 11000
  139.8771  134.9964  156.5791 LP  0  0  0  0  0  0  0  0  0  0  0  0  # atno 17395 bound_to 11000

$$$$
