AV-unprocessed.smi:101|AV-procd|sdf|921|dock10
  -GOLD-   2262017423D 1   1.00000     0.00000
 Structure written by MMmdl.
 44 46  0  0  0  0  0  0  0  0  1 V2000
  144.2646  137.8485  157.5775 C   0  0  0  0  0  0  0  0  0  0  0  0
  144.6066  137.7285  156.1013 C   0  0  0  0  0  0  0  0  0  0  0  0
  145.7151  138.2988  155.5631 C   0  0  0  0  0  0  0  0  0  0  0  0
  146.0547  138.2063  154.2180 N   0  0  0  0  0  0  0  0  0  0  0  0
  147.3098  138.8413  153.6437 C   0  0  2  0  0  0  0  0  0  0  0  0
  148.4035  138.5403  154.4589 O   0  0  0  0  0  0  0  0  0  0  0  0
  148.7834  139.6940  155.2002 C   0  0  1  0  0  0  0  0  0  0  0  0
  150.2199  139.5658  155.7218 C   0  0  0  0  0  0  0  0  0  0  0  0
  150.4821  140.6772  156.5620 O   0  0  0  0  0  0  0  0  0  0  0  0
  151.6609  140.7851  157.2011 C   0  0  0  0  0  0  0  0  0  0  0  0
  152.5404  139.9223  157.1632 O   0  0  0  0  0  0  0  0  0  0  0  0
  151.7873  142.0608  157.9637 C   0  0  0  0  0  0  0  0  0  0  0  0
  151.0673  143.2000  157.5340 C   0  0  0  0  0  0  0  0  0  0  0  0
  151.1702  144.4190  158.2321 C   0  0  0  0  0  0  0  0  0  0  0  0
  151.9934  144.5133  159.3693 C   0  0  0  0  0  0  0  0  0  0  0  0
  152.7135  143.3870  159.8082 C   0  0  0  0  0  0  0  0  0  0  0  0
  152.6127  142.1672  159.1109 C   0  0  0  0  0  0  0  0  0  0  0  0
  148.5172  140.8364  154.2176 C   0  0  1  0  0  0  0  0  0  0  0  0
  149.5671  140.9492  153.2741 O   0  0  0  0  0  0  0  0  0  0  0  0
  147.2280  140.3873  153.5395 C   0  0  2  0  0  0  0  0  0  0  0  0
  146.1188  140.9511  154.2190 O   0  0  0  0  0  0  0  0  0  0  0  0
  145.2175  137.4806  153.3458 C   0  0  0  0  0  0  0  0  0  0  0  0
  145.4544  137.3615  152.1442 O   0  0  0  0  0  0  0  0  0  0  0  0
  144.0794  136.8960  153.8973 N   0  0  0  0  0  0  0  0  0  0  0  0
  143.6992  136.9659  155.2395 C   0  0  0  0  0  0  0  0  0  0  0  0
  142.6676  136.4070  155.6084 O   0  0  0  0  0  0  0  0  0  0  0  0
  143.4775  136.3778  153.2742 H   0  0  0  0  0  0  0  0  0  0  0  0
  145.0156  138.4211  158.1229 H   0  0  0  0  0  0  0  0  0  0  0  0
  144.2005  136.8611  158.0361 H   0  0  0  0  0  0  0  0  0  0  0  0
  143.3042  138.3488  157.7059 H   0  0  0  0  0  0  0  0  0  0  0  0
  146.3575  138.8487  156.2334 H   0  0  0  0  0  0  0  0  0  0  0  0
  147.4745  138.3513  152.6821 H   0  0  0  0  0  0  0  0  0  0  0  0
  148.1030  139.8131  156.0450 H   0  0  0  0  0  0  0  0  0  0  0  0
  150.3532  138.6278  156.2629 H   0  0  0  0  0  0  0  0  0  0  0  0
  150.9251  139.5761  154.8898 H   0  0  0  0  0  0  0  0  0  0  0  0
  150.4298  143.1522  156.6626 H   0  0  0  0  0  0  0  0  0  0  0  0
  150.6172  145.2827  157.8932 H   0  0  0  0  0  0  0  0  0  0  0  0
  152.0729  145.4485  159.9037 H   0  0  0  0  0  0  0  0  0  0  0  0
  153.3452  143.4577  160.6813 H   0  0  0  0  0  0  0  0  0  0  0  0
  153.1802  141.3230  159.4749 H   0  0  0  0  0  0  0  0  0  0  0  0
  148.4150  141.7965  154.7257 H   0  0  0  0  0  0  0  0  0  0  0  0
  149.4403  140.2976  152.6015 H   0  0  0  0  0  0  0  0  0  0  0  0
  147.1802  140.6869  152.4916 H   0  0  0  0  0  0  0  0  0  0  0  0
  145.3417  140.7854  153.7068 H   0  0  0  0  0  0  0  0  0  0  0  0
  1  2  1  0  0  0  0
  1 28  1  0  0  0  0
  1 29  1  0  0  0  0
  1 30  1  0  0  0  0
  2 25  1  0  0  0  0
  2  3  2  0  0  0  0
  3  4  1  0  0  0  0
  3 31  1  0  0  0  0
  4  5  1  0  0  0  0
  4 22  1  0  0  0  0
  5 20  1  0  0  0  0
  5  6  1  0  0  0  0
  5 32  1  0  0  0  0
  6  7  1  0  0  0  0
  7  8  1  0  0  0  0
  7 18  1  0  0  0  0
  7 33  1  0  0  0  0
  8  9  1  0  0  0  0
  8 34  1  0  0  0  0
  8 35  1  0  0  0  0
  9 10  1  0  0  0  0
 10 11  2  0  0  0  0
 10 12  1  0  0  0  0
 12 17  1  0  0  0  0
 12 13  2  0  0  0  0
 13 14  1  0  0  0  0
 13 36  1  0  0  0  0
 14 15  2  0  0  0  0
 14 37  1  0  0  0  0
 15 16  1  0  0  0  0
 15 38  1  0  0  0  0
 16 17  2  0  0  0  0
 16 39  1  0  0  0  0
 17 40  1  0  0  0  0
 18 19  1  0  0  0  0
 18 20  1  0  0  0  0
 18 41  1  0  0  0  0
 19 42  1  0  0  0  0
 20 21  1  0  0  0  0
 20 43  1  0  0  0  0
 21 44  1  0  0  0  0
 22 23  2  0  0  0  0
 22 24  1  0  0  0  0
 24 27  1  0  0  0  0
 24 25  1  0  0  0  0
 25 26  2  0  0  0  0
M  END
> <s_m_source_file>
AV-unprocessed.smi

> <i_m_source_file_index>
101

> <i_lp_mmshare_version>
43012

> <i_f3d_flags>
0

> <s_epik_input>
Tz1jMVtuSF1jKD1PKW4oW2NIXWMxW0NIM10pW0NAQEhdMk9bQ0BIXShbQ0BASF0oW09IXSlbQ0BIXTJbT0hdKVtDSDJdT0MoPU8pYzNbY0hdW2NIXVtjSF1bY0hdW2NIXTM=

> <s_epik_cmdline>
J2VwaWtfcHl0aG9uJywgJy1waCcsICc3LjAnLCAnLXRuJywgJzgnLCAnLW1hJywgJzIwMCcsICctbWV0YWxfYmluZGluZycsICctaW1hZScsICc8aW5maWxlLm1hZT4nLCAnLW9tYWUnLCAnPG91dGZpbGUubWFlPic=

> <r_lp_tautomer_probability>
0.999537

> <r_epik_Ionization_Penalty>
0.00263537

> <r_epik_Ionization_Penalty_Charging>
0.00263428

> <r_epik_Ionization_Penalty_Neutral>
1.09111e-06

> <r_epik_State_Penalty>
0.00183335

> <r_epik_Charging_Adjusted_Penalty>
0.00446763

> <i_epik_Tot_Q>
0

> <i_epik_Tot_abs_Q>
0

> <r_epik_Metal_State_Penalty>
1.00528

> <b_epik_Metal_Only>
0

> <s_epik_Chemistry_Notes>
This compound has an ester and may undergo hydrolysis at high or low pH. This compound contains an acetal/aminal-like group ( X-CH(R)-Y where X, Y are N, S, or O) that may be acid/base labile, releasing an aldehyde.

> <s_lp_Force_Field>
OPLS_2005

> <r_lp_Energy>
37.3052

> <b_lp_Chiralities_Consistent>
1

> <s_lp_Variant>
AV-unprocessed.smi:101-9

> <Gold.Version>
5.8.1

> <Gold.Id.Protein>
6NUR|6NUR_protein|mol2

> <Gold.PLP.Fitness>
46.6752

> <Gold.PLP.PLP>
-36.0224

> <Gold.PLP.part.hbond>
-4.2789

> <Gold.PLP.part.metal>
0.0000

> <Gold.PLP.part.buried>
-6.3933

> <Gold.PLP.part.nonpolar>
-27.6726

> <Gold.PLP.part.repulsive>
0.8917

> <Gold.PLP.ligand.clash>
0.0000

> <Gold.PLP.ligand.torsion>
0.6319

> <Gold.PLP.Chemscore.Hbond>
3.9249

> <Gold.PLP.Chemscore.CHOScore>
0.0000

> <Gold.PLP.Chemscore.Metal>
0.0000

> <Gold.Chemscore.Hbonds>
donor molecule, donor type, donor heavy atom, donor atom, acceptor molecule, acceptor atom, score
      L1  H    19    42       P1  7957  0.73
      L1  H    21    44       P1 10175  0.88
      P1  H  7989  7998       L1    19  0.19
      P1  H  7997  8008       L1    11  1.00
      P1  H  8011  8017       L1    19  1.00

> <Gold.PLP.Chemscore.Internal.Correction>
0.1420

> <Gold.Rescore>
     Score         DG    S(hbond)    S(metal)    S(lipo)     H(rot)  DE(clash)    DE(int)     intcor
     17.40     -18.35       3.24        0.00      90.13       3.32       0.24       0.71       ----

> <Gold.Chemscore.Fitness>
17.3970

> <Gold.Chemscore.DG>
-18.3481

> <Gold.Chemscore.ZeroCoef>
-5.4800

> <Gold.Chemscore.Hbond>
3.2379

> <Gold.Chemscore.Metal>
0.0000

> <Gold.Chemscore.Lipo>
90.1313

> <Gold.Chemscore.Internal_Hbond>
0.0000

> <Gold.Chemscore.DEClash>
0.2419

> <Gold.Chemscore.DEInternal>
0.7092

> <Gold.Chemscore.Rot>
3.3172

> <Gold.Chemscore.Internal.Correction>
   9.000000E+99

> <Gold.Chemscore.Hbonds>
donor molecule, donor type, donor heavy atom, donor atom, acceptor molecule, acceptor atom, score
      L1  H    19    42       P1  7957  0.71
      L1  H    21    44       P1 10175  0.78
      P1  H  7989  7998       L1    19  0.05
      P1  H  7997  8008       L1    11  0.97
      P1  H  8011  8017       L1    19  0.34

> <Gold.Chemscore.Hbond.Weighted>
-10.8148

> <Gold.Chemscore.Metal.Weighted>
-0.0000

> <Gold.Chemscore.Lipo.Weighted>
-10.5454

> <Gold.Chemscore.Internal_Hbond.Weighted>
0.0000

> <Gold.Chemscore.DEClash.Weighted>
0.2419

> <Gold.Chemscore.DEInternal.Weighted>
0.7092

> <Gold.Chemscore.Rot.Weighted>
8.4920

> <Gold.Chemscore.Internal.Correction.Weighted>
   9.000000E+99

> <Gold.Protein.RotatedTorsions>
[ 6907 6896 6895 6894 ] final -102.72 input  -60.11 | X-H torsion
[ 7974 7965 7964 7962 ] final  -79.98 input  175.53 | X-H torsion
[ 8008 7997 7996 7995 ] final  -49.30 input   59.86 | X-H torsion
[ 10167 10162 10161 10158 ] final  -41.11 input  -65.29 | X-H torsion
[ 10718 10713 10712 10709 ] final   21.21 input   66.30 | X-H torsion
[ 10763 10752 10751 10750 ] final  138.99 input  -60.55 | X-H torsion
[ 11005 11000 10999 10996 ] final   27.17 input  -57.11 | X-H torsion

> <Gold.Protein.ActiveResidues>
 VAL166  LYS551  ARG553  GLY616  TRP617  ASP618  TYR619  PRO620  LYS621  CYS622 
 ASP623  PHE694  ASN695  SER759  ASP760  ASP761  ALA762  ILE779  LEU786  VAL792 
 PHE793  MET794  SER795  GLU796  ALA797  LYS798  CYS799  TRP800  GLU811  SER814 

> <Gold.Protein.RotatedAtoms>
  150.7208  134.0538  159.3807 H   0  0  0  0  0  0  0  0  0  0  0  0  # atno 6907 bound_to 6896
  151.8516  135.0553  160.0469 H   0  0  0  0  0  0  0  0  0  0  0  0  # atno 6908 bound_to 6896
  152.2786  133.5413  159.5520 H   0  0  0  0  0  0  0  0  0  0  0  0  # atno 6909 bound_to 6896
  145.5660  140.9474  143.1421 H   0  0  0  0  0  0  0  0  0  0  0  0  # atno 7974 bound_to 7965
  154.4042  140.1300  156.4480 H   0  0  0  0  0  0  0  0  0  0  0  0  # atno 8008 bound_to 7997
  155.7394  140.3490  155.5077 H   0  0  0  0  0  0  0  0  0  0  0  0  # atno 8009 bound_to 7997
  155.9053  140.1026  157.1310 H   0  0  0  0  0  0  0  0  0  0  0  0  # atno 8010 bound_to 7997
  140.7013  143.3113  151.3020 H   0  0  0  0  0  0  0  0  0  0  0  0  # atno 10167 bound_to 10162
  157.1353  130.6609  149.5964 H   0  0  0  0  0  0  0  0  0  0  0  0  # atno 10718 bound_to 10713
  153.8987  135.3024  155.3448 H   0  0  0  0  0  0  0  0  0  0  0  0  # atno 10763 bound_to 10752
  154.7681  135.4900  153.9597 H   0  0  0  0  0  0  0  0  0  0  0  0  # atno 10764 bound_to 10752
  153.1257  135.6792  153.9361 H   0  0  0  0  0  0  0  0  0  0  0  0  # atno 10765 bound_to 10752
  140.3292  134.2457  155.7705 H   0  0  0  0  0  0  0  0  0  0  0  0  # atno 11005 bound_to 11000
  144.7460  139.7319  143.7292 LP  0  0  0  0  0  0  0  0  0  0  0  0  # atno 17320 bound_to 7965
  146.1818  139.5013  142.9862 LP  0  0  0  0  0  0  0  0  0  0  0  0  # atno 17321 bound_to 7965
  139.6537  144.0315  152.2644 LP  0  0  0  0  0  0  0  0  0  0  0  0  # atno 17342 bound_to 10162
  139.9860  144.6395  150.7857 LP  0  0  0  0  0  0  0  0  0  0  0  0  # atno 17343 bound_to 10162
  155.9799  130.4796  150.6744 LP  0  0  0  0  0  0  0  0  0  0  0  0  # atno 17370 bound_to 10713
  157.4355  131.0855  151.0995 LP  0  0  0  0  0  0  0  0  0  0  0  0  # atno 17371 bound_to 10713
  141.2068  133.7824  157.0158 LP  0  0  0  0  0  0  0  0  0  0  0  0  # atno 17394 bound_to 11000
  140.0875  134.9612  157.1724 LP  0  0  0  0  0  0  0  0  0  0  0  0  # atno 17395 bound_to 11000

$$$$
