AV-unprocessed.smi:1451|AV-procd|sdf|5902|dock2
  -GOLD-   22720 5583D 1   1.00000     0.00000
 Structure written by MMmdl.
 47 48  0  0  0  0  0  0  0  0  2 V2000
  143.6745  144.5268  156.3155 C   0  0  0  0  0  0  0  0  0  0  0  0
  144.6302  143.5589  155.6035 C   0  0  1  0  0  0  0  0  0  0  0  0
  145.1763  144.1661  154.3005 C   0  0  0  0  0  0  0  0  0  0  0  0
  146.1480  143.1900  153.6257 C   0  0  0  0  0  0  0  0  0  0  0  0
  147.2689  142.7735  154.5912 C   0  0  0  0  0  0  0  0  0  0  0  0
  146.7117  142.1853  155.8367 N   0  3  1  0  0  0  0  0  0  0  0  0
  147.7729  141.6485  156.7262 C   0  0  0  0  0  0  0  0  0  0  0  0
  148.9660  141.0794  155.9405 C   0  0  0  0  0  0  0  0  0  0  0  0
  149.9891  140.5862  156.8532 N   0  0  0  0  0  0  0  0  0  0  0  0
  151.2273  140.2254  156.4862 C   0  0  0  0  0  0  0  0  0  0  0  0
  151.6343  140.3015  155.3266 O   0  0  0  0  0  0  0  0  0  0  0  0
  152.1468  139.7204  157.6071 C   0  0  0  0  0  0  0  0  0  0  0  0
  152.4219  140.7455  158.6277 N   0  0  0  0  0  0  0  0  0  0  0  0
  152.1595  142.0858  158.2823 C   0  0  0  0  0  0  0  0  0  0  0  0
  152.3873  143.1163  159.1192 C   0  0  0  0  0  0  0  0  0  0  0  0
  152.0443  144.5477  158.7369 C   0  0  0  0  0  0  0  0  0  0  0  0
  152.7607  144.9493  157.6866 F   0  0  0  0  0  0  0  0  0  0  0  0
  150.7540  144.6346  158.4170 F   0  0  0  0  0  0  0  0  0  0  0  0
  152.2784  145.3850  159.7483 F   0  0  0  0  0  0  0  0  0  0  0  0
  152.8954  142.7791  160.4345 C   0  0  0  0  0  0  0  0  0  0  0  0
  153.1451  141.5019  160.7834 C   0  0  0  0  0  0  0  0  0  0  0  0
  152.9142  140.3943  159.8536 C   0  0  0  0  0  0  0  0  0  0  0  0
  153.1488  139.2239  160.1567 O   0  0  0  0  0  0  0  0  0  0  0  0
  145.7932  143.1342  156.5230 C   0  0  0  0  0  0  0  0  0  0  0  0
  144.1808  145.4512  156.5952 H   0  0  0  0  0  0  0  0  0  0  0  0
  143.2685  144.0815  157.2242 H   0  0  0  0  0  0  0  0  0  0  0  0
  142.8326  144.7896  155.6743 H   0  0  0  0  0  0  0  0  0  0  0  0
  144.0595  142.6646  155.3478 H   0  0  0  0  0  0  0  0  0  0  0  0
  144.3578  144.4041  153.6204 H   0  0  0  0  0  0  0  0  0  0  0  0
  145.6888  145.1055  154.5127 H   0  0  0  0  0  0  0  0  0  0  0  0
  145.6055  142.3050  153.2899 H   0  0  0  0  0  0  0  0  0  0  0  0
  146.5754  143.6479  152.7332 H   0  0  0  0  0  0  0  0  0  0  0  0
  147.9137  142.0475  154.0944 H   0  0  0  0  0  0  0  0  0  0  0  0
  147.8922  143.6339  154.8406 H   0  0  0  0  0  0  0  0  0  0  0  0
  148.1447  142.4498  157.3667 H   0  0  0  0  0  0  0  0  0  0  0  0
  147.3494  140.8943  157.3917 H   0  0  0  0  0  0  0  0  0  0  0  0
  148.6433  140.2687  155.2869 H   0  0  0  0  0  0  0  0  0  0  0  0
  149.4033  141.8505  155.3047 H   0  0  0  0  0  0  0  0  0  0  0  0
  149.7397  140.5058  157.8282 H   0  0  0  0  0  0  0  0  0  0  0  0
  151.6812  138.8425  158.0570 H   0  0  0  0  0  0  0  0  0  0  0  0
  153.0844  139.3580  157.1810 H   0  0  0  0  0  0  0  0  0  0  0  0
  151.7630  142.2248  157.2869 H   0  0  0  0  0  0  0  0  0  0  0  0
  153.0853  143.5642  161.1513 H   0  0  0  0  0  0  0  0  0  0  0  0
  153.5269  141.2881  161.7710 H   0  0  0  0  0  0  0  0  0  0  0  0
  146.3553  144.0108  156.8503 H   0  0  0  0  0  0  0  0  0  0  0  0
  145.3806  142.6751  157.4204 H   0  0  0  0  0  0  0  0  0  0  0  0
  146.1553  141.3935  155.5471 H   0  0  0  0  0  0  0  0  0  0  0  0
  1  2  1  0  0  0  0
  1 25  1  0  0  0  0
  1 26  1  0  0  0  0
  1 27  1  0  0  0  0
  2 24  1  0  0  0  0
  2  3  1  0  0  0  0
  2 28  1  0  0  0  0
  3  4  1  0  0  0  0
  3 29  1  0  0  0  0
  3 30  1  0  0  0  0
  4  5  1  0  0  0  0
  4 31  1  0  0  0  0
  4 32  1  0  0  0  0
  5  6  1  0  0  0  0
  5 33  1  0  0  0  0
  5 34  1  0  0  0  0
  6  7  1  0  0  0  0
  6 24  1  0  0  0  0
  6 47  1  0  0  0  0
  7  8  1  0  0  0  0
  7 35  1  0  0  0  0
  7 36  1  0  0  0  0
  8  9  1  0  0  0  0
  8 37  1  0  0  0  0
  8 38  1  0  0  0  0
  9 10  1  0  0  0  0
  9 39  1  0  0  0  0
 10 11  2  0  0  0  0
 10 12  1  0  0  0  0
 12 13  1  0  0  0  0
 12 40  1  0  0  0  0
 12 41  1  0  0  0  0
 13 22  1  0  0  0  0
 13 14  1  0  0  0  0
 14 15  2  0  0  0  0
 14 42  1  0  0  0  0
 15 16  1  0  0  0  0
 15 20  1  0  0  0  0
 16 17  1  0  0  0  0
 16 18  1  0  0  0  0
 16 19  1  0  0  0  0
 20 21  2  0  0  0  0
 20 43  1  0  0  0  0
 21 22  1  0  0  0  0
 21 44  1  0  0  0  0
 22 23  2  0  0  0  0
 24 45  1  0  0  0  0
 24 46  1  0  0  0  0
M  CHG  1   6   1
M  END
> <s_m_source_file>
AV-unprocessed.smi

> <i_m_source_file_index>
1451

> <i_lp_mmshare_version>
43012

> <i_f3d_flags>
0

> <s_epik_input>
W0NIM11bQ0BASF0xW0NIMl1bQ0gyXVtDSDJdTihbQ0gyXTEpW0NIMl1bQ0gyXVtOSF1DKD1PKVtDSDJdbjJbY0hdYyhDKEYpKEYpRilbY0hdW2NIXWMyPU8=

> <s_epik_cmdline>
J2VwaWtfcHl0aG9uJywgJy1waCcsICc3LjAnLCAnLXRuJywgJzgnLCAnLW1hJywgJzIwMCcsICctbWV0YWxfYmluZGluZycsICctaW1hZScsICc8aW5maWxlLm1hZT4nLCAnLW9tYWUnLCAnPG91dGZpbGUubWFlPic=

> <r_lp_tautomer_probability>
1

> <r_epik_Ionization_Penalty>
0.00192452

> <r_epik_Ionization_Penalty_Charging>
0.00192444

> <r_epik_Ionization_Penalty_Neutral>
8.16761e-08

> <r_epik_State_Penalty>
0.00131115

> <r_epik_Charging_Adjusted_Penalty>
0.00323559

> <i_epik_Tot_Q>
1

> <i_epik_Tot_abs_Q>
1

> <r_epik_Metal_State_Penalty>
-0

> <b_epik_Metal_Only>
0

> <s_lp_Force_Field>
OPLS_2005

> <r_lp_Energy>
29.222

> <b_lp_Chiralities_Consistent>
1

> <s_lp_Variant>
AV-unprocessed.smi:1451-4

> <Gold.Version>
5.8.1

> <Gold.Id.Protein>
6NUR|6NUR_protein|mol2

> <Gold.PLP.Fitness>
51.1130

> <Gold.PLP.PLP>
-49.5134

> <Gold.PLP.part.hbond>
-1.0000

> <Gold.PLP.part.metal>
0.0000

> <Gold.PLP.part.buried>
-5.6942

> <Gold.PLP.part.nonpolar>
-43.3404

> <Gold.PLP.part.repulsive>
0.0378

> <Gold.PLP.ligand.clash>
0.0440

> <Gold.PLP.ligand.torsion>
0.5702

> <Gold.PLP.Chemscore.Hbond>
0.8800

> <Gold.PLP.Chemscore.CHOScore>
0.0000

> <Gold.PLP.Chemscore.Metal>
0.0000

> <Gold.Chemscore.Hbonds>
donor molecule, donor type, donor heavy atom, donor atom, acceptor molecule, acceptor atom, score
      P1  H  7989  7998       L1    11  0.88

> <Gold.PLP.Chemscore.Internal.Correction>
0.1439

> <Gold.Rescore>
     Score         DG    S(hbond)    S(metal)    S(lipo)     H(rot)  DE(clash)    DE(int)     intcor
     12.23     -14.03       0.92        0.00      92.17       2.08       0.03       1.76       ----

> <Gold.Chemscore.Fitness>
12.2326

> <Gold.Chemscore.DG>
-14.0281

> <Gold.Chemscore.ZeroCoef>
-5.4800

> <Gold.Chemscore.Hbond>
0.9221

> <Gold.Chemscore.Metal>
0.0000

> <Gold.Chemscore.Lipo>
92.1657

> <Gold.Chemscore.Internal_Hbond>
0.0000

> <Gold.Chemscore.DEClash>
0.0316

> <Gold.Chemscore.DEInternal>
1.7638

> <Gold.Chemscore.Rot>
2.0762

> <Gold.Chemscore.Internal.Correction>
   9.000000E+99

> <Gold.Chemscore.Hbonds>
donor molecule, donor type, donor heavy atom, donor atom, acceptor molecule, acceptor atom, score
      P1  H  7989  7998       L1    11  0.86

> <Gold.Chemscore.Hbond.Weighted>
-3.0797

> <Gold.Chemscore.Metal.Weighted>
-0.0000

> <Gold.Chemscore.Lipo.Weighted>
-10.7834

> <Gold.Chemscore.Internal_Hbond.Weighted>
0.0000

> <Gold.Chemscore.DEClash.Weighted>
0.0316

> <Gold.Chemscore.DEInternal.Weighted>
1.7638

> <Gold.Chemscore.Rot.Weighted>
5.3150

> <Gold.Chemscore.Internal.Correction.Weighted>
   9.000000E+99

> <Gold.Protein.RotatedTorsions>
[ 6907 6896 6895 6894 ] final  -73.33 input  -60.11 | X-H torsion
[ 7974 7965 7964 7962 ] final -172.96 input  175.53 | X-H torsion
[ 8008 7997 7996 7995 ] final  -35.45 input   59.86 | X-H torsion
[ 10167 10162 10161 10158 ] final   14.10 input  -65.29 | X-H torsion
[ 10718 10713 10712 10709 ] final   96.09 input   66.30 | X-H torsion
[ 10763 10752 10751 10750 ] final  163.93 input  -60.55 | X-H torsion
[ 11005 11000 10999 10996 ] final    8.91 input  -57.11 | X-H torsion

> <Gold.Protein.ActiveResidues>
 VAL166  LYS551  ARG553  GLY616  TRP617  ASP618  TYR619  PRO620  LYS621  CYS622 
 ASP623  PHE694  ASN695  SER759  ASP760  ASP761  ALA762  ILE779  LEU786  VAL792 
 PHE793  MET794  SER795  GLU796  ALA797  LYS798  CYS799  TRP800  GLU811  SER814 

> <Gold.Protein.RotatedAtoms>
  150.7134  134.5032  159.5571 H   0  0  0  0  0  0  0  0  0  0  0  0  # atno 6907 bound_to 6896
  152.2625  134.8016  160.0437 H   0  0  0  0  0  0  0  0  0  0  0  0  # atno 6908 bound_to 6896
  151.8725  133.3443  159.3776 H   0  0  0  0  0  0  0  0  0  0  0  0  # atno 6909 bound_to 6896
  144.7142  140.1694  143.6369 H   0  0  0  0  0  0  0  0  0  0  0  0  # atno 7974 bound_to 7965
  154.4095  140.1657  156.2214 H   0  0  0  0  0  0  0  0  0  0  0  0  # atno 8008 bound_to 7997
  155.9361  140.3411  155.6265 H   0  0  0  0  0  0  0  0  0  0  0  0  # atno 8009 bound_to 7997
  155.7047  140.0749  157.2386 H   0  0  0  0  0  0  0  0  0  0  0  0  # atno 8010 bound_to 7997
  140.5958  143.8704  150.6917 H   0  0  0  0  0  0  0  0  0  0  0  0  # atno 10167 bound_to 10162
  157.6931  131.0567  150.4438 H   0  0  0  0  0  0  0  0  0  0  0  0  # atno 10718 bound_to 10713
  154.3013  135.2759  155.2610 H   0  0  0  0  0  0  0  0  0  0  0  0  # atno 10763 bound_to 10752
  154.5046  135.5799  153.6560 H   0  0  0  0  0  0  0  0  0  0  0  0  # atno 10764 bound_to 10752
  152.9900  135.6166  154.3183 H   0  0  0  0  0  0  0  0  0  0  0  0  # atno 10765 bound_to 10752
  140.5317  134.0460  155.7875 H   0  0  0  0  0  0  0  0  0  0  0  0  # atno 11005 bound_to 11000
  145.8957  139.2401  143.1523 LP  0  0  0  0  0  0  0  0  0  0  0  0  # atno 17320 bound_to 7965
  145.9859  140.8643  143.0091 LP  0  0  0  0  0  0  0  0  0  0  0  0  # atno 17321 bound_to 7965
  140.2238  143.3788  152.1621 LP  0  0  0  0  0  0  0  0  0  0  0  0  # atno 17342 bound_to 10162
  139.5257  144.7099  151.5238 LP  0  0  0  0  0  0  0  0  0  0  0  0  # atno 17343 bound_to 10162
  156.4795  130.4070  149.6470 LP  0  0  0  0  0  0  0  0  0  0  0  0  # atno 17370 bound_to 10713
  156.3521  130.7437  151.2398 LP  0  0  0  0  0  0  0  0  0  0  0  0  # atno 17371 bound_to 10713
  141.1277  133.9354  157.2600 LP  0  0  0  0  0  0  0  0  0  0  0  0  # atno 17394 bound_to 11000
  139.9551  135.0167  156.9104 LP  0  0  0  0  0  0  0  0  0  0  0  0  # atno 17395 bound_to 11000

$$$$
