AV-unprocessed.smi:1444|AV-procd|sdf|5882|dock8
  -GOLD-   22720 5563D 1   1.00000     0.00000
 Structure written by MMmdl.
 43 44  0  0  0  0  0  0  0  0  1 V2000
  152.2663  145.4873  158.8693 C   0  0  0  0  0  0  0  0  0  0  0  0
  151.7486  144.4382  158.0584 O   0  0  0  0  0  0  0  0  0  0  0  0
  151.9903  143.1311  158.4362 C   0  0  0  0  0  0  0  0  0  0  0  0
  152.8241  142.9057  159.4826 N   0  0  0  0  0  0  0  0  0  0  0  0
  153.0587  141.6305  159.8549 C   0  0  0  0  0  0  0  0  0  0  0  0
  152.4749  140.5216  159.2157 C   0  0  0  0  0  0  0  0  0  0  0  0
  151.6100  140.7526  158.1300 C   0  0  0  0  0  0  0  0  0  0  0  0
  151.3664  142.0849  157.7171 C   0  0  0  0  0  0  0  0  0  0  0  0
  150.4952  142.4283  156.6469 N   0  0  0  0  0  0  0  0  0  0  0  0
  149.6352  141.6367  155.9841 C   0  0  0  0  0  0  0  0  0  0  0  0
  149.4670  140.4358  156.1949 O   0  0  0  0  0  0  0  0  0  0  0  0
  148.9872  142.3197  155.0292 N   0  0  0  0  0  0  0  0  0  0  0  0
  147.9975  141.7641  154.1090 C   0  0  1  0  0  0  0  0  0  0  0  0
  148.5366  140.4162  153.6047 C   0  0  0  0  0  0  0  0  0  0  0  0
  146.6270  141.6962  154.8285 C   0  0  0  0  0  0  0  0  0  0  0  0
  145.9253  142.9682  155.0250 N   0  0  0  0  0  0  0  0  0  0  0  0
  145.6994  143.6892  153.7718 C   0  0  0  0  0  0  0  0  0  0  0  0
  144.9333  145.0054  153.9919 C   0  0  0  0  0  0  0  0  0  0  0  0
  143.6947  144.7359  154.6391 O   0  0  0  0  0  0  0  0  0  0  0  0
  143.8643  144.0689  155.8846 C   0  0  0  0  0  0  0  0  0  0  0  0
  144.6281  142.7521  155.6617 C   0  0  0  0  0  0  0  0  0  0  0  0
  151.9967  146.4480  158.4311 H   0  0  0  0  0  0  0  0  0  0  0  0
  153.3548  145.4463  158.9299 H   0  0  0  0  0  0  0  0  0  0  0  0
  151.8495  145.4550  159.8769 H   0  0  0  0  0  0  0  0  0  0  0  0
  153.7263  141.4902  160.6920 H   0  0  0  0  0  0  0  0  0  0  0  0
  152.6816  139.5168  159.5533 H   0  0  0  0  0  0  0  0  0  0  0  0
  151.1414  139.9090  157.6475 H   0  0  0  0  0  0  0  0  0  0  0  0
  150.5922  143.3710  156.2985 H   0  0  0  0  0  0  0  0  0  0  0  0
  149.1951  143.3024  154.9279 H   0  0  0  0  0  0  0  0  0  0  0  0
  147.9123  142.4314  153.2492 H   0  0  0  0  0  0  0  0  0  0  0  0
  148.0065  140.0808  152.7151 H   0  0  0  0  0  0  0  0  0  0  0  0
  148.4602  139.6420  154.3688 H   0  0  0  0  0  0  0  0  0  0  0  0
  149.5860  140.4969  153.3184 H   0  0  0  0  0  0  0  0  0  0  0  0
  145.9726  140.9773  154.3331 H   0  0  0  0  0  0  0  0  0  0  0  0
  146.8214  141.2664  155.8126 H   0  0  0  0  0  0  0  0  0  0  0  0
  146.6379  143.9200  153.2779 H   0  0  0  0  0  0  0  0  0  0  0  0
  145.1355  143.0609  153.0805 H   0  0  0  0  0  0  0  0  0  0  0  0
  145.5228  145.7002  154.5921 H   0  0  0  0  0  0  0  0  0  0  0  0
  144.7362  145.4928  153.0371 H   0  0  0  0  0  0  0  0  0  0  0  0
  144.4012  144.7141  156.5818 H   0  0  0  0  0  0  0  0  0  0  0  0
  142.8845  143.8710  156.3193 H   0  0  0  0  0  0  0  0  0  0  0  0
  144.0217  142.0825  155.0497 H   0  0  0  0  0  0  0  0  0  0  0  0
  144.7652  142.2566  156.6238 H   0  0  0  0  0  0  0  0  0  0  0  0
  1  2  1  0  0  0  0
  1 22  1  0  0  0  0
  1 23  1  0  0  0  0
  1 24  1  0  0  0  0
  2  3  1  0  0  0  0
  3  8  1  0  0  0  0
  3  4  2  0  0  0  0
  4  5  1  0  0  0  0
  5  6  2  0  0  0  0
  5 25  1  0  0  0  0
  6  7  1  0  0  0  0
  6 26  1  0  0  0  0
  7  8  2  0  0  0  0
  7 27  1  0  0  0  0
  8  9  1  0  0  0  0
  9 10  1  0  0  0  0
  9 28  1  0  0  0  0
 10 11  2  0  0  0  0
 10 12  1  0  0  0  0
 12 13  1  0  0  0  0
 12 29  1  0  0  0  0
 13 14  1  0  0  0  0
 13 15  1  0  0  0  0
 13 30  1  0  0  0  0
 14 31  1  0  0  0  0
 14 32  1  0  0  0  0
 14 33  1  0  0  0  0
 15 16  1  0  0  0  0
 15 34  1  0  0  0  0
 15 35  1  0  0  0  0
 16 21  1  0  0  0  0
 16 17  1  0  0  0  0
 17 18  1  0  0  0  0
 17 36  1  0  0  0  0
 17 37  1  0  0  0  0
 18 19  1  0  0  0  0
 18 38  1  0  0  0  0
 18 39  1  0  0  0  0
 19 20  1  0  0  0  0
 20 21  1  0  0  0  0
 20 40  1  0  0  0  0
 20 41  1  0  0  0  0
 21 42  1  0  0  0  0
 21 43  1  0  0  0  0
M  END
> <s_m_source_file>
AV-unprocessed.smi

> <i_m_source_file_index>
1444

> <i_lp_mmshare_version>
43012

> <i_f3d_flags>
0

> <s_epik_input>
W0NIM11PYzFuW2NIXVtjSF1bY0hdYzFbTkhdQyg9TylbTkhdW0NASF0oW0NIM10pW0NIMl1OMltDSDJdW0NIMl1PW0NIMl1bQ0gyXTI=

> <s_epik_cmdline>
J2VwaWtfcHl0aG9uJywgJy1waCcsICc3LjAnLCAnLXRuJywgJzgnLCAnLW1hJywgJzIwMCcsICctbWV0YWxfYmluZGluZycsICctaW1hZScsICc8aW5maWxlLm1hZT4nLCAnLW9tYWUnLCAnPG91dGZpbGUubWFlPic=

> <r_lp_tautomer_probability>
1

> <r_epik_Ionization_Penalty>
0.266086

> <r_epik_Ionization_Penalty_Charging>
0

> <r_epik_Ionization_Penalty_Neutral>
0.266086

> <r_epik_State_Penalty>
0.257924

> <r_epik_Charging_Adjusted_Penalty>
0.257924

> <i_epik_Tot_Q>
0

> <i_epik_Tot_abs_Q>
0

> <r_epik_Metal_State_Penalty>
0.25792

> <b_epik_Metal_Only>
0

> <s_lp_Force_Field>
OPLS_2005

> <r_lp_Energy>
29.2348

> <b_lp_Chiralities_Consistent>
1

> <s_lp_Variant>
AV-unprocessed.smi:1444-2

> <Gold.Version>
5.8.1

> <Gold.Id.Protein>
6NUR|6NUR_protein|mol2

> <Gold.PLP.Fitness>
40.2105

> <Gold.PLP.PLP>
-36.7580

> <Gold.PLP.part.hbond>
-1.8292

> <Gold.PLP.part.metal>
0.0000

> <Gold.PLP.part.buried>
-3.9475

> <Gold.PLP.part.nonpolar>
-31.9519

> <Gold.PLP.part.repulsive>
0.7222

> <Gold.PLP.ligand.clash>
0.0000

> <Gold.PLP.ligand.torsion>
0.4335

> <Gold.PLP.Chemscore.Hbond>
1.4264

> <Gold.PLP.Chemscore.CHOScore>
0.0000

> <Gold.PLP.Chemscore.Metal>
0.0000

> <Gold.Chemscore.Hbonds>
donor molecule, donor type, donor heavy atom, donor atom, acceptor molecule, acceptor atom, score
      L1  H     9    28       P1  8028  0.23
      L1  H    12    29       P1  8028  0.82

> <Gold.PLP.Chemscore.Internal.Correction>
0.0403

> <Gold.Rescore>
     Score         DG    S(hbond)    S(metal)    S(lipo)     H(rot)  DE(clash)    DE(int)     intcor
     12.27     -16.22       1.80        0.00      77.97       1.72       0.65       3.30       ----

> <Gold.Chemscore.Fitness>
12.2693

> <Gold.Chemscore.DG>
-16.2211

> <Gold.Chemscore.ZeroCoef>
-5.4800

> <Gold.Chemscore.Hbond>
1.8020

> <Gold.Chemscore.Metal>
0.0000

> <Gold.Chemscore.Lipo>
77.9736

> <Gold.Chemscore.Internal_Hbond>
0.0000

> <Gold.Chemscore.DEClash>
0.6488

> <Gold.Chemscore.DEInternal>
3.3029

> <Gold.Chemscore.Rot>
1.7189

> <Gold.Chemscore.Internal.Correction>
   9.000000E+99

> <Gold.Chemscore.Hbonds>
donor molecule, donor type, donor heavy atom, donor atom, acceptor molecule, acceptor atom, score
      L1  H     9    28       P1  8028  0.23
      L1  H    12    29       P1  8028  0.81

> <Gold.Chemscore.Hbond.Weighted>
-6.0186

> <Gold.Chemscore.Metal.Weighted>
-0.0000

> <Gold.Chemscore.Lipo.Weighted>
-9.1229

> <Gold.Chemscore.Internal_Hbond.Weighted>
0.0000

> <Gold.Chemscore.DEClash.Weighted>
0.6488

> <Gold.Chemscore.DEInternal.Weighted>
3.3029

> <Gold.Chemscore.Rot.Weighted>
4.4004

> <Gold.Chemscore.Internal.Correction.Weighted>
   9.000000E+99

> <Gold.Protein.RotatedTorsions>
[ 6907 6896 6895 6894 ] final -159.42 input  -60.11 | X-H torsion
[ 7974 7965 7964 7962 ] final  -79.84 input  175.53 | X-H torsion
[ 8008 7997 7996 7995 ] final -152.21 input   59.86 | X-H torsion
[ 10167 10162 10161 10158 ] final  139.06 input  -65.29 | X-H torsion
[ 10718 10713 10712 10709 ] final   -2.20 input   66.30 | X-H torsion
[ 10763 10752 10751 10750 ] final  129.61 input  -60.55 | X-H torsion
[ 11005 11000 10999 10996 ] final  117.92 input  -57.11 | X-H torsion

> <Gold.Protein.ActiveResidues>
 VAL166  LYS551  ARG553  GLY616  TRP617  ASP618  TYR619  PRO620  LYS621  CYS622 
 ASP623  PHE694  ASN695  SER759  ASP760  ASP761  ALA762  ILE779  LEU786  VAL792 
 PHE793  MET794  SER795  GLU796  ALA797  LYS798  CYS799  TRP800  GLU811  SER814 

> <Gold.Protein.RotatedAtoms>
  151.3332  133.3992  159.2664 H   0  0  0  0  0  0  0  0  0  0  0  0  # atno 6907 bound_to 6896
  150.9938  134.9267  159.7925 H   0  0  0  0  0  0  0  0  0  0  0  0  # atno 6908 bound_to 6896
  152.5255  134.3297  159.9231 H   0  0  0  0  0  0  0  0  0  0  0  0  # atno 6909 bound_to 6896
  145.5678  140.9471  143.1412 H   0  0  0  0  0  0  0  0  0  0  0  0  # atno 7974 bound_to 7965
  155.6515  140.0712  157.2585 H   0  0  0  0  0  0  0  0  0  0  0  0  # atno 8008 bound_to 7997
  154.4161  140.1732  156.1730 H   0  0  0  0  0  0  0  0  0  0  0  0  # atno 8009 bound_to 7997
  155.9773  140.3357  155.6633 H   0  0  0  0  0  0  0  0  0  0  0  0  # atno 8010 bound_to 7997
  139.5090  144.6317  151.5801 H   0  0  0  0  0  0  0  0  0  0  0  0  # atno 10167 bound_to 10162
  156.7944  130.5372  149.5731 H   0  0  0  0  0  0  0  0  0  0  0  0  # atno 10718 bound_to 10713
  153.7446  135.3219  155.3310 H   0  0  0  0  0  0  0  0  0  0  0  0  # atno 10763 bound_to 10752
  154.8283  135.4553  154.0992 H   0  0  0  0  0  0  0  0  0  0  0  0  # atno 10764 bound_to 10752
  153.2177  135.6944  153.8119 H   0  0  0  0  0  0  0  0  0  0  0  0  # atno 10765 bound_to 10752
  139.9091  134.9615  156.7424 H   0  0  0  0  0  0  0  0  0  0  0  0  # atno 11005 bound_to 11000
  144.7452  139.7340  143.7295 LP  0  0  0  0  0  0  0  0  0  0  0  0  # atno 17320 bound_to 7965
  146.1806  139.4996  142.9869 LP  0  0  0  0  0  0  0  0  0  0  0  0  # atno 17321 bound_to 7965
  140.6052  143.9538  150.6413 LP  0  0  0  0  0  0  0  0  0  0  0  0  # atno 17342 bound_to 10162
  140.2763  143.3421  152.1192 LP  0  0  0  0  0  0  0  0  0  0  0  0  # atno 17343 bound_to 10162
  156.1139  130.6061  151.0091 LP  0  0  0  0  0  0  0  0  0  0  0  0  # atno 17370 bound_to 10713
  157.6585  131.0885  150.7893 LP  0  0  0  0  0  0  0  0  0  0  0  0  # atno 17371 bound_to 10713
  140.6839  133.9450  155.7926 LP  0  0  0  0  0  0  0  0  0  0  0  0  # atno 17394 bound_to 11000
  141.0491  134.0511  157.3807 LP  0  0  0  0  0  0  0  0  0  0  0  0  # atno 17395 bound_to 11000

$$$$
