AV-unprocessed.smi:3124|AV-procd|sdf|11903|dock3
  -GOLD-   2272017283D 1   1.00000     0.00000
 Structure written by MMmdl.
 24 24  0  0  0  0  0  0  0  0  2 V2000
  144.6138  132.3842  149.2964 C   0  0  0  0  0  0  0  0  0  0  0  0
  144.4778  133.4987  150.2775 C   0  0  0  0  0  0  0  0  0  0  0  0
  143.7618  133.6018  151.4369 C   0  0  0  0  0  0  0  0  0  0  0  0
  144.0469  134.9159  151.9120 C   0  0  0  0  0  0  0  0  0  0  0  0
  143.5279  135.5839  153.1570 C   0  0  0  0  0  0  0  0  0  0  0  0
  142.8881  136.9579  152.8778 C   0  0  1  0  0  0  0  0  0  0  0  0
  142.1630  137.5081  154.1135 C   0  0  0  0  0  0  0  0  0  0  0  0
  143.8957  137.9263  152.4071 N   0  3  0  0  0  0  0  0  0  0  0  0
  144.8742  135.5734  151.1127 N   0  0  0  0  0  0  0  0  0  0  0  0
  145.1302  134.6997  150.1211 N   0  0  0  0  0  0  0  0  0  0  0  0
  145.7407  134.9349  149.3510 H   0  0  0  0  0  0  0  0  0  0  0  0
  143.9088  131.5823  149.5171 H   0  0  0  0  0  0  0  0  0  0  0  0
  145.6198  131.9653  149.3232 H   0  0  0  0  0  0  0  0  0  0  0  0
  144.4187  132.7330  148.2821 H   0  0  0  0  0  0  0  0  0  0  0  0
  143.1246  132.8502  151.8792 H   0  0  0  0  0  0  0  0  0  0  0  0
  144.3383  135.6967  153.8786 H   0  0  0  0  0  0  0  0  0  0  0  0
  142.7944  134.9338  153.6363 H   0  0  0  0  0  0  0  0  0  0  0  0
  142.1529  136.8454  152.0800 H   0  0  0  0  0  0  0  0  0  0  0  0
  141.3829  136.8233  154.4480 H   0  0  0  0  0  0  0  0  0  0  0  0
  141.6869  138.4653  153.8975 H   0  0  0  0  0  0  0  0  0  0  0  0
  142.8515  137.6578  154.9460 H   0  0  0  0  0  0  0  0  0  0  0  0
  143.6079  138.8620  152.6545 H   0  0  0  0  0  0  0  0  0  0  0  0
  143.9881  137.8564  151.4037 H   0  0  0  0  0  0  0  0  0  0  0  0
  144.7848  137.7219  152.8414 H   0  0  0  0  0  0  0  0  0  0  0  0
  1 12  1  0  0  0  0
  1 13  1  0  0  0  0
  1 14  1  0  0  0  0
  1  2  1  0  0  0  0
  2 10  1  0  0  0  0
  2  3  2  0  0  0  0
  3  4  1  0  0  0  0
  3 15  1  0  0  0  0
  4  5  1  0  0  0  0
  4  9  2  0  0  0  0
  5  6  1  0  0  0  0
  5 16  1  0  0  0  0
  5 17  1  0  0  0  0
  6  7  1  0  0  0  0
  6  8  1  0  0  0  0
  6 18  1  0  0  0  0
  7 19  1  0  0  0  0
  7 20  1  0  0  0  0
  7 21  1  0  0  0  0
  8 22  1  0  0  0  0
  8 23  1  0  0  0  0
  8 24  1  0  0  0  0
  9 10  1  0  0  0  0
 10 11  1  0  0  0  0
M  CHG  1   8   1
M  END
> <s_m_source_file>
AV-unprocessed.smi

> <i_m_source_file_index>
3124

> <i_lp_mmshare_version>
43012

> <i_f3d_flags>
0

> <s_epik_input>
W0NIM11jMVtjSF1jKFtuSF1uMSlbQ0gyXVtDQEhdKFtDSDNdKVtOSDJd

> <s_epik_cmdline>
J2VwaWtfcHl0aG9uJywgJy1waCcsICc3LjAnLCAnLXRuJywgJzgnLCAnLW1hJywgJzIwMCcsICctbWV0YWxfYmluZGluZycsICctaW1hZScsICc8aW5maWxlLm1hZT4nLCAnLW9tYWUnLCAnPG91dGZpbGUubWFlPic=

> <r_lp_tautomer_probability>
0.5

> <r_epik_Ionization_Penalty>
0.00151643

> <r_epik_Ionization_Penalty_Charging>
0.00146569

> <r_epik_Ionization_Penalty_Neutral>
5.07401e-05

> <r_epik_State_Penalty>
0.379573

> <r_epik_Charging_Adjusted_Penalty>
0.381038

> <i_epik_Tot_Q>
1

> <i_epik_Tot_abs_Q>
1

> <r_epik_Metal_State_Penalty>
0.378341

> <b_epik_Metal_Only>
0

> <s_lp_Force_Field>
OPLS_2005

> <r_lp_Energy>
2.04404

> <b_lp_Chiralities_Consistent>
1

> <s_lp_Variant>
AV-unprocessed.smi:3124-2

> <Gold.Version>
5.8.1

> <Gold.Id.Protein>
6NUR|6NUR_protein|mol2

> <Gold.PLP.Fitness>
32.0657

> <Gold.PLP.PLP>
-20.2297

> <Gold.PLP.part.hbond>
-2.9527

> <Gold.PLP.part.metal>
0.0000

> <Gold.PLP.part.buried>
-5.1644

> <Gold.PLP.part.nonpolar>
-12.5581

> <Gold.PLP.part.repulsive>
0.3294

> <Gold.PLP.ligand.clash>
0.0000

> <Gold.PLP.ligand.torsion>
0.0836

> <Gold.PLP.Chemscore.Hbond>
4.0000

> <Gold.PLP.Chemscore.CHOScore>
0.0000

> <Gold.PLP.Chemscore.Metal>
0.0000

> <Gold.Chemscore.Hbonds>
donor molecule, donor type, donor heavy atom, donor atom, acceptor molecule, acceptor atom, score
      L1  H     8    22       P1 10175  2.00
      L1  H     8    23       P1 10171  0.99
      L1  H    10    11       P1  7921  1.00

> <Gold.PLP.Chemscore.Internal.Correction>
0.0031

> <Gold.Rescore>
     Score         DG    S(hbond)    S(metal)    S(lipo)     H(rot)  DE(clash)    DE(int)     intcor
     15.59     -16.95       2.92        0.00      43.20       1.30       0.03       1.33       ----

> <Gold.Chemscore.Fitness>
15.5924

> <Gold.Chemscore.DG>
-16.9461

> <Gold.Chemscore.ZeroCoef>
-5.4800

> <Gold.Chemscore.Hbond>
2.9151

> <Gold.Chemscore.Metal>
0.0000

> <Gold.Chemscore.Lipo>
43.2003

> <Gold.Chemscore.Internal_Hbond>
0.0000

> <Gold.Chemscore.DEClash>
0.0270

> <Gold.Chemscore.DEInternal>
1.3267

> <Gold.Chemscore.Rot>
1.2987

> <Gold.Chemscore.Internal.Correction>
   9.000000E+99

> <Gold.Chemscore.Hbonds>
donor molecule, donor type, donor heavy atom, donor atom, acceptor molecule, acceptor atom, score
      L1  H     8    22       P1 10175  0.94
      L1  H     8    23       P1 10171  0.93
      L1  H    10    11       P1  7921  0.91

> <Gold.Chemscore.Hbond.Weighted>
-9.7363

> <Gold.Chemscore.Metal.Weighted>
-0.0000

> <Gold.Chemscore.Lipo.Weighted>
-5.0544

> <Gold.Chemscore.Internal_Hbond.Weighted>
0.0000

> <Gold.Chemscore.DEClash.Weighted>
0.0270

> <Gold.Chemscore.DEInternal.Weighted>
1.3267

> <Gold.Chemscore.Rot.Weighted>
3.3246

> <Gold.Chemscore.Internal.Correction.Weighted>
   9.000000E+99

> <Gold.Protein.RotatedTorsions>
[ 6907 6896 6895 6894 ] final -129.58 input  -60.11 | X-H torsion
[ 7974 7965 7964 7962 ] final -148.67 input  175.53 | X-H torsion
[ 8008 7997 7996 7995 ] final   64.19 input   59.86 | X-H torsion
[ 10167 10162 10161 10158 ] final -137.64 input  -65.29 | X-H torsion
[ 10718 10713 10712 10709 ] final  -10.16 input   66.30 | X-H torsion
[ 10763 10752 10751 10750 ] final  -47.24 input  -60.55 | X-H torsion
[ 11005 11000 10999 10996 ] final -126.08 input  -57.11 | X-H torsion

> <Gold.Protein.ActiveResidues>
 VAL166  LYS551  ARG553  GLY616  TRP617  ASP618  TYR619  PRO620  LYS621  CYS622 
 ASP623  PHE694  ASN695  SER759  ASP760  ASP761  ALA762  ILE779  LEU786  VAL792 
 PHE793  MET794  SER795  GLU796  ALA797  LYS798  CYS799  TRP800  GLU811  SER814 

> <Gold.Protein.RotatedAtoms>
  150.9302  133.6775  159.2812 H   0  0  0  0  0  0  0  0  0  0  0  0  # atno 6907 bound_to 6896
  151.4200  135.0995  159.9620 H   0  0  0  0  0  0  0  0  0  0  0  0  # atno 6908 bound_to 6896
  152.5022  133.8756  159.7375 H   0  0  0  0  0  0  0  0  0  0  0  0  # atno 6909 bound_to 6896
  144.8014  140.5165  143.5704 H   0  0  0  0  0  0  0  0  0  0  0  0  # atno 7974 bound_to 7965
  155.6421  140.3497  155.4718 H   0  0  0  0  0  0  0  0  0  0  0  0  # atno 8008 bound_to 7997
  155.9917  140.1195  157.0655 H   0  0  0  0  0  0  0  0  0  0  0  0  # atno 8009 bound_to 7997
  154.4221  140.1118  156.5561 H   0  0  0  0  0  0  0  0  0  0  0  0  # atno 8010 bound_to 7997
  139.8557  143.7141  152.2654 H   0  0  0  0  0  0  0  0  0  0  0  0  # atno 10167 bound_to 10162
  156.6776  130.5027  149.5981 H   0  0  0  0  0  0  0  0  0  0  0  0  # atno 10718 bound_to 10713
  154.0581  135.6622  153.4808 H   0  0  0  0  0  0  0  0  0  0  0  0  # atno 10763 bound_to 10752
  153.0437  135.5128  154.7686 H   0  0  0  0  0  0  0  0  0  0  0  0  # atno 10764 bound_to 10752
  154.6713  135.3030  154.9704 H   0  0  0  0  0  0  0  0  0  0  0  0  # atno 10765 bound_to 10752
  140.9710  134.0805  157.3869 H   0  0  0  0  0  0  0  0  0  0  0  0  # atno 11005 bound_to 11000
  145.5543  139.1477  143.3377 LP  0  0  0  0  0  0  0  0  0  0  0  0  # atno 17320 bound_to 7965
  146.2297  140.5680  142.8981 LP  0  0  0  0  0  0  0  0  0  0  0  0  # atno 17321 bound_to 7965
  139.7422  144.7556  151.0635 LP  0  0  0  0  0  0  0  0  0  0  0  0  # atno 17342 bound_to 10162
  140.7782  143.4959  150.9834 LP  0  0  0  0  0  0  0  0  0  0  0  0  # atno 17343 bound_to 10162
  156.1892  130.6549  151.1041 LP  0  0  0  0  0  0  0  0  0  0  0  0  # atno 17370 bound_to 10713
  157.7055  131.0758  150.6680 LP  0  0  0  0  0  0  0  0  0  0  0  0  # atno 17371 bound_to 10713
  139.8912  135.0117  156.6780 LP  0  0  0  0  0  0  0  0  0  0  0  0  # atno 17394 bound_to 11000
  140.7328  133.9044  155.8223 LP  0  0  0  0  0  0  0  0  0  0  0  0  # atno 17395 bound_to 11000

$$$$
