AV-unprocessed.smi:1251|AV-procd|sdf|5261|dock4
  -GOLD-   22720 4373D 1   1.00000     0.00000
 Structure written by MMmdl.
 38 39  0  0  0  0  0  0  0  0  2 V2000
  148.8576  135.4736  157.9560 C   0  0  0  0  0  0  0  0  0  0  0  0
  149.6829  134.5215  157.0834 C   0  0  0  0  0  0  0  0  0  0  0  0
  150.1285  135.1682  155.7644 C   0  0  0  0  0  0  0  0  0  0  0  0
  151.0987  136.2828  155.9721 C   0  0  0  0  0  0  0  0  0  0  0  0
  151.7547  136.8697  154.9678 N   0  0  0  0  0  0  0  0  0  0  0  0
  152.6170  137.8601  155.4153 N   0  0  0  0  0  0  0  0  0  0  0  0
  152.6194  137.9917  156.7493 C   0  0  0  0  0  0  0  0  0  0  0  0
  153.3822  138.8973  157.3834 N   0  5  0  0  0  0  0  0  0  0  0  0
  152.9872  139.3983  158.5761 C   0  0  0  0  0  0  0  0  0  0  0  0
  152.5564  138.7512  159.5335 O   0  0  0  0  0  0  0  0  0  0  0  0
  153.0996  140.7315  158.6629 N   0  0  0  0  0  0  0  0  0  0  0  0
  152.7462  141.5577  159.8153 C   0  0  1  0  0  0  0  0  0  0  0  0
  153.7079  141.2567  160.9783 C   0  0  0  0  0  0  0  0  0  0  0  0
  152.7799  143.0399  159.3968 C   0  0  2  0  0  0  0  0  0  0  0  0
  152.2667  144.0193  160.4520 C   0  0  0  0  0  0  0  0  0  0  0  0
  151.8593  145.2328  159.6333 C   0  0  0  0  0  0  0  0  0  0  0  0
  151.6867  144.6821  158.2148 C   0  0  0  0  0  0  0  0  0  0  0  0
  151.8793  143.2783  158.3252 O   0  0  0  0  0  0  0  0  0  0  0  0
  151.5172  136.8851  157.5670 S   0  0  0  0  0  0  0  0  0  0  0  0
  148.5491  134.9838  158.8799 H   0  0  0  0  0  0  0  0  0  0  0  0
  147.9574  135.8028  157.4365 H   0  0  0  0  0  0  0  0  0  0  0  0
  149.4333  136.3596  158.2249 H   0  0  0  0  0  0  0  0  0  0  0  0
  150.5589  134.1904  157.6422 H   0  0  0  0  0  0  0  0  0  0  0  0
  149.0951  133.6273  156.8718 H   0  0  0  0  0  0  0  0  0  0  0  0
  150.5868  134.4211  155.1152 H   0  0  0  0  0  0  0  0  0  0  0  0
  149.2633  135.5584  155.2278 H   0  0  0  0  0  0  0  0  0  0  0  0
  153.4532  141.2160  157.8511 H   0  0  0  0  0  0  0  0  0  0  0  0
  151.7299  141.3172  160.1324 H   0  0  0  0  0  0  0  0  0  0  0  0
  153.4405  141.8207  161.8716 H   0  0  0  0  0  0  0  0  0  0  0  0
  154.7361  141.5101  160.7181 H   0  0  0  0  0  0  0  0  0  0  0  0
  153.6845  140.1998  161.2456 H   0  0  0  0  0  0  0  0  0  0  0  0
  153.7860  143.3265  159.0836 H   0  0  0  0  0  0  0  0  0  0  0  0
  151.3908  143.6062  160.9542 H   0  0  0  0  0  0  0  0  0  0  0  0
  153.0129  144.2542  161.2114 H   0  0  0  0  0  0  0  0  0  0  0  0
  150.9418  145.6812  160.0154 H   0  0  0  0  0  0  0  0  0  0  0  0
  152.6392  145.9949  159.6506 H   0  0  0  0  0  0  0  0  0  0  0  0
  150.7039  144.9036  157.7983 H   0  0  0  0  0  0  0  0  0  0  0  0
  152.4413  145.0990  157.5467 H   0  0  0  0  0  0  0  0  0  0  0  0
  1  2  1  0  0  0  0
  1 20  1  0  0  0  0
  1 21  1  0  0  0  0
  1 22  1  0  0  0  0
  2  3  1  0  0  0  0
  2 23  1  0  0  0  0
  2 24  1  0  0  0  0
  3  4  1  0  0  0  0
  3 25  1  0  0  0  0
  3 26  1  0  0  0  0
  4 19  1  0  0  0  0
  4  5  2  0  0  0  0
  5  6  1  0  0  0  0
  6  7  2  0  0  0  0
  7  8  1  0  0  0  0
  7 19  1  0  0  0  0
  8  9  1  0  0  0  0
  9 10  2  0  0  0  0
  9 11  1  0  0  0  0
 11 12  1  0  0  0  0
 11 27  1  0  0  0  0
 12 13  1  0  0  0  0
 12 14  1  0  0  0  0
 12 28  1  0  0  0  0
 13 29  1  0  0  0  0
 13 30  1  0  0  0  0
 13 31  1  0  0  0  0
 14 18  1  0  0  0  0
 14 15  1  0  0  0  0
 14 32  1  0  0  0  0
 15 16  1  0  0  0  0
 15 33  1  0  0  0  0
 15 34  1  0  0  0  0
 16 17  1  0  0  0  0
 16 35  1  0  0  0  0
 16 36  1  0  0  0  0
 17 18  1  0  0  0  0
 17 37  1  0  0  0  0
 17 38  1  0  0  0  0
M  CHG  1   8  -1
M  END
> <s_m_source_file>
AV-unprocessed.smi

> <i_m_source_file_index>
1251

> <i_lp_mmshare_version>
43012

> <i_f3d_flags>
0

> <s_epik_input>
W0NIM11bQ0gyXVtDSDJdYzFubmMoczEpW05IXUMoPU8pW05IXVtDQEhdKFtDSDNdKVtDQEBIXTJbQ0gyXVtDSDJdW0NIMl1PMg==

> <s_epik_cmdline>
J2VwaWtfcHl0aG9uJywgJy1waCcsICc3LjAnLCAnLXRuJywgJzgnLCAnLW1hJywgJzIwMCcsICctbWV0YWxfYmluZGluZycsICctaW1hZScsICc8aW5maWxlLm1hZT4nLCAnLW9tYWUnLCAnPG91dGZpbGUubWFlPic=

> <r_lp_tautomer_probability>
1

> <r_epik_Ionization_Penalty>
4.22551

> <r_epik_Ionization_Penalty_Charging>
4.21437

> <r_epik_Ionization_Penalty_Neutral>
0.0111434

> <r_epik_State_Penalty>
4.21389

> <r_epik_Charging_Adjusted_Penalty>
8.42826

> <i_epik_Tot_Q>
-1

> <i_epik_Tot_abs_Q>
1

> <r_epik_Metal_State_Penalty>
0.69377

> <b_epik_Metal_Only>
1

> <s_lp_Force_Field>
OPLS_2005

> <r_lp_Energy>
12.2708

> <b_lp_Chiralities_Consistent>
1

> <s_lp_Variant>
AV-unprocessed.smi:1251-6

> <Gold.Version>
5.8.1

> <Gold.Id.Protein>
6NUR|6NUR_protein|mol2

> <Gold.PLP.Fitness>
42.3562

> <Gold.PLP.PLP>
-34.6890

> <Gold.PLP.part.hbond>
-2.8363

> <Gold.PLP.part.metal>
0.0000

> <Gold.PLP.part.buried>
-5.1749

> <Gold.PLP.part.nonpolar>
-26.9000

> <Gold.PLP.part.repulsive>
0.4540

> <Gold.PLP.ligand.clash>
0.0000

> <Gold.PLP.ligand.torsion>
0.7269

> <Gold.PLP.Chemscore.Hbond>
3.0000

> <Gold.PLP.Chemscore.CHOScore>
0.0000

> <Gold.PLP.Chemscore.Metal>
0.0000

> <Gold.Chemscore.Hbonds>
donor molecule, donor type, donor heavy atom, donor atom, acceptor molecule, acceptor atom, score
      P1  H  7997  8010       L1     8  2.00
      P1  H 10752 10763       L1     5  1.00

> <Gold.PLP.Chemscore.Internal.Correction>
0.1209

> <Gold.Rescore>
     Score         DG    S(hbond)    S(metal)    S(lipo)     H(rot)  DE(clash)    DE(int)     intcor
     14.11     -16.09       1.40        0.00      84.56       1.55       0.02       1.97       ----

> <Gold.Chemscore.Fitness>
14.1073

> <Gold.Chemscore.DG>
-16.0886

> <Gold.Chemscore.ZeroCoef>
-5.4800

> <Gold.Chemscore.Hbond>
1.3998

> <Gold.Chemscore.Metal>
0.0000

> <Gold.Chemscore.Lipo>
84.5571

> <Gold.Chemscore.Internal_Hbond>
0.0000

> <Gold.Chemscore.DEClash>
0.0156

> <Gold.Chemscore.DEInternal>
1.9657

> <Gold.Chemscore.Rot>
1.5469

> <Gold.Chemscore.Internal.Correction>
   9.000000E+99

> <Gold.Chemscore.Hbonds>
donor molecule, donor type, donor heavy atom, donor atom, acceptor molecule, acceptor atom, score
      P1  H  7997  8010       L1     8  0.25
      P1  H 10752 10763       L1     5  0.09

> <Gold.Chemscore.Hbond.Weighted>
-4.6754

> <Gold.Chemscore.Metal.Weighted>
-0.0000

> <Gold.Chemscore.Lipo.Weighted>
-9.8932

> <Gold.Chemscore.Internal_Hbond.Weighted>
0.0000

> <Gold.Chemscore.DEClash.Weighted>
0.0156

> <Gold.Chemscore.DEInternal.Weighted>
1.9657

> <Gold.Chemscore.Rot.Weighted>
3.9600

> <Gold.Chemscore.Internal.Correction.Weighted>
   9.000000E+99

> <Gold.Protein.RotatedTorsions>
[ 6907 6896 6895 6894 ] final -159.14 input  -60.11 | X-H torsion
[ 7974 7965 7964 7962 ] final    0.30 input  175.53 | X-H torsion
[ 8008 7997 7996 7995 ] final   37.46 input   59.86 | X-H torsion
[ 10167 10162 10161 10158 ] final  -93.08 input  -65.29 | X-H torsion
[ 10718 10713 10712 10709 ] final  -98.80 input   66.30 | X-H torsion
[ 10763 10752 10751 10750 ] final   55.79 input  -60.55 | X-H torsion
[ 11005 11000 10999 10996 ] final   11.16 input  -57.11 | X-H torsion

> <Gold.Protein.ActiveResidues>
 VAL166  LYS551  ARG553  GLY616  TRP617  ASP618  TYR619  PRO620  LYS621  CYS622 
 ASP623  PHE694  ASN695  SER759  ASP760  ASP761  ALA762  ILE779  LEU786  VAL792 
 PHE793  MET794  SER795  GLU796  ALA797  LYS798  CYS799  TRP800  GLU811  SER814 

> <Gold.Protein.RotatedAtoms>
  151.3290  133.4008  159.2660 H   0  0  0  0  0  0  0  0  0  0  0  0  # atno 6907 bound_to 6896
  150.9971  134.9293  159.7943 H   0  0  0  0  0  0  0  0  0  0  0  0  # atno 6908 bound_to 6896
  152.5264  134.3255  159.9216 H   0  0  0  0  0  0  0  0  0  0  0  0  # atno 6909 bound_to 6896
  146.2433  140.1159  142.8342 H   0  0  0  0  0  0  0  0  0  0  0  0  # atno 7974 bound_to 7965
  155.2041  140.3318  155.4338 H   0  0  0  0  0  0  0  0  0  0  0  0  # atno 8008 bound_to 7997
  156.2395  140.1888  156.7076 H   0  0  0  0  0  0  0  0  0  0  0  0  # atno 8009 bound_to 7997
  154.6121  140.0607  156.9493 H   0  0  0  0  0  0  0  0  0  0  0  0  # atno 8010 bound_to 7997
  140.3283  143.3009  151.9970 H   0  0  0  0  0  0  0  0  0  0  0  0  # atno 10167 bound_to 10162
  156.0117  130.5254  150.6576 H   0  0  0  0  0  0  0  0  0  0  0  0  # atno 10718 bound_to 10713
  152.9822  135.5698  154.5123 H   0  0  0  0  0  0  0  0  0  0  0  0  # atno 10763 bound_to 10752
  154.4625  135.2782  155.1704 H   0  0  0  0  0  0  0  0  0  0  0  0  # atno 10764 bound_to 10752
  154.3286  135.6254  153.5594 H   0  0  0  0  0  0  0  0  0  0  0  0  # atno 10765 bound_to 10752
  140.5064  134.0695  155.7806 H   0  0  0  0  0  0  0  0  0  0  0  0  # atno 11005 bound_to 11000
  145.0448  140.8973  143.5031 LP  0  0  0  0  0  0  0  0  0  0  0  0  # atno 17320 bound_to 7965
  145.1246  139.2671  143.5571 LP  0  0  0  0  0  0  0  0  0  0  0  0  # atno 17321 bound_to 7965
  139.4861  144.6256  151.7171 LP  0  0  0  0  0  0  0  0  0  0  0  0  # atno 17342 bound_to 10162
  140.5421  144.0563  150.6092 LP  0  0  0  0  0  0  0  0  0  0  0  0  # atno 17343 bound_to 10162
  157.4325  131.0851  151.1025 LP  0  0  0  0  0  0  0  0  0  0  0  0  # atno 17370 bound_to 10713
  157.1593  130.6218  149.5606 LP  0  0  0  0  0  0  0  0  0  0  0  0  # atno 17371 bound_to 10713
  141.1409  133.9140  157.2329 LP  0  0  0  0  0  0  0  0  0  0  0  0  # atno 17394 bound_to 11000
  139.9684  135.0135  156.9447 LP  0  0  0  0  0  0  0  0  0  0  0  0  # atno 17395 bound_to 11000

$$$$
