AV-unprocessed.smi:2098|AV-procd|sdf|8567|dock8
  -GOLD-   2272011293D 1   1.00000     0.00000
 Structure written by MMmdl.
 37 39  0  0  0  0  0  0  0  0  2 V2000
  150.0615  140.5309  154.2051 O   0  0  0  0  0  0  0  0  0  0  0  0
  149.7651  141.4004  155.2802 C   0  0  2  0  0  0  0  0  0  0  0  0
  151.0484  141.6188  156.0969 C   0  0  0  0  0  0  0  0  0  0  0  0
  150.9789  142.8879  156.7337 O   0  0  0  0  0  0  0  0  0  0  0  0
  151.4191  142.9899  158.0361 C   0  0  0  0  0  0  0  0  0  0  0  0
  151.2830  144.2473  158.6607 C   0  0  0  0  0  0  0  0  0  0  0  0
  151.7037  144.4414  159.9905 C   0  0  0  0  0  0  0  0  0  0  0  0
  152.2689  143.3739  160.7120 C   0  0  0  0  0  0  0  0  0  0  0  0
  152.6742  143.5583  161.9906 F   0  0  0  0  0  0  0  0  0  0  0  0
  152.4118  142.1143  160.1016 C   0  0  0  0  0  0  0  0  0  0  0  0
  151.9900  141.9200  158.7716 C   0  0  0  0  0  0  0  0  0  0  0  0
  148.6404  140.7854  156.1369 C   0  0  0  0  0  0  0  0  0  0  0  0
  147.2975  141.0693  155.6101 N   0  0  0  0  0  0  0  0  0  0  0  0
  146.7065  140.6347  154.4643 C   0  0  0  0  0  0  0  0  0  0  0  0
  145.4581  141.1759  154.4132 N   0  3  0  0  0  0  0  0  0  0  0  0
  145.2464  141.9673  155.5441 C   0  0  0  0  0  0  0  0  0  0  0  0
  144.1412  142.7159  155.9372 C   0  0  0  0  0  0  0  0  0  0  0  0
  144.2501  143.4111  157.1595 C   0  0  0  0  0  0  0  0  0  0  0  0
  145.4228  143.3457  157.9398 C   0  0  0  0  0  0  0  0  0  0  0  0
  146.5378  142.5851  157.5303 C   0  0  0  0  0  0  0  0  0  0  0  0
  146.4236  141.9020  156.3198 C   0  0  0  0  0  0  0  0  0  0  0  0
  149.2930  140.4589  153.6592 H   0  0  0  0  0  0  0  0  0  0  0  0
  149.4206  142.3542  154.8783 H   0  0  0  0  0  0  0  0  0  0  0  0
  151.1168  140.8506  156.8690 H   0  0  0  0  0  0  0  0  0  0  0  0
  151.9321  141.5333  155.4616 H   0  0  0  0  0  0  0  0  0  0  0  0
  150.8502  145.0725  158.1144 H   0  0  0  0  0  0  0  0  0  0  0  0
  151.5922  145.4093  160.4567 H   0  0  0  0  0  0  0  0  0  0  0  0
  152.8452  141.2939  160.6543 H   0  0  0  0  0  0  0  0  0  0  0  0
  152.1151  140.9391  158.3394 H   0  0  0  0  0  0  0  0  0  0  0  0
  148.7666  139.7079  156.2455 H   0  0  0  0  0  0  0  0  0  0  0  0
  148.6770  141.1983  157.1459 H   0  0  0  0  0  0  0  0  0  0  0  0
  147.1487  139.9799  153.7274 H   0  0  0  0  0  0  0  0  0  0  0  0
  143.2411  142.7662  155.3423 H   0  0  0  0  0  0  0  0  0  0  0  0
  143.4168  144.0047  157.5068 H   0  0  0  0  0  0  0  0  0  0  0  0
  145.4683  143.8890  158.8725 H   0  0  0  0  0  0  0  0  0  0  0  0
  147.4284  142.5376  158.1393 H   0  0  0  0  0  0  0  0  0  0  0  0
  144.8011  141.0150  153.6607 H   0  0  0  0  0  0  0  0  0  0  0  0
  1  2  1  0  0  0  0
  1 22  1  0  0  0  0
  2  3  1  0  0  0  0
  2 12  1  0  0  0  0
  2 23  1  0  0  0  0
  3  4  1  0  0  0  0
  3 24  1  0  0  0  0
  3 25  1  0  0  0  0
  4  5  1  0  0  0  0
  5 11  1  0  0  0  0
  5  6  2  0  0  0  0
  6  7  1  0  0  0  0
  6 26  1  0  0  0  0
  7  8  2  0  0  0  0
  7 27  1  0  0  0  0
  8  9  1  0  0  0  0
  8 10  1  0  0  0  0
 10 11  2  0  0  0  0
 10 28  1  0  0  0  0
 11 29  1  0  0  0  0
 12 13  1  0  0  0  0
 12 30  1  0  0  0  0
 12 31  1  0  0  0  0
 13 21  1  0  0  0  0
 13 14  1  0  0  0  0
 14 15  2  0  0  0  0
 14 32  1  0  0  0  0
 15 16  1  0  0  0  0
 15 37  1  0  0  0  0
 16 21  2  0  0  0  0
 16 17  1  0  0  0  0
 17 18  2  0  0  0  0
 17 33  1  0  0  0  0
 18 19  1  0  0  0  0
 18 34  1  0  0  0  0
 19 20  2  0  0  0  0
 19 35  1  0  0  0  0
 20 21  1  0  0  0  0
 20 36  1  0  0  0  0
M  CHG  1  15   1
M  END
> <s_m_source_file>
AV-unprocessed.smi

> <i_m_source_file_index>
2098

> <i_lp_mmshare_version>
43012

> <i_f3d_flags>
0

> <s_epik_input>
W2NIXTFbY0hdW2NIXVtjSF1jKGMxMiluKFtjSF1uMilbQ0gyXVtDQEhdKFtPSF0pW0NIMl1PYzNbY0hdW2NIXWMoRilbY0hdW2NIXTM=

> <s_epik_cmdline>
J2VwaWtfcHl0aG9uJywgJy1waCcsICc3LjAnLCAnLXRuJywgJzgnLCAnLW1hJywgJzIwMCcsICctbWV0YWxfYmluZGluZycsICctaW1hZScsICc8aW5maWxlLm1hZT4nLCAnLW9tYWUnLCAnPG91dGZpbGUubWFlPic=

> <r_lp_tautomer_probability>
1

> <r_epik_Ionization_Penalty>
1.3832

> <r_epik_Ionization_Penalty_Charging>
1.38319

> <r_epik_Ionization_Penalty_Neutral>
2.3993e-06

> <r_epik_State_Penalty>
1.46389

> <r_epik_Charging_Adjusted_Penalty>
2.84709

> <i_epik_Tot_Q>
1

> <i_epik_Tot_abs_Q>
1

> <r_epik_Metal_State_Penalty>
5.50438

> <b_epik_Metal_Only>
0

> <s_lp_Force_Field>
OPLS_2005

> <r_lp_Energy>
20.4389

> <b_lp_Chiralities_Consistent>
1

> <s_lp_Variant>
AV-unprocessed.smi:2098-3

> <Gold.Version>
5.8.1

> <Gold.Id.Protein>
6NUR|6NUR_protein|mol2

> <Gold.PLP.Fitness>
47.6781

> <Gold.PLP.PLP>
-41.1267

> <Gold.PLP.part.hbond>
-2.7400

> <Gold.PLP.part.metal>
0.0000

> <Gold.PLP.part.buried>
-6.9161

> <Gold.PLP.part.nonpolar>
-32.2447

> <Gold.PLP.part.repulsive>
0.1215

> <Gold.PLP.ligand.clash>
0.0000

> <Gold.PLP.ligand.torsion>
0.9337

> <Gold.PLP.Chemscore.Hbond>
2.8000

> <Gold.PLP.Chemscore.CHOScore>
0.0000

> <Gold.PLP.Chemscore.Metal>
0.0000

> <Gold.Chemscore.Hbonds>
donor molecule, donor type, donor heavy atom, donor atom, acceptor molecule, acceptor atom, score
      L1  H    15    37       P1 10175  2.00
      P1  H  7989  7998       L1     1  0.78

> <Gold.PLP.Chemscore.Internal.Correction>
0.0188

> <Gold.Rescore>
     Score         DG    S(hbond)    S(metal)    S(lipo)     H(rot)  DE(clash)    DE(int)     intcor
     15.06     -16.32       1.75        0.00      96.56       2.46       0.21       1.05       ----

> <Gold.Chemscore.Fitness>
15.0594

> <Gold.Chemscore.DG>
-16.3189

> <Gold.Chemscore.ZeroCoef>
-5.4800

> <Gold.Chemscore.Hbond>
1.7470

> <Gold.Chemscore.Metal>
0.0000

> <Gold.Chemscore.Lipo>
96.5588

> <Gold.Chemscore.Internal_Hbond>
0.0000

> <Gold.Chemscore.DEClash>
0.2143

> <Gold.Chemscore.DEInternal>
1.0451

> <Gold.Chemscore.Rot>
2.4584

> <Gold.Chemscore.Internal.Correction>
   9.000000E+99

> <Gold.Chemscore.Hbonds>
donor molecule, donor type, donor heavy atom, donor atom, acceptor molecule, acceptor atom, score
      L1  H    15    37       P1 10175  0.70
      P1  H  7989  7998       L1     1  0.64

> <Gold.Chemscore.Hbond.Weighted>
-5.8351

> <Gold.Chemscore.Metal.Weighted>
-0.0000

> <Gold.Chemscore.Lipo.Weighted>
-11.2974

> <Gold.Chemscore.Internal_Hbond.Weighted>
0.0000

> <Gold.Chemscore.DEClash.Weighted>
0.2143

> <Gold.Chemscore.DEInternal.Weighted>
1.0451

> <Gold.Chemscore.Rot.Weighted>
6.2936

> <Gold.Chemscore.Internal.Correction.Weighted>
   9.000000E+99

> <Gold.Protein.RotatedTorsions>
[ 6907 6896 6895 6894 ] final  -55.74 input  -60.11 | X-H torsion
[ 7974 7965 7964 7962 ] final -143.24 input  175.53 | X-H torsion
[ 8008 7997 7996 7995 ] final  -36.84 input   59.86 | X-H torsion
[ 10167 10162 10161 10158 ] final -155.17 input  -65.29 | X-H torsion
[ 10718 10713 10712 10709 ] final  171.72 input   66.30 | X-H torsion
[ 10763 10752 10751 10750 ] final   17.49 input  -60.55 | X-H torsion
[ 11005 11000 10999 10996 ] final -121.97 input  -57.11 | X-H torsion

> <Gold.Protein.ActiveResidues>
 VAL166  LYS551  ARG553  GLY616  TRP617  ASP618  TYR619  PRO620  LYS621  CYS622 
 ASP623  PHE694  ASN695  SER759  ASP760  ASP761  ALA762  ILE779  LEU786  VAL792 
 PHE793  MET794  SER795  GLU796  ALA797  LYS798  CYS799  TRP800  GLU811  SER814 

> <Gold.Protein.RotatedAtoms>
  150.8226  134.7442  159.6785 H   0  0  0  0  0  0  0  0  0  0  0  0  # atno 6907 bound_to 6896
  152.4340  134.5718  159.9933 H   0  0  0  0  0  0  0  0  0  0  0  0  # atno 6908 bound_to 6896
  151.5899  133.3330  159.3061 H   0  0  0  0  0  0  0  0  0  0  0  0  # atno 6909 bound_to 6896
  144.8384  140.5858  143.5469 H   0  0  0  0  0  0  0  0  0  0  0  0  # atno 7974 bound_to 7965
  154.4065  140.1620  156.2439 H   0  0  0  0  0  0  0  0  0  0  0  0  # atno 8008 bound_to 7997
  155.9177  140.3423  155.6125 H   0  0  0  0  0  0  0  0  0  0  0  0  # atno 8009 bound_to 7997
  155.7260  140.0774  157.2301 H   0  0  0  0  0  0  0  0  0  0  0  0  # atno 8010 bound_to 7997
  139.6953  143.9352  152.2404 H   0  0  0  0  0  0  0  0  0  0  0  0  # atno 10167 bound_to 10162
  156.9894  131.0143  151.2861 H   0  0  0  0  0  0  0  0  0  0  0  0  # atno 10718 bound_to 10713
  153.1334  135.6745  153.9142 H   0  0  0  0  0  0  0  0  0  0  0  0  # atno 10763 bound_to 10752
  153.8621  135.3080  155.3439 H   0  0  0  0  0  0  0  0  0  0  0  0  # atno 10764 bound_to 10752
  154.7727  135.4931  153.9763 H   0  0  0  0  0  0  0  0  0  0  0  0  # atno 10765 bound_to 10752
  141.0030  134.0375  157.3513 H   0  0  0  0  0  0  0  0  0  0  0  0  # atno 11005 bound_to 11000
  145.4747  139.1500  143.3795 LP  0  0  0  0  0  0  0  0  0  0  0  0  # atno 17320 bound_to 7965
  146.2679  140.4881  142.8826 LP  0  0  0  0  0  0  0  0  0  0  0  0  # atno 17321 bound_to 7965
  139.9179  144.6817  150.8492 LP  0  0  0  0  0  0  0  0  0  0  0  0  # atno 17342 bound_to 10162
  140.7694  143.3396  151.2237 LP  0  0  0  0  0  0  0  0  0  0  0  0  # atno 17343 bound_to 10162
  157.5470  130.8157  149.8098 LP  0  0  0  0  0  0  0  0  0  0  0  0  # atno 17370 bound_to 10713
  156.0213  130.3794  150.1953 LP  0  0  0  0  0  0  0  0  0  0  0  0  # atno 17371 bound_to 10713
  139.9048  135.0176  156.7438 LP  0  0  0  0  0  0  0  0  0  0  0  0  # atno 17394 bound_to 11000
  140.6858  133.9434  155.7937 LP  0  0  0  0  0  0  0  0  0  0  0  0  # atno 17395 bound_to 11000

$$$$
