AV-unprocessed.smi:1751|AV-procd|sdf|7057|dock8
  -GOLD-   22720 8273D 1   1.00000     0.00000
 Structure written by MMmdl.
 35 36  0  0  0  0  0  0  0  0  1 V2000
  150.4189  142.6629  157.1393 C   0  0  0  0  0  0  0  0  0  0  0  0
  151.0401  142.0277  156.0271 O   0  0  0  0  0  0  0  0  0  0  0  0
  150.3334  141.0559  155.3490 C   0  0  0  0  0  0  0  0  0  0  0  0
  148.9281  141.1450  155.3153 C   0  0  0  0  0  0  0  0  0  0  0  0
  148.2025  140.1520  154.6310 C   0  0  0  0  0  0  0  0  0  0  0  0
  148.8968  139.0976  154.0043 C   0  0  0  0  0  0  0  0  0  0  0  0
  148.1266  138.1192  153.3172 N   0  0  0  0  0  0  0  0  0  0  0  0
  146.7908  137.9936  153.2332 C   0  0  0  0  0  0  0  0  0  0  0  0
  145.9670  138.7380  153.7629 O   0  0  0  0  0  0  0  0  0  0  0  0
  146.4552  136.9380  152.4783 N   0  0  0  0  0  0  0  0  0  0  0  0
  145.0929  136.5036  152.1854 C   0  0  0  0  0  0  0  0  0  0  0  0
  145.0712  135.3400  151.1802 C   0  0  1  0  0  0  0  0  0  0  0  0
  146.0946  134.2362  151.4435 C   0  0  0  0  0  0  0  0  0  0  0  0
  145.4729  133.0703  150.7099 C   0  0  0  0  0  0  0  0  0  0  0  0
  143.9843  133.2795  150.9792 C   0  0  0  0  0  0  0  0  0  0  0  0
  143.8127  134.6748  151.2210 O   0  0  0  0  0  0  0  0  0  0  0  0
  150.3116  139.1042  154.0840 C   0  0  0  0  0  0  0  0  0  0  0  0
  151.0134  140.0538  154.7395 N   0  0  0  0  0  0  0  0  0  0  0  0
  151.0977  143.4077  157.5544 H   0  0  0  0  0  0  0  0  0  0  0  0
  150.1891  141.9472  157.9300 H   0  0  0  0  0  0  0  0  0  0  0  0
  149.5036  143.1780  156.8449 H   0  0  0  0  0  0  0  0  0  0  0  0
  148.4164  141.9594  155.8068 H   0  0  0  0  0  0  0  0  0  0  0  0
  147.1239  140.2006  154.5927 H   0  0  0  0  0  0  0  0  0  0  0  0
  148.6626  137.4503  152.7841 H   0  0  0  0  0  0  0  0  0  0  0  0
  147.1997  136.3851  152.0796 H   0  0  0  0  0  0  0  0  0  0  0  0
  144.5590  136.2323  153.0979 H   0  0  0  0  0  0  0  0  0  0  0  0
  144.5590  137.3556  151.7638 H   0  0  0  0  0  0  0  0  0  0  0  0
  145.2062  135.7209  150.1663 H   0  0  0  0  0  0  0  0  0  0  0  0
  147.0934  134.4846  151.0837 H   0  0  0  0  0  0  0  0  0  0  0  0
  146.1571  134.0160  152.5103 H   0  0  0  0  0  0  0  0  0  0  0  0
  145.6760  133.1524  149.6413 H   0  0  0  0  0  0  0  0  0  0  0  0
  145.8373  132.1020  151.0536 H   0  0  0  0  0  0  0  0  0  0  0  0
  143.3664  132.9432  150.1460 H   0  0  0  0  0  0  0  0  0  0  0  0
  143.6749  132.7338  151.8712 H   0  0  0  0  0  0  0  0  0  0  0  0
  150.9208  138.3528  153.6083 H   0  0  0  0  0  0  0  0  0  0  0  0
  1  2  1  0  0  0  0
  1 19  1  0  0  0  0
  1 20  1  0  0  0  0
  1 21  1  0  0  0  0
  2  3  1  0  0  0  0
  3 18  1  0  0  0  0
  3  4  2  0  0  0  0
  4  5  1  0  0  0  0
  4 22  1  0  0  0  0
  5  6  2  0  0  0  0
  5 23  1  0  0  0  0
  6  7  1  0  0  0  0
  6 17  1  0  0  0  0
  7  8  1  0  0  0  0
  7 24  1  0  0  0  0
  8  9  2  0  0  0  0
  8 10  1  0  0  0  0
 10 11  1  0  0  0  0
 10 25  1  0  0  0  0
 11 12  1  0  0  0  0
 11 26  1  0  0  0  0
 11 27  1  0  0  0  0
 12 16  1  0  0  0  0
 12 13  1  0  0  0  0
 12 28  1  0  0  0  0
 13 14  1  0  0  0  0
 13 29  1  0  0  0  0
 13 30  1  0  0  0  0
 14 15  1  0  0  0  0
 14 31  1  0  0  0  0
 14 32  1  0  0  0  0
 15 16  1  0  0  0  0
 15 33  1  0  0  0  0
 15 34  1  0  0  0  0
 17 18  2  0  0  0  0
 17 35  1  0  0  0  0
M  END
> <s_m_source_file>
AV-unprocessed.smi

> <i_m_source_file_index>
1751

> <i_lp_mmshare_version>
43012

> <i_f3d_flags>
0

> <s_epik_input>
W0NIM11PYzFbY0hdW2NIXWMoW2NIXW4xKVtOSF1DKD1PKVtOSF1bQ0gyXVtDQEBIXTJbQ0gyXVtDSDJdW0NIMl1PMg==

> <s_epik_cmdline>
J2VwaWtfcHl0aG9uJywgJy1waCcsICc3LjAnLCAnLXRuJywgJzgnLCAnLW1hJywgJzIwMCcsICctbWV0YWxfYmluZGluZycsICctaW1hZScsICc8aW5maWxlLm1hZT4nLCAnLW9tYWUnLCAnPG91dGZpbGUubWFlPic=

> <r_lp_tautomer_probability>
1

> <r_epik_Ionization_Penalty>
9.01694e-05

> <r_epik_Ionization_Penalty_Charging>
0

> <r_epik_Ionization_Penalty_Neutral>
9.01694e-05

> <r_epik_State_Penalty>
-0

> <r_epik_Charging_Adjusted_Penalty>
0

> <i_epik_Tot_Q>
0

> <i_epik_Tot_abs_Q>
0

> <r_epik_Metal_State_Penalty>
-0

> <b_epik_Metal_Only>
0

> <s_lp_Force_Field>
OPLS_2005

> <r_lp_Energy>
20.1941

> <b_lp_Chiralities_Consistent>
1

> <s_lp_Variant>
AV-unprocessed.smi:1751-2

> <Gold.Version>
5.8.1

> <Gold.Id.Protein>
6NUR|6NUR_protein|mol2

> <Gold.PLP.Fitness>
35.9831

> <Gold.PLP.PLP>
-28.5059

> <Gold.PLP.part.hbond>
-3.0783

> <Gold.PLP.part.metal>
0.0000

> <Gold.PLP.part.buried>
-3.4545

> <Gold.PLP.part.nonpolar>
-22.4897

> <Gold.PLP.part.repulsive>
0.5758

> <Gold.PLP.ligand.clash>
0.0000

> <Gold.PLP.ligand.torsion>
0.5290

> <Gold.PLP.Chemscore.Hbond>
2.8440

> <Gold.PLP.Chemscore.CHOScore>
0.0000

> <Gold.PLP.Chemscore.Metal>
0.0000

> <Gold.Chemscore.Hbonds>
donor molecule, donor type, donor heavy atom, donor atom, acceptor molecule, acceptor atom, score
      L1  H     7    24       P1  7948  1.00
      L1  H    10    25       P1  7948  0.93
      P1  H  7989  7998       L1    18  1.00

> <Gold.PLP.Chemscore.Internal.Correction>
0.0033

> <Gold.Rescore>
     Score         DG    S(hbond)    S(metal)    S(lipo)     H(rot)  DE(clash)    DE(int)     intcor
     13.42     -15.47       2.03        0.00      60.33       1.50       0.15       1.90       ----

> <Gold.Chemscore.Fitness>
13.4186

> <Gold.Chemscore.DG>
-15.4701

> <Gold.Chemscore.ZeroCoef>
-5.4800

> <Gold.Chemscore.Hbond>
2.0252

> <Gold.Chemscore.Metal>
0.0000

> <Gold.Chemscore.Lipo>
60.3283

> <Gold.Chemscore.Internal_Hbond>
0.0000

> <Gold.Chemscore.DEClash>
0.1533

> <Gold.Chemscore.DEInternal>
1.8982

> <Gold.Chemscore.Rot>
1.4971

> <Gold.Chemscore.Internal.Correction>
   9.000000E+99

> <Gold.Chemscore.Hbonds>
donor molecule, donor type, donor heavy atom, donor atom, acceptor molecule, acceptor atom, score
      L1  H     7    24       P1  7948  0.94
      L1  H    10    25       P1  7948  0.91
      P1  H  7989  7998       L1    18  0.08

> <Gold.Chemscore.Hbond.Weighted>
-6.7643

> <Gold.Chemscore.Metal.Weighted>
-0.0000

> <Gold.Chemscore.Lipo.Weighted>
-7.0584

> <Gold.Chemscore.Internal_Hbond.Weighted>
0.0000

> <Gold.Chemscore.DEClash.Weighted>
0.1533

> <Gold.Chemscore.DEInternal.Weighted>
1.8982

> <Gold.Chemscore.Rot.Weighted>
3.8326

> <Gold.Chemscore.Internal.Correction.Weighted>
   9.000000E+99

> <Gold.Protein.RotatedTorsions>
[ 6907 6896 6895 6894 ] final   86.32 input  -60.11 | X-H torsion
[ 7974 7965 7964 7962 ] final   42.24 input  175.53 | X-H torsion
[ 8008 7997 7996 7995 ] final  -58.14 input   59.86 | X-H torsion
[ 10167 10162 10161 10158 ] final -135.10 input  -65.29 | X-H torsion
[ 10718 10713 10712 10709 ] final   79.76 input   66.30 | X-H torsion
[ 10763 10752 10751 10750 ] final -112.98 input  -60.55 | X-H torsion
[ 11005 11000 10999 10996 ] final   18.40 input  -57.11 | X-H torsion

> <Gold.Protein.ActiveResidues>
 VAL166  LYS551  ARG553  GLY616  TRP617  ASP618  TYR619  PRO620  LYS621  CYS622 
 ASP623  PHE694  ASN695  SER759  ASP760  ASP761  ALA762  ILE779  LEU786  VAL792 
 PHE793  MET794  SER795  GLU796  ALA797  LYS798  CYS799  TRP800  GLU811  SER814 

> <Gold.Protein.RotatedAtoms>
  152.5392  134.2450  159.8876 H   0  0  0  0  0  0  0  0  0  0  0  0  # atno 6907 bound_to 6896
  151.2416  133.4390  159.2615 H   0  0  0  0  0  0  0  0  0  0  0  0  # atno 6908 bound_to 6896
  151.0621  134.9757  159.8322 H   0  0  0  0  0  0  0  0  0  0  0  0  # atno 6909 bound_to 6896
  146.0757  139.5323  142.9569 H   0  0  0  0  0  0  0  0  0  0  0  0  # atno 7974 bound_to 7965
  154.4296  140.1091  156.5910 H   0  0  0  0  0  0  0  0  0  0  0  0  # atno 8008 bound_to 7997
  155.6012  140.3493  155.4575 H   0  0  0  0  0  0  0  0  0  0  0  0  # atno 8009 bound_to 7997
  156.0172  140.1232  157.0384 H   0  0  0  0  0  0  0  0  0  0  0  0  # atno 8010 bound_to 7997
  139.8813  143.6836  152.2626 H   0  0  0  0  0  0  0  0  0  0  0  0  # atno 10167 bound_to 10162
  157.6786  130.9929  150.1979 H   0  0  0  0  0  0  0  0  0  0  0  0  # atno 10718 bound_to 10713
  154.8375  135.4471  154.1279 H   0  0  0  0  0  0  0  0  0  0  0  0  # atno 10763 bound_to 10752
  153.2497  135.6925  153.7699 H   0  0  0  0  0  0  0  0  0  0  0  0  # atno 10764 bound_to 10752
  153.7016  135.3371  155.3202 H   0  0  0  0  0  0  0  0  0  0  0  0  # atno 10765 bound_to 10752
  140.4252  134.1477  155.7676 H   0  0  0  0  0  0  0  0  0  0  0  0  # atno 11005 bound_to 11000
  145.6311  141.0304  143.1863 LP  0  0  0  0  0  0  0  0  0  0  0  0  # atno 17320 bound_to 7965
  144.7260  139.7875  143.7365 LP  0  0  0  0  0  0  0  0  0  0  0  0  # atno 17321 bound_to 7965
  139.7193  144.7605  151.0981 LP  0  0  0  0  0  0  0  0  0  0  0  0  # atno 17342 bound_to 10162
  140.7744  143.5228  150.9516 LP  0  0  0  0  0  0  0  0  0  0  0  0  # atno 17343 bound_to 10162
  156.2676  130.3718  149.8065 LP  0  0  0  0  0  0  0  0  0  0  0  0  # atno 17370 bound_to 10713
  156.5791  130.8458  151.3378 LP  0  0  0  0  0  0  0  0  0  0  0  0  # atno 17371 bound_to 10713
  141.1768  133.8497  157.1394 LP  0  0  0  0  0  0  0  0  0  0  0  0  # atno 17394 bound_to 11000
  140.0172  134.9962  157.0518 LP  0  0  0  0  0  0  0  0  0  0  0  0  # atno 17395 bound_to 11000

$$$$
