AV-unprocessed.smi:408|AV-procd|sdf|2504|dock8
  -GOLD-   2262022453D 1   1.00000     0.00000
 Structure written by MMmdl.
 40 41  0  0  0  0  0  0  0  0  2 V2000
  151.2506  145.5046  159.6615 C   0  0  0  0  0  0  0  0  0  0  0  0
  152.4120  144.5327  159.3955 C   0  0  0  0  0  0  0  0  0  0  0  0
  152.9558  144.7256  157.9723 C   0  0  0  0  0  0  0  0  0  0  0  0
  152.0025  143.0615  159.6319 C   0  0  0  0  0  0  0  0  0  0  0  0
  153.1580  142.0413  159.6157 C   0  0  0  0  0  0  0  0  0  0  0  0
  152.7455  140.7835  159.0039 N   0  0  0  0  0  0  0  0  0  0  0  0
  152.9320  139.5579  159.5194 C   0  0  0  0  0  0  0  0  0  0  0  0
  153.3948  139.3525  160.6412 O   0  0  0  0  0  0  0  0  0  0  0  0
  152.5630  138.3824  158.6123 C   0  0  0  0  0  0  0  0  0  0  0  0
  151.0920  138.1069  158.7292 C   0  0  0  0  0  0  0  0  0  0  0  0
  150.1820  138.0286  157.7060 C   0  0  0  0  0  0  0  0  0  0  0  0
  148.5997  137.5956  158.2841 S   0  0  0  0  0  0  0  0  0  0  0  0
  149.2268  137.5459  159.9315 C   0  0  0  0  0  0  0  0  0  0  0  0
  148.4953  137.2305  161.0156 N   0  5  0  0  0  0  0  0  0  0  0  0
  147.4243  136.3896  160.9738 C   0  0  0  0  0  0  0  0  0  0  0  0
  146.7905  136.1007  159.9600 O   0  0  0  0  0  0  0  0  0  0  0  0
  147.0230  135.8055  162.3001 C   0  0  0  0  0  0  0  0  0  0  0  0
  146.0334  134.6557  162.3175 C   0  0  0  0  0  0  0  0  0  0  0  0
  145.5893  136.0332  162.7362 C   0  0  0  0  0  0  0  0  0  0  0  0
  150.5243  137.8693  159.9831 N   0  0  0  0  0  0  0  0  0  0  0  0
  150.3846  145.2672  159.0429 H   0  0  0  0  0  0  0  0  0  0  0  0
  151.5405  146.5320  159.4410 H   0  0  0  0  0  0  0  0  0  0  0  0
  150.9361  145.4772  160.7045 H   0  0  0  0  0  0  0  0  0  0  0  0
  153.2255  144.7856  160.0758 H   0  0  0  0  0  0  0  0  0  0  0  0
  152.2051  144.4744  157.2227 H   0  0  0  0  0  0  0  0  0  0  0  0
  153.8283  144.0958  157.7968 H   0  0  0  0  0  0  0  0  0  0  0  0
  153.2614  145.7589  157.8048 H   0  0  0  0  0  0  0  0  0  0  0  0
  151.4757  142.9853  160.5839 H   0  0  0  0  0  0  0  0  0  0  0  0
  151.2781  142.7663  158.8713 H   0  0  0  0  0  0  0  0  0  0  0  0
  154.0418  142.4581  159.1314 H   0  0  0  0  0  0  0  0  0  0  0  0
  153.4561  141.8230  160.6412 H   0  0  0  0  0  0  0  0  0  0  0  0
  152.3538  140.8429  158.0753 H   0  0  0  0  0  0  0  0  0  0  0  0
  152.8358  138.6170  157.5826 H   0  0  0  0  0  0  0  0  0  0  0  0
  153.1464  137.5061  158.8971 H   0  0  0  0  0  0  0  0  0  0  0  0
  150.3503  138.1724  156.6494 H   0  0  0  0  0  0  0  0  0  0  0  0
  147.7900  135.7846  163.0725 H   0  0  0  0  0  0  0  0  0  0  0  0
  145.6478  134.2779  161.3724 H   0  0  0  0  0  0  0  0  0  0  0  0
  146.1657  133.9043  163.0931 H   0  0  0  0  0  0  0  0  0  0  0  0
  145.4242  136.2323  163.7919 H   0  0  0  0  0  0  0  0  0  0  0  0
  144.9306  136.5751  162.0598 H   0  0  0  0  0  0  0  0  0  0  0  0
  1  2  1  0  0  0  0
  1 21  1  0  0  0  0
  1 22  1  0  0  0  0
  1 23  1  0  0  0  0
  2  3  1  0  0  0  0
  2  4  1  0  0  0  0
  2 24  1  0  0  0  0
  3 25  1  0  0  0  0
  3 26  1  0  0  0  0
  3 27  1  0  0  0  0
  4  5  1  0  0  0  0
  4 28  1  0  0  0  0
  4 29  1  0  0  0  0
  5  6  1  0  0  0  0
  5 30  1  0  0  0  0
  5 31  1  0  0  0  0
  6  7  1  0  0  0  0
  6 32  1  0  0  0  0
  7  8  2  0  0  0  0
  7  9  1  0  0  0  0
  9 10  1  0  0  0  0
  9 33  1  0  0  0  0
  9 34  1  0  0  0  0
 10 20  1  0  0  0  0
 10 11  2  0  0  0  0
 11 12  1  0  0  0  0
 11 35  1  0  0  0  0
 12 13  1  0  0  0  0
 13 14  1  0  0  0  0
 13 20  2  0  0  0  0
 14 15  1  0  0  0  0
 15 16  2  0  0  0  0
 15 17  1  0  0  0  0
 17 19  1  0  0  0  0
 17 18  1  0  0  0  0
 17 36  1  0  0  0  0
 18 19  1  0  0  0  0
 18 37  1  0  0  0  0
 18 38  1  0  0  0  0
 19 39  1  0  0  0  0
 19 40  1  0  0  0  0
M  CHG  1  14  -1
M  END
> <s_m_source_file>
AV-unprocessed.smi

> <i_m_source_file_index>
408

> <i_lp_mmshare_version>
43012

> <i_f3d_flags>
0

> <s_epik_input>
W0NIM11bQ0hdKFtDSDNdKVtDSDJdW0NIMl1bTkhdQyg9TylbQ0gyXWMxW2NIXXNjKG4xKVtOSF1DKD1PKVtDSF0yW0NIMl1bQ0gyXTI=

> <s_epik_cmdline>
J2VwaWtfcHl0aG9uJywgJy1waCcsICc3LjAnLCAnLXRuJywgJzgnLCAnLW1hJywgJzIwMCcsICctbWV0YWxfYmluZGluZycsICctaW1hZScsICc8aW5maWxlLm1hZT4nLCAnLW9tYWUnLCAnPG91dGZpbGUubWFlPic=

> <r_lp_tautomer_probability>
1

> <r_epik_Ionization_Penalty>
5.55111

> <r_epik_Ionization_Penalty_Charging>
5.01898

> <r_epik_Ionization_Penalty_Neutral>
0.532133

> <r_epik_State_Penalty>
5.01885

> <r_epik_Charging_Adjusted_Penalty>
10.0378

> <i_epik_Tot_Q>
-1

> <i_epik_Tot_abs_Q>
1

> <r_epik_Metal_State_Penalty>
1.13336

> <b_epik_Metal_Only>
1

> <s_lp_Force_Field>
OPLS_2005

> <r_lp_Energy>
8.36317

> <b_lp_Chiralities_Consistent>
1

> <s_lp_Variant>
AV-unprocessed.smi:408-2

> <Gold.Version>
5.8.1

> <Gold.Id.Protein>
6NUR|6NUR_protein|mol2

> <Gold.PLP.Fitness>
44.0897

> <Gold.PLP.PLP>
-40.6347

> <Gold.PLP.part.hbond>
-1.8804

> <Gold.PLP.part.metal>
0.0000

> <Gold.PLP.part.buried>
-3.2757

> <Gold.PLP.part.nonpolar>
-35.6740

> <Gold.PLP.part.repulsive>
0.0997

> <Gold.PLP.ligand.clash>
0.0000

> <Gold.PLP.ligand.torsion>
1.1157

> <Gold.PLP.Chemscore.Hbond>
1.8560

> <Gold.PLP.Chemscore.CHOScore>
0.0000

> <Gold.PLP.Chemscore.Metal>
0.0000

> <Gold.Chemscore.Hbonds>
donor molecule, donor type, donor heavy atom, donor atom, acceptor molecule, acceptor atom, score
      P1  H  6931  6943       L1    14  1.22
      P1  H  6934  6947       L1    14  0.27

> <Gold.PLP.Chemscore.Internal.Correction>
0.1184

> <Gold.Rescore>
     Score         DG    S(hbond)    S(metal)    S(lipo)     H(rot)  DE(clash)    DE(int)     intcor
     11.95     -14.35       0.67        0.00      98.75       1.92       0.18       2.21       ----

> <Gold.Chemscore.Fitness>
11.9502

> <Gold.Chemscore.DG>
-14.3493

> <Gold.Chemscore.ZeroCoef>
-5.4800

> <Gold.Chemscore.Hbond>
0.6677

> <Gold.Chemscore.Metal>
0.0000

> <Gold.Chemscore.Lipo>
98.7523

> <Gold.Chemscore.Internal_Hbond>
0.0000

> <Gold.Chemscore.DEClash>
0.1842

> <Gold.Chemscore.DEInternal>
2.2149

> <Gold.Chemscore.Rot>
1.9198

> <Gold.Chemscore.Internal.Correction>
   9.000000E+99

> <Gold.Chemscore.Hbonds>
donor molecule, donor type, donor heavy atom, donor atom, acceptor molecule, acceptor atom, score
      P1  H  6931  6943       L1    14  0.09

> <Gold.Chemscore.Hbond.Weighted>
-2.2301

> <Gold.Chemscore.Metal.Weighted>
-0.0000

> <Gold.Chemscore.Lipo.Weighted>
-11.5540

> <Gold.Chemscore.Internal_Hbond.Weighted>
0.0000

> <Gold.Chemscore.DEClash.Weighted>
0.1842

> <Gold.Chemscore.DEInternal.Weighted>
2.2149

> <Gold.Chemscore.Rot.Weighted>
4.9148

> <Gold.Chemscore.Internal.Correction.Weighted>
   9.000000E+99

> <Gold.Protein.RotatedTorsions>
[ 6907 6896 6895 6894 ] final -121.05 input  -60.11 | X-H torsion
[ 7974 7965 7964 7962 ] final  -86.05 input  175.53 | X-H torsion
[ 8008 7997 7996 7995 ] final  -27.04 input   59.86 | X-H torsion
[ 10167 10162 10161 10158 ] final  161.18 input  -65.29 | X-H torsion
[ 10718 10713 10712 10709 ] final   41.20 input   66.30 | X-H torsion
[ 10763 10752 10751 10750 ] final -160.16 input  -60.55 | X-H torsion
[ 11005 11000 10999 10996 ] final   57.23 input  -57.11 | X-H torsion

> <Gold.Protein.ActiveResidues>
 VAL166  LYS551  ARG553  GLY616  TRP617  ASP618  TYR619  PRO620  LYS621  CYS622 
 ASP623  PHE694  ASN695  SER759  ASP760  ASP761  ALA762  ILE779  LEU786  VAL792 
 PHE793  MET794  SER795  GLU796  ALA797  LYS798  CYS799  TRP800  GLU811  SER814 

> <Gold.Protein.RotatedAtoms>
  150.8448  133.7879  159.3047 H   0  0  0  0  0  0  0  0  0  0  0  0  # atno 6907 bound_to 6896
  151.5569  135.1065  159.9973 H   0  0  0  0  0  0  0  0  0  0  0  0  # atno 6908 bound_to 6896
  152.4504  133.7575  159.6784 H   0  0  0  0  0  0  0  0  0  0  0  0  # atno 6909 bound_to 6896
  145.4851  140.9555  143.1843 H   0  0  0  0  0  0  0  0  0  0  0  0  # atno 7974 bound_to 7965
  154.4396  140.1883  156.0869 H   0  0  0  0  0  0  0  0  0  0  0  0  # atno 8008 bound_to 7997
  156.0395  140.3321  155.7202 H   0  0  0  0  0  0  0  0  0  0  0  0  # atno 8009 bound_to 7997
  155.5720  140.0613  157.2795 H   0  0  0  0  0  0  0  0  0  0  0  0  # atno 8010 bound_to 7997
  139.4847  144.4561  151.8766 H   0  0  0  0  0  0  0  0  0  0  0  0  # atno 10167 bound_to 10162
  157.3908  130.7805  149.7268 H   0  0  0  0  0  0  0  0  0  0  0  0  # atno 10718 bound_to 10713
  154.7414  135.3069  154.8722 H   0  0  0  0  0  0  0  0  0  0  0  0  # atno 10763 bound_to 10752
  153.9535  135.6761  153.4748 H   0  0  0  0  0  0  0  0  0  0  0  0  # atno 10764 bound_to 10752
  153.1012  135.4911  154.8795 H   0  0  0  0  0  0  0  0  0  0  0  0  # atno 10765 bound_to 10752
  140.0468  134.5794  155.9313 H   0  0  0  0  0  0  0  0  0  0  0  0  # atno 11005 bound_to 11000
  144.7866  139.6414  143.7131 LP  0  0  0  0  0  0  0  0  0  0  0  0  # atno 17320 bound_to 7965
  146.2318  139.5827  142.9550 LP  0  0  0  0  0  0  0  0  0  0  0  0  # atno 17321 bound_to 7965
  140.4021  144.2480  150.5892 LP  0  0  0  0  0  0  0  0  0  0  0  0  # atno 17342 bound_to 10162
  140.5047  143.2307  151.8625 LP  0  0  0  0  0  0  0  0  0  0  0  0  # atno 17343 bound_to 10162
  155.9798  130.4036  150.3566 LP  0  0  0  0  0  0  0  0  0  0  0  0  # atno 17370 bound_to 10713
  157.1682  131.0362  151.2808 LP  0  0  0  0  0  0  0  0  0  0  0  0  # atno 17371 bound_to 10713
  141.1911  133.6570  156.5440 LP  0  0  0  0  0  0  0  0  0  0  0  0  # atno 17394 bound_to 11000
  140.3981  134.7381  157.4763 LP  0  0  0  0  0  0  0  0  0  0  0  0  # atno 17395 bound_to 11000

$$$$
