#       Name:                AV-unprocessed.smi:927
#       Creating user name   scv26
#       Creation time:       Fri Mar 27 02:09:22 2020


#       File generated by GOLD software.
#

@<TRIPOS>MOLECULE
AV-unprocessed.smi:927
    24    24     1
SMALL
NO_CHARGES


@<TRIPOS>ATOM
      1 ****        -1.9765   2.3766   0.0472 N.4            1 S1                 1.0000
      2 ****        -1.4509   1.0065  -0.0876 C.3            1 S1                 0.0000
      3 ****         0.0784   0.9610   0.0807 C.3            1 S1                 0.0000
      4 ****         0.6723   1.7305  -0.9469 O.3            1 S1                 0.0000
      5 ****         0.5900  -0.4710   0.0782 C.ar           1 S1                 0.0000
      6 ****         0.9672  -1.0983   1.2842 C.ar           1 S1                 0.0000
      7 ****         1.4308  -2.4285   1.2361 C.ar           1 S1                 0.0000
      8 ****         1.5310  -3.1376   0.0917 N.ar           1 S1                 0.0000
      9 ****         1.1671  -2.5339  -1.0597 C.ar           1 S1                 0.0000
     10 ****         0.6906  -1.2091  -1.1213 C.ar           1 S1                 0.0000
     11 ****        -2.9792   2.3682  -0.0735 H              1 S1                 0.0000
     12 ****        -1.5563   2.9634  -0.6598 H              1 S1                 0.0000
     13 ****        -1.9291   0.3866   0.6717 H              1 S1                 0.0000
     14 ****        -1.7462   0.6058  -1.0583 H              1 S1                 0.0000
     15 ****         0.3508   1.4228   1.0311 H              1 S1                 0.0000
     16 ****         1.6090   1.7321  -0.8168 H              1 S1                 0.0000
     17 ****         0.9053  -0.5771   2.2284 H              1 S1                 0.0000
     18 ****         1.7276  -2.9365   2.1417 H              1 S1                 0.0000
     19 ****         1.2565  -3.1247  -1.9594 H              1 S1                 0.0000
     20 ****         0.4097  -0.7747  -2.0696 H              1 S1                 0.0000
     21 ****        -1.7487   2.7383   0.9622 H              1 S1                 0.0000
     22 ****         0.3250   2.6675  -0.9105 LP             1 S1                 0.0000
     23 ****         0.4560   1.3292  -1.8369 LP             1 S1                 0.0000
     24 ****         1.8643  -4.0804   0.0967 LP             1 S1                 0.0000
@<TRIPOS>BOND
    1    1    2 1     
    2    1   11 1     
    3    1   12 1     
    4    1   21 1     
    5    2    3 1     
    6    2   13 1     
    7    2   14 1     
    8    3    4 1     
    9    3    5 1     
   10    3   15 1     
   11    4   16 1     
   12    5   10 ar    
   13    5    6 ar    
   14    6    7 ar    
   15    6   17 1     
   16    7    8 ar    
   17    7   18 1     
   18    8    9 ar    
   19    9   10 ar    
   20    9   19 1     
   21   10   20 1     
   22    4   22 1     
   23    4   23 1     
   24    8   24 1     
@<TRIPOS>SUBSTRUCTURE
      1 S1             1
@<TRIPOS>SET
LONE_PAIRS      STATIC     ATOMS    <user>   **** ""
3 22 23 24
DONOR_HYDROGENS      STATIC     ATOMS    <user>   **** ""
4 11 12 21 16
ATOM$BLUE        STATIC     ATOMS    COLORGROUP SYSTEM
3 22 23 24
ATOM$RED        STATIC     ATOMS    COLORGROUP SYSTEM
4 11 12 21 16
