AV-unprocessed.smi:1413|AV-procd|sdf|5752|dock7
  -GOLD-   22720 5393D 1   1.00000     0.00000
 Structure written by MMmdl.
 53 55  0  0  0  0  0  0  0  0  1 V2000
  151.8198  144.4585  157.9444 C   0  0  0  0  0  0  0  0  0  0  0  0
  152.3249  143.0435  158.2446 C   0  0  2  0  0  0  0  0  0  0  0  0
  151.5482  141.9764  157.4520 C   0  0  0  0  0  0  0  0  0  0  0  0
  151.9836  140.6450  157.8488 N   0  0  0  0  0  0  0  0  0  0  0  0
  151.4402  139.6258  157.0541 C   0  0  0  0  0  0  0  0  0  0  0  0
  151.8227  139.5378  155.7000 C   0  0  0  0  0  0  0  0  0  0  0  0
  151.2756  138.5112  154.9076 C   0  0  0  0  0  0  0  0  0  0  0  0
  150.3554  137.6134  155.4848 C   0  0  0  0  0  0  0  0  0  0  0  0
  149.8355  136.5721  154.6700 N   0  0  0  0  0  0  0  0  0  0  0  0
  149.3745  135.3686  155.0504 C   0  0  0  0  0  0  0  0  0  0  0  0
  149.2884  134.9781  156.2144 O   0  0  0  0  0  0  0  0  0  0  0  0
  148.9881  134.6444  153.9900 N   0  0  0  0  0  0  0  0  0  0  0  0
  148.3795  133.3167  154.0356 C   0  0  2  0  0  0  0  0  0  0  0  0
  149.4218  132.3110  154.5483 C   0  0  0  0  0  0  0  0  0  0  0  0
  147.8489  132.9521  152.6351 C   0  0  1  0  0  0  0  0  0  0  0  0
  146.9497  131.7126  152.5905 C   0  0  0  0  0  0  0  0  0  0  0  0
  145.9900  131.9863  151.4400 C   0  0  0  0  0  0  0  0  0  0  0  0
  146.2988  133.4262  151.0290 C   0  0  0  0  0  0  0  0  0  0  0  0
  146.9880  133.9687  152.1436 O   0  0  0  0  0  0  0  0  0  0  0  0
  150.0410  137.7812  156.8552 C   0  0  0  0  0  0  0  0  0  0  0  0
  150.5659  138.7614  157.6215 N   0  0  0  0  0  0  0  0  0  0  0  0
  151.8380  140.4191  159.2817 C   0  0  0  0  0  0  0  0  0  0  0  0
  152.5796  141.5071  160.0837 C   0  0  1  0  0  0  0  0  0  0  0  0
  154.1101  141.3458  160.0673 C   0  0  0  0  0  0  0  0  0  0  0  0
  152.1703  142.8056  159.6446 O   0  0  0  0  0  0  0  0  0  0  0  0
  151.9242  144.6962  156.8854 H   0  0  0  0  0  0  0  0  0  0  0  0
  152.3837  145.2017  158.5087 H   0  0  0  0  0  0  0  0  0  0  0  0
  150.7676  144.5663  158.2098 H   0  0  0  0  0  0  0  0  0  0  0  0
  153.3816  142.9986  157.9799 H   0  0  0  0  0  0  0  0  0  0  0  0
  150.4772  142.0801  157.6341 H   0  0  0  0  0  0  0  0  0  0  0  0
  151.7083  142.1135  156.3817 H   0  0  0  0  0  0  0  0  0  0  0  0
  152.5254  140.2402  155.2761 H   0  0  0  0  0  0  0  0  0  0  0  0
  151.5584  138.4192  153.8690 H   0  0  0  0  0  0  0  0  0  0  0  0
  149.7531  136.7894  153.6877 H   0  0  0  0  0  0  0  0  0  0  0  0
  149.0948  135.0573  153.0752 H   0  0  0  0  0  0  0  0  0  0  0  0
  147.5408  133.3097  154.7339 H   0  0  0  0  0  0  0  0  0  0  0  0
  148.9985  131.3103  154.6356 H   0  0  0  0  0  0  0  0  0  0  0  0
  149.7875  132.5953  155.5356 H   0  0  0  0  0  0  0  0  0  0  0  0
  150.2809  132.2517  153.8792 H   0  0  0  0  0  0  0  0  0  0  0  0
  148.6778  132.8302  151.9346 H   0  0  0  0  0  0  0  0  0  0  0  0
  147.5219  130.7948  152.4505 H   0  0  0  0  0  0  0  0  0  0  0  0
  146.3841  131.6149  153.5181 H   0  0  0  0  0  0  0  0  0  0  0  0
  146.1350  131.2971  150.6076 H   0  0  0  0  0  0  0  0  0  0  0  0
  144.9580  131.8906  151.7793 H   0  0  0  0  0  0  0  0  0  0  0  0
  146.9544  133.4466  150.1570 H   0  0  0  0  0  0  0  0  0  0  0  0
  145.4019  134.0002  150.7958 H   0  0  0  0  0  0  0  0  0  0  0  0
  149.3735  137.1110  157.3741 H   0  0  0  0  0  0  0  0  0  0  0  0
  150.7789  140.4372  159.5430 H   0  0  0  0  0  0  0  0  0  0  0  0
  152.2143  139.4298  159.5449 H   0  0  0  0  0  0  0  0  0  0  0  0
  152.2653  141.4247  161.1245 H   0  0  0  0  0  0  0  0  0  0  0  0
  154.4027  140.4000  160.5242 H   0  0  0  0  0  0  0  0  0  0  0  0
  154.5915  142.1464  160.6294 H   0  0  0  0  0  0  0  0  0  0  0  0
  154.5165  141.3549  159.0563 H   0  0  0  0  0  0  0  0  0  0  0  0
  1  2  1  0  0  0  0
  1 26  1  0  0  0  0
  1 27  1  0  0  0  0
  1 28  1  0  0  0  0
  2 25  1  0  0  0  0
  2  3  1  0  0  0  0
  2 29  1  0  0  0  0
  3  4  1  0  0  0  0
  3 30  1  0  0  0  0
  3 31  1  0  0  0  0
  4  5  1  0  0  0  0
  4 22  1  0  0  0  0
  5 21  1  0  0  0  0
  5  6  2  0  0  0  0
  6  7  1  0  0  0  0
  6 32  1  0  0  0  0
  7  8  2  0  0  0  0
  7 33  1  0  0  0  0
  8  9  1  0  0  0  0
  8 20  1  0  0  0  0
  9 10  1  0  0  0  0
  9 34  1  0  0  0  0
 10 11  2  0  0  0  0
 10 12  1  0  0  0  0
 12 13  1  0  0  0  0
 12 35  1  0  0  0  0
 13 14  1  0  0  0  0
 13 15  1  0  0  0  0
 13 36  1  0  0  0  0
 14 37  1  0  0  0  0
 14 38  1  0  0  0  0
 14 39  1  0  0  0  0
 15 19  1  0  0  0  0
 15 16  1  0  0  0  0
 15 40  1  0  0  0  0
 16 17  1  0  0  0  0
 16 41  1  0  0  0  0
 16 42  1  0  0  0  0
 17 18  1  0  0  0  0
 17 43  1  0  0  0  0
 17 44  1  0  0  0  0
 18 19  1  0  0  0  0
 18 45  1  0  0  0  0
 18 46  1  0  0  0  0
 20 21  2  0  0  0  0
 20 47  1  0  0  0  0
 22 23  1  0  0  0  0
 22 48  1  0  0  0  0
 22 49  1  0  0  0  0
 23 24  1  0  0  0  0
 23 25  1  0  0  0  0
 23 50  1  0  0  0  0
 24 51  1  0  0  0  0
 24 52  1  0  0  0  0
 24 53  1  0  0  0  0
M  END
> <s_m_source_file>
AV-unprocessed.smi

> <i_m_source_file_index>
1413

> <i_lp_mmshare_version>
43012

> <i_f3d_flags>
0

> <s_epik_input>
W0NIM11bQ0BASF0xW0NIMl1OKFtDSDJdW0NASF0oTzEpW0NIM10pYzJbY0hdW2NIXWMoW2NIXW4yKVtOSF1DKD1PKVtOSF1bQ0BIXShbQ0gzXSlbQ0BASF0zW0NIMl1bQ0gyXVtDSDJdTzM=

> <s_epik_cmdline>
J2VwaWtfcHl0aG9uJywgJy1waCcsICc3LjAnLCAnLXRuJywgJzgnLCAnLW1hJywgJzIwMCcsICctbWV0YWxfYmluZGluZycsICctaW1hZScsICc8aW5maWxlLm1hZT4nLCAnLW9tYWUnLCAnPG91dGZpbGUubWFlPic=

> <r_lp_tautomer_probability>
1

> <r_epik_Ionization_Penalty>
0.00271172

> <r_epik_Ionization_Penalty_Charging>
0

> <r_epik_Ionization_Penalty_Neutral>
0.00271172

> <r_epik_State_Penalty>
0.00186503

> <r_epik_Charging_Adjusted_Penalty>
0.00186503

> <i_epik_Tot_Q>
0

> <i_epik_Tot_abs_Q>
0

> <r_epik_Metal_State_Penalty>
-0

> <b_epik_Metal_Only>
0

> <s_lp_Force_Field>
OPLS_2005

> <r_lp_Energy>
38.8739

> <b_lp_Chiralities_Consistent>
1

> <s_lp_Variant>
AV-unprocessed.smi:1413-5

> <Gold.Version>
5.8.1

> <Gold.Id.Protein>
6NUR|6NUR_protein|mol2

> <Gold.PLP.Fitness>
48.6246

> <Gold.PLP.PLP>
-43.7869

> <Gold.PLP.part.hbond>
-2.0000

> <Gold.PLP.part.metal>
0.0000

> <Gold.PLP.part.buried>
-6.4215

> <Gold.PLP.part.nonpolar>
-35.9486

> <Gold.PLP.part.repulsive>
0.3075

> <Gold.PLP.ligand.clash>
0.0000

> <Gold.PLP.ligand.torsion>
0.5701

> <Gold.PLP.Chemscore.Hbond>
1.9516

> <Gold.PLP.Chemscore.CHOScore>
0.0000

> <Gold.PLP.Chemscore.Metal>
0.0000

> <Gold.Chemscore.Hbonds>
donor molecule, donor type, donor heavy atom, donor atom, acceptor molecule, acceptor atom, score
      L1  H     9    34       P1  7948  0.94
      L1  H    12    35       P1  7948  0.75

> <Gold.PLP.Chemscore.Internal.Correction>
0.1231

> <Gold.Rescore>
     Score         DG    S(hbond)    S(metal)    S(lipo)     H(rot)  DE(clash)    DE(int)     intcor
     18.74     -20.34       1.67        0.00     108.69       1.35       0.07       1.53       ----

> <Gold.Chemscore.Fitness>
18.7396

> <Gold.Chemscore.DG>
-20.3367

> <Gold.Chemscore.ZeroCoef>
-5.4800

> <Gold.Chemscore.Hbond>
1.6733

> <Gold.Chemscore.Metal>
0.0000

> <Gold.Chemscore.Lipo>
108.6860

> <Gold.Chemscore.Internal_Hbond>
0.0000

> <Gold.Chemscore.DEClash>
0.0673

> <Gold.Chemscore.DEInternal>
1.5298

> <Gold.Chemscore.Rot>
1.3471

> <Gold.Chemscore.Internal.Correction>
   9.000000E+99

> <Gold.Chemscore.Hbonds>
donor molecule, donor type, donor heavy atom, donor atom, acceptor molecule, acceptor atom, score
      L1  H     9    34       P1  7948  0.46
      L1  H    12    35       P1  7948  0.09

> <Gold.Chemscore.Hbond.Weighted>
-5.5889

> <Gold.Chemscore.Metal.Weighted>
-0.0000

> <Gold.Chemscore.Lipo.Weighted>
-12.7163

> <Gold.Chemscore.Internal_Hbond.Weighted>
0.0000

> <Gold.Chemscore.DEClash.Weighted>
0.0673

> <Gold.Chemscore.DEInternal.Weighted>
1.5298

> <Gold.Chemscore.Rot.Weighted>
3.4485

> <Gold.Chemscore.Internal.Correction.Weighted>
   9.000000E+99

> <Gold.Protein.RotatedTorsions>
[ 6907 6896 6895 6894 ] final -104.27 input  -60.11 | X-H torsion
[ 7974 7965 7964 7962 ] final  -78.26 input  175.53 | X-H torsion
[ 8008 7997 7996 7995 ] final -133.52 input   59.86 | X-H torsion
[ 10167 10162 10161 10158 ] final   12.83 input  -65.29 | X-H torsion
[ 10718 10713 10712 10709 ] final  -67.36 input   66.30 | X-H torsion
[ 10763 10752 10751 10750 ] final -171.62 input  -60.55 | X-H torsion
[ 11005 11000 10999 10996 ] final  119.44 input  -57.11 | X-H torsion

> <Gold.Protein.ActiveResidues>
 VAL166  LYS551  ARG553  GLY616  TRP617  ASP618  TYR619  PRO620  LYS621  CYS622 
 ASP623  PHE694  ASN695  SER759  ASP760  ASP761  ALA762  ILE779  LEU786  VAL792 
 PHE793  MET794  SER795  GLU796  ALA797  LYS798  CYS799  TRP800  GLU811  SER814 

> <Gold.Protein.RotatedAtoms>
  150.7279  134.0303  159.3730 H   0  0  0  0  0  0  0  0  0  0  0  0  # atno 6907 bound_to 6896
  151.8272  135.0631  160.0442 H   0  0  0  0  0  0  0  0  0  0  0  0  # atno 6908 bound_to 6896
  152.2960  133.5572  159.5624 H   0  0  0  0  0  0  0  0  0  0  0  0  # atno 6909 bound_to 6896
  145.5889  140.9433  143.1303 H   0  0  0  0  0  0  0  0  0  0  0  0  # atno 7974 bound_to 7965
  155.3469  140.0475  157.3045 H   0  0  0  0  0  0  0  0  0  0  0  0  # atno 8008 bound_to 7997
  154.5248  140.2237  155.8875 H   0  0  0  0  0  0  0  0  0  0  0  0  # atno 8009 bound_to 7997
  156.1727  140.3092  155.9009 H   0  0  0  0  0  0  0  0  0  0  0  0  # atno 8010 bound_to 7997
  140.6043  143.8541  150.6997 H   0  0  0  0  0  0  0  0  0  0  0  0  # atno 10167 bound_to 10162
  156.0562  130.4276  150.1843 H   0  0  0  0  0  0  0  0  0  0  0  0  # atno 10718 bound_to 10713
  154.6285  135.2883  155.0244 H   0  0  0  0  0  0  0  0  0  0  0  0  # atno 10763 bound_to 10752
  154.1413  135.6518  153.4946 H   0  0  0  0  0  0  0  0  0  0  0  0  # atno 10764 bound_to 10752
  153.0268  135.5333  154.7103 H   0  0  0  0  0  0  0  0  0  0  0  0  # atno 10765 bound_to 10752
  139.9146  134.9628  156.7655 H   0  0  0  0  0  0  0  0  0  0  0  0  # atno 11005 bound_to 11000
  144.7360  139.7584  143.7329 LP  0  0  0  0  0  0  0  0  0  0  0  0  # atno 17320 bound_to 7965
  146.1662  139.4794  142.9957 LP  0  0  0  0  0  0  0  0  0  0  0  0  # atno 17321 bound_to 7965
  140.2094  143.3895  152.1730 LP  0  0  0  0  0  0  0  0  0  0  0  0  # atno 17342 bound_to 10162
  139.5313  144.7162  151.5046 LP  0  0  0  0  0  0  0  0  0  0  0  0  # atno 17343 bound_to 10162
  156.9919  130.9896  151.3412 LP  0  0  0  0  0  0  0  0  0  0  0  0  # atno 17370 bound_to 10713
  157.5533  130.8197  149.8173 LP  0  0  0  0  0  0  0  0  0  0  0  0  # atno 17371 bound_to 10713
  140.6662  133.9600  155.7832 LP  0  0  0  0  0  0  0  0  0  0  0  0  # atno 17394 bound_to 11000
  141.0609  134.0348  157.3660 LP  0  0  0  0  0  0  0  0  0  0  0  0  # atno 17395 bound_to 11000

$$$$
