AV-unprocessed.smi:2243|AV-procd|sdf|9066|dock4
  -GOLD-   2272012273D 1   1.00000     0.00000
 Structure written by MMmdl.
 34 35  0  0  0  0  0  0  0  0  1 V2000
  153.7436  141.4754  161.2350 C   0  0  0  0  0  0  0  0  0  0  0  0
  152.6905  141.6636  160.1297 C   0  0  2  0  0  0  0  0  0  0  0  0
  153.0205  140.7507  159.0340 N   0  0  0  0  0  0  0  0  0  0  0  0
  152.1644  140.2327  158.1388 C   0  0  0  0  0  0  0  0  0  0  0  0
  150.9589  140.4999  158.1625 O   0  0  0  0  0  0  0  0  0  0  0  0
  152.8499  139.4122  157.2547 N   0  0  0  0  0  0  0  0  0  0  0  0
  152.3062  139.0889  156.1221 C   0  0  0  0  0  0  0  0  0  0  0  0
  152.8417  138.2884  155.1258 N   0  0  0  0  0  0  0  0  0  0  0  0
  151.9329  138.2116  154.1068 C   0  0  0  0  0  0  0  0  0  0  0  0
  150.8685  138.9329  154.4463 C   0  0  0  0  0  0  0  0  0  0  0  0
  151.0658  139.4840  155.6763 O   0  0  0  0  0  0  0  0  0  0  0  0
  152.5986  143.1236  159.6110 C   0  0  0  0  0  0  0  0  0  0  0  0
  151.9774  144.0822  160.6472 C   0  0  0  0  0  0  0  0  0  0  0  0
  151.8361  145.5034  160.0783 C   0  0  0  0  0  0  0  0  0  0  0  0
  151.0523  145.4778  158.8922 O   0  0  0  0  0  0  0  0  0  0  0  0
  151.6500  144.7059  157.8582 C   0  0  0  0  0  0  0  0  0  0  0  0
  151.7848  143.2409  158.3039 C   0  0  0  0  0  0  0  0  0  0  0  0
  153.4806  142.0190  162.1418 H   0  0  0  0  0  0  0  0  0  0  0  0
  154.7265  141.8181  160.9102 H   0  0  0  0  0  0  0  0  0  0  0  0
  153.8339  140.4245  161.5125 H   0  0  0  0  0  0  0  0  0  0  0  0
  151.7222  141.3970  160.5564 H   0  0  0  0  0  0  0  0  0  0  0  0
  153.9913  140.4857  158.9507 H   0  0  0  0  0  0  0  0  0  0  0  0
  153.7380  137.8237  155.1104 H   0  0  0  0  0  0  0  0  0  0  0  0
  152.1518  137.6322  153.2221 H   0  0  0  0  0  0  0  0  0  0  0  0
  149.9346  139.1436  153.9469 H   0  0  0  0  0  0  0  0  0  0  0  0
  153.6116  143.4711  159.4011 H   0  0  0  0  0  0  0  0  0  0  0  0
  150.9960  143.7146  160.9498 H   0  0  0  0  0  0  0  0  0  0  0  0
  152.5869  144.1260  161.5492 H   0  0  0  0  0  0  0  0  0  0  0  0
  151.3480  146.1505  160.8071 H   0  0  0  0  0  0  0  0  0  0  0  0
  152.8150  145.9393  159.8720 H   0  0  0  0  0  0  0  0  0  0  0  0
  151.0242  144.7683  156.9679 H   0  0  0  0  0  0  0  0  0  0  0  0
  152.6224  145.1233  157.5925 H   0  0  0  0  0  0  0  0  0  0  0  0
  152.2539  142.6708  157.5018 H   0  0  0  0  0  0  0  0  0  0  0  0
  150.7913  142.8142  158.4481 H   0  0  0  0  0  0  0  0  0  0  0  0
  1  2  1  0  0  0  0
  1 18  1  0  0  0  0
  1 19  1  0  0  0  0
  1 20  1  0  0  0  0
  2  3  1  0  0  0  0
  2 12  1  0  0  0  0
  2 21  1  0  0  0  0
  3 22  1  0  0  0  0
  3  4  1  0  0  0  0
  4  6  1  0  0  0  0
  4  5  2  0  0  0  0
  6  7  2  0  0  0  0
  7 11  1  0  0  0  0
  7  8  1  0  0  0  0
  8 23  1  0  0  0  0
  8  9  1  0  0  0  0
  9 24  1  0  0  0  0
  9 10  2  0  0  0  0
 10 25  1  0  0  0  0
 10 11  1  0  0  0  0
 12 17  1  0  0  0  0
 12 13  1  0  0  0  0
 12 26  1  0  0  0  0
 13 14  1  0  0  0  0
 13 27  1  0  0  0  0
 13 28  1  0  0  0  0
 14 15  1  0  0  0  0
 14 29  1  0  0  0  0
 14 30  1  0  0  0  0
 15 16  1  0  0  0  0
 16 17  1  0  0  0  0
 16 31  1  0  0  0  0
 16 32  1  0  0  0  0
 17 33  1  0  0  0  0
 17 34  1  0  0  0  0
M  END
> <s_m_source_file>
AV-unprocessed.smi

> <i_m_source_file_index>
2243

> <i_lp_mmshare_version>
43012

> <i_f3d_flags>
0

> <s_epik_input>
W0NIMl0xW0NIMl1PW0NIMl1bQ0gyXVtDSF0xW0NASF0oW0NIM10pW05IXUMoPU8pW05IXWMybltjSF1bY0hdbzI=

> <s_epik_cmdline>
J2VwaWtfcHl0aG9uJywgJy1waCcsICc3LjAnLCAnLXRuJywgJzgnLCAnLW1hJywgJzIwMCcsICctbWV0YWxfYmluZGluZycsICctaW1hZScsICc8aW5maWxlLm1hZT4nLCAnLW9tYWUnLCAnPG91dGZpbGUubWFlPic=

> <r_lp_tautomer_probability>
0.107061

> <r_epik_Ionization_Penalty>
1.44639

> <r_epik_Ionization_Penalty_Charging>
1.44602

> <r_epik_Ionization_Penalty_Neutral>
0.000368208

> <r_epik_State_Penalty>
2.61815

> <r_epik_Charging_Adjusted_Penalty>
4.06418

> <i_epik_Tot_Q>
0

> <i_epik_Tot_abs_Q>
0

> <r_epik_Metal_State_Penalty>
3.54171

> <b_epik_Metal_Only>
0

> <s_lp_Force_Field>
OPLS_2005

> <r_lp_Energy>
34.6671

> <b_lp_Chiralities_Consistent>
1

> <s_lp_Variant>
AV-unprocessed.smi:2243-5

> <Gold.Version>
5.8.1

> <Gold.Id.Protein>
6NUR|6NUR_protein|mol2

> <Gold.PLP.Fitness>
44.1470

> <Gold.PLP.PLP>
-39.2532

> <Gold.PLP.part.hbond>
-1.8335

> <Gold.PLP.part.metal>
0.0000

> <Gold.PLP.part.buried>
-6.7993

> <Gold.PLP.part.nonpolar>
-31.3563

> <Gold.PLP.part.repulsive>
0.4725

> <Gold.PLP.ligand.clash>
0.0000

> <Gold.PLP.ligand.torsion>
0.5579

> <Gold.PLP.Chemscore.Hbond>
1.0000

> <Gold.PLP.Chemscore.CHOScore>
0.9980

> <Gold.PLP.Chemscore.Metal>
0.0000

> <Gold.Chemscore.Hbonds>
donor molecule, donor type, donor heavy atom, donor atom, acceptor molecule, acceptor atom, score
      P1  H  7997  8010       L1     6  1.00
      L1  C     9    24       P1  7949  0.89

> <Gold.PLP.Chemscore.Internal.Correction>
0.0156

> <Gold.Rescore>
     Score         DG    S(hbond)    S(metal)    S(lipo)     H(rot)  DE(clash)    DE(int)     intcor
     13.98     -15.69       0.89        0.00      90.90       1.32       0.04       1.67       ----

> <Gold.Chemscore.Fitness>
13.9831

> <Gold.Chemscore.DG>
-15.6948

> <Gold.Chemscore.ZeroCoef>
-5.4800

> <Gold.Chemscore.Hbond>
0.8857

> <Gold.Chemscore.Metal>
0.0000

> <Gold.Chemscore.Lipo>
90.9038

> <Gold.Chemscore.Internal_Hbond>
0.0000

> <Gold.Chemscore.DEClash>
0.0392

> <Gold.Chemscore.DEInternal>
1.6725

> <Gold.Chemscore.Rot>
1.3201

> <Gold.Chemscore.Internal.Correction>
   9.000000E+99

> <Gold.Chemscore.Hbonds>
donor molecule, donor type, donor heavy atom, donor atom, acceptor molecule, acceptor atom, score
      P1  H  7997  8010       L1     6  0.23

> <Gold.Chemscore.Hbond.Weighted>
-2.9584

> <Gold.Chemscore.Metal.Weighted>
-0.0000

> <Gold.Chemscore.Lipo.Weighted>
-10.6357

> <Gold.Chemscore.Internal_Hbond.Weighted>
0.0000

> <Gold.Chemscore.DEClash.Weighted>
0.0392

> <Gold.Chemscore.DEInternal.Weighted>
1.6725

> <Gold.Chemscore.Rot.Weighted>
3.3794

> <Gold.Chemscore.Internal.Correction.Weighted>
   9.000000E+99

> <Gold.Protein.RotatedTorsions>
[ 6907 6896 6895 6894 ] final -177.92 input  -60.11 | X-H torsion
[ 7974 7965 7964 7962 ] final  139.80 input  175.53 | X-H torsion
[ 8008 7997 7996 7995 ] final   56.81 input   59.86 | X-H torsion
[ 10167 10162 10161 10158 ] final  -51.28 input  -65.29 | X-H torsion
[ 10718 10713 10712 10709 ] final   95.83 input   66.30 | X-H torsion
[ 10763 10752 10751 10750 ] final   50.97 input  -60.55 | X-H torsion
[ 11005 11000 10999 10996 ] final  -58.76 input  -57.11 | X-H torsion

> <Gold.Protein.ActiveResidues>
 VAL166  LYS551  ARG553  GLY616  TRP617  ASP618  TYR619  PRO620  LYS621  CYS622 
 ASP623  PHE694  ASN695  SER759  ASP760  ASP761  ALA762  ILE779  LEU786  VAL792 
 PHE793  MET794  SER795  GLU796  ALA797  LYS798  CYS799  TRP800  GLU811  SER814 

> <Gold.Protein.RotatedAtoms>
  151.6288  133.3333  159.3103 H   0  0  0  0  0  0  0  0  0  0  0  0  # atno 6907 bound_to 6896
  150.8067  134.7201  159.6662 H   0  0  0  0  0  0  0  0  0  0  0  0  # atno 6908 bound_to 6896
  152.4163  134.6040  160.0059 H   0  0  0  0  0  0  0  0  0  0  0  0  # atno 6909 bound_to 6896
  144.9245  139.5125  143.5647 H   0  0  0  0  0  0  0  0  0  0  0  0  # atno 7974 bound_to 7965
  155.5235  140.3480  155.4411 H   0  0  0  0  0  0  0  0  0  0  0  0  # atno 8008 bound_to 7997
  156.0768  140.1376  156.9788 H   0  0  0  0  0  0  0  0  0  0  0  0  # atno 8009 bound_to 7997
  154.4558  140.0954  156.6727 H   0  0  0  0  0  0  0  0  0  0  0  0  # atno 8010 bound_to 7997
  140.6596  143.2625  151.4481 H   0  0  0  0  0  0  0  0  0  0  0  0  # atno 10167 bound_to 10162
  157.6934  131.0558  150.4398 H   0  0  0  0  0  0  0  0  0  0  0  0  # atno 10718 bound_to 10713
  152.9785  135.5861  154.4338 H   0  0  0  0  0  0  0  0  0  0  0  0  # atno 10763 bound_to 10752
  154.3948  135.2768  155.2135 H   0  0  0  0  0  0  0  0  0  0  0  0  # atno 10764 bound_to 10752
  154.3991  135.6107  153.5941 H   0  0  0  0  0  0  0  0  0  0  0  0  # atno 10765 bound_to 10752
  141.1221  133.6613  156.4969 H   0  0  0  0  0  0  0  0  0  0  0  0  # atno 11005 bound_to 11000
  146.3220  139.8149  142.8938 LP  0  0  0  0  0  0  0  0  0  0  0  0  # atno 17320 bound_to 7965
  145.3242  141.0251  143.3483 LP  0  0  0  0  0  0  0  0  0  0  0  0  # atno 17321 bound_to 7965
  139.5826  144.1675  152.1988 LP  0  0  0  0  0  0  0  0  0  0  0  0  # atno 17342 bound_to 10162
  140.1005  144.5544  150.6992 LP  0  0  0  0  0  0  0  0  0  0  0  0  # atno 17343 bound_to 10162
  156.4758  130.4062  149.6491 LP  0  0  0  0  0  0  0  0  0  0  0  0  # atno 17370 bound_to 10713
  156.3555  130.7454  151.2419 LP  0  0  0  0  0  0  0  0  0  0  0  0  # atno 17371 bound_to 10713
  140.4477  134.6957  157.5024 LP  0  0  0  0  0  0  0  0  0  0  0  0  # atno 17394 bound_to 11000
  140.0186  134.6581  155.9272 LP  0  0  0  0  0  0  0  0  0  0  0  0  # atno 17395 bound_to 11000

$$$$
