#       Name:                AV-unprocessed.smi:1244
#       Creating user name   scv26
#       Creation time:       Fri Mar 27 04:33:26 2020


#       File generated by GOLD software.
#

@<TRIPOS>MOLECULE
AV-unprocessed.smi:1244
    61    63     1
SMALL
NO_CHARGES


@<TRIPOS>ATOM
      1 ****        -3.2097   5.4533   1.1864 C.3            1 S1                 0.0000
      2 ****        -3.9178   4.5998   0.1188 C.3            1 S1                 0.0000
      3 ****        -3.5112   3.1130   0.1482 C.3            1 S1                 0.0000
      4 ****        -2.1477   2.9175  -0.3995 N.4            1 S1                 1.0000
      5 ****        -1.7034   1.5034  -0.3217 C.3            1 S1                 0.0000
      6 ****        -0.1709   1.3651  -0.4008 C.3            1 S1                 0.0000
      7 ****         0.2537  -0.0244  -0.2744 N.am           1 S1                 0.0000
      8 ****         0.3798  -0.6848   0.8854 C.2            1 S1                 0.0000
      9 ****         0.1108  -0.1907   1.9802 O.2            1 S1                 0.0000
     10 ****         0.8507  -1.9283   0.6921 N.am           1 S1                 0.0000
     11 ****         1.1898  -2.8974   1.6789 C.ar           1 S1                 0.0000
     12 ****         0.4542  -3.0038   2.8873 C.ar           1 S1                 0.0000
     13 ****         0.8254  -3.9557   3.8554 C.ar           1 S1                 0.0000
     14 ****         1.9256  -4.7915   3.5998 C.ar           1 S1                 0.0000
     15 ****         2.5929  -4.6800   2.4329 N.pl3          1 S1                 1.0000
     16 ****         2.2751  -3.7946   1.4554 C.ar           1 S1                 0.0000
     17 ****         3.0594  -3.8022   0.2794 N.3            1 S1                 0.0000
     18 ****         4.2864  -4.5878   0.2144 C.3            1 S1                 0.0000
     19 ****         4.6511  -4.6296  -1.2670 C.3            1 S1                 0.0000
     20 ****         3.2823  -4.6778  -1.9394 C.3            1 S1                 0.0000
     21 ****         2.3941  -3.8334  -1.0192 C.3            1 S1                 0.0000
     22 ****        -2.0555   3.4966  -1.7612 C.3            1 S1                 0.0000
     23 ****        -2.4407   4.9865  -1.7381 C.3            1 S1                 0.0000
     24 ****        -2.4404   5.6023  -3.1417 C.3            1 S1                 0.0000
     25 ****        -3.7509   5.1305  -1.1960 O.3            1 S1                 0.0000
     26 ****        -3.4628   5.1067   2.1888 H              1 S1                 0.0000
     27 ****        -3.5145   6.4975   1.1140 H              1 S1                 0.0000
     28 ****        -2.1246   5.4143   1.0960 H              1 S1                 0.0000
     29 ****        -4.9859   4.6549   0.3317 H              1 S1                 0.0000
     30 ****        -3.5664   2.7343   1.1698 H              1 S1                 0.0000
     31 ****        -4.2175   2.5279  -0.4433 H              1 S1                 0.0000
     32 ****        -2.0382   1.0834   0.6279 H              1 S1                 0.0000
     33 ****        -2.1874   0.9182  -1.1054 H              1 S1                 0.0000
     34 ****         0.2029   1.7275  -1.3576 H              1 S1                 0.0000
     35 ****         0.3074   1.9730   0.3693 H              1 S1                 0.0000
     36 ****         0.4944  -0.5063  -1.1287 H              1 S1                 0.0000
     37 ****         1.1135  -2.1609  -0.2544 H              1 S1                 0.0000
     38 ****        -0.3964  -2.3696   3.0858 H              1 S1                 0.0000
     39 ****         0.2750  -4.0410   4.7809 H              1 S1                 0.0000
     40 ****         2.2860  -5.5462   4.2839 H              1 S1                 0.0000
     41 ****         5.0790  -4.1401   0.8144 H              1 S1                 0.0000
     42 ****         4.1101  -5.6017   0.5759 H              1 S1                 0.0000
     43 ****         5.1731  -3.7146  -1.5502 H              1 S1                 0.0000
     44 ****         5.2860  -5.4773  -1.5255 H              1 S1                 0.0000
     45 ****         3.2982  -4.3109  -2.9659 H              1 S1                 0.0000
     46 ****         2.9195  -5.7063  -1.9563 H              1 S1                 0.0000
     47 ****         1.3856  -4.2444  -0.9558 H              1 S1                 0.0000
     48 ****         2.3243  -2.8150  -1.4025 H              1 S1                 0.0000
     49 ****        -1.0427   3.3972  -2.1501 H              1 S1                 0.0000
     50 ****        -2.7121   2.9458  -2.4368 H              1 S1                 0.0000
     51 ****        -1.7259   5.5395  -1.1284 H              1 S1                 0.0000
     52 ****        -1.4558   5.5275  -3.6040 H              1 S1                 0.0000
     53 ****        -2.7092   6.6582  -3.1037 H              1 S1                 0.0000
     54 ****        -3.1554   5.1004  -3.7943 H              1 S1                 0.0000
     55 ****        -1.5261   3.4491   0.1933 H              1 S1                 0.0000
     56 ****         3.3814  -5.3073   2.2736 H              1 S1                 0.0000
     57 ****        -0.2211   0.7510   2.0358 LP             1 S1                 0.0000
     58 ****         0.2242  -0.7309   2.8141 LP             1 S1                 0.0000
     59 ****         3.3470  -2.8604   0.4534 LP             1 S1                 0.0000
     60 ****        -3.9701   6.1058  -1.1677 LP             1 S1                 0.0000
     61 ****        -4.3920   4.6622  -1.8039 LP             1 S1                 0.0000
@<TRIPOS>BOND
    1    1    2 1     
    2    1   26 1     
    3    1   27 1     
    4    1   28 1     
    5    2   25 1     
    6    2    3 1     
    7    2   29 1     
    8    3    4 1     
    9    3   30 1     
   10    3   31 1     
   11    4    5 1     
   12    4   22 1     
   13    4   55 1     
   14    5    6 1     
   15    5   32 1     
   16    5   33 1     
   17    6    7 1     
   18    6   34 1     
   19    6   35 1     
   20    7    8 am    
   21    7   36 1     
   22    8    9 2     
   23    8   10 am    
   24   10   11 1     
   25   10   37 1     
   26   11   16 ar    
   27   11   12 ar    
   28   12   13 ar    
   29   12   38 1     
   30   13   14 ar    
   31   13   39 1     
   32   14   15 ar    
   33   14   40 1     
   34   15   16 ar    
   35   15   56 1     
   36   16   17 1     
   37   17   21 1     
   38   17   18 1     
   39   18   19 1     
   40   18   41 1     
   41   18   42 1     
   42   19   20 1     
   43   19   43 1     
   44   19   44 1     
   45   20   21 1     
   46   20   45 1     
   47   20   46 1     
   48   21   47 1     
   49   21   48 1     
   50   22   23 1     
   51   22   49 1     
   52   22   50 1     
   53   23   24 1     
   54   23   25 1     
   55   23   51 1     
   56   24   52 1     
   57   24   53 1     
   58   24   54 1     
   59    9   57 1     
   60    9   58 1     
   61   17   59 1     
   62   25   60 1     
   63   25   61 1     
@<TRIPOS>SUBSTRUCTURE
      1 S1             1
@<TRIPOS>SET
LONE_PAIRS      STATIC     ATOMS    <user>   **** ""
5 57 58 59 60 61
DONOR_HYDROGENS      STATIC     ATOMS    <user>   **** ""
4 55 36 37 56
ATOM$BLUE        STATIC     ATOMS    COLORGROUP SYSTEM
5 57 58 59 60 61
ATOM$RED        STATIC     ATOMS    COLORGROUP SYSTEM
4 55 36 37 56
