AV-unprocessed.smi:1790|AV-procd|sdf|7217|dock3
  -GOLD-   22720 8453D 1   1.00000     0.00000
 Structure written by MMmdl.
 32 33  0  0  0  0  0  0  0  0  2 V2000
  155.0768  141.6830  163.3540 O   0  0  0  0  0  0  0  0  0  0  0  0
  155.1802  140.4908  163.0684 C   0  0  0  0  0  0  0  0  0  0  0  0
  155.8915  139.5539  164.0436 C   0  0  0  0  0  0  0  0  0  0  0  0
  155.9455  138.2521  163.4815 O   0  0  0  0  0  0  0  0  0  0  0  0
  154.8530  137.4412  163.8751 C   0  0  0  0  0  0  0  0  0  0  0  0
  155.2682  135.9879  163.7954 C   0  0  0  0  0  0  0  0  0  0  0  0
  154.6346  135.0604  162.7837 C   0  0  0  0  0  0  0  0  0  0  0  0
  154.3251  134.8971  164.2500 C   0  0  0  0  0  0  0  0  0  0  0  0
  154.6877  139.9036  161.9596 N   0  0  0  0  0  0  0  0  0  0  0  0
  153.9965  140.4636  160.8709 C   0  0  0  0  0  0  0  0  0  0  0  0
  153.3997  141.6882  160.8687 C   0  0  0  0  0  0  0  0  0  0  0  0
  152.7044  142.2156  159.7010 C   0  0  0  0  0  0  0  0  0  0  0  0
  152.0974  143.6062  159.6370 C   0  0  0  0  0  0  0  0  0  0  0  0
  152.1673  144.2148  160.8212 F   0  0  0  0  0  0  0  0  0  0  0  0
  152.7569  144.3488  158.7492 F   0  0  0  0  0  0  0  0  0  0  0  0
  150.8178  143.5533  159.2666 F   0  0  0  0  0  0  0  0  0  0  0  0
  152.7562  141.3507  158.6252 C   0  0  0  0  0  0  0  0  0  0  0  0
  153.3149  140.1233  158.5466 N   0  5  0  0  0  0  0  0  0  0  0  0
  153.9560  139.6368  159.6466 C   0  0  0  0  0  0  0  0  0  0  0  0
  154.4966  138.5302  159.6392 O   0  0  0  0  0  0  0  0  0  0  0  0
  156.8987  139.9228  164.2455 H   0  0  0  0  0  0  0  0  0  0  0  0
  155.3439  139.5407  164.9873 H   0  0  0  0  0  0  0  0  0  0  0  0
  154.5593  137.6720  164.8999 H   0  0  0  0  0  0  0  0  0  0  0  0
  153.9909  137.6158  163.2292 H   0  0  0  0  0  0  0  0  0  0  0  0
  156.3219  135.8195  164.0100 H   0  0  0  0  0  0  0  0  0  0  0  0
  153.8506  135.4648  162.1464 H   0  0  0  0  0  0  0  0  0  0  0  0
  155.2758  134.3153  162.3171 H   0  0  0  0  0  0  0  0  0  0  0  0
  154.7579  134.0404  164.7625 H   0  0  0  0  0  0  0  0  0  0  0  0
  153.3338  135.1913  164.5892 H   0  0  0  0  0  0  0  0  0  0  0  0
  154.8115  138.9032  161.8989 H   0  0  0  0  0  0  0  0  0  0  0  0
  153.4313  142.3236  161.7375 H   0  0  0  0  0  0  0  0  0  0  0  0
  152.2807  141.7002  157.6840 H   0  0  0  0  0  0  0  0  0  0  0  0
  1  2  2  0  0  0  0
  2  3  1  0  0  0  0
  2  9  1  0  0  0  0
  3  4  1  0  0  0  0
  3 21  1  0  0  0  0
  3 22  1  0  0  0  0
  4  5  1  0  0  0  0
  5  6  1  0  0  0  0
  5 23  1  0  0  0  0
  5 24  1  0  0  0  0
  6  8  1  0  0  0  0
  6  7  1  0  0  0  0
  6 25  1  0  0  0  0
  7  8  1  0  0  0  0
  7 26  1  0  0  0  0
  7 27  1  0  0  0  0
  8 28  1  0  0  0  0
  8 29  1  0  0  0  0
  9 10  1  0  0  0  0
  9 30  1  0  0  0  0
 10 19  1  0  0  0  0
 10 11  2  0  0  0  0
 11 12  1  0  0  0  0
 11 31  1  0  0  0  0
 12 13  1  0  0  0  0
 12 17  2  0  0  0  0
 13 14  1  0  0  0  0
 13 15  1  0  0  0  0
 13 16  1  0  0  0  0
 17 18  1  0  0  0  0
 17 32  1  0  0  0  0
 18 19  1  0  0  0  0
 19 20  2  0  0  0  0
M  CHG  1  18  -1
M  END
> <s_m_source_file>
AV-unprocessed.smi

> <i_m_source_file_index>
1790

> <i_lp_mmshare_version>
43012

> <i_f3d_flags>
0

> <s_epik_input>
W0NIMl0xW0NIMl1bQ0hdMVtDSDJdT1tDSDJdQyg9TylbTkhdYzJbY0hdYyhDKEYpKEYpRilbY0hdW25IXWMyPU8=

> <s_epik_cmdline>
J2VwaWtfcHl0aG9uJywgJy1waCcsICc3LjAnLCAnLXRuJywgJzgnLCAnLW1hJywgJzIwMCcsICctbWV0YWxfYmluZGluZycsICctaW1hZScsICc8aW5maWxlLm1hZT4nLCAnLW9tYWUnLCAnPG91dGZpbGUubWFlPic=

> <r_epik_Ionization_Penalty>
2.6027

> <r_epik_Ionization_Penalty_Charging>
0.0561891

> <r_epik_Ionization_Penalty_Neutral>
2.54651

> <r_epik_State_Penalty>
2.71477

> <r_epik_Charging_Adjusted_Penalty>
2.77096

> <i_epik_Tot_Q>
-1

> <i_epik_Tot_abs_Q>
1

> <r_epik_Metal_State_Penalty>
0.521168

> <b_epik_Metal_Only>
0

> <s_lp_Force_Field>
OPLS_2005

> <r_lp_Energy>
28.814

> <b_lp_Chiralities_Consistent>
1

> <s_lp_Variant>
AV-unprocessed.smi:1790-2

> <Gold.Version>
5.8.1

> <Gold.Id.Protein>
6NUR|6NUR_protein|mol2

> <Gold.PLP.Fitness>
47.1197

> <Gold.PLP.PLP>
-42.2160

> <Gold.PLP.part.hbond>
-1.8445

> <Gold.PLP.part.metal>
0.0000

> <Gold.PLP.part.buried>
-3.6160

> <Gold.PLP.part.nonpolar>
-34.6624

> <Gold.PLP.part.repulsive>
0.0000

> <Gold.PLP.ligand.clash>
0.0000

> <Gold.PLP.ligand.torsion>
0.8735

> <Gold.PLP.Chemscore.Hbond>
2.0000

> <Gold.PLP.Chemscore.CHOScore>
0.0000

> <Gold.PLP.Chemscore.Metal>
0.0000

> <Gold.Chemscore.Hbonds>
donor molecule, donor type, donor heavy atom, donor atom, acceptor molecule, acceptor atom, score
      P1  H  7997  8009       L1    18  1.98

> <Gold.PLP.Chemscore.Internal.Correction>
0.6508

> <Gold.Rescore>
     Score         DG    S(hbond)    S(metal)    S(lipo)     H(rot)  DE(clash)    DE(int)     intcor
      9.63     -12.89       0.56        0.00      87.43       1.83       1.39       1.86       ----

> <Gold.Chemscore.Fitness>
9.6343

> <Gold.Chemscore.DG>
-12.8883

> <Gold.Chemscore.ZeroCoef>
-5.4800

> <Gold.Chemscore.Hbond>
0.5601

> <Gold.Chemscore.Metal>
0.0000

> <Gold.Chemscore.Lipo>
87.4289

> <Gold.Chemscore.Internal_Hbond>
0.0000

> <Gold.Chemscore.DEClash>
1.3919

> <Gold.Chemscore.DEInternal>
1.8621

> <Gold.Chemscore.Rot>
1.8326

> <Gold.Chemscore.Internal.Correction>
   9.000000E+99

> <Gold.Chemscore.Hbonds>
donor molecule, donor type, donor heavy atom, donor atom, acceptor molecule, acceptor atom, score
      P1  H  7997  8009       L1    18  0.32

> <Gold.Chemscore.Hbond.Weighted>
-1.8707

> <Gold.Chemscore.Metal.Weighted>
-0.0000

> <Gold.Chemscore.Lipo.Weighted>
-10.2292

> <Gold.Chemscore.Internal_Hbond.Weighted>
0.0000

> <Gold.Chemscore.DEClash.Weighted>
1.3919

> <Gold.Chemscore.DEInternal.Weighted>
1.8621

> <Gold.Chemscore.Rot.Weighted>
4.6916

> <Gold.Chemscore.Internal.Correction.Weighted>
   9.000000E+99

> <Gold.Protein.RotatedTorsions>
[ 6907 6896 6895 6894 ] final  -89.67 input  -60.11 | X-H torsion
[ 7974 7965 7964 7962 ] final -121.36 input  175.53 | X-H torsion
[ 8008 7997 7996 7995 ] final  147.48 input   59.86 | X-H torsion
[ 10167 10162 10161 10158 ] final -121.72 input  -65.29 | X-H torsion
[ 10718 10713 10712 10709 ] final   62.42 input   66.30 | X-H torsion
[ 10763 10752 10751 10750 ] final  117.50 input  -60.55 | X-H torsion
[ 11005 11000 10999 10996 ] final  114.11 input  -57.11 | X-H torsion

> <Gold.Protein.ActiveResidues>
 VAL166  LYS551  ARG553  GLY616  TRP617  ASP618  TYR619  PRO620  LYS621  CYS622 
 ASP623  PHE694  ASN695  SER759  ASP760  ASP761  ALA762  ILE779  LEU786  VAL792 
 PHE793  MET794  SER795  GLU796  ALA797  LYS798  CYS799  TRP800  GLU811  SER814 

> <Gold.Protein.RotatedAtoms>
  150.6875  134.2551  159.4526 H   0  0  0  0  0  0  0  0  0  0  0  0  # atno 6907 bound_to 6896
  152.0485  134.9665  160.0584 H   0  0  0  0  0  0  0  0  0  0  0  0  # atno 6908 bound_to 6896
  152.1139  133.4281  159.4681 H   0  0  0  0  0  0  0  0  0  0  0  0  # atno 6909 bound_to 6896
  145.0412  140.8146  143.4265 H   0  0  0  0  0  0  0  0  0  0  0  0  # atno 7974 bound_to 7965
  156.2823  140.2154  156.5544 H   0  0  0  0  0  0  0  0  0  0  0  0  # atno 8008 bound_to 7997
  154.7264  140.0499  157.0709 H   0  0  0  0  0  0  0  0  0  0  0  0  # atno 8009 bound_to 7997
  155.0410  140.3145  155.4727 H   0  0  0  0  0  0  0  0  0  0  0  0  # atno 8010 bound_to 7997
  140.0220  143.5335  152.2216 H   0  0  0  0  0  0  0  0  0  0  0  0  # atno 10167 bound_to 10162
  157.5900  130.9049  149.9586 H   0  0  0  0  0  0  0  0  0  0  0  0  # atno 10718 bound_to 10713
  153.5534  135.3535  155.2769 H   0  0  0  0  0  0  0  0  0  0  0  0  # atno 10763 bound_to 10752
  154.8704  135.4119  154.2911 H   0  0  0  0  0  0  0  0  0  0  0  0  # atno 10764 bound_to 10752
  153.3642  135.7061  153.6757 H   0  0  0  0  0  0  0  0  0  0  0  0  # atno 10765 bound_to 10752
  139.8971  134.9562  156.6842 H   0  0  0  0  0  0  0  0  0  0  0  0  # atno 11005 bound_to 11000
  145.1645  139.2439  143.5374 LP  0  0  0  0  0  0  0  0  0  0  0  0  # atno 17320 bound_to 7965
  146.3509  140.1381  142.8595 LP  0  0  0  0  0  0  0  0  0  0  0  0  # atno 17321 bound_to 7965
  139.6133  144.7614  151.2902 LP  0  0  0  0  0  0  0  0  0  0  0  0  # atno 17342 bound_to 10162
  140.7338  143.6783  150.8022 LP  0  0  0  0  0  0  0  0  0  0  0  0  # atno 17343 bound_to 10162
  156.0953  130.3660  150.0318 LP  0  0  0  0  0  0  0  0  0  0  0  0  # atno 17370 bound_to 10713
  156.8442  130.9436  151.3630 LP  0  0  0  0  0  0  0  0  0  0  0  0  # atno 17371 bound_to 10713
  140.7275  133.9087  155.8189 LP  0  0  0  0  0  0  0  0  0  0  0  0  # atno 17394 bound_to 11000
  141.0179  134.0930  157.4152 LP  0  0  0  0  0  0  0  0  0  0  0  0  # atno 17395 bound_to 11000

$$$$
