#       Name:                AV-unprocessed.smi:1964
#       Creating user name   scv26
#       Creation time:       Fri Mar 27 10:10:10 2020


#       File generated by GOLD software.
#

@<TRIPOS>MOLECULE
AV-unprocessed.smi:1964
    53    55     1
SMALL
NO_CHARGES


@<TRIPOS>ATOM
      1 ****        -2.6148  -2.1288   0.8856 C.3            1 S1                 0.0000
      2 ****        -3.0192  -2.1713  -0.5984 C.3            1 S1                 0.0000
      3 ****        -2.5200  -3.4608  -1.2827 C.3            1 S1                 0.0000
      4 ****        -2.9779  -3.5374  -2.7480 C.3            1 S1                 0.0000
      5 ****        -2.5353  -2.2966  -3.5375 C.3            1 S1                 0.0000
      6 ****        -3.0251  -1.0028  -2.8640 C.3            1 S1                 0.0000
      7 ****        -2.5863  -0.9087  -1.3887 C.3            1 S1                 0.0000
      8 ****        -1.1406  -0.6893  -1.3143 N.am           1 S1                 0.0000
      9 ****        -0.5146   0.2150  -0.5456 C.2            1 S1                 0.0000
     10 ****        -1.1061   1.0078   0.1885 O.2            1 S1                 0.0000
     11 ****         1.0188   0.2134  -0.6277 C.3            1 S1                 0.0000
     12 ****         1.6649   0.7411   0.5936 N.am           1 S1                 0.0000
     13 ****         1.8527  -0.1397   1.6895 C.2            1 S1                 0.0000
     14 ****         1.5125  -1.3222   1.6186 O.2            1 S1                 0.0000
     15 ****         2.4505   0.4573   2.8812 C.2            1 S1                 0.0000
     16 ****         2.6235  -0.3881   4.0157 C.1            1 S1                 0.0000
     17 ****         2.7751  -1.0564   4.9486 N.1            1 S1                 0.0000
     18 ****         2.8135   1.7563   2.9000 C.2            1 S1                 0.0000
     19 ****         2.6593   2.5851   1.8102 N.am           1 S1                 0.0000
     20 ****         2.9077   3.9962   1.9023 C.3            1 S1                 0.0000
     21 ****         3.8441   4.6749   0.9216 C.3            1 S1                 0.0000
     22 ****         4.2706   4.4727   2.3551 C.3            1 S1                 0.0000
     23 ****         2.0277   2.1090   0.6402 C.2            1 S1                 0.0000
     24 ****         1.7889   2.8619  -0.3072 O.2            1 S1                 0.0000
     25 ****        -1.5326  -2.1712   1.0125 H              1 S1                 0.0000
     26 ****        -3.0405  -2.9718   1.4299 H              1 S1                 0.0000
     27 ****        -2.9711  -1.2158   1.3634 H              1 S1                 0.0000
     28 ****        -4.1097  -2.1989  -0.6206 H              1 S1                 0.0000
     29 ****        -1.4313  -3.5100  -1.2369 H              1 S1                 0.0000
     30 ****        -2.8880  -4.3340  -0.7431 H              1 S1                 0.0000
     31 ****        -2.5781  -4.4377  -3.2155 H              1 S1                 0.0000
     32 ****        -4.0644  -3.6259  -2.7868 H              1 S1                 0.0000
     33 ****        -1.4478  -2.2832  -3.6189 H              1 S1                 0.0000
     34 ****        -2.9178  -2.3509  -4.5571 H              1 S1                 0.0000
     35 ****        -2.6688  -0.1346  -3.4199 H              1 S1                 0.0000
     36 ****        -4.1141  -0.9668  -2.9150 H              1 S1                 0.0000
     37 ****        -3.1004  -0.0478  -0.9575 H              1 S1                 0.0000
     38 ****        -0.5672  -1.2935  -1.8852 H              1 S1                 0.0000
     39 ****         1.3672  -0.8012  -0.8298 H              1 S1                 0.0000
     40 ****         1.3121   0.7753  -1.5154 H              1 S1                 0.0000
     41 ****         3.2472   2.1644   3.8018 H              1 S1                 0.0000
     42 ****         2.0620   4.5937   2.2386 H              1 S1                 0.0000
     43 ****         4.3343   4.0621   0.1674 H              1 S1                 0.0000
     44 ****         3.5928   5.6860   0.6080 H              1 S1                 0.0000
     45 ****         4.3060   5.3494   2.9985 H              1 S1                 0.0000
     46 ****         5.0391   3.7256   2.5442 H              1 S1                 0.0000
     47 ****        -2.1050   0.9983   0.2328 LP             1 S1                 0.0000
     48 ****        -0.5873   1.6609   0.7402 LP             1 S1                 0.0000
     49 ****         1.0972  -1.6736   0.7795 LP             1 S1                 0.0000
     50 ****         1.6518  -1.9303   2.4002 LP             1 S1                 0.0000
     51 ****         2.9061  -1.6338   5.7545 LP             1 S1                 0.0000
     52 ****         1.3326   2.5086  -1.1239 LP             1 S1                 0.0000
     53 ****         2.0516   3.8255  -0.2586 LP             1 S1                 0.0000
@<TRIPOS>BOND
    1    1    2 1     
    2    1   25 1     
    3    1   26 1     
    4    1   27 1     
    5    2    7 1     
    6    2    3 1     
    7    2   28 1     
    8    3    4 1     
    9    3   29 1     
   10    3   30 1     
   11    4    5 1     
   12    4   31 1     
   13    4   32 1     
   14    5    6 1     
   15    5   33 1     
   16    5   34 1     
   17    6    7 1     
   18    6   35 1     
   19    6   36 1     
   20    7    8 1     
   21    7   37 1     
   22    8    9 am    
   23    8   38 1     
   24    9   10 2     
   25    9   11 1     
   26   11   12 1     
   27   11   39 1     
   28   11   40 1     
   29   12   23 am    
   30   12   13 am    
   31   13   14 2     
   32   13   15 1     
   33   15   16 1     
   34   15   18 2     
   35   16   17 3     
   36   18   19 1     
   37   18   41 1     
   38   19   20 1     
   39   19   23 am    
   40   20   22 1     
   41   20   21 1     
   42   20   42 1     
   43   21   22 1     
   44   21   43 1     
   45   21   44 1     
   46   22   45 1     
   47   22   46 1     
   48   23   24 2     
   49   10   47 1     
   50   10   48 1     
   51   14   49 1     
   52   14   50 1     
   53   17   51 1     
   54   24   52 1     
   55   24   53 1     
@<TRIPOS>SUBSTRUCTURE
      1 S1             1
@<TRIPOS>SET
LONE_PAIRS      STATIC     ATOMS    <user>   **** ""
7 47 48 49 50 51 52 53
DONOR_HYDROGENS      STATIC     ATOMS    <user>   **** ""
1 38
ATOM$BLUE        STATIC     ATOMS    COLORGROUP SYSTEM
7 47 48 49 50 51 52 53
ATOM$RED        STATIC     ATOMS    COLORGROUP SYSTEM
1 38
