#       Name:                AV-unprocessed.smi:1120
#       Creating user name   scv26
#       Creation time:       Fri Mar 27 03:38:03 2020


#       File generated by GOLD software.
#

@<TRIPOS>MOLECULE
AV-unprocessed.smi:1120
    51    52     1
SMALL
NO_CHARGES


@<TRIPOS>ATOM
      1 ****        -5.3811   3.7795  -0.5519 C.3            1 S1                 0.0000
      2 ****        -3.9737   3.2267  -0.8156 C.3            1 S1                 0.0000
      3 ****        -3.8177   2.7128  -2.2656 C.3            1 S1                 0.0000
      4 ****        -2.4188   2.1065  -2.5407 C.3            1 S1                 0.0000
      5 ****        -2.0424   0.9628  -1.5678 C.3            1 S1                 0.0000
      6 ****        -0.6724   0.5370  -1.8230 N.pl3          1 S1                -1.0000
      7 ****        -0.1177  -0.8544  -1.1986 S.o2           1 S1                 0.0000
      8 ****         0.1567  -0.7505   0.2443 O.2            1 S1                 0.0000
      9 ****        -0.8834  -2.0287  -1.6480 O.2            1 S1                 0.0000
     10 ****         1.5279  -0.9666  -2.0354 C.3            1 S1                 0.0000
     11 ****         2.2317  -2.2827  -1.6995 C.2            1 S1                 0.0000
     12 ****         2.5466  -3.0616  -2.5992 O.2            1 S1                 0.0000
     13 ****         2.4974  -2.5082  -0.4060 N.am           1 S1                 0.0000
     14 ****         3.1634  -3.6904   0.1243 C.3            1 S1                 0.0000
     15 ****         3.0295  -3.7634   1.6551 C.3            1 S1                 0.0000
     16 ****         3.5123  -2.5078   2.3619 C.ar           1 S1                 0.0000
     17 ****         2.5945  -1.5263   2.7944 C.ar           1 S1                 0.0000
     18 ****         3.0946  -0.3681   3.4192 C.ar           1 S1                 0.0000
     19 ****         4.4862  -0.2379   3.5911 C.ar           1 S1                 0.0000
     20 ****         5.3186  -1.2759   3.1267 C.ar           1 S1                 0.0000
     21 ****         4.8497  -2.3894   2.5232 N.ar           1 S1                 0.0000
     22 ****        -2.2113   1.4764  -0.1147 C.3            1 S1                 0.0000
     23 ****        -3.6092   2.0853   0.1616 C.3            1 S1                 0.0000
     24 ****        -6.1415   3.0102  -0.6897 H              1 S1                 0.0000
     25 ****        -5.6122   4.6017  -1.2296 H              1 S1                 0.0000
     26 ****        -5.4692   4.1569   0.4672 H              1 S1                 0.0000
     27 ****        -3.2621   4.0403  -0.6660 H              1 S1                 0.0000
     28 ****        -4.5930   1.9741  -2.4799 H              1 S1                 0.0000
     29 ****        -3.9918   3.5342  -2.9614 H              1 S1                 0.0000
     30 ****        -2.3798   1.7433  -3.5683 H              1 S1                 0.0000
     31 ****        -1.6759   2.9032  -2.4727 H              1 S1                 0.0000
     32 ****        -2.7471   0.1459  -1.7270 H              1 S1                 0.0000
     33 ****         1.3694  -0.8920  -3.1112 H              1 S1                 0.0000
     34 ****         2.1375  -0.1188  -1.7240 H              1 S1                 0.0000
     35 ****         2.1985  -1.8136   0.2645 H              1 S1                 0.0000
     36 ****         2.7449  -4.5918  -0.3257 H              1 S1                 0.0000
     37 ****         4.2167  -3.6509  -0.1562 H              1 S1                 0.0000
     38 ****         1.9863  -3.9394   1.9213 H              1 S1                 0.0000
     39 ****         3.5856  -4.6224   2.0328 H              1 S1                 0.0000
     40 ****         1.5323  -1.6508   2.6399 H              1 S1                 0.0000
     41 ****         2.4231   0.4070   3.7576 H              1 S1                 0.0000
     42 ****         4.9055   0.6370   4.0652 H              1 S1                 0.0000
     43 ****         6.3905  -1.2088   3.2410 H              1 S1                 0.0000
     44 ****        -2.0408   0.6638   0.5914 H              1 S1                 0.0000
     45 ****        -1.4508   2.2293   0.0979 H              1 S1                 0.0000
     46 ****        -3.6364   2.4614   1.1849 H              1 S1                 0.0000
     47 ****        -4.3707   1.3041   0.1139 H              1 S1                 0.0000
     48 ****        -0.0713   1.1048  -2.3855 LP             1 S1                 0.0000
     49 ****         2.3424  -2.8344  -3.5515 LP             1 S1                 0.0000
     50 ****         3.0066  -3.9215  -2.3779 LP             1 S1                 0.0000
     51 ****         5.4724  -3.1044   2.2053 LP             1 S1                 0.0000
@<TRIPOS>BOND
    1    1    2 1     
    2    1   24 1     
    3    1   25 1     
    4    1   26 1     
    5    2   23 1     
    6    2    3 1     
    7    2   27 1     
    8    3    4 1     
    9    3   28 1     
   10    3   29 1     
   11    4    5 1     
   12    4   30 1     
   13    4   31 1     
   14    5    6 1     
   15    5   22 1     
   16    5   32 1     
   17    6    7 1     
   18    7    8 2     
   19    7    9 2     
   20    7   10 1     
   21   10   11 1     
   22   10   33 1     
   23   10   34 1     
   24   11   12 2     
   25   11   13 am    
   26   13   14 1     
   27   13   35 1     
   28   14   15 1     
   29   14   36 1     
   30   14   37 1     
   31   15   16 1     
   32   15   38 1     
   33   15   39 1     
   34   16   21 ar    
   35   16   17 ar    
   36   17   18 ar    
   37   17   40 1     
   38   18   19 ar    
   39   18   41 1     
   40   19   20 ar    
   41   19   42 1     
   42   20   21 ar    
   43   20   43 1     
   44   22   23 1     
   45   22   44 1     
   46   22   45 1     
   47   23   46 1     
   48   23   47 1     
   49    6   48 1     
   50   12   49 1     
   51   12   50 1     
   52   21   51 1     
@<TRIPOS>SUBSTRUCTURE
      1 S1             1
@<TRIPOS>SET
LONE_PAIRS      STATIC     ATOMS    <user>   **** ""
6 48 8 9 49 50 51
DONOR_HYDROGENS      STATIC     ATOMS    <user>   **** ""
1 35
ATOM$BLUE        STATIC     ATOMS    COLORGROUP SYSTEM
6 48 8 9 49 50 51
ATOM$RED        STATIC     ATOMS    COLORGROUP SYSTEM
1 35
