AV-unprocessed.smi:62|AV-procd|sdf|602|dock2
  -GOLD-   2262016493D 1   1.00000     0.00000
 Structure written by MMmdl.
 31 32  0  0  0  0  0  0  0  0  3 V2000
  151.8518  142.5037  159.1427 C   0  0  0  0  0  0  0  0  0  0  0  0
  151.4781  141.8802  157.8914 N   0  0  0  0  0  0  0  0  0  0  0  0
  150.4199  142.1751  157.0647 C   0  0  0  0  0  0  0  0  0  0  0  0
  150.4659  141.3272  155.9920 C   0  0  0  0  0  0  0  0  0  0  0  0
  149.4838  141.3368  154.8409 C   0  0  0  0  0  0  0  0  0  0  0  0
  148.2901  142.1560  155.1582 N   0  3  2  0  0  0  0  0  0  0  0  0
  147.5143  141.6746  156.3190 C   0  0  0  0  0  0  0  0  0  0  0  0
  146.1256  142.2780  156.1376 C   0  0  0  0  0  0  0  0  0  0  0  0
  145.9274  142.1949  154.6267 C   0  0  1  0  0  0  0  0  0  0  0  0
  145.0188  143.1706  154.1618 O   0  0  0  0  0  0  0  0  0  0  0  0
  147.3365  142.3796  154.0436 C   0  0  0  0  0  0  0  0  0  0  0  0
  151.6193  140.5143  156.2756 C   0  0  0  0  0  0  0  0  0  0  0  0
  152.0874  139.3985  155.3782 C   0  0  0  0  0  0  0  0  0  0  0  0
  153.0973  138.7269  155.6796 O   0  0  0  0  0  0  0  0  0  0  0  0
  151.4338  139.1768  154.3355 O   0  5  0  0  0  0  0  0  0  0  0  0
  152.2148  140.8645  157.4082 N   0  0  0  0  0  0  0  0  0  0  0  0
  151.3215  143.4491  159.2618 H   0  0  0  0  0  0  0  0  0  0  0  0
  152.9251  142.6968  159.1576 H   0  0  0  0  0  0  0  0  0  0  0  0
  151.5947  141.8443  159.9721 H   0  0  0  0  0  0  0  0  0  0  0  0
  149.7238  142.9661  157.3022 H   0  0  0  0  0  0  0  0  0  0  0  0
  149.9138  141.6581  153.8951 H   0  0  0  0  0  0  0  0  0  0  0  0
  149.1393  140.3191  154.6536 H   0  0  0  0  0  0  0  0  0  0  0  0
  147.4474  140.5854  156.2937 H   0  0  0  0  0  0  0  0  0  0  0  0
  147.9782  141.9647  157.2622 H   0  0  0  0  0  0  0  0  0  0  0  0
  145.3537  141.7503  156.6985 H   0  0  0  0  0  0  0  0  0  0  0  0
  146.1331  143.3184  156.4669 H   0  0  0  0  0  0  0  0  0  0  0  0
  145.5537  141.2034  154.3664 H   0  0  0  0  0  0  0  0  0  0  0  0
  144.4121  142.7582  153.5654 H   0  0  0  0  0  0  0  0  0  0  0  0
  147.4910  143.3900  153.6626 H   0  0  0  0  0  0  0  0  0  0  0  0
  147.4885  141.6908  153.2150 H   0  0  0  0  0  0  0  0  0  0  0  0
  148.6259  143.0729  155.4149 H   0  0  0  0  0  0  0  0  0  0  0  0
  1  2  1  0  0  0  0
  1 17  1  0  0  0  0
  1 18  1  0  0  0  0
  1 19  1  0  0  0  0
  2 16  1  0  0  0  0
  2  3  1  0  0  0  0
  3  4  2  0  0  0  0
  3 20  1  0  0  0  0
  4  5  1  0  0  0  0
  4 12  1  0  0  0  0
  5  6  1  0  0  0  0
  5 21  1  0  0  0  0
  5 22  1  0  0  0  0
  6 11  1  0  0  0  0
  6  7  1  0  0  0  0
  6 31  1  0  0  0  0
  7  8  1  0  0  0  0
  7 23  1  0  0  0  0
  7 24  1  0  0  0  0
  8  9  1  0  0  0  0
  8 25  1  0  0  0  0
  8 26  1  0  0  0  0
  9 10  1  0  0  0  0
  9 11  1  0  0  0  0
  9 27  1  0  0  0  0
 10 28  1  0  0  0  0
 11 29  1  0  0  0  0
 11 30  1  0  0  0  0
 12 13  1  0  0  0  0
 12 16  2  0  0  0  0
 13 14  2  0  0  0  0
 13 15  1  0  0  0  0
M  CHG  1   6   1
M  CHG  1  15  -1
M  END
> <s_m_source_file>
AV-unprocessed.smi

> <i_m_source_file_index>
62

> <i_lp_mmshare_version>
43012

> <i_f3d_flags>
0

> <s_epik_input>
W0NIM11uMVtjSF1jKGMobjEpQyg9TylbT0hdKVtDSDJdTjJbQ0gyXVtDSDJdW0NAQEhdKFtPSF0pW0NIMl0y

> <s_epik_cmdline>
J2VwaWtfcHl0aG9uJywgJy1waCcsICc3LjAnLCAnLXRuJywgJzgnLCAnLW1hJywgJzIwMCcsICctbWV0YWxfYmluZGluZycsICctaW1hZScsICc8aW5maWxlLm1hZT4nLCAnLW9tYWUnLCAnPG91dGZpbGUubWFlPic=

> <r_epik_Ionization_Penalty>
0.0522993

> <r_epik_Ionization_Penalty_Charging>
0.0522915

> <r_epik_Ionization_Penalty_Neutral>
7.84975e-06

> <r_epik_State_Penalty>
0.0448084

> <r_epik_Charging_Adjusted_Penalty>
0.0970998

> <i_epik_Tot_Q>
0

> <i_epik_Tot_abs_Q>
2

> <r_epik_Metal_State_Penalty>
0.0448097

> <b_epik_Metal_Only>
0

> <s_lp_Force_Field>
OPLS_2005

> <r_lp_Energy>
19.3892

> <b_lp_Chiralities_Consistent>
1

> <s_lp_Variant>
AV-unprocessed.smi:62-2

> <Gold.Version>
5.8.1

> <Gold.Id.Protein>
6NUR|6NUR_protein|mol2

> <Gold.PLP.Fitness>
47.9146

> <Gold.PLP.PLP>
-30.3022

> <Gold.PLP.part.hbond>
-3.8597

> <Gold.PLP.part.metal>
0.0000

> <Gold.PLP.part.buried>
-2.3614

> <Gold.PLP.part.nonpolar>
-23.3998

> <Gold.PLP.part.repulsive>
0.2786

> <Gold.PLP.ligand.clash>
0.0000

> <Gold.PLP.ligand.torsion>
0.1657

> <Gold.PLP.Chemscore.Hbond>
5.0455

> <Gold.PLP.Chemscore.CHOScore>
0.9325

> <Gold.PLP.Chemscore.Metal>
0.0000

> <Gold.Chemscore.Hbonds>
donor molecule, donor type, donor heavy atom, donor atom, acceptor molecule, acceptor atom, score
      L1  H     6    31       P1  8028  2.00
      L1  H    10    28       P1 10174  0.06
      P1  H  7989  7998       L1    15  0.95
      P1  H  7997  8009       L1    14  2.00
      L1  C     3    20       P1  8028  0.90

> <Gold.PLP.Chemscore.Internal.Correction>
0.0099

> <Gold.Rescore>
     Score         DG    S(hbond)    S(metal)    S(lipo)     H(rot)  DE(clash)    DE(int)     intcor
     14.54     -16.09       2.67        0.00      54.01       1.81       0.15       1.40       ----

> <Gold.Chemscore.Fitness>
14.5362

> <Gold.Chemscore.DG>
-16.0891

> <Gold.Chemscore.ZeroCoef>
-5.4800

> <Gold.Chemscore.Hbond>
2.6710

> <Gold.Chemscore.Metal>
0.0000

> <Gold.Chemscore.Lipo>
54.0118

> <Gold.Chemscore.Internal_Hbond>
0.0000

> <Gold.Chemscore.DEClash>
0.1535

> <Gold.Chemscore.DEInternal>
1.3994

> <Gold.Chemscore.Rot>
1.8091

> <Gold.Chemscore.Internal.Correction>
   9.000000E+99

> <Gold.Chemscore.Hbonds>
donor molecule, donor type, donor heavy atom, donor atom, acceptor molecule, acceptor atom, score
      L1  H     6    31       P1  8028  1.00
      P1  H  7989  7998       L1    15  0.21
      P1  H  7997  8009       L1    14  0.33

> <Gold.Chemscore.Hbond.Weighted>
-8.9211

> <Gold.Chemscore.Metal.Weighted>
-0.0000

> <Gold.Chemscore.Lipo.Weighted>
-6.3194

> <Gold.Chemscore.Internal_Hbond.Weighted>
0.0000

> <Gold.Chemscore.DEClash.Weighted>
0.1535

> <Gold.Chemscore.DEInternal.Weighted>
1.3994

> <Gold.Chemscore.Rot.Weighted>
4.6314

> <Gold.Chemscore.Internal.Correction.Weighted>
   9.000000E+99

> <Gold.Protein.RotatedTorsions>
[ 6907 6896 6895 6894 ] final   35.48 input  -60.11 | X-H torsion
[ 7974 7965 7964 7962 ] final -160.81 input  175.53 | X-H torsion
[ 8008 7997 7996 7995 ] final -155.89 input   59.86 | X-H torsion
[ 10167 10162 10161 10158 ] final  -84.28 input  -65.29 | X-H torsion
[ 10718 10713 10712 10709 ] final  -46.46 input   66.30 | X-H torsion
[ 10763 10752 10751 10750 ] final  129.15 input  -60.55 | X-H torsion
[ 11005 11000 10999 10996 ] final -168.28 input  -57.11 | X-H torsion

> <Gold.Protein.ActiveResidues>
 VAL166  LYS551  ARG553  GLY616  TRP617  ASP618  TYR619  PRO620  LYS621  CYS622 
 ASP623  PHE694  ASN695  SER759  ASP760  ASP761  ALA762  ILE779  LEU786  VAL792 
 PHE793  MET794  SER795  GLU796  ALA797  LYS798  CYS799  TRP800  GLU811  SER814 

> <Gold.Protein.RotatedAtoms>
  152.1167  134.9235  160.0564 H   0  0  0  0  0  0  0  0  0  0  0  0  # atno 6907 bound_to 6896
  152.0391  133.3965  159.4337 H   0  0  0  0  0  0  0  0  0  0  0  0  # atno 6908 bound_to 6896
  150.6846  134.3355  159.4889 H   0  0  0  0  0  0  0  0  0  0  0  0  # atno 6909 bound_to 6896
  144.7413  140.3488  143.6120 H   0  0  0  0  0  0  0  0  0  0  0  0  # atno 7974 bound_to 7965
  155.7088  140.0776  157.2379 H   0  0  0  0  0  0  0  0  0  0  0  0  # atno 8008 bound_to 7997
  154.4061  140.1634  156.2327 H   0  0  0  0  0  0  0  0  0  0  0  0  # atno 8009 bound_to 7997
  155.9301  140.3392  155.6245 H   0  0  0  0  0  0  0  0  0  0  0  0  # atno 8010 bound_to 7997
  140.4147  143.2608  151.8970 H   0  0  0  0  0  0  0  0  0  0  0  0  # atno 10167 bound_to 10162
  156.2181  130.4164  149.9028 H   0  0  0  0  0  0  0  0  0  0  0  0  # atno 10718 bound_to 10713
  153.7372  135.3229  155.3297 H   0  0  0  0  0  0  0  0  0  0  0  0  # atno 10763 bound_to 10752
  154.8307  135.4536  154.1063 H   0  0  0  0  0  0  0  0  0  0  0  0  # atno 10764 bound_to 10752
  153.2227  135.6950  153.8062 H   0  0  0  0  0  0  0  0  0  0  0  0  # atno 10765 bound_to 10752
  140.5437  134.5497  157.5106 H   0  0  0  0  0  0  0  0  0  0  0  0  # atno 11005 bound_to 11000
  145.7297  139.1733  143.2437 LP  0  0  0  0  0  0  0  0  0  0  0  0  # atno 17320 bound_to 7965
  146.1215  140.7303  142.9455 LP  0  0  0  0  0  0  0  0  0  0  0  0  # atno 17321 bound_to 7965
  139.4782  144.5500  151.8400 LP  0  0  0  0  0  0  0  0  0  0  0  0  # atno 17342 bound_to 10162
  140.4599  144.1736  150.5905 LP  0  0  0  0  0  0  0  0  0  0  0  0  # atno 17343 bound_to 10162
  156.6684  130.8810  151.3558 LP  0  0  0  0  0  0  0  0  0  0  0  0  # atno 17370 bound_to 10713
  157.7073  130.9400  150.0973 LP  0  0  0  0  0  0  0  0  0  0  0  0  # atno 17371 bound_to 10713
  139.9491  134.7650  156.0492 LP  0  0  0  0  0  0  0  0  0  0  0  0  # atno 17394 bound_to 11000
  141.1212  133.6612  156.3220 LP  0  0  0  0  0  0  0  0  0  0  0  0  # atno 17395 bound_to 11000

$$$$
