AV-unprocessed.smi:1958|AV-procd|sdf|7911|dock4
  -GOLD-   2272010 73D 1   1.00000     0.00000
 Structure written by MMmdl.
 47 48  0  0  0  0  0  0  0  0  3 V2000
  154.6352  139.7235  161.9410 C   0  0  0  0  0  0  0  0  0  0  0  0
  155.2810  140.8363  161.3478 O   0  0  0  0  0  0  0  0  0  0  0  0
  154.6262  141.2798  160.1713 C   0  0  0  0  0  0  0  0  0  0  0  0
  153.2328  141.8065  160.5464 C   0  0  0  0  0  0  0  0  0  0  0  0
  152.4987  142.2767  159.3674 N   0  0  0  0  0  0  0  0  0  0  0  0
  152.3705  141.3274  158.3680 N   0  0  0  0  0  0  0  0  0  0  0  0
  151.7459  141.6113  157.2702 C   0  0  0  0  0  0  0  0  0  0  0  0
  151.6060  140.6032  156.1718 C   0  0  0  0  0  0  0  0  0  0  0  0
  150.7462  140.8433  155.3139 O   0  0  0  0  0  0  0  0  0  0  0  0
  152.4324  139.5134  156.1926 N   0  5  0  0  0  0  0  0  0  0  0  0
  152.3356  138.3581  155.2989 C   0  0  0  0  0  0  0  0  0  0  0  0
  150.8873  137.7955  155.2750 C   0  0  1  0  0  0  0  0  0  0  0  0
  150.0083  138.3534  154.1270 C   0  0  0  0  0  0  0  0  0  0  0  0
  150.9007  136.3002  155.3237 N   0  3  0  0  0  0  0  0  0  0  0  0
  151.4584  135.7553  156.5867 C   0  0  0  0  0  0  0  0  0  0  0  0
  151.6064  134.2274  156.4901 C   0  0  0  0  0  0  0  0  0  0  0  0
  150.3502  133.6383  156.1777 O   0  0  0  0  0  0  0  0  0  0  0  0
  149.8456  134.0905  154.9270 C   0  0  0  0  0  0  0  0  0  0  0  0
  149.6240  135.6102  154.9856 C   0  0  0  0  0  0  0  0  0  0  0  0
  151.1650  142.9324  157.0724 C   0  0  0  0  0  0  0  0  0  0  0  0
  151.2934  143.8462  158.0590 C   0  0  0  0  0  0  0  0  0  0  0  0
  151.9945  143.5452  159.3076 C   0  0  0  0  0  0  0  0  0  0  0  0
  152.1179  144.3589  160.2230 O   0  0  0  0  0  0  0  0  0  0  0  0
  155.1788  139.4182  162.8350 H   0  0  0  0  0  0  0  0  0  0  0  0
  154.6059  138.8738  161.2579 H   0  0  0  0  0  0  0  0  0  0  0  0
  153.6149  139.9715  162.2362 H   0  0  0  0  0  0  0  0  0  0  0  0
  155.2098  142.0690  159.6944 H   0  0  0  0  0  0  0  0  0  0  0  0
  154.5429  140.4558  159.4606 H   0  0  0  0  0  0  0  0  0  0  0  0
  152.6654  141.0300  161.0623 H   0  0  0  0  0  0  0  0  0  0  0  0
  153.3352  142.6188  161.2686 H   0  0  0  0  0  0  0  0  0  0  0  0
  152.6323  138.6186  154.2828 H   0  0  0  0  0  0  0  0  0  0  0  0
  153.0197  137.5620  155.5976 H   0  0  0  0  0  0  0  0  0  0  0  0
  150.4258  138.1260  156.2070 H   0  0  0  0  0  0  0  0  0  0  0  0
  149.8796  139.4346  154.2032 H   0  0  0  0  0  0  0  0  0  0  0  0
  149.0080  137.9217  154.1589 H   0  0  0  0  0  0  0  0  0  0  0  0
  150.4229  138.1465  153.1387 H   0  0  0  0  0  0  0  0  0  0  0  0
  152.4350  136.1970  156.7890 H   0  0  0  0  0  0  0  0  0  0  0  0
  150.8071  136.0186  157.4212 H   0  0  0  0  0  0  0  0  0  0  0  0
  152.3455  133.9555  155.7348 H   0  0  0  0  0  0  0  0  0  0  0  0
  151.9592  133.8240  157.4392 H   0  0  0  0  0  0  0  0  0  0  0  0
  150.5341  133.8257  154.1228 H   0  0  0  0  0  0  0  0  0  0  0  0
  148.9040  133.5810  154.7216 H   0  0  0  0  0  0  0  0  0  0  0  0
  148.8640  135.8317  155.7358 H   0  0  0  0  0  0  0  0  0  0  0  0
  149.2396  135.9582  154.0265 H   0  0  0  0  0  0  0  0  0  0  0  0
  150.6398  143.1893  156.1643 H   0  0  0  0  0  0  0  0  0  0  0  0
  150.8665  144.8289  157.9240 H   0  0  0  0  0  0  0  0  0  0  0  0
  151.5604  136.0311  154.6075 H   0  0  0  0  0  0  0  0  0  0  0  0
  1  2  1  0  0  0  0
  1 24  1  0  0  0  0
  1 25  1  0  0  0  0
  1 26  1  0  0  0  0
  2  3  1  0  0  0  0
  3  4  1  0  0  0  0
  3 27  1  0  0  0  0
  3 28  1  0  0  0  0
  4  5  1  0  0  0  0
  4 29  1  0  0  0  0
  4 30  1  0  0  0  0
  5 22  1  0  0  0  0
  5  6  1  0  0  0  0
  6  7  2  0  0  0  0
  7  8  1  0  0  0  0
  7 20  1  0  0  0  0
  8  9  2  0  0  0  0
  8 10  1  0  0  0  0
 10 11  1  0  0  0  0
 11 12  1  0  0  0  0
 11 31  1  0  0  0  0
 11 32  1  0  0  0  0
 12 13  1  0  0  0  0
 12 14  1  0  0  0  0
 12 33  1  0  0  0  0
 13 34  1  0  0  0  0
 13 35  1  0  0  0  0
 13 36  1  0  0  0  0
 14 19  1  0  0  0  0
 14 15  1  0  0  0  0
 14 47  1  0  0  0  0
 15 16  1  0  0  0  0
 15 37  1  0  0  0  0
 15 38  1  0  0  0  0
 16 17  1  0  0  0  0
 16 39  1  0  0  0  0
 16 40  1  0  0  0  0
 17 18  1  0  0  0  0
 18 19  1  0  0  0  0
 18 41  1  0  0  0  0
 18 42  1  0  0  0  0
 19 43  1  0  0  0  0
 19 44  1  0  0  0  0
 20 21  2  0  0  0  0
 20 45  1  0  0  0  0
 21 22  1  0  0  0  0
 21 46  1  0  0  0  0
 22 23  2  0  0  0  0
M  CHG  1  10  -1
M  CHG  1  14   1
M  END
> <s_m_source_file>
AV-unprocessed.smi

> <i_m_source_file_index>
1958

> <i_lp_mmshare_version>
43012

> <i_f3d_flags>
0

> <s_epik_input>
W0NIM11PW0NIMl1bQ0gyXW4xbmMoW2NIXVtjSF1jMT1PKUMoPU8pW05IXVtDSDJdW0NASF0oW0NIM10pTjJbQ0gyXVtDSDJdT1tDSDJdW0NIMl0y

> <s_epik_cmdline>
J2VwaWtfcHl0aG9uJywgJy1waCcsICc3LjAnLCAnLXRuJywgJzgnLCAnLW1hJywgJzIwMCcsICctbWV0YWxfYmluZGluZycsICctaW1hZScsICc8aW5maWxlLm1hZT4nLCAnLW9tYWUnLCAnPG91dGZpbGUubWFlPic=

> <r_lp_tautomer_probability>
1

> <r_epik_Ionization_Penalty>
6.89388

> <r_epik_Ionization_Penalty_Charging>
6.89388

> <r_epik_Ionization_Penalty_Neutral>
1.08445e-11

> <r_epik_State_Penalty>
7.53214

> <r_epik_Charging_Adjusted_Penalty>
14.426

> <i_epik_Tot_Q>
0

> <i_epik_Tot_abs_Q>
2

> <r_epik_Metal_State_Penalty>
3.44743

> <b_epik_Metal_Only>
1

> <s_lp_Force_Field>
OPLS_2005

> <r_lp_Energy>
43.2643

> <b_lp_Chiralities_Consistent>
1

> <s_lp_Variant>
AV-unprocessed.smi:1958-6

> <Gold.Version>
5.8.1

> <Gold.Id.Protein>
6NUR|6NUR_protein|mol2

> <Gold.PLP.Fitness>
48.2534

> <Gold.PLP.PLP>
-41.5049

> <Gold.PLP.part.hbond>
-3.0000

> <Gold.PLP.part.metal>
0.0000

> <Gold.PLP.part.buried>
-4.5349

> <Gold.PLP.part.nonpolar>
-33.1243

> <Gold.PLP.part.repulsive>
0.2184

> <Gold.PLP.ligand.clash>
0.0000

> <Gold.PLP.ligand.torsion>
0.9562

> <Gold.PLP.Chemscore.Hbond>
2.8000

> <Gold.PLP.Chemscore.CHOScore>
0.0000

> <Gold.PLP.Chemscore.Metal>
0.0000

> <Gold.Chemscore.Hbonds>
donor molecule, donor type, donor heavy atom, donor atom, acceptor molecule, acceptor atom, score
      P1  H  7989  7998       L1     9  0.80
      P1  H  7997  8009       L1    10  2.00

> <Gold.PLP.Chemscore.Internal.Correction>
0.2609

> <Gold.Rescore>
     Score         DG    S(hbond)    S(metal)    S(lipo)     H(rot)  DE(clash)    DE(int)     intcor
     12.46     -15.36       1.19        0.00      95.74       2.07       0.68       2.21       ----

> <Gold.Chemscore.Fitness>
12.4642

> <Gold.Chemscore.DG>
-15.3590

> <Gold.Chemscore.ZeroCoef>
-5.4800

> <Gold.Chemscore.Hbond>
1.1887

> <Gold.Chemscore.Metal>
0.0000

> <Gold.Chemscore.Lipo>
95.7356

> <Gold.Chemscore.Internal_Hbond>
0.0000

> <Gold.Chemscore.DEClash>
0.6817

> <Gold.Chemscore.DEInternal>
2.2131

> <Gold.Chemscore.Rot>
2.0673

> <Gold.Chemscore.Internal.Correction>
   9.000000E+99

> <Gold.Chemscore.Hbonds>
donor molecule, donor type, donor heavy atom, donor atom, acceptor molecule, acceptor atom, score
      P1  H  7989  7998       L1     9  0.53
      P1  H  7997  8009       L1    10  0.50

> <Gold.Chemscore.Hbond.Weighted>
-3.9703

> <Gold.Chemscore.Metal.Weighted>
-0.0000

> <Gold.Chemscore.Lipo.Weighted>
-11.2011

> <Gold.Chemscore.Internal_Hbond.Weighted>
0.0000

> <Gold.Chemscore.DEClash.Weighted>
0.6817

> <Gold.Chemscore.DEInternal.Weighted>
2.2131

> <Gold.Chemscore.Rot.Weighted>
5.2923

> <Gold.Chemscore.Internal.Correction.Weighted>
   9.000000E+99

> <Gold.Protein.RotatedTorsions>
[ 6907 6896 6895 6894 ] final -158.93 input  -60.11 | X-H torsion
[ 7974 7965 7964 7962 ] final   10.59 input  175.53 | X-H torsion
[ 8008 7997 7996 7995 ] final -160.08 input   59.86 | X-H torsion
[ 10167 10162 10161 10158 ] final  -83.18 input  -65.29 | X-H torsion
[ 10718 10713 10712 10709 ] final   29.61 input   66.30 | X-H torsion
[ 10763 10752 10751 10750 ] final  142.55 input  -60.55 | X-H torsion
[ 11005 11000 10999 10996 ] final -145.35 input  -57.11 | X-H torsion

> <Gold.Protein.ActiveResidues>
 VAL166  LYS551  ARG553  GLY616  TRP617  ASP618  TYR619  PRO620  LYS621  CYS622 
 ASP623  PHE694  ASN695  SER759  ASP760  ASP761  ALA762  ILE779  LEU786  VAL792 
 PHE793  MET794  SER795  GLU796  ALA797  LYS798  CYS799  TRP800  GLU811  SER814 

> <Gold.Protein.RotatedAtoms>
  151.3257  133.4021  159.2658 H   0  0  0  0  0  0  0  0  0  0  0  0  # atno 6907 bound_to 6896
  150.9997  134.9313  159.7957 H   0  0  0  0  0  0  0  0  0  0  0  0  # atno 6908 bound_to 6896
  152.5271  134.3222  159.9205 H   0  0  0  0  0  0  0  0  0  0  0  0  # atno 6909 bound_to 6896
  146.2386  139.9612  142.8458 H   0  0  0  0  0  0  0  0  0  0  0  0  # atno 7974 bound_to 7965
  155.7721  140.0853  157.2103 H   0  0  0  0  0  0  0  0  0  0  0  0  # atno 8008 bound_to 7997
  154.3995  140.1523  156.3011 H   0  0  0  0  0  0  0  0  0  0  0  0  # atno 8009 bound_to 7997
  155.8737  140.3424  155.5842 H   0  0  0  0  0  0  0  0  0  0  0  0  # atno 8010 bound_to 7997
  140.4250  143.2570  151.8838 H   0  0  0  0  0  0  0  0  0  0  0  0  # atno 10167 bound_to 10162
  157.2489  130.7105  149.6395 H   0  0  0  0  0  0  0  0  0  0  0  0  # atno 10718 bound_to 10713
  153.9577  135.2963  155.3435 H   0  0  0  0  0  0  0  0  0  0  0  0  # atno 10763 bound_to 10752
  154.7392  135.5032  153.9096 H   0  0  0  0  0  0  0  0  0  0  0  0  # atno 10764 bound_to 10752
  153.0962  135.6722  153.9868 H   0  0  0  0  0  0  0  0  0  0  0  0  # atno 10765 bound_to 10752
  140.7931  134.2945  157.5006 H   0  0  0  0  0  0  0  0  0  0  0  0  # atno 11005 bound_to 11000
  145.1769  140.9748  143.4289 LP  0  0  0  0  0  0  0  0  0  0  0  0  # atno 17320 bound_to 7965
  144.9977  139.3628  143.6183 LP  0  0  0  0  0  0  0  0  0  0  0  0  # atno 17321 bound_to 7965
  139.4783  144.5396  151.8547 LP  0  0  0  0  0  0  0  0  0  0  0  0  # atno 17342 bound_to 10162
  140.4491  144.1880  150.5896 LP  0  0  0  0  0  0  0  0  0  0  0  0  # atno 17343 bound_to 10162
  155.9667  130.4434  150.5420 LP  0  0  0  0  0  0  0  0  0  0  0  0  # atno 17370 bound_to 10713
  157.3299  131.0697  151.1868 LP  0  0  0  0  0  0  0  0  0  0  0  0  # atno 17371 bound_to 10713
  139.8729  134.9386  156.3720 LP  0  0  0  0  0  0  0  0  0  0  0  0  # atno 17394 bound_to 11000
  140.9369  133.7541  156.0096 LP  0  0  0  0  0  0  0  0  0  0  0  0  # atno 17395 bound_to 11000

$$$$
