AV-unprocessed.smi:262|AV-procd|sdf|1999|dock7
  -GOLD-   2262021193D 1   1.00000     0.00000
 Structure written by MMmdl.
 60 64  0  0  0  0  0  0  0  0  2 V2000
  144.5547  136.1583  150.1246 O   0  0  0  0  0  0  0  0  0  0  0  0
  144.5938  135.5787  151.4176 C   0  0  0  0  0  0  0  0  0  0  0  0
  144.3686  136.7108  152.4506 C   0  0  0  0  0  0  0  0  0  0  0  0
  145.5235  137.5742  152.6465 N   0  0  0  0  0  0  0  0  0  0  0  0
  146.2301  138.2388  151.6685 C   0  0  0  0  0  0  0  0  0  0  0  0
  147.2307  138.9605  152.0960 N   0  0  0  0  0  0  0  0  0  0  0  0
  147.2059  138.7846  153.4731 C   0  0  0  0  0  0  0  0  0  0  0  0
  147.9983  139.2738  154.5434 C   0  0  0  0  0  0  0  0  0  0  0  0
  149.0377  140.1112  154.3354 N   0  0  0  0  0  0  0  0  0  0  0  0
  148.8947  141.4491  154.8982 C   0  0  0  0  0  0  0  0  0  0  0  0
  149.4757  141.5407  156.3223 C   0  0  0  0  0  0  0  0  0  0  0  0
  150.8682  141.0201  156.3694 N   0  3  0  0  0  0  0  0  0  0  0  0
  151.5139  141.1553  157.7009 C   0  0  0  0  0  0  0  0  0  0  0  0
  151.2130  142.5023  158.3889 C   0  0  2  0  0  0  0  0  0  0  0  0
  151.5946  143.7260  157.5787 C   0  0  0  0  0  0  0  0  0  0  0  0
  151.6524  144.8103  158.6509 C   0  0  0  0  0  0  0  0  0  0  0  0
  152.0379  144.1495  159.8529 O   0  0  0  0  0  0  0  0  0  0  0  0
  152.0287  142.7386  159.6601 C   0  0  0  0  0  0  0  0  0  0  0  0
  150.9520  139.6305  155.8497 C   0  0  0  0  0  0  0  0  0  0  0  0
  150.3690  139.5223  154.4274 C   0  0  0  0  0  0  0  0  0  0  0  0
  147.6806  138.8817  155.8041 N   0  0  0  0  0  0  0  0  0  0  0  0
  146.6436  138.0620  156.0048 C   0  0  0  0  0  0  0  0  0  0  0  0
  145.8132  137.5304  155.1046 N   0  0  0  0  0  0  0  0  0  0  0  0
  146.1369  137.9204  153.8380 C   0  0  0  0  0  0  0  0  0  0  0  0
  143.4651  134.5328  151.5151 C   0  0  0  0  0  0  0  0  0  0  0  0
  143.7348  133.3019  150.6312 C   0  0  0  0  0  0  0  0  0  0  0  0
  144.9953  132.7321  150.9621 O   0  0  0  0  0  0  0  0  0  0  0  0
  146.0796  133.6178  150.7123 C   0  0  0  0  0  0  0  0  0  0  0  0
  145.9548  134.8710  151.5968 C   0  0  0  0  0  0  0  0  0  0  0  0
  144.3172  137.0689  150.2109 H   0  0  0  0  0  0  0  0  0  0  0  0
  143.5262  137.3350  152.1489 H   0  0  0  0  0  0  0  0  0  0  0  0
  144.0965  136.2858  153.4177 H   0  0  0  0  0  0  0  0  0  0  0  0
  145.9791  138.1682  150.6198 H   0  0  0  0  0  0  0  0  0  0  0  0
  149.4164  142.1477  154.2430 H   0  0  0  0  0  0  0  0  0  0  0  0
  147.8462  141.7511  154.8983 H   0  0  0  0  0  0  0  0  0  0  0  0
  149.4418  142.5816  156.6394 H   0  0  0  0  0  0  0  0  0  0  0  0
  148.8555  140.9803  157.0232 H   0  0  0  0  0  0  0  0  0  0  0  0
  151.2057  140.3267  158.3401 H   0  0  0  0  0  0  0  0  0  0  0  0
  152.5946  141.0634  157.5809 H   0  0  0  0  0  0  0  0  0  0  0  0
  150.1589  142.5695  158.6582 H   0  0  0  0  0  0  0  0  0  0  0  0
  152.5791  143.5946  157.1273 H   0  0  0  0  0  0  0  0  0  0  0  0
  150.8823  143.9560  156.7859 H   0  0  0  0  0  0  0  0  0  0  0  0
  152.3459  145.6117  158.3950 H   0  0  0  0  0  0  0  0  0  0  0  0
  150.6659  145.2508  158.7997 H   0  0  0  0  0  0  0  0  0  0  0  0
  151.6143  142.2217  160.5260 H   0  0  0  0  0  0  0  0  0  0  0  0
  153.0591  142.4048  159.5297 H   0  0  0  0  0  0  0  0  0  0  0  0
  151.9919  139.3022  155.8339 H   0  0  0  0  0  0  0  0  0  0  0  0
  150.4230  138.9600  156.5281 H   0  0  0  0  0  0  0  0  0  0  0  0
  150.3449  138.4795  154.1071 H   0  0  0  0  0  0  0  0  0  0  0  0
  151.0168  140.0454  153.7232 H   0  0  0  0  0  0  0  0  0  0  0  0
  146.4503  137.7933  157.0332 H   0  0  0  0  0  0  0  0  0  0  0  0
  143.3720  134.1991  152.5494 H   0  0  0  0  0  0  0  0  0  0  0  0
  142.5053  134.9788  151.2516 H   0  0  0  0  0  0  0  0  0  0  0  0
  142.9596  132.5523  150.7924 H   0  0  0  0  0  0  0  0  0  0  0  0
  143.7062  133.5623  149.5720 H   0  0  0  0  0  0  0  0  0  0  0  0
  147.0124  133.0991  150.9338 H   0  0  0  0  0  0  0  0  0  0  0  0
  146.1109  133.8841  149.6547 H   0  0  0  0  0  0  0  0  0  0  0  0
  146.7796  135.5516  151.3837 H   0  0  0  0  0  0  0  0  0  0  0  0
  146.0667  134.5694  152.6390 H   0  0  0  0  0  0  0  0  0  0  0  0
  151.4095  141.5868  155.7325 H   0  0  0  0  0  0  0  0  0  0  0  0
  1  2  1  0  0  0  0
  1 30  1  0  0  0  0
  2 29  1  0  0  0  0
  2  3  1  0  0  0  0
  2 25  1  0  0  0  0
  3  4  1  0  0  0  0
  3 31  1  0  0  0  0
  3 32  1  0  0  0  0
  4 24  1  0  0  0  0
  4  5  1  0  0  0  0
  5  6  2  0  0  0  0
  5 33  1  0  0  0  0
  6  7  1  0  0  0  0
  7 24  2  0  0  0  0
  7  8  1  0  0  0  0
  8  9  1  0  0  0  0
  8 21  2  0  0  0  0
  9 20  1  0  0  0  0
  9 10  1  0  0  0  0
 10 11  1  0  0  0  0
 10 34  1  0  0  0  0
 10 35  1  0  0  0  0
 11 12  1  0  0  0  0
 11 36  1  0  0  0  0
 11 37  1  0  0  0  0
 12 13  1  0  0  0  0
 12 19  1  0  0  0  0
 12 60  1  0  0  0  0
 13 14  1  0  0  0  0
 13 38  1  0  0  0  0
 13 39  1  0  0  0  0
 14 18  1  0  0  0  0
 14 15  1  0  0  0  0
 14 40  1  0  0  0  0
 15 16  1  0  0  0  0
 15 41  1  0  0  0  0
 15 42  1  0  0  0  0
 16 17  1  0  0  0  0
 16 43  1  0  0  0  0
 16 44  1  0  0  0  0
 17 18  1  0  0  0  0
 18 45  1  0  0  0  0
 18 46  1  0  0  0  0
 19 20  1  0  0  0  0
 19 47  1  0  0  0  0
 19 48  1  0  0  0  0
 20 49  1  0  0  0  0
 20 50  1  0  0  0  0
 21 22  1  0  0  0  0
 22 23  2  0  0  0  0
 22 51  1  0  0  0  0
 23 24  1  0  0  0  0
 25 26  1  0  0  0  0
 25 52  1  0  0  0  0
 25 53  1  0  0  0  0
 26 27  1  0  0  0  0
 26 54  1  0  0  0  0
 26 55  1  0  0  0  0
 27 28  1  0  0  0  0
 28 29  1  0  0  0  0
 28 56  1  0  0  0  0
 28 57  1  0  0  0  0
 29 58  1  0  0  0  0
 29 59  1  0  0  0  0
M  CHG  1  12   1
M  END
> <s_m_source_file>
AV-unprocessed.smi

> <i_m_source_file_index>
262

> <i_lp_mmshare_version>
43012

> <i_f3d_flags>
0

> <s_epik_input>
W0NIMl0xW0NIMl1PW0NIMl1bQ0gyXUMxKFtPSF0pW0NIMl1uKFtjSF1uMiljKGMyMyluW2NIXW5jM040W0NIMl1bQ0gyXU4oW0NIMl1bQ0gyXTQpW0NIMl1bQ0BASF01W0NIMl1bQ0gyXU9bQ0gyXTU=

> <s_epik_cmdline>
J2VwaWtfcHl0aG9uJywgJy1waCcsICc3LjAnLCAnLXRuJywgJzgnLCAnLW1hJywgJzIwMCcsICctbWV0YWxfYmluZGluZycsICctaW1hZScsICc8aW5maWxlLm1hZT4nLCAnLW9tYWUnLCAnPG91dGZpbGUubWFlPic=

> <r_lp_tautomer_probability>
1

> <r_epik_Ionization_Penalty>
0.010889

> <r_epik_Ionization_Penalty_Charging>
0.0108222

> <r_epik_Ionization_Penalty_Neutral>
6.6801e-05

> <r_epik_State_Penalty>
0.00829663

> <r_epik_Charging_Adjusted_Penalty>
0.0191189

> <i_epik_Tot_Q>
1

> <i_epik_Tot_abs_Q>
1

> <r_epik_Metal_State_Penalty>
0.00842341

> <b_epik_Metal_Only>
0

> <s_lp_Force_Field>
OPLS_2005

> <r_lp_Energy>
57.8888

> <b_lp_Chiralities_Consistent>
1

> <s_lp_Variant>
AV-unprocessed.smi:262-1

> <Gold.Version>
5.8.1

> <Gold.Id.Protein>
6NUR|6NUR_protein|mol2

> <Gold.PLP.Fitness>
51.6714

> <Gold.PLP.PLP>
-46.4207

> <Gold.PLP.part.hbond>
-1.0000

> <Gold.PLP.part.metal>
0.0000

> <Gold.PLP.part.buried>
-7.7502

> <Gold.PLP.part.nonpolar>
-41.4050

> <Gold.PLP.part.repulsive>
2.3975

> <Gold.PLP.ligand.clash>
0.0000

> <Gold.PLP.ligand.torsion>
0.5751

> <Gold.PLP.Chemscore.Hbond>
1.0000

> <Gold.PLP.Chemscore.CHOScore>
0.9856

> <Gold.PLP.Chemscore.Metal>
0.0000

> <Gold.Chemscore.Hbonds>
donor molecule, donor type, donor heavy atom, donor atom, acceptor molecule, acceptor atom, score
      L1  H     1    30       P1 10171  1.00
      L1  C     5    33       P1 10171  0.87

> <Gold.PLP.Chemscore.Internal.Correction>
0.4441

> <Gold.Rescore>
     Score         DG    S(hbond)    S(metal)    S(lipo)     H(rot)  DE(clash)    DE(int)     intcor
     14.18     -15.22       0.84        0.00     114.46       2.53       0.26       0.78       ----

> <Gold.Chemscore.Fitness>
14.1841

> <Gold.Chemscore.DG>
-15.2189

> <Gold.Chemscore.ZeroCoef>
-5.4800

> <Gold.Chemscore.Hbond>
0.8446

> <Gold.Chemscore.Metal>
0.0000

> <Gold.Chemscore.Lipo>
114.4587

> <Gold.Chemscore.Internal_Hbond>
0.0000

> <Gold.Chemscore.DEClash>
0.2593

> <Gold.Chemscore.DEInternal>
0.7754

> <Gold.Chemscore.Rot>
2.5288

> <Gold.Chemscore.Internal.Correction>
   9.000000E+99

> <Gold.Chemscore.Hbonds>
donor molecule, donor type, donor heavy atom, donor atom, acceptor molecule, acceptor atom, score
      L1  H     1    30       P1 10171  0.99

> <Gold.Chemscore.Hbond.Weighted>
-2.8211

> <Gold.Chemscore.Metal.Weighted>
-0.0000

> <Gold.Chemscore.Lipo.Weighted>
-13.3917

> <Gold.Chemscore.Internal_Hbond.Weighted>
0.0000

> <Gold.Chemscore.DEClash.Weighted>
0.2593

> <Gold.Chemscore.DEInternal.Weighted>
0.7754

> <Gold.Chemscore.Rot.Weighted>
6.4738

> <Gold.Chemscore.Internal.Correction.Weighted>
   9.000000E+99

> <Gold.Protein.RotatedTorsions>
[ 6907 6896 6895 6894 ] final  -24.82 input  -60.11 | X-H torsion
[ 7974 7965 7964 7962 ] final  148.50 input  175.53 | X-H torsion
[ 8008 7997 7996 7995 ] final  169.01 input   59.86 | X-H torsion
[ 10167 10162 10161 10158 ] final -145.20 input  -65.29 | X-H torsion
[ 10718 10713 10712 10709 ] final  -38.25 input   66.30 | X-H torsion
[ 10763 10752 10751 10750 ] final   60.83 input  -60.55 | X-H torsion
[ 11005 11000 10999 10996 ] final  130.15 input  -57.11 | X-H torsion

> <Gold.Protein.ActiveResidues>
 VAL166  LYS551  ARG553  GLY616  TRP617  ASP618  TYR619  PRO620  LYS621  CYS622 
 ASP623  PHE694  ASN695  SER759  ASP760  ASP761  ALA762  ILE779  LEU786  VAL792 
 PHE793  MET794  SER795  GLU796  ALA797  LYS798  CYS799  TRP800  GLU811  SER814 

> <Gold.Protein.RotatedAtoms>
  151.1840  135.0373  159.8804 H   0  0  0  0  0  0  0  0  0  0  0  0  # atno 6907 bound_to 6896
  152.5443  134.1030  159.8336 H   0  0  0  0  0  0  0  0  0  0  0  0  # atno 6908 bound_to 6896
  151.1151  133.5098  159.2636 H   0  0  0  0  0  0  0  0  0  0  0  0  # atno 6909 bound_to 6896
  144.8509  139.6162  143.5974 H   0  0  0  0  0  0  0  0  0  0  0  0  # atno 7974 bound_to 7965
  156.1496  140.1575  156.8791 H   0  0  0  0  0  0  0  0  0  0  0  0  # atno 8008 bound_to 7997
  154.5059  140.0813  156.7930 H   0  0  0  0  0  0  0  0  0  0  0  0  # atno 8009 bound_to 7997
  155.3922  140.3410  155.4254 H   0  0  0  0  0  0  0  0  0  0  0  0  # atno 8010 bound_to 7997
  139.7828  143.8076  152.2641 H   0  0  0  0  0  0  0  0  0  0  0  0  # atno 10167 bound_to 10162
  156.3059  130.4246  149.8097 H   0  0  0  0  0  0  0  0  0  0  0  0  # atno 10718 bound_to 10713
  152.9932  135.5522  154.5937 H   0  0  0  0  0  0  0  0  0  0  0  0  # atno 10763 bound_to 10752
  154.5293  135.2812  155.1196 H   0  0  0  0  0  0  0  0  0  0  0  0  # atno 10764 bound_to 10752
  154.2518  135.6397  153.5296 H   0  0  0  0  0  0  0  0  0  0  0  0  # atno 10765 bound_to 10752
  139.9656  134.9591  156.9252 H   0  0  0  0  0  0  0  0  0  0  0  0  # atno 11005 bound_to 11000
  146.2784  139.6811  142.9247 LP  0  0  0  0  0  0  0  0  0  0  0  0  # atno 17320 bound_to 7965
  145.4502  141.0428  143.2808 LP  0  0  0  0  0  0  0  0  0  0  0  0  # atno 17321 bound_to 7965
  139.8144  144.7322  150.9654 LP  0  0  0  0  0  0  0  0  0  0  0  0  # atno 17342 bound_to 10162
  140.7819  143.4219  151.0828 LP  0  0  0  0  0  0  0  0  0  0  0  0  # atno 17343 bound_to 10162
  156.5459  130.8320  151.3284 LP  0  0  0  0  0  0  0  0  0  0  0  0  # atno 17370 bound_to 10713
  157.7379  130.9804  150.2222 LP  0  0  0  0  0  0  0  0  0  0  0  0  # atno 17371 bound_to 10713
  140.5404  134.0725  155.7340 LP  0  0  0  0  0  0  0  0  0  0  0  0  # atno 17394 bound_to 11000
  141.1335  133.9261  157.2484 LP  0  0  0  0  0  0  0  0  0  0  0  0  # atno 17395 bound_to 11000

$$$$
