AV-unprocessed.smi:2180|AV-procd|sdf|8860|dock4
  -GOLD-   2272012 53D 1   1.00000     0.00000
 Structure written by MMmdl.
 39 40  0  0  0  0  0  0  0  0  1 V2000
  153.9270  141.1371  160.9495 C   0  0  0  0  0  0  0  0  0  0  0  0
  153.1143  142.2153  160.2956 C   0  0  0  0  0  0  0  0  0  0  0  0
  152.6716  143.4476  160.8528 C   0  0  0  0  0  0  0  0  0  0  0  0
  151.9844  144.0502  159.8370 C   0  0  0  0  0  0  0  0  0  0  0  0
  151.2850  145.3693  159.7957 C   0  0  0  0  0  0  0  0  0  0  0  0
  152.0371  143.1922  158.7528 N   0  0  0  0  0  0  0  0  0  0  0  0
  151.4793  143.3618  157.4190 C   0  0  0  0  0  0  0  0  0  0  0  0
  150.4381  142.2852  157.1045 C   0  0  0  0  0  0  0  0  0  0  0  0
  149.8821  141.6802  158.0209 O   0  0  0  0  0  0  0  0  0  0  0  0
  150.1890  142.0535  155.8051 N   0  0  0  0  0  0  0  0  0  0  0  0
  149.2383  141.0742  155.2772 C   0  0  1  0  0  0  0  0  0  0  0  0
  148.4023  141.7862  154.1893 C   0  0  0  0  0  0  0  0  0  0  0  0
  147.0477  141.1140  153.9068 C   0  0  0  0  0  0  0  0  0  0  0  0
  147.1370  139.7045  153.3030 C   0  0  0  0  0  0  0  0  0  0  0  0
  147.8250  138.6802  154.2214 C   0  0  0  0  0  0  0  0  0  0  0  0
  149.2752  138.8221  154.2142 N   0  0  0  0  0  0  0  0  0  0  0  0
  149.9847  139.8767  154.6441 C   0  0  0  0  0  0  0  0  0  0  0  0
  151.2105  139.8878  154.5310 O   0  0  0  0  0  0  0  0  0  0  0  0
  152.7296  142.0675  159.0389 N   0  0  0  0  0  0  0  0  0  0  0  0
  154.0698  141.3399  162.0110 H   0  0  0  0  0  0  0  0  0  0  0  0
  154.9132  141.0585  160.4912 H   0  0  0  0  0  0  0  0  0  0  0  0
  153.4388  140.1663  160.8605 H   0  0  0  0  0  0  0  0  0  0  0  0
  152.8370  143.8325  161.8482 H   0  0  0  0  0  0  0  0  0  0  0  0
  151.3475  145.8740  160.7600 H   0  0  0  0  0  0  0  0  0  0  0  0
  150.2302  145.2435  159.5517 H   0  0  0  0  0  0  0  0  0  0  0  0
  151.7316  146.0234  159.0464 H   0  0  0  0  0  0  0  0  0  0  0  0
  151.0198  144.3482  157.3378 H   0  0  0  0  0  0  0  0  0  0  0  0
  152.2884  143.3282  156.6887 H   0  0  0  0  0  0  0  0  0  0  0  0
  150.7025  142.5968  155.1261 H   0  0  0  0  0  0  0  0  0  0  0  0
  148.5909  140.7289  156.0852 H   0  0  0  0  0  0  0  0  0  0  0  0
  148.1885  142.8050  154.5174 H   0  0  0  0  0  0  0  0  0  0  0  0
  148.9721  141.8930  153.2644 H   0  0  0  0  0  0  0  0  0  0  0  0
  146.4625  141.0786  154.8264 H   0  0  0  0  0  0  0  0  0  0  0  0
  146.4835  141.7476  153.2216 H   0  0  0  0  0  0  0  0  0  0  0  0
  146.1225  139.3593  153.1008 H   0  0  0  0  0  0  0  0  0  0  0  0
  147.6388  139.7400  152.3351 H   0  0  0  0  0  0  0  0  0  0  0  0
  147.4389  138.7387  155.2401 H   0  0  0  0  0  0  0  0  0  0  0  0
  147.6008  137.6742  153.8660 H   0  0  0  0  0  0  0  0  0  0  0  0
  149.7952  138.0531  153.8168 H   0  0  0  0  0  0  0  0  0  0  0  0
  1  2  1  0  0  0  0
  1 20  1  0  0  0  0
  1 21  1  0  0  0  0
  1 22  1  0  0  0  0
  2 19  2  0  0  0  0
  2  3  1  0  0  0  0
  3  4  2  0  0  0  0
  3 23  1  0  0  0  0
  4  5  1  0  0  0  0
  4  6  1  0  0  0  0
  5 24  1  0  0  0  0
  5 25  1  0  0  0  0
  5 26  1  0  0  0  0
  6  7  1  0  0  0  0
  6 19  1  0  0  0  0
  7  8  1  0  0  0  0
  7 27  1  0  0  0  0
  7 28  1  0  0  0  0
  8  9  2  0  0  0  0
  8 10  1  0  0  0  0
 10 11  1  0  0  0  0
 10 29  1  0  0  0  0
 11 17  1  0  0  0  0
 11 12  1  0  0  0  0
 11 30  1  0  0  0  0
 12 13  1  0  0  0  0
 12 31  1  0  0  0  0
 12 32  1  0  0  0  0
 13 14  1  0  0  0  0
 13 33  1  0  0  0  0
 13 34  1  0  0  0  0
 14 15  1  0  0  0  0
 14 35  1  0  0  0  0
 14 36  1  0  0  0  0
 15 16  1  0  0  0  0
 15 37  1  0  0  0  0
 15 38  1  0  0  0  0
 16 17  1  0  0  0  0
 16 39  1  0  0  0  0
 17 18  2  0  0  0  0
M  END
> <s_m_source_file>
AV-unprocessed.smi

> <i_m_source_file_index>
2180

> <i_lp_mmshare_version>
43012

> <i_f3d_flags>
0

> <s_epik_input>
W0NIM11jMVtjSF1jKFtDSDNdKW4objEpW0NIMl1DKD1PKVtOSF1bQ0BASF0yW0NIMl1bQ0gyXVtDSDJdW0NIMl1bTkhdQzI9Tw==

> <s_epik_cmdline>
J2VwaWtfcHl0aG9uJywgJy1waCcsICc3LjAnLCAnLXRuJywgJzgnLCAnLW1hJywgJzIwMCcsICctbWV0YWxfYmluZGluZycsICctaW1hZScsICc8aW5maWxlLm1hZT4nLCAnLW9tYWUnLCAnPG91dGZpbGUubWFlPic=

> <r_lp_tautomer_probability>
1

> <r_epik_Ionization_Penalty>
0.000287215

> <r_epik_Ionization_Penalty_Charging>
0

> <r_epik_Ionization_Penalty_Neutral>
0.000287215

> <r_epik_State_Penalty>
-0

> <r_epik_Charging_Adjusted_Penalty>
0

> <i_epik_Tot_Q>
0

> <i_epik_Tot_abs_Q>
0

> <r_epik_Metal_State_Penalty>
-0

> <b_epik_Metal_Only>
0

> <s_lp_Force_Field>
OPLS_2005

> <r_lp_Energy>
9.48422

> <b_lp_Chiralities_Consistent>
1

> <s_lp_Variant>
AV-unprocessed.smi:2180-2

> <Gold.Version>
5.8.1

> <Gold.Id.Protein>
6NUR|6NUR_protein|mol2

> <Gold.PLP.Fitness>
45.2831

> <Gold.PLP.PLP>
-43.1810

> <Gold.PLP.part.hbond>
-2.0000

> <Gold.PLP.part.metal>
0.0000

> <Gold.PLP.part.buried>
-4.4302

> <Gold.PLP.part.nonpolar>
-37.3576

> <Gold.PLP.part.repulsive>
0.3326

> <Gold.PLP.ligand.clash>
0.0000

> <Gold.PLP.ligand.torsion>
0.4503

> <Gold.PLP.Chemscore.Hbond>
1.0000

> <Gold.PLP.Chemscore.CHOScore>
0.0000

> <Gold.PLP.Chemscore.Metal>
0.0000

> <Gold.Chemscore.Hbonds>
donor molecule, donor type, donor heavy atom, donor atom, acceptor molecule, acceptor atom, score
      P1  H  7989  7998       L1    18  0.88

> <Gold.PLP.Chemscore.Internal.Correction>
0.0029

> <Gold.Rescore>
     Score         DG    S(hbond)    S(metal)    S(lipo)     H(rot)  DE(clash)    DE(int)     intcor
     15.77     -16.22       0.98        0.00      96.38       1.48       0.06       0.38       ----

> <Gold.Chemscore.Fitness>
15.7720

> <Gold.Chemscore.DG>
-16.2162

> <Gold.Chemscore.ZeroCoef>
-5.4800

> <Gold.Chemscore.Hbond>
0.9756

> <Gold.Chemscore.Metal>
0.0000

> <Gold.Chemscore.Lipo>
96.3813

> <Gold.Chemscore.Internal_Hbond>
0.0000

> <Gold.Chemscore.DEClash>
0.0621

> <Gold.Chemscore.DEInternal>
0.3820

> <Gold.Chemscore.Rot>
1.4840

> <Gold.Chemscore.Internal.Correction>
   9.000000E+99

> <Gold.Chemscore.Hbonds>
donor molecule, donor type, donor heavy atom, donor atom, acceptor molecule, acceptor atom, score
      P1  H  7989  7998       L1    18  0.67

> <Gold.Chemscore.Hbond.Weighted>
-3.2586

> <Gold.Chemscore.Metal.Weighted>
-0.0000

> <Gold.Chemscore.Lipo.Weighted>
-11.2766

> <Gold.Chemscore.Internal_Hbond.Weighted>
0.0000

> <Gold.Chemscore.DEClash.Weighted>
0.0621

> <Gold.Chemscore.DEInternal.Weighted>
0.3820

> <Gold.Chemscore.Rot.Weighted>
3.7991

> <Gold.Chemscore.Internal.Correction.Weighted>
   9.000000E+99

> <Gold.Protein.RotatedTorsions>
[ 6907 6896 6895 6894 ] final  117.79 input  -60.11 | X-H torsion
[ 7974 7965 7964 7962 ] final -172.17 input  175.53 | X-H torsion
[ 8008 7997 7996 7995 ] final   70.26 input   59.86 | X-H torsion
[ 10167 10162 10161 10158 ] final -106.78 input  -65.29 | X-H torsion
[ 10718 10713 10712 10709 ] final   81.71 input   66.30 | X-H torsion
[ 10763 10752 10751 10750 ] final -173.83 input  -60.55 | X-H torsion
[ 11005 11000 10999 10996 ] final  -15.26 input  -57.11 | X-H torsion

> <Gold.Protein.ActiveResidues>
 VAL166  LYS551  ARG553  GLY616  TRP617  ASP618  TYR619  PRO620  LYS621  CYS622 
 ASP623  PHE694  ASN695  SER759  ASP760  ASP761  ALA762  ILE779  LEU786  VAL792 
 PHE793  MET794  SER795  GLU796  ALA797  LYS798  CYS799  TRP800  GLU811  SER814 

> <Gold.Protein.RotatedAtoms>
  152.4588  133.7778  159.6833 H   0  0  0  0  0  0  0  0  0  0  0  0  # atno 6907 bound_to 6896
  150.8524  133.7757  159.3027 H   0  0  0  0  0  0  0  0  0  0  0  0  # atno 6908 bound_to 6896
  151.5348  135.1071  159.9963 H   0  0  0  0  0  0  0  0  0  0  0  0  # atno 6909 bound_to 6896
  144.7149  140.1812  143.6358 H   0  0  0  0  0  0  0  0  0  0  0  0  # atno 7974 bound_to 7965
  155.7360  140.3491  155.5082 H   0  0  0  0  0  0  0  0  0  0  0  0  # atno 8008 bound_to 7997
  155.9138  140.1055  157.1281 H   0  0  0  0  0  0  0  0  0  0  0  0  # atno 8009 bound_to 7997
  154.4059  140.1263  156.4578 H   0  0  0  0  0  0  0  0  0  0  0  0  # atno 8010 bound_to 7997
  140.1841  143.3943  152.1258 H   0  0  0  0  0  0  0  0  0  0  0  0  # atno 10167 bound_to 10162
  157.6839  131.0016  150.2267 H   0  0  0  0  0  0  0  0  0  0  0  0  # atno 10718 bound_to 10713
  154.6033  135.2857  155.0511 H   0  0  0  0  0  0  0  0  0  0  0  0  # atno 10763 bound_to 10752
  154.1768  135.6463  153.5027 H   0  0  0  0  0  0  0  0  0  0  0  0  # atno 10764 bound_to 10752
  153.0165  135.5414  154.6760 H   0  0  0  0  0  0  0  0  0  0  0  0  # atno 10765 bound_to 10752
  140.7948  133.8260  155.9413 H   0  0  0  0  0  0  0  0  0  0  0  0  # atno 11005 bound_to 11000
  145.8854  139.2346  143.1580 LP  0  0  0  0  0  0  0  0  0  0  0  0  # atno 17320 bound_to 7965
  145.9954  140.8566  143.0045 LP  0  0  0  0  0  0  0  0  0  0  0  0  # atno 17321 bound_to 7965
  139.5283  144.7129  151.5147 LP  0  0  0  0  0  0  0  0  0  0  0  0  # atno 17342 bound_to 10162
  140.6500  143.8716  150.6776 LP  0  0  0  0  0  0  0  0  0  0  0  0  # atno 17343 bound_to 10162
  156.2907  130.3745  149.7844 LP  0  0  0  0  0  0  0  0  0  0  0  0  # atno 17370 bound_to 10713
  156.5504  130.8339  151.3298 LP  0  0  0  0  0  0  0  0  0  0  0  0  # atno 17371 bound_to 10713
  140.9354  134.1969  157.4835 LP  0  0  0  0  0  0  0  0  0  0  0  0  # atno 17394 bound_to 11000
  139.8727  134.9850  156.5263 LP  0  0  0  0  0  0  0  0  0  0  0  0  # atno 17395 bound_to 11000

$$$$
