AV-unprocessed.smi:970|AV-procd|sdf|4294|dock5
  -GOLD-   22720 2203D 1   1.00000     0.00000
 Structure written by MMmdl.
 31 31  0  0  0  0  0  0  0  0  1 V2000
  149.7832  138.6546  154.4440 C   0  0  0  0  0  0  0  0  0  0  0  0
  148.6491  138.1465  153.6881 N   0  0  0  0  0  0  0  0  0  0  0  0
  147.3833  138.1533  154.1297 C   0  0  0  0  0  0  0  0  0  0  0  0
  147.0587  138.5901  155.2354 O   0  0  0  0  0  0  0  0  0  0  0  0
  146.3282  137.5607  153.1810 C   0  0  1  0  0  0  0  0  0  0  0  0
  146.3488  138.3734  151.8756 C   0  0  0  0  0  0  0  0  0  0  0  0
  146.6514  136.1740  152.8512 N   0  0  0  0  0  0  0  0  0  0  0  0
  145.7973  135.1396  152.9223 C   0  0  0  0  0  0  0  0  0  0  0  0
  144.6241  135.2609  153.2775 O   0  0  0  0  0  0  0  0  0  0  0  0
  146.3612  133.7653  152.5304 C   0  0  1  0  0  0  0  0  0  0  0  0
  146.4849  132.8098  153.7348 C   0  0  0  0  0  0  0  0  0  0  0  0
  145.5736  133.1915  151.4459 N   0  0  0  0  0  0  0  0  0  0  0  0
  145.7754  132.0792  150.7356 C   0  0  0  0  0  0  0  0  0  0  0  0
  144.8799  131.8804  149.7787 N   0  0  0  0  0  0  0  0  0  0  0  0
  144.1054  132.9912  149.9574 C   0  0  0  0  0  0  0  0  0  0  0  0
  144.4827  133.8151  150.9345 N   0  0  0  0  0  0  0  0  0  0  0  0
  150.6876  138.6028  153.8380 H   0  0  0  0  0  0  0  0  0  0  0  0
  149.9424  138.0627  155.3462 H   0  0  0  0  0  0  0  0  0  0  0  0
  149.6255  139.6947  154.7325 H   0  0  0  0  0  0  0  0  0  0  0  0
  148.8360  137.7714  152.7694 H   0  0  0  0  0  0  0  0  0  0  0  0
  145.3358  137.6171  153.6328 H   0  0  0  0  0  0  0  0  0  0  0  0
  146.1117  139.4226  152.0576 H   0  0  0  0  0  0  0  0  0  0  0  0
  145.6101  137.9931  151.1694 H   0  0  0  0  0  0  0  0  0  0  0  0
  147.3230  138.3324  151.3857 H   0  0  0  0  0  0  0  0  0  0  0  0
  147.5995  135.9870  152.5594 H   0  0  0  0  0  0  0  0  0  0  0  0
  147.3692  133.9238  152.1430 H   0  0  0  0  0  0  0  0  0  0  0  0
  147.1272  133.2341  154.5071 H   0  0  0  0  0  0  0  0  0  0  0  0
  146.9234  131.8584  153.4327 H   0  0  0  0  0  0  0  0  0  0  0  0
  145.5175  132.5965  154.1916 H   0  0  0  0  0  0  0  0  0  0  0  0
  146.5975  131.4030  150.9194 H   0  0  0  0  0  0  0  0  0  0  0  0
  143.2415  133.2027  149.3445 H   0  0  0  0  0  0  0  0  0  0  0  0
  1  2  1  0  0  0  0
  1 17  1  0  0  0  0
  1 18  1  0  0  0  0
  1 19  1  0  0  0  0
  2  3  1  0  0  0  0
  2 20  1  0  0  0  0
  3  4  2  0  0  0  0
  3  5  1  0  0  0  0
  5  6  1  0  0  0  0
  5  7  1  0  0  0  0
  5 21  1  0  0  0  0
  6 22  1  0  0  0  0
  6 23  1  0  0  0  0
  6 24  1  0  0  0  0
  7  8  1  0  0  0  0
  7 25  1  0  0  0  0
  8  9  2  0  0  0  0
  8 10  1  0  0  0  0
 10 11  1  0  0  0  0
 10 12  1  0  0  0  0
 10 26  1  0  0  0  0
 11 27  1  0  0  0  0
 11 28  1  0  0  0  0
 11 29  1  0  0  0  0
 12 16  1  0  0  0  0
 12 13  1  0  0  0  0
 13 14  2  0  0  0  0
 13 30  1  0  0  0  0
 14 15  1  0  0  0  0
 15 16  2  0  0  0  0
 15 31  1  0  0  0  0
M  END
> <s_m_source_file>
AV-unprocessed.smi

> <i_m_source_file_index>
970

> <i_lp_mmshare_version>
43012

> <i_f3d_flags>
0

> <s_epik_input>
W0NIM11bTkhdQyg9TylbQ0BIXShbQ0gzXSlbTkhdQyg9TylbQ0BIXShbQ0gzXSluMVtjSF1uW2NIXW4x

> <s_epik_cmdline>
J2VwaWtfcHl0aG9uJywgJy1waCcsICc3LjAnLCAnLXRuJywgJzgnLCAnLW1hJywgJzIwMCcsICctbWV0YWxfYmluZGluZycsICctaW1hZScsICc8aW5maWxlLm1hZT4nLCAnLW9tYWUnLCAnPG91dGZpbGUubWFlPic=

> <r_lp_tautomer_probability>
1

> <r_epik_Ionization_Penalty>
1.07271e-05

> <r_epik_Ionization_Penalty_Charging>
0

> <r_epik_Ionization_Penalty_Neutral>
1.07271e-05

> <r_epik_State_Penalty>
-0

> <r_epik_Charging_Adjusted_Penalty>
0

> <i_epik_Tot_Q>
0

> <i_epik_Tot_abs_Q>
0

> <r_epik_Metal_State_Penalty>
-0

> <b_epik_Metal_Only>
0

> <s_lp_Force_Field>
OPLS_2005

> <r_lp_Energy>
8.70478

> <b_lp_Chiralities_Consistent>
1

> <s_lp_Variant>
AV-unprocessed.smi:970-4

> <Gold.Version>
5.8.1

> <Gold.Id.Protein>
6NUR|6NUR_protein|mol2

> <Gold.PLP.Fitness>
32.7589

> <Gold.PLP.PLP>
-21.4706

> <Gold.PLP.part.hbond>
-2.4471

> <Gold.PLP.part.metal>
0.0000

> <Gold.PLP.part.buried>
-4.3995

> <Gold.PLP.part.nonpolar>
-16.9699

> <Gold.PLP.part.repulsive>
0.4089

> <Gold.PLP.ligand.clash>
0.0000

> <Gold.PLP.ligand.torsion>
0.2069

> <Gold.PLP.Chemscore.Hbond>
1.8640

> <Gold.PLP.Chemscore.CHOScore>
2.0000

> <Gold.PLP.Chemscore.Metal>
0.0000

> <Gold.Chemscore.Hbonds>
donor molecule, donor type, donor heavy atom, donor atom, acceptor molecule, acceptor atom, score
      L1  H     2    20       P1  7948  0.88
      L1  H     7    25       P1  7948  1.00
      L1  C    13    30       P1 10747  1.00
      L1  C    15    31       P1 10186  0.95

> <Gold.PLP.Chemscore.Internal.Correction>
0.1101

> <Gold.Rescore>
     Score         DG    S(hbond)    S(metal)    S(lipo)     H(rot)  DE(clash)    DE(int)     intcor
      6.96      -8.42       1.89        0.00      27.79       2.59       0.01       1.45       ----

> <Gold.Chemscore.Fitness>
6.9575

> <Gold.Chemscore.DG>
-8.4181

> <Gold.Chemscore.ZeroCoef>
-5.4800

> <Gold.Chemscore.Hbond>
1.8877

> <Gold.Chemscore.Metal>
0.0000

> <Gold.Chemscore.Lipo>
27.7881

> <Gold.Chemscore.Internal_Hbond>
0.0000

> <Gold.Chemscore.DEClash>
0.0060

> <Gold.Chemscore.DEInternal>
1.4546

> <Gold.Chemscore.Rot>
2.5852

> <Gold.Chemscore.Internal.Correction>
   9.000000E+99

> <Gold.Chemscore.Hbonds>
donor molecule, donor type, donor heavy atom, donor atom, acceptor molecule, acceptor atom, score
      L1  H     2    20       P1  7948  0.87
      L1  H     7    25       P1  7948  0.93

> <Gold.Chemscore.Hbond.Weighted>
-6.3051

> <Gold.Chemscore.Metal.Weighted>
-0.0000

> <Gold.Chemscore.Lipo.Weighted>
-3.2512

> <Gold.Chemscore.Internal_Hbond.Weighted>
0.0000

> <Gold.Chemscore.DEClash.Weighted>
0.0060

> <Gold.Chemscore.DEInternal.Weighted>
1.4546

> <Gold.Chemscore.Rot.Weighted>
6.6182

> <Gold.Chemscore.Internal.Correction.Weighted>
   9.000000E+99

> <Gold.Protein.RotatedTorsions>
[ 6907 6896 6895 6894 ] final -111.11 input  -60.11 | X-H torsion
[ 7974 7965 7964 7962 ] final   13.55 input  175.53 | X-H torsion
[ 8008 7997 7996 7995 ] final   35.99 input   59.86 | X-H torsion
[ 10167 10162 10161 10158 ] final  -13.56 input  -65.29 | X-H torsion
[ 10718 10713 10712 10709 ] final   75.96 input   66.30 | X-H torsion
[ 10763 10752 10751 10750 ] final  -96.42 input  -60.55 | X-H torsion
[ 11005 11000 10999 10996 ] final    8.16 input  -57.11 | X-H torsion

> <Gold.Protein.ActiveResidues>
 VAL166  LYS551  ARG553  GLY616  TRP617  ASP618  TYR619  PRO620  LYS621  CYS622 
 ASP623  PHE694  ASN695  SER759  ASP760  ASP761  ALA762  ILE779  LEU786  VAL792 
 PHE793  MET794  SER795  GLU796  ALA797  LYS798  CYS799  TRP800  GLU811  SER814 

> <Gold.Protein.RotatedAtoms>
  150.7669  133.9283  159.3418 H   0  0  0  0  0  0  0  0  0  0  0  0  # atno 6907 bound_to 6896
  151.7179  135.0898  160.0288 H   0  0  0  0  0  0  0  0  0  0  0  0  # atno 6908 bound_to 6896
  152.3668  133.6330  159.6093 H   0  0  0  0  0  0  0  0  0  0  0  0  # atno 6909 bound_to 6896
  146.2326  139.9171  142.8515 H   0  0  0  0  0  0  0  0  0  0  0  0  # atno 7974 bound_to 7965
  155.1801  140.3299  155.4376 H   0  0  0  0  0  0  0  0  0  0  0  0  # atno 8008 bound_to 7997
  156.2479  140.1928  156.6850 H   0  0  0  0  0  0  0  0  0  0  0  0  # atno 8009 bound_to 7997
  154.6277  140.0587  156.9680 H   0  0  0  0  0  0  0  0  0  0  0  0  # atno 8010 bound_to 7997
  140.7184  143.5413  150.9406 H   0  0  0  0  0  0  0  0  0  0  0  0  # atno 10167 bound_to 10162
  157.6655  130.9752  150.1429 H   0  0  0  0  0  0  0  0  0  0  0  0  # atno 10718 bound_to 10713
  154.7238  135.5084  153.8854 H   0  0  0  0  0  0  0  0  0  0  0  0  # atno 10763 bound_to 10752
  153.0886  135.6652  153.9907 H   0  0  0  0  0  0  0  0  0  0  0  0  # atno 10764 bound_to 10752
  153.9724  135.3037  155.3406 H   0  0  0  0  0  0  0  0  0  0  0  0  # atno 10765 bound_to 10752
  140.5401  134.0383  155.7901 H   0  0  0  0  0  0  0  0  0  0  0  0  # atno 11005 bound_to 11000
  145.2172  140.9920  143.4066 LP  0  0  0  0  0  0  0  0  0  0  0  0  # atno 17320 bound_to 7965
  144.9640  139.3949  143.6341 LP  0  0  0  0  0  0  0  0  0  0  0  0  # atno 17321 bound_to 7965
  139.9136  143.6691  152.3110 LP  0  0  0  0  0  0  0  0  0  0  0  0  # atno 17342 bound_to 10162
  139.7083  144.7624  151.1156 LP  0  0  0  0  0  0  0  0  0  0  0  0  # atno 17343 bound_to 10162
  156.2247  130.3677  149.8514 LP  0  0  0  0  0  0  0  0  0  0  0  0  # atno 17370 bound_to 10713
  156.6358  130.8684  151.3504 LP  0  0  0  0  0  0  0  0  0  0  0  0  # atno 17371 bound_to 10713
  141.1232  133.9427  157.2688 LP  0  0  0  0  0  0  0  0  0  0  0  0  # atno 17394 bound_to 11000
  139.9508  135.0175  156.8989 LP  0  0  0  0  0  0  0  0  0  0  0  0  # atno 17395 bound_to 11000

$$$$
