AV-unprocessed.smi:909|AV-procd|sdf|4115|dock2
  -GOLD-   22720 2 13D 1   1.00000     0.00000
 Structure written by MMmdl.
 39 40  0  0  0  0  0  0  0  0  2 V2000
  151.2202  145.2039  159.2024 C   0  0  0  0  0  0  0  0  0  0  0  0
  151.9029  144.0162  159.8170 C   0  0  0  0  0  0  0  0  0  0  0  0
  152.1703  144.0163  161.1122 N   0  0  0  0  0  0  0  0  0  0  0  0
  152.7872  142.7898  161.3757 O   0  0  0  0  0  0  0  0  0  0  0  0
  152.8723  142.0930  160.2138 C   0  0  0  0  0  0  0  0  0  0  0  0
  153.4958  140.7401  160.2879 C   0  0  0  0  0  0  0  0  0  0  0  0
  152.3368  142.8166  159.1836 C   0  0  0  0  0  0  0  0  0  0  0  0
  152.2175  142.4412  157.7287 C   0  0  0  0  0  0  0  0  0  0  0  0
  151.5562  141.0690  157.6079 C   0  0  0  0  0  0  0  0  0  0  0  0
  151.1493  140.5068  158.6227 O   0  0  0  0  0  0  0  0  0  0  0  0
  151.4956  140.5681  156.3602 N   0  0  0  0  0  0  0  0  0  0  0  0
  150.9621  139.3081  155.8156 C   0  0  0  0  0  0  0  0  0  0  0  0
  152.2080  138.5261  155.3294 C   0  0  0  0  0  0  0  0  0  0  0  0
  153.3323  139.0504  155.4940 O   0  0  0  0  0  0  0  0  0  0  0  0
  152.0219  137.4294  154.7544 O   0  5  0  0  0  0  0  0  0  0  0  0
  150.1291  138.4226  156.8007 C   0  0  0  0  0  0  0  0  0  0  0  0
  148.7319  138.9854  157.1314 C   0  0  0  0  0  0  0  0  0  0  0  0
  147.9310  139.2894  155.8612 C   0  0  0  0  0  0  0  0  0  0  0  0
  148.7108  140.2440  154.9513 C   0  0  0  0  0  0  0  0  0  0  0  0
  150.0831  139.6585  154.5795 C   0  0  0  0  0  0  0  0  0  0  0  0
  151.9493  145.9055  158.7975 H   0  0  0  0  0  0  0  0  0  0  0  0
  150.6119  145.7385  159.9328 H   0  0  0  0  0  0  0  0  0  0  0  0
  150.5616  144.9007  158.3883 H   0  0  0  0  0  0  0  0  0  0  0  0
  152.7303  139.9642  160.2863 H   0  0  0  0  0  0  0  0  0  0  0  0
  154.0868  140.6290  161.1974 H   0  0  0  0  0  0  0  0  0  0  0  0
  154.1531  140.5681  159.4355 H   0  0  0  0  0  0  0  0  0  0  0  0
  151.6249  143.1716  157.1765 H   0  0  0  0  0  0  0  0  0  0  0  0
  153.1930  142.4161  157.2414 H   0  0  0  0  0  0  0  0  0  0  0  0
  151.9080  141.1588  155.6533 H   0  0  0  0  0  0  0  0  0  0  0  0
  149.9784  137.4422  156.3457 H   0  0  0  0  0  0  0  0  0  0  0  0
  150.6769  138.2198  157.7211 H   0  0  0  0  0  0  0  0  0  0  0  0
  148.1863  138.2709  157.7483 H   0  0  0  0  0  0  0  0  0  0  0  0
  148.8152  139.8946  157.7250 H   0  0  0  0  0  0  0  0  0  0  0  0
  147.7177  138.3623  155.3279 H   0  0  0  0  0  0  0  0  0  0  0  0
  146.9676  139.7268  156.1238 H   0  0  0  0  0  0  0  0  0  0  0  0
  148.1367  140.4409  154.0456 H   0  0  0  0  0  0  0  0  0  0  0  0
  148.8406  141.2056  155.4494 H   0  0  0  0  0  0  0  0  0  0  0  0
  150.5992  140.3643  153.9263 H   0  0  0  0  0  0  0  0  0  0  0  0
  149.9188  138.7617  153.9792 H   0  0  0  0  0  0  0  0  0  0  0  0
  1  2  1  0  0  0  0
  1 21  1  0  0  0  0
  1 22  1  0  0  0  0
  1 23  1  0  0  0  0
  2  7  1  0  0  0  0
  2  3  2  0  0  0  0
  3  4  1  0  0  0  0
  4  5  1  0  0  0  0
  5  6  1  0  0  0  0
  5  7  2  0  0  0  0
  6 24  1  0  0  0  0
  6 25  1  0  0  0  0
  6 26  1  0  0  0  0
  7  8  1  0  0  0  0
  8  9  1  0  0  0  0
  8 27  1  0  0  0  0
  8 28  1  0  0  0  0
  9 10  2  0  0  0  0
  9 11  1  0  0  0  0
 11 12  1  0  0  0  0
 11 29  1  0  0  0  0
 12 20  1  0  0  0  0
 12 13  1  0  0  0  0
 12 16  1  0  0  0  0
 13 14  2  0  0  0  0
 13 15  1  0  0  0  0
 16 17  1  0  0  0  0
 16 30  1  0  0  0  0
 16 31  1  0  0  0  0
 17 18  1  0  0  0  0
 17 32  1  0  0  0  0
 17 33  1  0  0  0  0
 18 19  1  0  0  0  0
 18 34  1  0  0  0  0
 18 35  1  0  0  0  0
 19 20  1  0  0  0  0
 19 36  1  0  0  0  0
 19 37  1  0  0  0  0
 20 38  1  0  0  0  0
 20 39  1  0  0  0  0
M  CHG  1  15  -1
M  END
> <s_m_source_file>
AV-unprocessed.smi

> <i_m_source_file_index>
909

> <i_lp_mmshare_version>
43012

> <i_f3d_flags>
0

> <s_epik_input>
W0NIM11jMW5vYyhbQ0gzXSljMVtDSDJdQyg9TylbTkhdQzIoQyg9TylbT0hdKVtDSDJdW0NIMl1bQ0gyXVtDSDJdW0NIMl0y

> <s_epik_cmdline>
J2VwaWtfcHl0aG9uJywgJy1waCcsICc3LjAnLCAnLXRuJywgJzgnLCAnLW1hJywgJzIwMCcsICctbWV0YWxfYmluZGluZycsICctaW1hZScsICc8aW5maWxlLm1hZT4nLCAnLW9tYWUnLCAnPG91dGZpbGUubWFlPic=

> <r_epik_Ionization_Penalty>
0.000391234

> <r_epik_Ionization_Penalty_Charging>
0.000391215

> <r_epik_Ionization_Penalty_Neutral>
1.90707e-08

> <r_epik_State_Penalty>
0.000239413

> <r_epik_Charging_Adjusted_Penalty>
0.000630628

> <i_epik_Tot_Q>
-1

> <i_epik_Tot_abs_Q>
1

> <r_epik_Metal_State_Penalty>
-0

> <b_epik_Metal_Only>
0

> <s_lp_Force_Field>
OPLS_2005

> <r_lp_Energy>
2.68806

> <b_lp_Chiralities_Consistent>
1

> <s_lp_Variant>
AV-unprocessed.smi:909-1

> <Gold.Version>
5.8.1

> <Gold.Id.Protein>
6NUR|6NUR_protein|mol2

> <Gold.PLP.Fitness>
43.8978

> <Gold.PLP.PLP>
-33.1507

> <Gold.PLP.part.hbond>
-2.0000

> <Gold.PLP.part.metal>
0.0000

> <Gold.PLP.part.buried>
-7.6879

> <Gold.PLP.part.nonpolar>
-24.2651

> <Gold.PLP.part.repulsive>
0.4248

> <Gold.PLP.ligand.clash>
0.0000

> <Gold.PLP.ligand.torsion>
0.2537

> <Gold.PLP.Chemscore.Hbond>
3.7280

> <Gold.PLP.Chemscore.CHOScore>
0.0000

> <Gold.PLP.Chemscore.Metal>
0.0000

> <Gold.Chemscore.Hbonds>
donor molecule, donor type, donor heavy atom, donor atom, acceptor molecule, acceptor atom, score
      P1  H  7997  8008       L1    14  2.00
      P1  H 10752 10765       L1    15  1.73

> <Gold.PLP.Chemscore.Internal.Correction>
0.0706

> <Gold.Rescore>
     Score         DG    S(hbond)    S(metal)    S(lipo)     H(rot)  DE(clash)    DE(int)     intcor
     12.85     -16.40       1.81        0.00      83.98       1.93       0.99       2.57       ----

> <Gold.Chemscore.Fitness>
12.8470

> <Gold.Chemscore.DG>
-16.4023

> <Gold.Chemscore.ZeroCoef>
-5.4800

> <Gold.Chemscore.Hbond>
1.8068

> <Gold.Chemscore.Metal>
0.0000

> <Gold.Chemscore.Lipo>
83.9796

> <Gold.Chemscore.Internal_Hbond>
0.0000

> <Gold.Chemscore.DEClash>
0.9867

> <Gold.Chemscore.DEInternal>
2.5687

> <Gold.Chemscore.Rot>
1.9289

> <Gold.Chemscore.Internal.Correction>
   9.000000E+99

> <Gold.Chemscore.Hbonds>
donor molecule, donor type, donor heavy atom, donor atom, acceptor molecule, acceptor atom, score
      P1  H  7997  8008       L1    14  0.98
      P1  H 10752 10765       L1    15  0.79

> <Gold.Chemscore.Hbond.Weighted>
-6.0346

> <Gold.Chemscore.Metal.Weighted>
-0.0000

> <Gold.Chemscore.Lipo.Weighted>
-9.8256

> <Gold.Chemscore.Internal_Hbond.Weighted>
0.0000

> <Gold.Chemscore.DEClash.Weighted>
0.9867

> <Gold.Chemscore.DEInternal.Weighted>
2.5687

> <Gold.Chemscore.Rot.Weighted>
4.9379

> <Gold.Chemscore.Internal.Correction.Weighted>
   9.000000E+99

> <Gold.Protein.RotatedTorsions>
[ 6907 6896 6895 6894 ] final  -90.98 input  -60.11 | X-H torsion
[ 7974 7965 7964 7962 ] final  -24.95 input  175.53 | X-H torsion
[ 8008 7997 7996 7995 ] final  -24.53 input   59.86 | X-H torsion
[ 10167 10162 10161 10158 ] final  143.54 input  -65.29 | X-H torsion
[ 10718 10713 10712 10709 ] final  -59.46 input   66.30 | X-H torsion
[ 10763 10752 10751 10750 ] final  172.03 input  -60.55 | X-H torsion
[ 11005 11000 10999 10996 ] final  -25.41 input  -57.11 | X-H torsion

> <Gold.Protein.ActiveResidues>
 VAL166  LYS551  ARG553  GLY616  TRP617  ASP618  TYR619  PRO620  LYS621  CYS622 
 ASP623  PHE694  ASN695  SER759  ASP760  ASP761  ALA762  ILE779  LEU786  VAL792 
 PHE793  MET794  SER795  GLU796  ALA797  LYS798  CYS799  TRP800  GLU811  SER814 

> <Gold.Protein.RotatedAtoms>
  150.6887  134.2347  159.4448 H   0  0  0  0  0  0  0  0  0  0  0  0  # atno 6907 bound_to 6896
  152.0296  134.9773  160.0581 H   0  0  0  0  0  0  0  0  0  0  0  0  # atno 6908 bound_to 6896
  152.1318  133.4377  159.4761 H   0  0  0  0  0  0  0  0  0  0  0  0  # atno 6909 bound_to 6896
  146.1522  140.4821  142.8606 H   0  0  0  0  0  0  0  0  0  0  0  0  # atno 7974 bound_to 7965
  154.4524  140.1951  156.0479 H   0  0  0  0  0  0  0  0  0  0  0  0  # atno 8008 bound_to 7997
  156.0676  140.3289  155.7509 H   0  0  0  0  0  0  0  0  0  0  0  0  # atno 8009 bound_to 7997
  155.5314  140.0578  157.2879 H   0  0  0  0  0  0  0  0  0  0  0  0  # atno 8010 bound_to 7997
  139.4967  144.6033  151.6433 H   0  0  0  0  0  0  0  0  0  0  0  0  # atno 10167 bound_to 10162
  156.1060  130.4180  150.0718 H   0  0  0  0  0  0  0  0  0  0  0  0  # atno 10718 bound_to 10713
  154.4204  135.2758  155.1979 H   0  0  0  0  0  0  0  0  0  0  0  0  # atno 10763 bound_to 10752
  154.3927  135.6062  153.5856 H   0  0  0  0  0  0  0  0  0  0  0  0  # atno 10764 bound_to 10752
  152.9833  135.5907  154.4499 H   0  0  0  0  0  0  0  0  0  0  0  0  # atno 10765 bound_to 10752
  140.8935  133.7572  156.0451 H   0  0  0  0  0  0  0  0  0  0  0  0  # atno 11005 bound_to 11000
  144.7918  140.6046  143.6536 LP  0  0  0  0  0  0  0  0  0  0  0  0  # atno 17320 bound_to 7965
  145.4796  139.1496  143.3769 LP  0  0  0  0  0  0  0  0  0  0  0  0  # atno 17321 bound_to 7965
  140.5689  144.0143  150.6206 LP  0  0  0  0  0  0  0  0  0  0  0  0  # atno 17342 bound_to 10162
  140.3254  143.3111  152.0742 LP  0  0  0  0  0  0  0  0  0  0  0  0  # atno 17343 bound_to 10162
  156.8693  130.9519  151.3611 LP  0  0  0  0  0  0  0  0  0  0  0  0  # atno 17370 bound_to 10713
  157.6237  130.8675  149.9152 LP  0  0  0  0  0  0  0  0  0  0  0  0  # atno 17371 bound_to 10713
  140.8318  134.3170  157.5346 LP  0  0  0  0  0  0  0  0  0  0  0  0  # atno 17394 bound_to 11000
  139.8732  134.9367  156.3668 LP  0  0  0  0  0  0  0  0  0  0  0  0  # atno 17395 bound_to 11000

$$$$
