AV-unprocessed.smi:3047|AV-procd|sdf|11621|dock8
  -GOLD-   2272017 03D 1   1.00000     0.00000
 Structure written by MMmdl.
 38 39  0  0  0  0  0  0  0  0  2 V2000
  149.0717  136.3612  155.8894 C   0  0  0  0  0  0  0  0  0  0  0  0
  150.6321  136.7220  156.7926 S   0  0  0  0  0  0  0  0  0  0  0  0
  150.5805  136.0377  158.0937 O   0  0  0  0  0  0  0  0  0  0  0  0
  151.7742  136.5010  155.8926 O   0  0  0  0  0  0  0  0  0  0  0  0
  150.5179  138.4221  157.0942 N   0  0  0  0  0  0  0  0  0  0  0  0
  149.2483  139.1071  156.8150 C   0  0  0  0  0  0  0  0  0  0  0  0
  149.6124  140.5713  156.5830 C   0  0  0  0  0  0  0  0  0  0  0  0
  151.0149  140.4875  155.9965 C   0  0  0  0  0  0  0  0  0  0  0  0
  151.6498  139.2825  156.7129 C   0  0  1  0  0  0  0  0  0  0  0  0
  152.5214  139.6759  157.9140 C   0  0  0  0  0  0  0  0  0  0  0  0
  153.5690  139.0750  158.1557 O   0  0  0  0  0  0  0  0  0  0  0  0
  152.0808  140.7045  158.6547 N   0  0  0  0  0  0  0  0  0  0  0  0
  152.7725  141.2605  159.8109 C   0  0  0  0  0  0  0  0  0  0  0  0
  153.3307  142.6637  159.5207 C   0  0  0  0  0  0  0  0  0  0  0  0
  152.2643  143.6108  159.1921 N   0  0  0  0  0  0  0  0  0  0  0  0
  151.7778  144.6177  159.9857 C   0  0  0  0  0  0  0  0  0  0  0  0
  150.7940  145.2432  159.2638 C   0  0  0  0  0  0  0  0  0  0  0  0
  150.7219  144.5919  158.0611 N   0  3  0  0  0  0  0  0  0  0  0  0
  151.6175  143.5997  158.0193 C   0  0  0  0  0  0  0  0  0  0  0  0
  149.0134  135.2930  155.6818 H   0  0  0  0  0  0  0  0  0  0  0  0
  149.0551  136.9115  154.9492 H   0  0  0  0  0  0  0  0  0  0  0  0
  148.2196  136.6581  156.5004 H   0  0  0  0  0  0  0  0  0  0  0  0
  148.7987  138.6867  155.9147 H   0  0  0  0  0  0  0  0  0  0  0  0
  148.5475  138.9780  157.6401 H   0  0  0  0  0  0  0  0  0  0  0  0
  148.9085  141.0832  155.9265 H   0  0  0  0  0  0  0  0  0  0  0  0
  149.6359  141.1049  157.5340 H   0  0  0  0  0  0  0  0  0  0  0  0
  150.9548  140.2860  154.9260 H   0  0  0  0  0  0  0  0  0  0  0  0
  151.5711  141.4181  156.1187 H   0  0  0  0  0  0  0  0  0  0  0  0
  152.2782  138.7531  155.9943 H   0  0  0  0  0  0  0  0  0  0  0  0
  151.2187  141.1519  158.3768 H   0  0  0  0  0  0  0  0  0  0  0  0
  152.0975  141.2848  160.6683 H   0  0  0  0  0  0  0  0  0  0  0  0
  153.5855  140.5837  160.0757 H   0  0  0  0  0  0  0  0  0  0  0  0
  153.8837  143.0483  160.3792 H   0  0  0  0  0  0  0  0  0  0  0  0
  154.0219  142.6432  158.6767 H   0  0  0  0  0  0  0  0  0  0  0  0
  152.1592  144.8097  160.9787 H   0  0  0  0  0  0  0  0  0  0  0  0
  150.1570  146.0806  159.5092 H   0  0  0  0  0  0  0  0  0  0  0  0
  151.7844  142.9242  157.1990 H   0  0  0  0  0  0  0  0  0  0  0  0
  150.0847  144.8261  157.3100 H   0  0  0  0  0  0  0  0  0  0  0  0
  1  2  1  0  0  0  0
  1 20  1  0  0  0  0
  1 21  1  0  0  0  0
  1 22  1  0  0  0  0
  2  3  2  0  0  0  0
  2  4  2  0  0  0  0
  2  5  1  0  0  0  0
  5  9  1  0  0  0  0
  5  6  1  0  0  0  0
  6  7  1  0  0  0  0
  6 23  1  0  0  0  0
  6 24  1  0  0  0  0
  7  8  1  0  0  0  0
  7 25  1  0  0  0  0
  7 26  1  0  0  0  0
  8  9  1  0  0  0  0
  8 27  1  0  0  0  0
  8 28  1  0  0  0  0
  9 10  1  0  0  0  0
  9 29  1  0  0  0  0
 10 11  2  0  0  0  0
 10 12  1  0  0  0  0
 12 13  1  0  0  0  0
 12 30  1  0  0  0  0
 13 14  1  0  0  0  0
 13 31  1  0  0  0  0
 13 32  1  0  0  0  0
 14 15  1  0  0  0  0
 14 33  1  0  0  0  0
 14 34  1  0  0  0  0
 15 19  1  0  0  0  0
 15 16  1  0  0  0  0
 16 17  2  0  0  0  0
 16 35  1  0  0  0  0
 17 18  1  0  0  0  0
 17 36  1  0  0  0  0
 18 19  2  0  0  0  0
 18 38  1  0  0  0  0
 19 37  1  0  0  0  0
M  CHG  1  18   1
M  END
> <s_m_source_file>
AV-unprocessed.smi

> <i_m_source_file_index>
3047

> <i_lp_mmshare_version>
43012

> <i_f3d_flags>
0

> <s_epik_input>
W0NIM11TKD1PKSg9TylOMVtDSDJdW0NIMl1bQ0gyXVtDQEhdMUMoPU8pW05IXVtDSDJdW0NIMl1uMltjSF1bY0hdbltjSF0y

> <s_epik_cmdline>
J2VwaWtfcHl0aG9uJywgJy1waCcsICc3LjAnLCAnLXRuJywgJzgnLCAnLW1hJywgJzIwMCcsICctbWV0YWxfYmluZGluZycsICctaW1hZScsICc8aW5maWxlLm1hZT4nLCAnLW9tYWUnLCAnPG91dGZpbGUubWFlPic=

> <r_lp_tautomer_probability>
1

> <r_epik_Ionization_Penalty>
0.281738

> <r_epik_Ionization_Penalty_Charging>
0

> <r_epik_Ionization_Penalty_Neutral>
0.281738

> <r_epik_State_Penalty>
0.274352

> <r_epik_Charging_Adjusted_Penalty>
0.274352

> <i_epik_Tot_Q>
1

> <i_epik_Tot_abs_Q>
1

> <r_epik_Metal_State_Penalty>
0.555562

> <b_epik_Metal_Only>
0

> <s_lp_Force_Field>
OPLS_2005

> <r_lp_Energy>
11.1573

> <b_lp_Chiralities_Consistent>
1

> <s_lp_Variant>
AV-unprocessed.smi:3047-1

> <Gold.Version>
5.8.1

> <Gold.Id.Protein>
6NUR|6NUR_protein|mol2

> <Gold.PLP.Fitness>
46.2455

> <Gold.PLP.PLP>
-33.8844

> <Gold.PLP.part.hbond>
-4.0603

> <Gold.PLP.part.metal>
0.0000

> <Gold.PLP.part.buried>
-4.8356

> <Gold.PLP.part.nonpolar>
-26.3876

> <Gold.PLP.part.repulsive>
0.2431

> <Gold.PLP.ligand.clash>
0.0000

> <Gold.PLP.ligand.torsion>
1.1015

> <Gold.PLP.Chemscore.Hbond>
4.6661

> <Gold.PLP.Chemscore.CHOScore>
0.0000

> <Gold.PLP.Chemscore.Metal>
0.0000

> <Gold.Chemscore.Hbonds>
donor molecule, donor type, donor heavy atom, donor atom, acceptor molecule, acceptor atom, score
      L1  H    18    38       P1  8028  1.70
      P1  H  6896  6909       L1     3  0.58
      P1  H  7997  8010       L1    11  1.00
      P1  H 10752 10763       L1     4  1.00

> <Gold.PLP.Chemscore.Internal.Correction>
0.5656

> <Gold.Rescore>
     Score         DG    S(hbond)    S(metal)    S(lipo)     H(rot)  DE(clash)    DE(int)     intcor
     14.85     -17.09       3.17        0.00      62.63       2.47       0.00       2.24       ----

> <Gold.Chemscore.Fitness>
14.8499

> <Gold.Chemscore.DG>
-17.0892

> <Gold.Chemscore.ZeroCoef>
-5.4800

> <Gold.Chemscore.Hbond>
3.1744

> <Gold.Chemscore.Metal>
0.0000

> <Gold.Chemscore.Lipo>
62.6255

> <Gold.Chemscore.Internal_Hbond>
0.0000

> <Gold.Chemscore.DEClash>
0.0038

> <Gold.Chemscore.DEInternal>
2.2355

> <Gold.Chemscore.Rot>
2.4689

> <Gold.Chemscore.Internal.Correction>
   9.000000E+99

> <Gold.Chemscore.Hbonds>
donor molecule, donor type, donor heavy atom, donor atom, acceptor molecule, acceptor atom, score
      L1  H    18    38       P1  8028  0.14
      P1  H  6896  6909       L1     3  0.55
      P1  H  7997  8010       L1    11  0.40
      P1  H 10752 10763       L1     4  0.99

> <Gold.Chemscore.Hbond.Weighted>
-10.6024

> <Gold.Chemscore.Metal.Weighted>
-0.0000

> <Gold.Chemscore.Lipo.Weighted>
-7.3272

> <Gold.Chemscore.Internal_Hbond.Weighted>
0.0000

> <Gold.Chemscore.DEClash.Weighted>
0.0038

> <Gold.Chemscore.DEInternal.Weighted>
2.2355

> <Gold.Chemscore.Rot.Weighted>
6.3204

> <Gold.Chemscore.Internal.Correction.Weighted>
   9.000000E+99

> <Gold.Protein.RotatedTorsions>
[ 6907 6896 6895 6894 ] final   49.92 input  -60.11 | X-H torsion
[ 7974 7965 7964 7962 ] final -117.67 input  175.53 | X-H torsion
[ 8008 7997 7996 7995 ] final   18.98 input   59.86 | X-H torsion
[ 10167 10162 10161 10158 ] final    3.95 input  -65.29 | X-H torsion
[ 10718 10713 10712 10709 ] final   48.54 input   66.30 | X-H torsion
[ 10763 10752 10751 10750 ] final   65.43 input  -60.55 | X-H torsion
[ 11005 11000 10999 10996 ] final  139.05 input  -57.11 | X-H torsion

> <Gold.Protein.ActiveResidues>
 VAL166  LYS551  ARG553  GLY616  TRP617  ASP618  TYR619  PRO620  LYS621  CYS622 
 ASP623  PHE694  ASN695  SER759  ASP760  ASP761  ALA762  ILE779  LEU786  VAL792 
 PHE793  MET794  SER795  GLU796  ALA797  LYS798  CYS799  TRP800  GLU811  SER814 

> <Gold.Protein.RotatedAtoms>
  152.2962  134.7665  160.0367 H   0  0  0  0  0  0  0  0  0  0  0  0  # atno 6907 bound_to 6896
  151.8194  133.3387  159.3587 H   0  0  0  0  0  0  0  0  0  0  0  0  # atno 6908 bound_to 6896
  150.7252  134.5518  159.5842 H   0  0  0  0  0  0  0  0  0  0  0  0  # atno 6909 bound_to 6896
  145.0825  140.8436  143.4030 H   0  0  0  0  0  0  0  0  0  0  0  0  # atno 7974 bound_to 7965
  154.9141  140.3018  155.5251 H   0  0  0  0  0  0  0  0  0  0  0  0  # atno 8008 bound_to 7997
  156.3013  140.2384  156.4119 H   0  0  0  0  0  0  0  0  0  0  0  0  # atno 8009 bound_to 7997
  154.8396  140.0414  157.1521 H   0  0  0  0  0  0  0  0  0  0  0  0  # atno 8010 bound_to 7997
  140.6560  143.7427  150.7654 H   0  0  0  0  0  0  0  0  0  0  0  0  # atno 10167 bound_to 10162
  157.4697  130.8247  149.7974 H   0  0  0  0  0  0  0  0  0  0  0  0  # atno 10718 bound_to 10713
  153.0096  135.5357  154.6666 H   0  0  0  0  0  0  0  0  0  0  0  0  # atno 10763 bound_to 10752
  154.5861  135.2854  155.0685 H   0  0  0  0  0  0  0  0  0  0  0  0  # atno 10764 bound_to 10752
  154.1796  135.6518  153.5083 H   0  0  0  0  0  0  0  0  0  0  0  0  # atno 10765 bound_to 10752
  140.0227  134.9389  157.0506 H   0  0  0  0  0  0  0  0  0  0  0  0  # atno 11005 bound_to 11000
  145.1161  139.2725  143.5612 LP  0  0  0  0  0  0  0  0  0  0  0  0  # atno 17320 bound_to 7965
  146.3531  140.0771  142.8620 LP  0  0  0  0  0  0  0  0  0  0  0  0  # atno 17321 bound_to 7965
  140.1087  143.4720  152.2383 LP  0  0  0  0  0  0  0  0  0  0  0  0  # atno 17342 bound_to 10162
  139.5782  144.7498  151.3708 LP  0  0  0  0  0  0  0  0  0  0  0  0  # atno 17343 bound_to 10162
  156.0067  130.3852  150.2406 LP  0  0  0  0  0  0  0  0  0  0  0  0  # atno 17370 bound_to 10713
  157.0587  131.0084  151.3229 LP  0  0  0  0  0  0  0  0  0  0  0  0  # atno 17371 bound_to 10713
  140.4359  134.1731  155.7171 LP  0  0  0  0  0  0  0  0  0  0  0  0  # atno 17394 bound_to 11000
  141.1784  133.8466  157.1344 LP  0  0  0  0  0  0  0  0  0  0  0  0  # atno 17395 bound_to 11000

$$$$
