AV-unprocessed.smi:2923|AV-procd|sdf|11215|dock9
  -GOLD-   2272016103D 1   1.00000     0.00000
 Structure written by MMmdl.
 46 48  0  0  0  0  0  0  0  0  1 V2000
  145.5004  128.8065  151.9193 C   0  0  0  0  0  0  0  0  0  0  0  0
  146.8273  128.8491  152.5217 N   0  0  0  0  0  0  0  0  0  0  0  0
  147.5496  127.6071  152.7774 C   0  0  0  0  0  0  0  0  0  0  0  0
  147.4480  130.0911  152.7879 C   0  0  0  0  0  0  0  0  0  0  0  0
  148.6744  130.1690  153.4939 C   0  0  0  0  0  0  0  0  0  0  0  0
  149.2526  131.4293  153.7382 C   0  0  0  0  0  0  0  0  0  0  0  0
  148.5970  132.5886  153.2638 C   0  0  0  0  0  0  0  0  0  0  0  0
  149.0641  133.9151  153.4678 N   0  0  0  0  0  0  0  0  0  0  0  0
  149.7286  134.4158  154.5229 C   0  0  0  0  0  0  0  0  0  0  0  0
  150.1170  133.7679  155.4946 O   0  0  0  0  0  0  0  0  0  0  0  0
  149.9369  135.7317  154.3836 N   0  0  0  0  0  0  0  0  0  0  0  0
  150.6309  136.5638  155.3614 C   0  0  1  0  0  0  0  0  0  0  0  0
  150.7234  138.0337  154.9235 C   0  0  2  0  0  0  0  0  0  0  0  0
  152.0663  138.6449  154.6293 C   0  0  0  0  0  0  0  0  0  0  0  0
  152.4301  139.3227  155.9533 C   0  0  0  0  0  0  0  0  0  0  0  0
  151.6471  138.6434  156.9324 O   0  0  0  0  0  0  0  0  0  0  0  0
  150.3666  138.3934  156.3579 C   0  0  2  0  0  0  0  0  0  0  0  0
  149.7702  136.9874  156.5795 C   0  0  0  0  0  0  0  0  0  0  0  0
  148.2436  136.9217  156.4281 C   0  0  0  0  0  0  0  0  0  0  0  0
  150.1101  136.3169  157.9114 C   0  0  0  0  0  0  0  0  0  0  0  0
  147.3776  132.4137  152.5814 C   0  0  0  0  0  0  0  0  0  0  0  0
  146.8202  131.2080  152.3451 N   0  0  0  0  0  0  0  0  0  0  0  0
  145.5031  129.3051  150.9497 H   0  0  0  0  0  0  0  0  0  0  0  0
  144.7716  129.2978  152.5643 H   0  0  0  0  0  0  0  0  0  0  0  0
  145.1673  127.7802  151.7641 H   0  0  0  0  0  0  0  0  0  0  0  0
  148.4658  127.5691  152.1874 H   0  0  0  0  0  0  0  0  0  0  0  0
  146.9482  126.7360  152.5172 H   0  0  0  0  0  0  0  0  0  0  0  0
  147.8129  127.5272  153.8326 H   0  0  0  0  0  0  0  0  0  0  0  0
  149.1817  129.2889  153.8592 H   0  0  0  0  0  0  0  0  0  0  0  0
  150.1748  131.4783  154.2957 H   0  0  0  0  0  0  0  0  0  0  0  0
  148.8973  134.5536  152.7039 H   0  0  0  0  0  0  0  0  0  0  0  0
  149.5909  136.1893  153.5531 H   0  0  0  0  0  0  0  0  0  0  0  0
  151.6050  136.1700  155.6605 H   0  0  0  0  0  0  0  0  0  0  0  0
  149.9296  138.3194  154.2306 H   0  0  0  0  0  0  0  0  0  0  0  0
  152.7961  137.8763  154.3728 H   0  0  0  0  0  0  0  0  0  0  0  0
  152.0309  139.3613  153.8081 H   0  0  0  0  0  0  0  0  0  0  0  0
  153.4952  139.2645  156.1782 H   0  0  0  0  0  0  0  0  0  0  0  0
  152.1412  140.3746  155.9368 H   0  0  0  0  0  0  0  0  0  0  0  0
  149.6743  139.2319  156.4486 H   0  0  0  0  0  0  0  0  0  0  0  0
  147.7408  137.4470  157.2406 H   0  0  0  0  0  0  0  0  0  0  0  0
  147.8812  135.8930  156.4319 H   0  0  0  0  0  0  0  0  0  0  0  0
  147.9085  137.3803  155.4973 H   0  0  0  0  0  0  0  0  0  0  0  0
  149.6626  136.8472  158.7524 H   0  0  0  0  0  0  0  0  0  0  0  0
  151.1862  136.2878  158.0841 H   0  0  0  0  0  0  0  0  0  0  0  0
  149.7545  135.2865  157.9421 H   0  0  0  0  0  0  0  0  0  0  0  0
  146.8295  133.2673  152.2096 H   0  0  0  0  0  0  0  0  0  0  0  0
  1  2  1  0  0  0  0
  1 23  1  0  0  0  0
  1 24  1  0  0  0  0
  1 25  1  0  0  0  0
  2  3  1  0  0  0  0
  2  4  1  0  0  0  0
  3 26  1  0  0  0  0
  3 27  1  0  0  0  0
  3 28  1  0  0  0  0
  4 22  1  0  0  0  0
  4  5  2  0  0  0  0
  5  6  1  0  0  0  0
  5 29  1  0  0  0  0
  6  7  2  0  0  0  0
  6 30  1  0  0  0  0
  7  8  1  0  0  0  0
  7 21  1  0  0  0  0
  8  9  1  0  0  0  0
  8 31  1  0  0  0  0
  9 10  2  0  0  0  0
  9 11  1  0  0  0  0
 11 12  1  0  0  0  0
 11 32  1  0  0  0  0
 12 18  1  0  0  0  0
 12 13  1  0  0  0  0
 12 33  1  0  0  0  0
 13 17  1  0  0  0  0
 13 14  1  0  0  0  0
 13 34  1  0  0  0  0
 14 15  1  0  0  0  0
 14 35  1  0  0  0  0
 14 36  1  0  0  0  0
 15 16  1  0  0  0  0
 15 37  1  0  0  0  0
 15 38  1  0  0  0  0
 16 17  1  0  0  0  0
 17 18  1  0  0  0  0
 17 39  1  0  0  0  0
 18 19  1  0  0  0  0
 18 20  1  0  0  0  0
 19 40  1  0  0  0  0
 19 41  1  0  0  0  0
 19 42  1  0  0  0  0
 20 43  1  0  0  0  0
 20 44  1  0  0  0  0
 20 45  1  0  0  0  0
 21 22  2  0  0  0  0
 21 46  1  0  0  0  0
M  END
> <s_m_source_file>
AV-unprocessed.smi

> <i_m_source_file_index>
2923

> <i_lp_mmshare_version>
43012

> <i_f3d_flags>
0

> <s_epik_input>
W0NIM11OKFtDSDNdKWMxW2NIXVtjSF1jKFtjSF1uMSlbTkhdQyg9TylbTkhdW0NASF0yQyhbQ0gzXSkoW0NIM10pW0NAQEhdKFtDQEhdMjMpT1tDSDJdW0NIMl0z

> <s_epik_cmdline>
J2VwaWtfcHl0aG9uJywgJy1waCcsICc3LjAnLCAnLXRuJywgJzgnLCAnLW1hJywgJzIwMCcsICctbWV0YWxfYmluZGluZycsICctaW1hZScsICc8aW5maWxlLm1hZT4nLCAnLW9tYWUnLCAnPG91dGZpbGUubWFlPic=

> <r_lp_tautomer_probability>
1

> <r_epik_Ionization_Penalty>
0.628785

> <r_epik_Ionization_Penalty_Charging>
0

> <r_epik_Ionization_Penalty_Neutral>
0.628785

> <r_epik_State_Penalty>
0.644286

> <r_epik_Charging_Adjusted_Penalty>
0.644286

> <i_epik_Tot_Q>
0

> <i_epik_Tot_abs_Q>
0

> <r_epik_Metal_State_Penalty>
0.308404

> <b_epik_Metal_Only>
0

> <s_lp_Force_Field>
OPLS_2005

> <r_lp_Energy>
39.1675

> <b_lp_Chiralities_Consistent>
1

> <s_lp_Variant>
AV-unprocessed.smi:2923-14

> <Gold.Version>
5.8.1

> <Gold.Id.Protein>
6NUR|6NUR_protein|mol2

> <Gold.PLP.Fitness>
37.3517

> <Gold.PLP.PLP>
-33.3385

> <Gold.PLP.part.hbond>
-2.2589

> <Gold.PLP.part.metal>
0.0000

> <Gold.PLP.part.buried>
-2.1610

> <Gold.PLP.part.nonpolar>
-28.6332

> <Gold.PLP.part.repulsive>
0.5001

> <Gold.PLP.ligand.clash>
0.0000

> <Gold.PLP.ligand.torsion>
0.4080

> <Gold.PLP.Chemscore.Hbond>
1.5500

> <Gold.PLP.Chemscore.CHOScore>
0.0000

> <Gold.PLP.Chemscore.Metal>
0.0000

> <Gold.Chemscore.Hbonds>
donor molecule, donor type, donor heavy atom, donor atom, acceptor molecule, acceptor atom, score
      L1  H     8    31       P1  7948  0.40
      L1  H    11    32       P1  7948  1.00

> <Gold.PLP.Chemscore.Internal.Correction>
0.1792

> <Gold.Rescore>
     Score         DG    S(hbond)    S(metal)    S(lipo)     H(rot)  DE(clash)    DE(int)     intcor
     13.80     -15.28       1.36        0.00      67.00       1.00       0.10       1.39       ----

> <Gold.Chemscore.Fitness>
13.7972

> <Gold.Chemscore.DG>
-15.2849

> <Gold.Chemscore.ZeroCoef>
-5.4800

> <Gold.Chemscore.Hbond>
1.3551

> <Gold.Chemscore.Metal>
0.0000

> <Gold.Chemscore.Lipo>
66.9987

> <Gold.Chemscore.Internal_Hbond>
0.0000

> <Gold.Chemscore.DEClash>
0.1019

> <Gold.Chemscore.DEInternal>
1.3858

> <Gold.Chemscore.Rot>
1.0000

> <Gold.Chemscore.Internal.Correction>
   9.000000E+99

> <Gold.Chemscore.Hbonds>
donor molecule, donor type, donor heavy atom, donor atom, acceptor molecule, acceptor atom, score
      L1  H     8    31       P1  7948  0.01
      L1  H    11    32       P1  7948  0.44

> <Gold.Chemscore.Hbond.Weighted>
-4.5260

> <Gold.Chemscore.Metal.Weighted>
-0.0000

> <Gold.Chemscore.Lipo.Weighted>
-7.8388

> <Gold.Chemscore.Internal_Hbond.Weighted>
0.0000

> <Gold.Chemscore.DEClash.Weighted>
0.1019

> <Gold.Chemscore.DEInternal.Weighted>
1.3858

> <Gold.Chemscore.Rot.Weighted>
2.5600

> <Gold.Chemscore.Internal.Correction.Weighted>
   9.000000E+99

> <Gold.Protein.RotatedTorsions>
[ 6907 6896 6895 6894 ] final  -99.00 input  -60.11 | X-H torsion
[ 7974 7965 7964 7962 ] final -173.12 input  175.53 | X-H torsion
[ 8008 7997 7996 7995 ] final   27.35 input   59.86 | X-H torsion
[ 10167 10162 10161 10158 ] final  170.61 input  -65.29 | X-H torsion
[ 10718 10713 10712 10709 ] final  -67.29 input   66.30 | X-H torsion
[ 10763 10752 10751 10750 ] final -130.75 input  -60.55 | X-H torsion
[ 11005 11000 10999 10996 ] final   93.59 input  -57.11 | X-H torsion

> <Gold.Protein.ActiveResidues>
 VAL166  LYS551  ARG553  GLY616  TRP617  ASP618  TYR619  PRO620  LYS621  CYS622 
 ASP623  PHE694  ASN695  SER759  ASP760  ASP761  ALA762  ILE779  LEU786  VAL792 
 PHE793  MET794  SER795  GLU796  ALA797  LYS798  CYS799  TRP800  GLU811  SER814 

> <Gold.Protein.RotatedAtoms>
  150.7065  134.1108  159.3999 H   0  0  0  0  0  0  0  0  0  0  0  0  # atno 6907 bound_to 6896
  151.9095  135.0343  160.0522 H   0  0  0  0  0  0  0  0  0  0  0  0  # atno 6908 bound_to 6896
  152.2348  133.5052  159.5273 H   0  0  0  0  0  0  0  0  0  0  0  0  # atno 6909 bound_to 6896
  144.7140  140.1669  143.6371 H   0  0  0  0  0  0  0  0  0  0  0  0  # atno 7974 bound_to 7965
  155.0416  140.3170  155.4723 H   0  0  0  0  0  0  0  0  0  0  0  0  # atno 8008 bound_to 7997
  156.2853  140.2162  156.5483 H   0  0  0  0  0  0  0  0  0  0  0  0  # atno 8009 bound_to 7997
  154.7285  140.0483  157.0693 H   0  0  0  0  0  0  0  0  0  0  0  0  # atno 8010 bound_to 7997
  139.5023  144.3577  151.9857 H   0  0  0  0  0  0  0  0  0  0  0  0  # atno 10167 bound_to 10162
  156.0566  130.4275  150.1832 H   0  0  0  0  0  0  0  0  0  0  0  0  # atno 10718 bound_to 10713
  154.8754  135.3852  154.4134 H   0  0  0  0  0  0  0  0  0  0  0  0  # atno 10763 bound_to 10752
  153.4845  135.7030  153.5924 H   0  0  0  0  0  0  0  0  0  0  0  0  # atno 10764 bound_to 10752
  153.4325  135.3875  155.2146 H   0  0  0  0  0  0  0  0  0  0  0  0  # atno 10765 bound_to 10752
  139.8808  134.8798  156.3739 H   0  0  0  0  0  0  0  0  0  0  0  0  # atno 11005 bound_to 11000
  145.8979  139.2413  143.1511 LP  0  0  0  0  0  0  0  0  0  0  0  0  # atno 17320 bound_to 7965
  145.9839  140.8659  143.0100 LP  0  0  0  0  0  0  0  0  0  0  0  0  # atno 17321 bound_to 7965
  140.3014  144.3642  150.6059 LP  0  0  0  0  0  0  0  0  0  0  0  0  # atno 17342 bound_to 10162
  140.5870  143.2169  151.7323 LP  0  0  0  0  0  0  0  0  0  0  0  0  # atno 17343 bound_to 10162
  156.9908  130.9892  151.3415 LP  0  0  0  0  0  0  0  0  0  0  0  0  # atno 17370 bound_to 10713
  157.5540  130.8201  149.8181 LP  0  0  0  0  0  0  0  0  0  0  0  0  # atno 17371 bound_to 10713
  140.9445  133.7492  156.0190 LP  0  0  0  0  0  0  0  0  0  0  0  0  # atno 17394 bound_to 11000
  140.8180  134.3322  157.5391 LP  0  0  0  0  0  0  0  0  0  0  0  0  # atno 17395 bound_to 11000

$$$$
