#       Name:                AV-unprocessed.smi:2923
#       Creating user name   scv26
#       Creation time:       Fri Mar 27 16:09:56 2020


#       File generated by GOLD software.
#

@<TRIPOS>MOLECULE
AV-unprocessed.smi:2923
    51    53     1
SMALL
NO_CHARGES


@<TRIPOS>ATOM
      1 ****        -6.6633   0.7632  -0.8390 C.3            1 S1                 0.0000
      2 ****        -5.9888  -0.4796  -0.4809 N.pl3          1 S1                 0.0000
      3 ****        -6.7485  -1.7148  -0.3380 C.3            1 S1                 0.0000
      4 ****        -4.5893  -0.4902  -0.2955 C.ar           1 S1                 0.0000
      5 ****        -3.8595  -1.6575   0.0369 C.ar           1 S1                 0.0000
      6 ****        -2.4618  -1.5860   0.2066 C.ar           1 S1                 0.0000
      7 ****        -1.7941  -0.3537   0.0482 C.ar           1 S1                 0.0000
      8 ****        -0.3830  -0.3465   0.2281 N.am           1 S1                 0.0000
      9 ****         0.4699   0.6927   0.2385 C.2            1 S1                 0.0000
     10 ****         0.1613   1.8746   0.0920 O.2            1 S1                 0.0000
     11 ****         1.7285   0.2781   0.4330 N.am           1 S1                 0.0000
     12 ****         2.9016   1.1522   0.4938 C.3            1 S1                 0.0000
     13 ****         3.7666   1.1069  -0.7877 C.3            1 S1                 0.0000
     14 ****         3.3126   0.4489  -2.0685 C.3            1 S1                 0.0000
     15 ****         3.9610  -0.9359  -1.9877 C.3            1 S1                 0.0000
     16 ****         4.2346  -1.1295  -0.6015 O.3            1 S1                 0.0000
     17 ****         4.6697   0.1187  -0.0672 C.3            1 S1                 0.0000
     18 ****         4.0743   0.5286   1.2957 C.3            1 S1                 0.0000
     19 ****         4.9213   1.5485   2.0631 C.3            1 S1                 0.0000
     20 ****         3.7729  -0.6096   2.2804 C.3            1 S1                 0.0000
     21 ****        -2.5672   0.7837  -0.2885 C.ar           1 S1                 0.0000
     22 ****        -3.9044   0.6700  -0.4421 N.pl3          1 S1                 1.0000
     23 ****        -6.2956   1.1358  -1.7956 H              1 S1                 0.0000
     24 ****        -6.4917   1.5264  -0.0792 H              1 S1                 0.0000
     25 ****        -7.7404   0.6194  -0.9285 H              1 S1                 0.0000
     26 ****        -6.6424  -2.1154   0.6706 H              1 S1                 0.0000
     27 ****        -6.4007  -2.4638  -1.0501 H              1 S1                 0.0000
     28 ****        -7.8107  -1.5506  -0.5207 H              1 S1                 0.0000
     29 ****        -4.3490  -2.6113   0.1655 H              1 S1                 0.0000
     30 ****        -1.9082  -2.4785   0.4597 H              1 S1                 0.0000
     31 ****         0.0336  -1.2525   0.3856 H              1 S1                 0.0000
     32 ****         1.8972  -0.7115   0.5410 H              1 S1                 0.0000
     33 ****         2.6759   2.1715   0.8125 H              1 S1                 0.0000
     34 ****         4.2759   2.0594  -0.9427 H              1 S1                 0.0000
     35 ****         2.2277   0.3750  -2.1333 H              1 S1                 0.0000
     36 ****         3.6527   0.9892  -2.9522 H              1 S1                 0.0000
     37 ****         3.3205  -1.7241  -2.3840 H              1 S1                 0.0000
     38 ****         4.9018  -0.9499  -2.5402 H              1 S1                 0.0000
     39 ****         5.7359   0.3055  -0.2045 H              1 S1                 0.0000
     40 ****         5.8594   1.1124   2.4081 H              1 S1                 0.0000
     41 ****         4.3929   1.9309   2.9370 H              1 S1                 0.0000
     42 ****         5.1779   2.4074   1.4422 H              1 S1                 0.0000
     43 ****         4.6875  -1.0191   2.7103 H              1 S1                 0.0000
     44 ****         3.2527  -1.4410   1.8045 H              1 S1                 0.0000
     45 ****         3.1472  -0.2664   3.1049 H              1 S1                 0.0000
     46 ****        -2.1842   1.7797  -0.4474 H              1 S1                 0.0000
     47 ****        -4.4298   1.5106  -0.6833 H              1 S1                 0.0000
     48 ****        -0.7957   2.1276  -0.0497 LP             1 S1                 0.0000
     49 ****         0.8675   2.5822   0.1146 LP             1 S1                 0.0000
     50 ****         4.9520  -1.8170  -0.4887 LP             1 S1                 0.0000
     51 ****         3.4062  -1.4318  -0.1298 LP             1 S1                 0.0000
@<TRIPOS>BOND
    1    1    2 1     
    2    1   23 1     
    3    1   24 1     
    4    1   25 1     
    5    2    3 1     
    6    2    4 1     
    7    3   26 1     
    8    3   27 1     
    9    3   28 1     
   10    4   22 ar    
   11    4    5 ar    
   12    5    6 ar    
   13    5   29 1     
   14    6    7 ar    
   15    6   30 1     
   16    7    8 1     
   17    7   21 ar    
   18    8    9 am    
   19    8   31 1     
   20    9   10 2     
   21    9   11 am    
   22   11   12 1     
   23   11   32 1     
   24   12   18 1     
   25   12   13 1     
   26   12   33 1     
   27   13   17 1     
   28   13   14 1     
   29   13   34 1     
   30   14   15 1     
   31   14   35 1     
   32   14   36 1     
   33   15   16 1     
   34   15   37 1     
   35   15   38 1     
   36   16   17 1     
   37   17   18 1     
   38   17   39 1     
   39   18   19 1     
   40   18   20 1     
   41   19   40 1     
   42   19   41 1     
   43   19   42 1     
   44   20   43 1     
   45   20   44 1     
   46   20   45 1     
   47   21   22 ar    
   48   21   46 1     
   49   22   47 1     
   50   10   48 1     
   51   10   49 1     
   52   16   50 1     
   53   16   51 1     
@<TRIPOS>SUBSTRUCTURE
      1 S1             1
@<TRIPOS>SET
LONE_PAIRS      STATIC     ATOMS    <user>   **** ""
4 48 49 50 51
DONOR_HYDROGENS      STATIC     ATOMS    <user>   **** ""
3 31 32 47
ATOM$BLUE        STATIC     ATOMS    COLORGROUP SYSTEM
4 48 49 50 51
ATOM$RED        STATIC     ATOMS    COLORGROUP SYSTEM
3 31 32 47
