AV-unprocessed.smi:2878|AV-procd|sdf|11045|dock2
  -GOLD-   2272015513D 1   1.00000     0.00000
 Structure written by MMmdl.
 42 43  0  0  0  0  0  0  0  0  1 V2000
  150.2727  141.0965  155.6869 C   0  0  0  0  0  0  0  0  0  0  0  0
  151.1907  140.7564  157.2137 S   0  0  0  0  0  0  0  0  0  0  0  0
  151.3820  142.4358  157.8935 C   0  0  2  0  0  0  0  0  0  0  0  0
  152.5637  142.4560  158.8815 C   0  0  0  0  0  0  0  0  0  0  0  0
  152.7553  143.8401  159.5179 C   0  0  0  0  0  0  0  0  0  0  0  0
  151.4703  144.3023  160.2172 C   0  0  0  0  0  0  0  0  0  0  0  0
  150.2854  144.3087  159.2411 C   0  0  0  0  0  0  0  0  0  0  0  0
  150.0817  142.9334  158.5730 C   0  0  1  0  0  0  0  0  0  0  0  0
  149.0019  143.0390  157.5940 N   0  0  0  0  0  0  0  0  0  0  0  0
  147.8965  142.2821  157.5657 C   0  0  0  0  0  0  0  0  0  0  0  0
  147.6335  141.4063  158.3898 O   0  0  0  0  0  0  0  0  0  0  0  0
  147.1136  142.5885  156.5218 N   0  0  0  0  0  0  0  0  0  0  0  0
  145.8546  141.9257  156.2016 C   0  0  0  0  0  0  0  0  0  0  0  0
  144.6609  142.8850  156.3343 C   0  0  0  0  0  0  0  0  0  0  0  0
  144.5335  143.7996  155.1627 C   0  0  0  0  0  0  0  0  0  0  0  0
  145.2871  143.8110  154.0655 N   0  0  0  0  0  0  0  0  0  0  0  0
  144.7563  144.8710  153.3962 C   0  0  0  0  0  0  0  0  0  0  0  0
  145.2559  145.3187  152.0650 C   0  0  0  0  0  0  0  0  0  0  0  0
  143.7623  145.5046  154.0066 N   0  0  0  0  0  0  0  0  0  0  0  0
  143.6136  144.7932  155.2058 O   0  0  0  0  0  0  0  0  0  0  0  0
  150.0974  140.1680  155.1439 H   0  0  0  0  0  0  0  0  0  0  0  0
  150.8395  141.7690  155.0431 H   0  0  0  0  0  0  0  0  0  0  0  0
  149.3071  141.5520  155.9033 H   0  0  0  0  0  0  0  0  0  0  0  0
  151.6323  143.1042  157.0684 H   0  0  0  0  0  0  0  0  0  0  0  0
  152.3980  141.7177  159.6676 H   0  0  0  0  0  0  0  0  0  0  0  0
  153.4805  142.1602  158.3704 H   0  0  0  0  0  0  0  0  0  0  0  0
  153.5777  143.8098  160.2330 H   0  0  0  0  0  0  0  0  0  0  0  0
  153.0379  144.5620  158.7505 H   0  0  0  0  0  0  0  0  0  0  0  0
  151.2499  143.6412  161.0562 H   0  0  0  0  0  0  0  0  0  0  0  0
  151.6123  145.2987  160.6366 H   0  0  0  0  0  0  0  0  0  0  0  0
  149.3784  144.6032  159.7707 H   0  0  0  0  0  0  0  0  0  0  0  0
  150.4561  145.0691  158.4772 H   0  0  0  0  0  0  0  0  0  0  0  0
  149.8149  142.2134  159.3491 H   0  0  0  0  0  0  0  0  0  0  0  0
  149.1181  143.7316  156.8689 H   0  0  0  0  0  0  0  0  0  0  0  0
  147.4133  143.3248  155.8998 H   0  0  0  0  0  0  0  0  0  0  0  0
  145.8981  141.5063  155.1949 H   0  0  0  0  0  0  0  0  0  0  0  0
  145.7308  141.0839  156.8835 H   0  0  0  0  0  0  0  0  0  0  0  0
  143.7340  142.3193  156.4375 H   0  0  0  0  0  0  0  0  0  0  0  0
  144.7580  143.4921  157.2351 H   0  0  0  0  0  0  0  0  0  0  0  0
  144.4638  145.8126  151.5010 H   0  0  0  0  0  0  0  0  0  0  0  0
  145.6101  144.4669  151.4838 H   0  0  0  0  0  0  0  0  0  0  0  0
  146.0810  146.0201  152.1911 H   0  0  0  0  0  0  0  0  0  0  0  0
  1  2  1  0  0  0  0
  1 21  1  0  0  0  0
  1 22  1  0  0  0  0
  1 23  1  0  0  0  0
  2  3  1  0  0  0  0
  3  8  1  0  0  0  0
  3  4  1  0  0  0  0
  3 24  1  0  0  0  0
  4  5  1  0  0  0  0
  4 25  1  0  0  0  0
  4 26  1  0  0  0  0
  5  6  1  0  0  0  0
  5 27  1  0  0  0  0
  5 28  1  0  0  0  0
  6  7  1  0  0  0  0
  6 29  1  0  0  0  0
  6 30  1  0  0  0  0
  7  8  1  0  0  0  0
  7 31  1  0  0  0  0
  7 32  1  0  0  0  0
  8  9  1  0  0  0  0
  8 33  1  0  0  0  0
  9 10  1  0  0  0  0
  9 34  1  0  0  0  0
 10 11  2  0  0  0  0
 10 12  1  0  0  0  0
 12 13  1  0  0  0  0
 12 35  1  0  0  0  0
 13 14  1  0  0  0  0
 13 36  1  0  0  0  0
 13 37  1  0  0  0  0
 14 15  1  0  0  0  0
 14 38  1  0  0  0  0
 14 39  1  0  0  0  0
 15 20  1  0  0  0  0
 15 16  2  0  0  0  0
 16 17  1  0  0  0  0
 17 18  1  0  0  0  0
 17 19  2  0  0  0  0
 18 40  1  0  0  0  0
 18 41  1  0  0  0  0
 18 42  1  0  0  0  0
 19 20  1  0  0  0  0
M  END
> <s_m_source_file>
AV-unprocessed.smi

> <i_m_source_file_index>
2878

> <i_lp_mmshare_version>
43012

> <i_f3d_flags>
0

> <s_epik_input>
W0NIM11TW0NAQEhdMVtDSDJdW0NIMl1bQ0gyXVtDSDJdW0NASF0xW05IXUMoPU8pW05IXVtDSDJdW0NIMl1jMm5jKFtDSDNdKW5vMg==

> <s_epik_cmdline>
J2VwaWtfcHl0aG9uJywgJy1waCcsICc3LjAnLCAnLXRuJywgJzgnLCAnLW1hJywgJzIwMCcsICctbWV0YWxfYmluZGluZycsICctaW1hZScsICc8aW5maWxlLm1hZT4nLCAnLW9tYWUnLCAnPG91dGZpbGUubWFlPic=

> <r_lp_tautomer_probability>
1

> <r_epik_Ionization_Penalty>
4.9299e-05

> <r_epik_Ionization_Penalty_Charging>
0

> <r_epik_Ionization_Penalty_Neutral>
4.9299e-05

> <r_epik_State_Penalty>
-0

> <r_epik_Charging_Adjusted_Penalty>
0

> <i_epik_Tot_Q>
0

> <i_epik_Tot_abs_Q>
0

> <r_epik_Metal_State_Penalty>
-0

> <b_epik_Metal_Only>
0

> <s_lp_Force_Field>
OPLS_2005

> <r_lp_Energy>
1.6378

> <b_lp_Chiralities_Consistent>
1

> <s_lp_Variant>
AV-unprocessed.smi:2878-1

> <Gold.Version>
5.8.1

> <Gold.Id.Protein>
6NUR|6NUR_protein|mol2

> <Gold.PLP.Fitness>
40.9973

> <Gold.PLP.PLP>
-36.9458

> <Gold.PLP.part.hbond>
-3.6185

> <Gold.PLP.part.metal>
0.0000

> <Gold.PLP.part.buried>
-3.7096

> <Gold.PLP.part.nonpolar>
-29.5313

> <Gold.PLP.part.repulsive>
0.4453

> <Gold.PLP.ligand.clash>
0.0000

> <Gold.PLP.ligand.torsion>
0.3387

> <Gold.PLP.Chemscore.Hbond>
1.5616

> <Gold.PLP.Chemscore.CHOScore>
0.0000

> <Gold.PLP.Chemscore.Metal>
0.0000

> <Gold.Chemscore.Hbonds>
donor molecule, donor type, donor heavy atom, donor atom, acceptor molecule, acceptor atom, score
      L1  H     9    34       P1  8028  1.00
      L1  H    12    35       P1  8028  0.43

> <Gold.PLP.Chemscore.Internal.Correction>
0.0442

> <Gold.Rescore>
     Score         DG    S(hbond)    S(metal)    S(lipo)     H(rot)  DE(clash)    DE(int)     intcor
     13.45     -14.05       1.00        0.00      90.43       2.09       0.07       0.53       ----

> <Gold.Chemscore.Fitness>
13.4454

> <Gold.Chemscore.DG>
-14.0482

> <Gold.Chemscore.ZeroCoef>
-5.4800

> <Gold.Chemscore.Hbond>
1.0012

> <Gold.Chemscore.Metal>
0.0000

> <Gold.Chemscore.Lipo>
90.4312

> <Gold.Chemscore.Internal_Hbond>
0.0000

> <Gold.Chemscore.DEClash>
0.0678

> <Gold.Chemscore.DEInternal>
0.5350

> <Gold.Chemscore.Rot>
2.0923

> <Gold.Chemscore.Internal.Correction>
   9.000000E+99

> <Gold.Chemscore.Hbonds>
donor molecule, donor type, donor heavy atom, donor atom, acceptor molecule, acceptor atom, score
      L1  H     9    34       P1  8028  0.68
      L1  H    12    35       P1  8028  0.02
      P1  H  6934  6946       L1    11  0.01

> <Gold.Chemscore.Hbond.Weighted>
-3.3440

> <Gold.Chemscore.Metal.Weighted>
-0.0000

> <Gold.Chemscore.Lipo.Weighted>
-10.5804

> <Gold.Chemscore.Internal_Hbond.Weighted>
0.0000

> <Gold.Chemscore.DEClash.Weighted>
0.0678

> <Gold.Chemscore.DEInternal.Weighted>
0.5350

> <Gold.Chemscore.Rot.Weighted>
5.3562

> <Gold.Chemscore.Internal.Correction.Weighted>
   9.000000E+99

> <Gold.Protein.RotatedTorsions>
[ 6907 6896 6895 6894 ] final  134.90 input  -60.11 | X-H torsion
[ 7974 7965 7964 7962 ] final -110.80 input  175.53 | X-H torsion
[ 8008 7997 7996 7995 ] final -105.94 input   59.86 | X-H torsion
[ 10167 10162 10161 10158 ] final  -73.97 input  -65.29 | X-H torsion
[ 10718 10713 10712 10709 ] final   24.92 input   66.30 | X-H torsion
[ 10763 10752 10751 10750 ] final  123.65 input  -60.55 | X-H torsion
[ 11005 11000 10999 10996 ] final  -22.51 input  -57.11 | X-H torsion

> <Gold.Protein.ActiveResidues>
 VAL166  LYS551  ARG553  GLY616  TRP617  ASP618  TYR619  PRO620  LYS621  CYS622 
 ASP623  PHE694  ASN695  SER759  ASP760  ASP761  ALA762  ILE779  LEU786  VAL792 
 PHE793  MET794  SER795  GLU796  ALA797  LYS798  CYS799  TRP800  GLU811  SER814 

> <Gold.Protein.RotatedAtoms>
  152.3063  133.5706  159.5651 H   0  0  0  0  0  0  0  0  0  0  0  0  # atno 6907 bound_to 6896
  150.7301  134.0218  159.3713 H   0  0  0  0  0  0  0  0  0  0  0  0  # atno 6908 bound_to 6896
  151.8114  135.0680  160.0464 H   0  0  0  0  0  0  0  0  0  0  0  0  # atno 6909 bound_to 6896
  145.1639  140.8892  143.3575 H   0  0  0  0  0  0  0  0  0  0  0  0  # atno 7974 bound_to 7965
  154.9072  140.0411  157.1926 H   0  0  0  0  0  0  0  0  0  0  0  0  # atno 8008 bound_to 7997
  154.8385  140.2910  155.5654 H   0  0  0  0  0  0  0  0  0  0  0  0  # atno 8009 bound_to 7997
  156.2991  140.2487  156.3323 H   0  0  0  0  0  0  0  0  0  0  0  0  # atno 8010 bound_to 7997
  140.5066  143.2352  151.7663 H   0  0  0  0  0  0  0  0  0  0  0  0  # atno 10167 bound_to 10162
  157.1863  130.6825  149.6132 H   0  0  0  0  0  0  0  0  0  0  0  0  # atno 10718 bound_to 10713
  153.6490  135.3366  155.3094 H   0  0  0  0  0  0  0  0  0  0  0  0  # atno 10763 bound_to 10752
  154.8542  135.4336  154.1925 H   0  0  0  0  0  0  0  0  0  0  0  0  # atno 10764 bound_to 10752
  153.2862  135.7013  153.7411 H   0  0  0  0  0  0  0  0  0  0  0  0  # atno 10765 bound_to 10752
  140.8663  133.7752  156.0134 H   0  0  0  0  0  0  0  0  0  0  0  0  # atno 11005 bound_to 11000
  145.0303  139.3347  143.6028 LP  0  0  0  0  0  0  0  0  0  0  0  0  # atno 17320 bound_to 7965
  146.3478  139.9637  142.8714 LP  0  0  0  0  0  0  0  0  0  0  0  0  # atno 17321 bound_to 7965
  139.4885  144.4449  151.9722 LP  0  0  0  0  0  0  0  0  0  0  0  0  # atno 17342 bound_to 10162
  140.3539  144.3055  150.5944 LP  0  0  0  0  0  0  0  0  0  0  0  0  # atno 17343 bound_to 10162
  155.9717  130.4630  150.6165 LP  0  0  0  0  0  0  0  0  0  0  0  0  # atno 17370 bound_to 10713
  157.3904  131.0795  151.1399 LP  0  0  0  0  0  0  0  0  0  0  0  0  # atno 17371 bound_to 10713
  140.8624  134.2824  157.5228 LP  0  0  0  0  0  0  0  0  0  0  0  0  # atno 17394 bound_to 11000
  139.8709  134.9525  156.4117 LP  0  0  0  0  0  0  0  0  0  0  0  0  # atno 17395 bound_to 11000

$$$$
