AV-unprocessed.smi:2620|AV-procd|sdf|10223|dock6
  -GOLD-   2272014233D 1   1.00000     0.00000
 Structure written by MMmdl.
 36 37  0  0  0  0  0  0  0  0  1 V2000
  151.6754  145.6175  159.5423 C   0  0  0  0  0  0  0  0  0  0  0  0
  150.7342  144.7606  158.9201 O   0  0  0  0  0  0  0  0  0  0  0  0
  151.3219  143.9384  157.9263 C   0  0  0  0  0  0  0  0  0  0  0  0
  151.3630  142.4911  158.4393 C   0  0  0  0  0  0  0  0  0  0  0  0
  151.3131  141.5277  157.3315 N   0  0  0  0  0  0  0  0  0  0  0  0
  150.2920  141.7077  156.3781 C   0  0  0  0  0  0  0  0  0  0  0  0
  150.1384  140.8808  155.3272 C   0  0  0  0  0  0  0  0  0  0  0  0
  149.0448  141.0995  154.3499 C   0  0  0  0  0  0  0  0  0  0  0  0
  149.2404  140.9782  153.1398 O   0  0  0  0  0  0  0  0  0  0  0  0
  147.6886  141.4504  154.8642 C   0  0  0  0  0  0  0  0  0  0  0  0
  147.0157  142.5394  154.2647 C   0  0  0  0  0  0  0  0  0  0  0  0
  145.7288  142.9141  154.6949 C   0  0  0  0  0  0  0  0  0  0  0  0
  145.1023  142.2071  155.7366 C   0  0  0  0  0  0  0  0  0  0  0  0
  145.7672  141.1307  156.3522 C   0  0  0  0  0  0  0  0  0  0  0  0
  147.0569  140.7505  155.9282 C   0  0  0  0  0  0  0  0  0  0  0  0
  147.6744  139.7233  156.5868 O   0  0  0  0  0  0  0  0  0  0  0  0
  151.0786  139.7858  155.1888 C   0  0  0  0  0  0  0  0  0  0  0  0
  152.0521  139.6032  156.1026 C   0  0  0  0  0  0  0  0  0  0  0  0
  152.9831  138.5300  155.9875 C   0  0  0  0  0  0  0  0  0  0  0  0
  153.7366  137.6541  155.9200 N   0  0  0  0  0  0  0  0  0  0  0  0
  152.2074  140.4954  157.2601 C   0  0  0  0  0  0  0  0  0  0  0  0
  153.0813  140.3320  158.1132 O   0  0  0  0  0  0  0  0  0  0  0  0
  151.1765  146.2214  160.2999 H   0  0  0  0  0  0  0  0  0  0  0  0
  152.1303  146.2943  158.8183 H   0  0  0  0  0  0  0  0  0  0  0  0
  152.4652  145.0476  160.0333 H   0  0  0  0  0  0  0  0  0  0  0  0
  150.7425  143.9977  157.0037 H   0  0  0  0  0  0  0  0  0  0  0  0
  152.3319  144.2877  157.7047 H   0  0  0  0  0  0  0  0  0  0  0  0
  152.2692  142.3391  159.0273 H   0  0  0  0  0  0  0  0  0  0  0  0
  150.5421  142.3198  159.1379 H   0  0  0  0  0  0  0  0  0  0  0  0
  149.6405  142.5490  156.5700 H   0  0  0  0  0  0  0  0  0  0  0  0
  147.4796  143.0914  153.4595 H   0  0  0  0  0  0  0  0  0  0  0  0
  145.2224  143.7440  154.2243 H   0  0  0  0  0  0  0  0  0  0  0  0
  144.1153  142.4940  156.0681 H   0  0  0  0  0  0  0  0  0  0  0  0
  145.2847  140.6000  157.1600 H   0  0  0  0  0  0  0  0  0  0  0  0
  148.4298  139.3898  156.1272 H   0  0  0  0  0  0  0  0  0  0  0  0
  151.0096  139.1079  154.3504 H   0  0  0  0  0  0  0  0  0  0  0  0
  1  2  1  0  0  0  0
  1 23  1  0  0  0  0
  1 24  1  0  0  0  0
  1 25  1  0  0  0  0
  2  3  1  0  0  0  0
  3  4  1  0  0  0  0
  3 26  1  0  0  0  0
  3 27  1  0  0  0  0
  4  5  1  0  0  0  0
  4 28  1  0  0  0  0
  4 29  1  0  0  0  0
  5 21  1  0  0  0  0
  5  6  1  0  0  0  0
  6  7  2  0  0  0  0
  6 30  1  0  0  0  0
  7  8  1  0  0  0  0
  7 17  1  0  0  0  0
  8  9  2  0  0  0  0
  8 10  1  0  0  0  0
 10 15  1  0  0  0  0
 10 11  2  0  0  0  0
 11 12  1  0  0  0  0
 11 31  1  0  0  0  0
 12 13  2  0  0  0  0
 12 32  1  0  0  0  0
 13 14  1  0  0  0  0
 13 33  1  0  0  0  0
 14 15  2  0  0  0  0
 14 34  1  0  0  0  0
 15 16  1  0  0  0  0
 16 35  1  0  0  0  0
 17 18  2  0  0  0  0
 17 36  1  0  0  0  0
 18 19  1  0  0  0  0
 18 21  1  0  0  0  0
 19 20  3  0  0  0  0
 21 22  2  0  0  0  0
M  END
> <s_m_source_file>
AV-unprocessed.smi

> <i_m_source_file_index>
2620

> <i_lp_mmshare_version>
43012

> <i_f3d_flags>
0

> <s_epik_input>
W0NIM11PW0NIMl1bQ0gyXW4xW2NIXWMoW2NIXWMoQyNOKWMxPU8pQyg9TyljMltjSF1bY0hdW2NIXVtjSF1jMltPSF0=

> <s_epik_cmdline>
J2VwaWtfcHl0aG9uJywgJy1waCcsICc3LjAnLCAnLXRuJywgJzgnLCAnLW1hJywgJzIwMCcsICctbWV0YWxfYmluZGluZycsICctaW1hZScsICc8aW5maWxlLm1hZT4nLCAnLW9tYWUnLCAnPG91dGZpbGUubWFlPic=

> <r_epik_Ionization_Penalty>
0.219503

> <r_epik_Ionization_Penalty_Charging>
5.62591e-11

> <r_epik_Ionization_Penalty_Neutral>
0.219503

> <r_epik_State_Penalty>
0.209817

> <r_epik_Charging_Adjusted_Penalty>
0.209817

> <i_epik_Tot_Q>
0

> <i_epik_Tot_abs_Q>
0

> <r_epik_Metal_State_Penalty>
0.209817

> <b_epik_Metal_Only>
0

> <s_lp_Force_Field>
OPLS_2005

> <r_lp_Energy>
23.6774

> <b_lp_Chiralities_Consistent>
1

> <s_lp_Variant>
AV-unprocessed.smi:2620-1

> <Gold.Version>
5.8.1

> <Gold.Id.Protein>
6NUR|6NUR_protein|mol2

> <Gold.PLP.Fitness>
46.2005

> <Gold.PLP.PLP>
-38.5491

> <Gold.PLP.part.hbond>
-4.0000

> <Gold.PLP.part.metal>
0.0000

> <Gold.PLP.part.buried>
-4.3989

> <Gold.PLP.part.nonpolar>
-37.1246

> <Gold.PLP.part.repulsive>
5.7523

> <Gold.PLP.ligand.clash>
0.0117

> <Gold.PLP.ligand.torsion>
2.1289

> <Gold.PLP.Chemscore.Hbond>
2.3939

> <Gold.PLP.Chemscore.CHOScore>
1.0000

> <Gold.PLP.Chemscore.Metal>
0.0000

> <Gold.Chemscore.Hbonds>
donor molecule, donor type, donor heavy atom, donor atom, acceptor molecule, acceptor atom, score
      P1  H  7989  7998       L1     9  0.01
      P1  H  7997  8009       L1    22  0.86
      P1  H  8011  8017       L1     9  1.00
      P1  H 10752 10765       L1    20  0.08
      L1  C     6    30       P1  8028  1.00

> <Gold.PLP.Chemscore.Internal.Correction>
1.7393

> <Gold.Rescore>
     Score         DG    S(hbond)    S(metal)    S(lipo)     H(rot)  DE(clash)    DE(int)     intcor
     11.96     -17.37       2.14        0.00      83.76       1.98       2.02       3.38       ----

> <Gold.Chemscore.Fitness>
11.9641

> <Gold.Chemscore.DG>
-17.3653

> <Gold.Chemscore.ZeroCoef>
-5.4800

> <Gold.Chemscore.Hbond>
2.1448

> <Gold.Chemscore.Metal>
0.0000

> <Gold.Chemscore.Lipo>
83.7574

> <Gold.Chemscore.Internal_Hbond>
0.0000

> <Gold.Chemscore.DEClash>
2.0241

> <Gold.Chemscore.DEInternal>
3.3771

> <Gold.Chemscore.Rot>
1.9836

> <Gold.Chemscore.Internal.Correction>
   9.000000E+99

> <Gold.Chemscore.Hbonds>
donor molecule, donor type, donor heavy atom, donor atom, acceptor molecule, acceptor atom, score
      P1  H  7997  8009       L1    22  0.29
      P1  H  8011  8017       L1     9  0.93
      P1  H 10752 10765       L1    20  0.08

> <Gold.Chemscore.Hbond.Weighted>
-7.1638

> <Gold.Chemscore.Metal.Weighted>
-0.0000

> <Gold.Chemscore.Lipo.Weighted>
-9.7996

> <Gold.Chemscore.Internal_Hbond.Weighted>
0.0000

> <Gold.Chemscore.DEClash.Weighted>
2.0241

> <Gold.Chemscore.DEInternal.Weighted>
3.3771

> <Gold.Chemscore.Rot.Weighted>
5.0780

> <Gold.Chemscore.Internal.Correction.Weighted>
   9.000000E+99

> <Gold.Protein.RotatedTorsions>
[ 6907 6896 6895 6894 ] final -147.75 input  -60.11 | X-H torsion
[ 7974 7965 7964 7962 ] final   12.86 input  175.53 | X-H torsion
[ 8008 7997 7996 7995 ] final  151.29 input   59.86 | X-H torsion
[ 10167 10162 10161 10158 ] final  156.81 input  -65.29 | X-H torsion
[ 10718 10713 10712 10709 ] final  145.15 input   66.30 | X-H torsion
[ 10763 10752 10751 10750 ] final -125.65 input  -60.55 | X-H torsion
[ 11005 11000 10999 10996 ] final -143.38 input  -57.11 | X-H torsion

> <Gold.Protein.ActiveResidues>
 VAL166  LYS551  ARG553  GLY616  TRP617  ASP618  TYR619  PRO620  LYS621  CYS622 
 ASP623  PHE694  ASN695  SER759  ASP760  ASP761  ALA762  ILE779  LEU786  VAL792 
 PHE793  MET794  SER795  GLU796  ALA797  LYS798  CYS799  TRP800  GLU811  SER814 

> <Gold.Protein.RotatedAtoms>
  151.1601  133.4851  159.2594 H   0  0  0  0  0  0  0  0  0  0  0  0  # atno 6907 bound_to 6896
  151.1463  135.0205  159.8658 H   0  0  0  0  0  0  0  0  0  0  0  0  # atno 6908 bound_to 6896
  152.5463  134.1489  159.8563 H   0  0  0  0  0  0  0  0  0  0  0  0  # atno 6909 bound_to 6896
  146.2342  139.9274  142.8501 H   0  0  0  0  0  0  0  0  0  0  0  0  # atno 7974 bound_to 7965
  156.2680  140.2052  156.6152 H   0  0  0  0  0  0  0  0  0  0  0  0  # atno 8008 bound_to 7997
  154.6800  140.0541  157.0280 H   0  0  0  0  0  0  0  0  0  0  0  0  # atno 8009 bound_to 7997
  155.1014  140.3206  155.4549 H   0  0  0  0  0  0  0  0  0  0  0  0  # atno 8010 bound_to 7997
  139.4822  144.4975  151.8218 H   0  0  0  0  0  0  0  0  0  0  0  0  # atno 10167 bound_to 10162
  157.3487  131.0947  151.1019 H   0  0  0  0  0  0  0  0  0  0  0  0  # atno 10718 bound_to 10713
  154.8738  135.4022  154.3302 H   0  0  0  0  0  0  0  0  0  0  0  0  # atno 10763 bound_to 10752
  153.4117  135.7021  153.6360 H   0  0  0  0  0  0  0  0  0  0  0  0  # atno 10764 bound_to 10752
  153.5060  135.3717  155.2534 H   0  0  0  0  0  0  0  0  0  0  0  0  # atno 10765 bound_to 10752
  140.8131  134.2720  157.4932 H   0  0  0  0  0  0  0  0  0  0  0  0  # atno 11005 bound_to 11000
  145.2078  140.9882  143.4118 LP  0  0  0  0  0  0  0  0  0  0  0  0  # atno 17320 bound_to 7965
  144.9718  139.3872  143.6305 LP  0  0  0  0  0  0  0  0  0  0  0  0  # atno 17321 bound_to 7965
  140.4465  144.1915  150.5894 LP  0  0  0  0  0  0  0  0  0  0  0  0  # atno 17342 bound_to 10162
  140.4629  143.2442  151.9194 LP  0  0  0  0  0  0  0  0  0  0  0  0  # atno 17343 bound_to 10162
  157.2203  130.6478  149.5809 LP  0  0  0  0  0  0  0  0  0  0  0  0  # atno 17370 bound_to 10713
  155.9718  130.4631  150.6170 LP  0  0  0  0  0  0  0  0  0  0  0  0  # atno 17371 bound_to 10713
  139.8713  134.9494  156.4025 LP  0  0  0  0  0  0  0  0  0  0  0  0  # atno 17394 bound_to 11000
  140.9177  133.7667  155.9868 LP  0  0  0  0  0  0  0  0  0  0  0  0  # atno 17395 bound_to 11000

$$$$
