AV-unprocessed.smi:1626|AV-procd|sdf|6510|dock5
  -GOLD-   22720 7183D 1   1.00000     0.00000
 Structure written by MMmdl.
 49 51  0  0  0  0  0  0  0  0  3 V2000
  152.4554  143.2330  160.4342 C   0  0  0  0  0  0  0  0  0  0  0  0
  152.0551  142.4833  159.1750 C   0  0  0  0  0  0  0  0  0  0  0  0
  151.2514  143.1480  158.2210 C   0  0  0  0  0  0  0  0  0  0  0  0
  150.9050  142.4375  157.0780 C   0  0  0  0  0  0  0  0  0  0  0  0
  150.1429  142.8052  155.9668 N   0  3  0  0  0  0  0  0  0  0  0  0
  150.0846  141.7640  155.0906 C   0  0  0  0  0  0  0  0  0  0  0  0
  150.7882  140.7323  155.6326 N   0  0  0  0  0  0  0  0  0  0  0  0
  151.0512  139.3864  155.1067 C   0  0  0  0  0  0  0  0  0  0  0  0
  149.7838  138.5136  154.9957 C   0  0  2  0  0  0  0  0  0  0  0  0
  150.1487  137.3335  154.3093 O   0  0  0  0  0  0  0  0  0  0  0  0
  148.6282  139.2040  154.2372 C   0  0  0  0  0  0  0  0  0  0  0  0
  147.8214  138.2533  153.4292 N   0  3  2  0  0  0  0  0  0  0  0  0
  147.1482  138.9194  152.2838 C   0  0  0  0  0  0  0  0  0  0  0  0
  146.4401  137.8943  151.3823 C   0  0  0  0  0  0  0  0  0  0  0  0
  145.4374  137.0560  152.1886 C   0  0  1  0  0  0  0  0  0  0  0  0
  144.8792  136.0589  151.3601 O   0  0  0  0  0  0  0  0  0  0  0  0
  146.1466  136.4023  153.3836 C   0  0  0  0  0  0  0  0  0  0  0  0
  146.8592  137.4608  154.2424 C   0  0  0  0  0  0  0  0  0  0  0  0
  151.3271  141.1106  156.8668 C   0  0  0  0  0  0  0  0  0  0  0  0
  152.1208  140.4413  157.7950 C   0  0  0  0  0  0  0  0  0  0  0  0
  152.4828  141.1466  158.9649 C   0  0  0  0  0  0  0  0  0  0  0  0
  153.3459  140.4413  159.9974 C   0  0  0  0  0  0  0  0  0  0  0  0
  152.0862  144.2589  160.4223 H   0  0  0  0  0  0  0  0  0  0  0  0
  153.5408  143.2724  160.5290 H   0  0  0  0  0  0  0  0  0  0  0  0
  152.0477  142.7415  161.3178 H   0  0  0  0  0  0  0  0  0  0  0  0
  150.9241  144.1661  158.3735 H   0  0  0  0  0  0  0  0  0  0  0  0
  149.5720  141.7587  154.1391 H   0  0  0  0  0  0  0  0  0  0  0  0
  151.5139  139.5069  154.1259 H   0  0  0  0  0  0  0  0  0  0  0  0
  151.7985  138.9129  155.7454 H   0  0  0  0  0  0  0  0  0  0  0  0
  149.4679  138.2299  155.9985 H   0  0  0  0  0  0  0  0  0  0  0  0
  149.6367  137.2640  153.5183 H   0  0  0  0  0  0  0  0  0  0  0  0
  147.9614  139.7245  154.9256 H   0  0  0  0  0  0  0  0  0  0  0  0
  149.0539  139.9742  153.5919 H   0  0  0  0  0  0  0  0  0  0  0  0
  146.4318  139.6535  152.6565 H   0  0  0  0  0  0  0  0  0  0  0  0
  147.8832  139.4656  151.6909 H   0  0  0  0  0  0  0  0  0  0  0  0
  145.9303  138.4081  150.5663 H   0  0  0  0  0  0  0  0  0  0  0  0
  147.1847  137.2430  150.9216 H   0  0  0  0  0  0  0  0  0  0  0  0
  144.6289  137.6954  152.5460 H   0  0  0  0  0  0  0  0  0  0  0  0
  144.5991  136.4581  150.5501 H   0  0  0  0  0  0  0  0  0  0  0  0
  145.4274  135.8531  153.9928 H   0  0  0  0  0  0  0  0  0  0  0  0
  146.8762  135.6717  153.0303 H   0  0  0  0  0  0  0  0  0  0  0  0
  147.3725  136.9607  155.0628 H   0  0  0  0  0  0  0  0  0  0  0  0
  146.1254  138.1304  154.6939 H   0  0  0  0  0  0  0  0  0  0  0  0
  152.4520  139.4263  157.6321 H   0  0  0  0  0  0  0  0  0  0  0  0
  153.5540  139.4113  159.7069 H   0  0  0  0  0  0  0  0  0  0  0  0
  152.8456  140.4183  160.9658 H   0  0  0  0  0  0  0  0  0  0  0  0
  154.3009  140.9547  160.1118 H   0  0  0  0  0  0  0  0  0  0  0  0
  148.4752  137.5997  153.0227 H   0  0  0  0  0  0  0  0  0  0  0  0
  149.7025  143.7033  155.8114 H   0  0  0  0  0  0  0  0  0  0  0  0
  1  2  1  0  0  0  0
  1 23  1  0  0  0  0
  1 24  1  0  0  0  0
  1 25  1  0  0  0  0
  2 21  1  0  0  0  0
  2  3  2  0  0  0  0
  3  4  1  0  0  0  0
  3 26  1  0  0  0  0
  4 19  2  0  0  0  0
  4  5  1  0  0  0  0
  5  6  2  0  0  0  0
  5 49  1  0  0  0  0
  6  7  1  0  0  0  0
  6 27  1  0  0  0  0
  7  8  1  0  0  0  0
  7 19  1  0  0  0  0
  8  9  1  0  0  0  0
  8 28  1  0  0  0  0
  8 29  1  0  0  0  0
  9 10  1  0  0  0  0
  9 11  1  0  0  0  0
  9 30  1  0  0  0  0
 10 31  1  0  0  0  0
 11 12  1  0  0  0  0
 11 32  1  0  0  0  0
 11 33  1  0  0  0  0
 12 18  1  0  0  0  0
 12 13  1  0  0  0  0
 12 48  1  0  0  0  0
 13 14  1  0  0  0  0
 13 34  1  0  0  0  0
 13 35  1  0  0  0  0
 14 15  1  0  0  0  0
 14 36  1  0  0  0  0
 14 37  1  0  0  0  0
 15 16  1  0  0  0  0
 15 17  1  0  0  0  0
 15 38  1  0  0  0  0
 16 39  1  0  0  0  0
 17 18  1  0  0  0  0
 17 40  1  0  0  0  0
 17 41  1  0  0  0  0
 18 42  1  0  0  0  0
 18 43  1  0  0  0  0
 19 20  1  0  0  0  0
 20 21  2  0  0  0  0
 20 44  1  0  0  0  0
 21 22  1  0  0  0  0
 22 45  1  0  0  0  0
 22 46  1  0  0  0  0
 22 47  1  0  0  0  0
M  CHG  1   5   1
M  CHG  1  12   1
M  END
> <s_m_source_file>
AV-unprocessed.smi

> <i_m_source_file_index>
1626

> <i_lp_mmshare_version>
43012

> <i_f3d_flags>
0

> <s_epik_input>
W0NIM11jKFtjSF0xKWMoW0NIM10pW2NIXWMoYzEyKW4oW2NIXW4yKVtDSDJdW0NASF0oW09IXSlbQ0gyXU4zW0NIMl1bQ0gyXVtDSF0oW09IXSlbQ0gyXVtDSDJdMw==

> <s_epik_cmdline>
J2VwaWtfcHl0aG9uJywgJy1waCcsICc3LjAnLCAnLXRuJywgJzgnLCAnLW1hJywgJzIwMCcsICctbWV0YWxfYmluZGluZycsICctaW1hZScsICc8aW5maWxlLm1hZT4nLCAnLW9tYWUnLCAnPG91dGZpbGUubWFlPic=

> <r_epik_Ionization_Penalty>
1.19369

> <r_epik_Ionization_Penalty_Charging>
1.19369

> <r_epik_Ionization_Penalty_Neutral>
1.68219e-06

> <r_epik_State_Penalty>
1.27429

> <r_epik_Charging_Adjusted_Penalty>
2.46798

> <i_epik_Tot_Q>
2

> <i_epik_Tot_abs_Q>
2

> <r_epik_Metal_State_Penalty>
5.29157

> <b_epik_Metal_Only>
0

> <s_lp_Force_Field>
OPLS_2005

> <r_lp_Energy>
33.2617

> <b_lp_Chiralities_Consistent>
1

> <s_lp_Variant>
AV-unprocessed.smi:1626-5

> <Gold.Version>
5.8.1

> <Gold.Id.Protein>
6NUR|6NUR_protein|mol2

> <Gold.PLP.Fitness>
58.1293

> <Gold.PLP.PLP>
-42.0703

> <Gold.PLP.part.hbond>
-4.6263

> <Gold.PLP.part.metal>
0.0000

> <Gold.PLP.part.buried>
-0.5328

> <Gold.PLP.part.nonpolar>
-37.3703

> <Gold.PLP.part.repulsive>
0.0921

> <Gold.PLP.ligand.clash>
0.0000

> <Gold.PLP.ligand.torsion>
0.7551

> <Gold.PLP.Chemscore.Hbond>
5.8480

> <Gold.PLP.Chemscore.CHOScore>
0.0000

> <Gold.PLP.Chemscore.Metal>
0.0000

> <Gold.Chemscore.Hbonds>
donor molecule, donor type, donor heavy atom, donor atom, acceptor molecule, acceptor atom, score
      L1  H     5    49       P1  8028  0.91
      L1  H    10    31       P1  7948  0.99
      L1  H    12    48       P1  7948  2.00
      L1  H    16    39       P1 10171  0.14

> <Gold.PLP.Chemscore.Internal.Correction>
0.0253

> <Gold.Rescore>
     Score         DG    S(hbond)    S(metal)    S(lipo)     H(rot)  DE(clash)    DE(int)     intcor
     20.49     -23.05       3.58        0.00     107.88       2.74       0.47       2.09       ----

> <Gold.Chemscore.Fitness>
20.4861

> <Gold.Chemscore.DG>
-23.0508

> <Gold.Chemscore.ZeroCoef>
-5.4800

> <Gold.Chemscore.Hbond>
3.5805

> <Gold.Chemscore.Metal>
0.0000

> <Gold.Chemscore.Lipo>
107.8834

> <Gold.Chemscore.Internal_Hbond>
0.0000

> <Gold.Chemscore.DEClash>
0.4739

> <Gold.Chemscore.DEInternal>
2.0907

> <Gold.Chemscore.Rot>
2.7384

> <Gold.Chemscore.Internal.Correction>
   9.000000E+99

> <Gold.Chemscore.Hbonds>
donor molecule, donor type, donor heavy atom, donor atom, acceptor molecule, acceptor atom, score
      L1  H     5    49       P1  8028  0.46
      L1  H    10    31       P1  7948  0.73
      L1  H    12    48       P1  7948  0.98
      L1  H    16    39       P1 10171  0.15

> <Gold.Chemscore.Hbond.Weighted>
-11.9588

> <Gold.Chemscore.Metal.Weighted>
-0.0000

> <Gold.Chemscore.Lipo.Weighted>
-12.6224

> <Gold.Chemscore.Internal_Hbond.Weighted>
0.0000

> <Gold.Chemscore.DEClash.Weighted>
0.4739

> <Gold.Chemscore.DEInternal.Weighted>
2.0907

> <Gold.Chemscore.Rot.Weighted>
7.0103

> <Gold.Chemscore.Internal.Correction.Weighted>
   9.000000E+99

> <Gold.Protein.RotatedTorsions>
[ 6907 6896 6895 6894 ] final  -56.49 input  -60.11 | X-H torsion
[ 7974 7965 7964 7962 ] final   47.29 input  175.53 | X-H torsion
[ 8008 7997 7996 7995 ] final  -89.16 input   59.86 | X-H torsion
[ 10167 10162 10161 10158 ] final   77.78 input  -65.29 | X-H torsion
[ 10718 10713 10712 10709 ] final  -33.87 input   66.30 | X-H torsion
[ 10763 10752 10751 10750 ] final   97.06 input  -60.55 | X-H torsion
[ 11005 11000 10999 10996 ] final   84.32 input  -57.11 | X-H torsion

> <Gold.Protein.ActiveResidues>
 VAL166  LYS551  ARG553  GLY616  TRP617  ASP618  TYR619  PRO620  LYS621  CYS622 
 ASP623  PHE694  ASN695  SER759  ASP760  ASP761  ALA762  ILE779  LEU786  VAL792 
 PHE793  MET794  SER795  GLU796  ALA797  LYS798  CYS799  TRP800  GLU811  SER814 

> <Gold.Protein.RotatedAtoms>
  150.8163  134.7347  159.6732 H   0  0  0  0  0  0  0  0  0  0  0  0  # atno 6907 bound_to 6896
  152.4282  134.5825  159.9961 H   0  0  0  0  0  0  0  0  0  0  0  0  # atno 6908 bound_to 6896
  151.6021  133.3318  159.3085 H   0  0  0  0  0  0  0  0  0  0  0  0  # atno 6909 bound_to 6896
  146.0311  139.4765  142.9837 H   0  0  0  0  0  0  0  0  0  0  0  0  # atno 7974 bound_to 7965
  154.6833  140.0545  157.0288 H   0  0  0  0  0  0  0  0  0  0  0  0  # atno 8008 bound_to 7997
  155.0921  140.3220  155.4552 H   0  0  0  0  0  0  0  0  0  0  0  0  # atno 8009 bound_to 7997
  156.2702  140.2046  156.6048 H   0  0  0  0  0  0  0  0  0  0  0  0  # atno 8010 bound_to 7997
  139.9779  144.5847  150.7926 H   0  0  0  0  0  0  0  0  0  0  0  0  # atno 10167 bound_to 10162
  156.3574  130.4318  149.7653 H   0  0  0  0  0  0  0  0  0  0  0  0  # atno 10718 bound_to 10713
  153.2723  135.4196  155.1000 H   0  0  0  0  0  0  0  0  0  0  0  0  # atno 10763 bound_to 10752
  154.8460  135.3475  154.6226 H   0  0  0  0  0  0  0  0  0  0  0  0  # atno 10764 bound_to 10752
  153.6646  135.7046  153.5224 H   0  0  0  0  0  0  0  0  0  0  0  0  # atno 10765 bound_to 10752
  139.9004  134.8208  156.2430 H   0  0  0  0  0  0  0  0  0  0  0  0  # atno 11005 bound_to 11000
  145.7039  141.0127  143.1490 LP  0  0  0  0  0  0  0  0  0  0  0  0  # atno 17320 bound_to 7965
  144.7031  139.8676  143.7438 LP  0  0  0  0  0  0  0  0  0  0  0  0  # atno 17321 bound_to 7965
  140.7499  143.2947  151.3237 LP  0  0  0  0  0  0  0  0  0  0  0  0  # atno 17342 bound_to 10162
  139.6431  144.0501  152.2570 LP  0  0  0  0  0  0  0  0  0  0  0  0  # atno 17343 bound_to 10162
  156.4830  130.8049  151.3063 LP  0  0  0  0  0  0  0  0  0  0  0  0  # atno 17370 bound_to 10713
  157.7469  131.0000  150.2909 LP  0  0  0  0  0  0  0  0  0  0  0  0  # atno 17371 bound_to 10713
  141.0273  133.7008  156.1369 LP  0  0  0  0  0  0  0  0  0  0  0  0  # atno 17394 bound_to 11000
  140.7148  134.4423  157.5579 LP  0  0  0  0  0  0  0  0  0  0  0  0  # atno 17395 bound_to 11000

$$$$
