AV-unprocessed.smi:1401|AV-procd|sdf|5694|dock9
  -GOLD-   22720 5323D 1   1.00000     0.00000
 Structure written by MMmdl.
 48 50  0  0  0  0  0  0  0  0  1 V2000
  146.1150  139.9479  157.9868 C   0  0  0  0  0  0  0  0  0  0  0  0
  146.1374  140.9523  156.8667 C   0  0  0  0  0  0  0  0  0  0  0  0
  147.2214  141.0160  156.1666 N   0  0  0  0  0  0  0  0  0  0  0  0
  147.3407  141.8852  155.0984 N   0  0  0  0  0  0  0  0  0  0  0  0
  148.6039  141.7357  154.3549 C   0  0  0  0  0  0  0  0  0  0  0  0
  149.7472  141.1290  155.1879 C   0  0  0  0  0  0  0  0  0  0  0  0
  150.4134  140.2069  154.7197 O   0  0  0  0  0  0  0  0  0  0  0  0
  149.9952  141.6736  156.3905 N   0  0  0  0  0  0  0  0  0  0  0  0
  151.1362  141.3928  157.2530 C   0  0  2  0  0  0  0  0  0  0  0  0
  151.1783  139.8988  157.6163 C   0  0  0  0  0  0  0  0  0  0  0  0
  151.0493  142.2925  158.5089 C   0  0  1  0  0  0  0  0  0  0  0  0
  152.3095  142.2816  159.4020 C   0  0  0  0  0  0  0  0  0  0  0  0
  152.6006  143.7809  159.6060 C   0  0  1  0  0  0  0  0  0  0  0  0
  153.1728  144.3663  158.3013 C   0  0  0  0  0  0  0  0  0  0  0  0
  151.9399  144.4098  157.3802 C   0  0  0  0  0  0  0  0  0  0  0  0
  150.8314  143.8094  158.2684 C   0  0  2  0  0  0  0  0  0  0  0  0
  151.2002  144.3823  159.6323 C   0  0  0  0  0  0  0  0  0  0  0  0
  146.3698  142.7542  154.6942 C   0  0  0  0  0  0  0  0  0  0  0  0
  146.5098  143.5009  153.7249 O   0  0  0  0  0  0  0  0  0  0  0  0
  145.1498  142.6878  155.5021 C   0  0  0  0  0  0  0  0  0  0  0  0
  144.1057  143.5786  155.1099 C   0  0  0  0  0  0  0  0  0  0  0  0
  143.2673  144.3155  154.8031 N   0  0  0  0  0  0  0  0  0  0  0  0
  145.0165  141.8280  156.5430 C   0  0  0  0  0  0  0  0  0  0  0  0
  143.7652  141.7080  157.4018 C   0  0  0  0  0  0  0  0  0  0  0  0
  145.9568  140.4405  158.9463 H   0  0  0  0  0  0  0  0  0  0  0  0
  147.0512  139.3910  158.0526 H   0  0  0  0  0  0  0  0  0  0  0  0
  145.3134  139.2237  157.8396 H   0  0  0  0  0  0  0  0  0  0  0  0
  148.4690  141.1306  153.4570 H   0  0  0  0  0  0  0  0  0  0  0  0
  148.9254  142.7147  153.9948 H   0  0  0  0  0  0  0  0  0  0  0  0
  149.3817  142.4155  156.6947 H   0  0  0  0  0  0  0  0  0  0  0  0
  152.0488  141.6374  156.7070 H   0  0  0  0  0  0  0  0  0  0  0  0
  152.0307  139.6734  158.2575 H   0  0  0  0  0  0  0  0  0  0  0  0
  151.2687  139.2760  156.7259 H   0  0  0  0  0  0  0  0  0  0  0  0
  150.2751  139.5926  158.1451 H   0  0  0  0  0  0  0  0  0  0  0  0
  150.2059  141.9431  159.1079 H   0  0  0  0  0  0  0  0  0  0  0  0
  152.0991  141.7903  160.3527 H   0  0  0  0  0  0  0  0  0  0  0  0
  153.1545  141.7655  158.9443 H   0  0  0  0  0  0  0  0  0  0  0  0
  153.2113  143.9924  160.4840 H   0  0  0  0  0  0  0  0  0  0  0  0
  153.5654  145.3708  158.4636 H   0  0  0  0  0  0  0  0  0  0  0  0
  153.9773  143.7547  157.8913 H   0  0  0  0  0  0  0  0  0  0  0  0
  151.6990  145.4407  157.1175 H   0  0  0  0  0  0  0  0  0  0  0  0
  152.0889  143.8659  156.4481 H   0  0  0  0  0  0  0  0  0  0  0  0
  149.8237  144.0598  157.9360 H   0  0  0  0  0  0  0  0  0  0  0  0
  150.5801  144.0019  160.4461 H   0  0  0  0  0  0  0  0  0  0  0  0
  151.1969  145.4735  159.6599 H   0  0  0  0  0  0  0  0  0  0  0  0
  142.9860  142.4057  157.0960 H   0  0  0  0  0  0  0  0  0  0  0  0
  143.9963  141.9136  158.4476 H   0  0  0  0  0  0  0  0  0  0  0  0
  143.3496  140.7018  157.3324 H   0  0  0  0  0  0  0  0  0  0  0  0
  1  2  1  0  0  0  0
  1 25  1  0  0  0  0
  1 26  1  0  0  0  0
  1 27  1  0  0  0  0
  2 23  1  0  0  0  0
  2  3  2  0  0  0  0
  3  4  1  0  0  0  0
  4  5  1  0  0  0  0
  4 18  1  0  0  0  0
  5  6  1  0  0  0  0
  5 28  1  0  0  0  0
  5 29  1  0  0  0  0
  6  7  2  0  0  0  0
  6  8  1  0  0  0  0
  8  9  1  0  0  0  0
  8 30  1  0  0  0  0
  9 10  1  0  0  0  0
  9 11  1  0  0  0  0
  9 31  1  0  0  0  0
 10 32  1  0  0  0  0
 10 33  1  0  0  0  0
 10 34  1  0  0  0  0
 11 16  1  0  0  0  0
 11 12  1  0  0  0  0
 11 35  1  0  0  0  0
 12 13  1  0  0  0  0
 12 36  1  0  0  0  0
 12 37  1  0  0  0  0
 13 17  1  0  0  0  0
 13 14  1  0  0  0  0
 13 38  1  0  0  0  0
 14 15  1  0  0  0  0
 14 39  1  0  0  0  0
 14 40  1  0  0  0  0
 15 16  1  0  0  0  0
 15 41  1  0  0  0  0
 15 42  1  0  0  0  0
 16 17  1  0  0  0  0
 16 43  1  0  0  0  0
 17 44  1  0  0  0  0
 17 45  1  0  0  0  0
 18 19  2  0  0  0  0
 18 20  1  0  0  0  0
 20 21  1  0  0  0  0
 20 23  2  0  0  0  0
 21 22  3  0  0  0  0
 23 24  1  0  0  0  0
 24 46  1  0  0  0  0
 24 47  1  0  0  0  0
 24 48  1  0  0  0  0
M  END
> <s_m_source_file>
AV-unprocessed.smi

> <i_m_source_file_index>
1401

> <i_lp_mmshare_version>
43012

> <i_f3d_flags>
0

> <s_epik_input>
TiNDYyhjMVtDSDNdKWMoPU8pbihuYzFbQ0gzXSlbQ0gyXUMoPU8pW05IXVtDQEhdKFtDSDNdKVtDQEhdKFtDSDJdW0NASF0yMylbQ0BIXShbQ0gyXTMpW0NIMl1bQ0gyXTI=

> <s_epik_cmdline>
J2VwaWtfcHl0aG9uJywgJy1waCcsICc3LjAnLCAnLXRuJywgJzgnLCAnLW1hJywgJzIwMCcsICctbWV0YWxfYmluZGluZycsICctaW1hZScsICc8aW5maWxlLm1hZT4nLCAnLW9tYWUnLCAnPG91dGZpbGUubWFlPic=

> <r_lp_tautomer_probability>
1

> <r_epik_Ionization_Penalty>
2.16501e-08

> <r_epik_Ionization_Penalty_Charging>
2.29436e-11

> <r_epik_Ionization_Penalty_Neutral>
2.16271e-08

> <r_epik_State_Penalty>
-0

> <r_epik_Charging_Adjusted_Penalty>
2.29436e-11

> <i_epik_Tot_Q>
0

> <i_epik_Tot_abs_Q>
0

> <r_epik_Metal_State_Penalty>
-0

> <b_epik_Metal_Only>
0

> <s_lp_Force_Field>
OPLS_2005

> <r_lp_Energy>
65.485

> <b_lp_Chiralities_Consistent>
1

> <s_lp_Variant>
AV-unprocessed.smi:1401-7

> <Gold.Version>
5.8.1

> <Gold.Id.Protein>
6NUR|6NUR_protein|mol2

> <Gold.PLP.Fitness>
44.3384

> <Gold.PLP.PLP>
-42.3141

> <Gold.PLP.part.hbond>
-2.0000

> <Gold.PLP.part.metal>
0.0000

> <Gold.PLP.part.buried>
-4.9913

> <Gold.PLP.part.nonpolar>
-35.9892

> <Gold.PLP.part.repulsive>
0.5298

> <Gold.PLP.ligand.clash>
0.0000

> <Gold.PLP.ligand.torsion>
0.5070

> <Gold.PLP.Chemscore.Hbond>
1.0000

> <Gold.PLP.Chemscore.CHOScore>
0.0000

> <Gold.PLP.Chemscore.Metal>
0.0000

> <Gold.Chemscore.Hbonds>
donor molecule, donor type, donor heavy atom, donor atom, acceptor molecule, acceptor atom, score
      P1  H  7989  7998       L1     7  1.00
      P1  H  8022  8030       L1    19  0.01

> <Gold.PLP.Chemscore.Internal.Correction>
0.0383

> <Gold.Rescore>
     Score         DG    S(hbond)    S(metal)    S(lipo)     H(rot)  DE(clash)    DE(int)     intcor
     16.04     -16.94       0.94        0.00     106.83       1.63       0.46       0.44       ----

> <Gold.Chemscore.Fitness>
16.0424

> <Gold.Chemscore.DG>
-16.9375

> <Gold.Chemscore.ZeroCoef>
-5.4800

> <Gold.Chemscore.Hbond>
0.9359

> <Gold.Chemscore.Metal>
0.0000

> <Gold.Chemscore.Lipo>
106.8326

> <Gold.Chemscore.Internal_Hbond>
0.0000

> <Gold.Chemscore.DEClash>
0.4561

> <Gold.Chemscore.DEInternal>
0.4389

> <Gold.Chemscore.Rot>
1.6281

> <Gold.Chemscore.Internal.Correction>
   9.000000E+99

> <Gold.Chemscore.Hbonds>
donor molecule, donor type, donor heavy atom, donor atom, acceptor molecule, acceptor atom, score
      P1  H  7989  7998       L1     7  0.69
      P1  H  8022  8030       L1    19  0.02

> <Gold.Chemscore.Hbond.Weighted>
-3.1259

> <Gold.Chemscore.Metal.Weighted>
-0.0000

> <Gold.Chemscore.Lipo.Weighted>
-12.4994

> <Gold.Chemscore.Internal_Hbond.Weighted>
0.0000

> <Gold.Chemscore.DEClash.Weighted>
0.4561

> <Gold.Chemscore.DEInternal.Weighted>
0.4389

> <Gold.Chemscore.Rot.Weighted>
4.1678

> <Gold.Chemscore.Internal.Correction.Weighted>
   9.000000E+99

> <Gold.Protein.RotatedTorsions>
[ 6907 6896 6895 6894 ] final -169.51 input  -60.11 | X-H torsion
[ 7974 7965 7964 7962 ] final   90.32 input  175.53 | X-H torsion
[ 8008 7997 7996 7995 ] final  138.05 input   59.86 | X-H torsion
[ 10167 10162 10161 10158 ] final -176.04 input  -65.29 | X-H torsion
[ 10718 10713 10712 10709 ] final  -12.48 input   66.30 | X-H torsion
[ 10763 10752 10751 10750 ] final  -56.70 input  -60.55 | X-H torsion
[ 11005 11000 10999 10996 ] final  -35.83 input  -57.11 | X-H torsion

> <Gold.Protein.ActiveResidues>
 VAL166  LYS551  ARG553  GLY616  TRP617  ASP618  TYR619  PRO620  LYS621  CYS622 
 ASP623  PHE694  ASN695  SER759  ASP760  ASP761  ALA762  ILE779  LEU786  VAL792 
 PHE793  MET794  SER795  GLU796  ALA797  LYS798  CYS799  TRP800  GLU811  SER814 

> <Gold.Protein.RotatedAtoms>
  151.4928  133.3521  159.2855 H   0  0  0  0  0  0  0  0  0  0  0  0  # atno 6907 bound_to 6896
  150.8824  134.8218  159.7245 H   0  0  0  0  0  0  0  0  0  0  0  0  # atno 6908 bound_to 6896
  152.4771  134.4827  159.9722 H   0  0  0  0  0  0  0  0  0  0  0  0  # atno 6909 bound_to 6896
  145.5206  139.2279  143.2674 H   0  0  0  0  0  0  0  0  0  0  0  0  # atno 7974 bound_to 7965
  156.2999  140.2403  156.4010 H   0  0  0  0  0  0  0  0  0  0  0  0  # atno 8008 bound_to 7997
  154.8527  140.0423  157.1635 H   0  0  0  0  0  0  0  0  0  0  0  0  # atno 8009 bound_to 7997
  154.8981  140.2973  155.5337 H   0  0  0  0  0  0  0  0  0  0  0  0  # atno 8010 bound_to 7997
  139.5550  144.2013  152.1143 H   0  0  0  0  0  0  0  0  0  0  0  0  # atno 10167 bound_to 10162
  156.6440  130.4936  149.6085 H   0  0  0  0  0  0  0  0  0  0  0  0  # atno 10718 bound_to 10713
  154.2108  135.6395  153.5114 H   0  0  0  0  0  0  0  0  0  0  0  0  # atno 10763 bound_to 10752
  152.9990  135.5473  154.6217 H   0  0  0  0  0  0  0  0  0  0  0  0  # atno 10764 bound_to 10752
  154.5653  135.2912  155.0853 H   0  0  0  0  0  0  0  0  0  0  0  0  # atno 10765 bound_to 10752
  140.9827  133.7047  156.1712 H   0  0  0  0  0  0  0  0  0  0  0  0  # atno 11005 bound_to 11000
  146.2108  140.6018  142.9060 LP  0  0  0  0  0  0  0  0  0  0  0  0  # atno 17320 bound_to 7965
  144.7678  140.5570  143.6691 LP  0  0  0  0  0  0  0  0  0  0  0  0  # atno 17321 bound_to 7965
  140.1515  144.5110  150.6684 LP  0  0  0  0  0  0  0  0  0  0  0  0  # atno 17342 bound_to 10162
  140.6821  143.2331  151.5358 LP  0  0  0  0  0  0  0  0  0  0  0  0  # atno 17343 bound_to 10162
  156.2137  130.6694  151.1296 LP  0  0  0  0  0  0  0  0  0  0  0  0  # atno 17370 bound_to 10713
  157.7162  131.0708  150.6317 LP  0  0  0  0  0  0  0  0  0  0  0  0  # atno 17371 bound_to 10713
  140.7161  134.4408  157.5578 LP  0  0  0  0  0  0  0  0  0  0  0  0  # atno 17394 bound_to 11000
  139.8957  134.8676  156.2119 LP  0  0  0  0  0  0  0  0  0  0  0  0  # atno 17395 bound_to 11000

$$$$
