AV-unprocessed.smi:2549|AV-procd|sdf|10010|dock3
  -GOLD-   2272014 53D 1   1.00000     0.00000
 Structure written by MMmdl.
 17 18  0  0  0  0  0  0  0  0  1 V2000
  153.7224  141.5864  160.8429 C   0  0  0  0  0  0  0  0  0  0  0  0
  153.3770  142.2692  159.7116 C   0  0  0  0  0  0  0  0  0  0  0  0
  152.5961  143.3011  160.1885 N   0  0  0  0  0  0  0  0  0  0  0  0
  152.0165  144.3781  159.4414 C   0  0  0  0  0  0  0  0  0  0  0  0
  150.4988  144.5649  159.3658 C   0  0  0  0  0  0  0  0  0  0  0  0
  150.7028  145.0164  157.9998 N   0  0  0  0  0  0  0  0  0  0  0  0
  151.9790  144.3274  157.9130 C   0  0  0  0  0  0  0  0  0  0  0  0
  152.5110  143.2783  161.5397 N   0  0  0  0  0  0  0  0  0  0  0  0
  153.1683  142.2368  161.9445 N   0  0  0  0  0  0  0  0  0  0  0  0
  154.3253  140.6975  160.9565 H   0  0  0  0  0  0  0  0  0  0  0  0
  153.6049  142.1197  158.6664 H   0  0  0  0  0  0  0  0  0  0  0  0
  152.5056  145.2899  159.7914 H   0  0  0  0  0  0  0  0  0  0  0  0
  149.9251  143.6379  159.4098 H   0  0  0  0  0  0  0  0  0  0  0  0
  150.1074  145.3324  160.0340 H   0  0  0  0  0  0  0  0  0  0  0  0
  150.0162  144.6380  157.3627 H   0  0  0  0  0  0  0  0  0  0  0  0
  152.7642  144.9059  157.4256 H   0  0  0  0  0  0  0  0  0  0  0  0
  151.8770  143.3240  157.4968 H   0  0  0  0  0  0  0  0  0  0  0  0
  1  9  1  0  0  0  0
  1  2  2  0  0  0  0
  1 10  1  0  0  0  0
  2  3  1  0  0  0  0
  2 11  1  0  0  0  0
  3  4  1  0  0  0  0
  3  8  1  0  0  0  0
  4  7  1  0  0  0  0
  4  5  1  0  0  0  0
  4 12  1  0  0  0  0
  5  6  1  0  0  0  0
  5 13  1  0  0  0  0
  5 14  1  0  0  0  0
  6  7  1  0  0  0  0
  6 15  1  0  0  0  0
  7 16  1  0  0  0  0
  7 17  1  0  0  0  0
  8  9  2  0  0  0  0
M  END
> <s_m_source_file>
AV-unprocessed.smi

> <i_m_source_file_index>
2549

> <i_lp_mmshare_version>
43012

> <i_f3d_flags>
0

> <s_epik_input>
bjFuW2NIXVtjSF1uMVtDSF0yW0NIMl1bTkhdW0NIMl0y

> <s_epik_cmdline>
J2VwaWtfcHl0aG9uJywgJy1waCcsICc3LjAnLCAnLXRuJywgJzgnLCAnLW1hJywgJzIwMCcsICctbWV0YWxfYmluZGluZycsICctaW1hZScsICc8aW5maWxlLm1hZT4nLCAnLW9tYWUnLCAnPG91dGZpbGUubWFlPic=

> <r_lp_tautomer_probability>
1

> <r_epik_Ionization_Penalty>
0.704768

> <r_epik_Ionization_Penalty_Charging>
0

> <r_epik_Ionization_Penalty_Neutral>
0.704768

> <r_epik_State_Penalty>
0.727806

> <r_epik_Charging_Adjusted_Penalty>
0.727806

> <i_epik_Tot_Q>
0

> <i_epik_Tot_abs_Q>
0

> <r_epik_Metal_State_Penalty>
0.727802

> <b_epik_Metal_Only>
0

> <s_lp_Force_Field>
OPLS_2005

> <r_lp_Energy>
13.9584

> <b_lp_Chiralities_Consistent>
1

> <s_lp_Variant>
AV-unprocessed.smi:2549-2

> <Gold.Version>
5.8.1

> <Gold.Id.Protein>
6NUR|6NUR_protein|mol2

> <Gold.PLP.Fitness>
30.0973

> <Gold.PLP.PLP>
-27.2644

> <Gold.PLP.part.hbond>
-2.0000

> <Gold.PLP.part.metal>
0.0000

> <Gold.PLP.part.buried>
-3.4046

> <Gold.PLP.part.nonpolar>
-21.7810

> <Gold.PLP.part.repulsive>
0.1571

> <Gold.PLP.ligand.clash>
0.0000

> <Gold.PLP.ligand.torsion>
0.1307

> <Gold.PLP.Chemscore.Hbond>
0.9500

> <Gold.PLP.Chemscore.CHOScore>
0.0000

> <Gold.PLP.Chemscore.Metal>
0.0000

> <Gold.Chemscore.Hbonds>
donor molecule, donor type, donor heavy atom, donor atom, acceptor molecule, acceptor atom, score
      L1  H     6    15       P1  8028  0.95

> <Gold.PLP.Chemscore.Internal.Correction>
0.2443

> <Gold.Rescore>
     Score         DG    S(hbond)    S(metal)    S(lipo)     H(rot)  DE(clash)    DE(int)     intcor
     11.93     -12.12       0.82        0.00      55.16       1.00       0.04       0.14       ----

> <Gold.Chemscore.Fitness>
11.9346

> <Gold.Chemscore.DG>
-12.1172

> <Gold.Chemscore.ZeroCoef>
-5.4800

> <Gold.Chemscore.Hbond>
0.8215

> <Gold.Chemscore.Metal>
0.0000

> <Gold.Chemscore.Lipo>
55.1579

> <Gold.Chemscore.Internal_Hbond>
0.0000

> <Gold.Chemscore.DEClash>
0.0416

> <Gold.Chemscore.DEInternal>
0.1410

> <Gold.Chemscore.Rot>
1.0000

> <Gold.Chemscore.Internal.Correction>
   9.000000E+99

> <Gold.Chemscore.Hbonds>
donor molecule, donor type, donor heavy atom, donor atom, acceptor molecule, acceptor atom, score
      L1  H     6    15       P1  8028  0.20

> <Gold.Chemscore.Hbond.Weighted>
-2.7437

> <Gold.Chemscore.Metal.Weighted>
-0.0000

> <Gold.Chemscore.Lipo.Weighted>
-6.4535

> <Gold.Chemscore.Internal_Hbond.Weighted>
0.0000

> <Gold.Chemscore.DEClash.Weighted>
0.0416

> <Gold.Chemscore.DEInternal.Weighted>
0.1410

> <Gold.Chemscore.Rot.Weighted>
2.5600

> <Gold.Chemscore.Internal.Correction.Weighted>
   9.000000E+99

> <Gold.Protein.RotatedTorsions>
[ 6907 6896 6895 6894 ] final -142.29 input  -60.11 | X-H torsion
[ 7974 7965 7964 7962 ] final  -54.18 input  175.53 | X-H torsion
[ 8008 7997 7996 7995 ] final  123.50 input   59.86 | X-H torsion
[ 10167 10162 10161 10158 ] final  175.65 input  -65.29 | X-H torsion
[ 10718 10713 10712 10709 ] final  -87.20 input   66.30 | X-H torsion
[ 10763 10752 10751 10750 ] final   77.10 input  -60.55 | X-H torsion
[ 11005 11000 10999 10996 ] final   62.95 input  -57.11 | X-H torsion

> <Gold.Protein.ActiveResidues>
 VAL166  LYS551  ARG553  GLY616  TRP617  ASP618  TYR619  PRO620  LYS621  CYS622 
 ASP623  PHE694  ASN695  SER759  ASP760  ASP761  ALA762  ILE779  LEU786  VAL792 
 PHE793  MET794  SER795  GLU796  ALA797  LYS798  CYS799  TRP800  GLU811  SER814 

> <Gold.Protein.RotatedAtoms>
  151.0851  133.5359  159.2618 H   0  0  0  0  0  0  0  0  0  0  0  0  # atno 6907 bound_to 6896
  151.2248  135.0531  159.8974 H   0  0  0  0  0  0  0  0  0  0  0  0  # atno 6908 bound_to 6896
  152.5428  134.0648  159.8222 H   0  0  0  0  0  0  0  0  0  0  0  0  # atno 6909 bound_to 6896
  145.8885  140.8089  142.9803 H   0  0  0  0  0  0  0  0  0  0  0  0  # atno 7974 bound_to 7965
  156.2768  140.2761  156.1638 H   0  0  0  0  0  0  0  0  0  0  0  0  # atno 8008 bound_to 7997
  155.0726  140.0387  157.2631 H   0  0  0  0  0  0  0  0  0  0  0  0  # atno 8009 bound_to 7997
  154.7028  140.2652  155.6709 H   0  0  0  0  0  0  0  0  0  0  0  0  # atno 8010 bound_to 7997
  139.5185  144.3006  152.0382 H   0  0  0  0  0  0  0  0  0  0  0  0  # atno 10167 bound_to 10162
  155.9986  130.4792  150.4831 H   0  0  0  0  0  0  0  0  0  0  0  0  # atno 10718 bound_to 10713
  153.0773  135.4927  154.8431 H   0  0  0  0  0  0  0  0  0  0  0  0  # atno 10763 bound_to 10752
  154.7105  135.3019  154.9207 H   0  0  0  0  0  0  0  0  0  0  0  0  # atno 10764 bound_to 10752
  153.9902  135.6779  153.4807 H   0  0  0  0  0  0  0  0  0  0  0  0  # atno 10765 bound_to 10752
  140.0057  134.6373  155.9858 H   0  0  0  0  0  0  0  0  0  0  0  0  # atno 11005 bound_to 11000
  144.6729  140.1493  143.7431 LP  0  0  0  0  0  0  0  0  0  0  0  0  # atno 17320 bound_to 7965
  145.8937  139.2390  143.1534 LP  0  0  0  0  0  0  0  0  0  0  0  0  # atno 17321 bound_to 7965
  140.2454  144.4225  150.6243 LP  0  0  0  0  0  0  0  0  0  0  0  0  # atno 17342 bound_to 10162
  140.6262  143.2181  151.6592 LP  0  0  0  0  0  0  0  0  0  0  0  0  # atno 17343 bound_to 10162
  157.2834  131.0611  151.2182 LP  0  0  0  0  0  0  0  0  0  0  0  0  # atno 17370 bound_to 10713
  157.3220  130.6942  149.6275 LP  0  0  0  0  0  0  0  0  0  0  0  0  # atno 17371 bound_to 10713
  141.1675  133.6537  156.4532 LP  0  0  0  0  0  0  0  0  0  0  0  0  # atno 17394 bound_to 11000
  140.4645  134.6810  157.5101 LP  0  0  0  0  0  0  0  0  0  0  0  0  # atno 17395 bound_to 11000

$$$$
