#       Name:                AV-unprocessed.smi:3228
#       Creating user name   scv26
#       Creation time:       Fri Mar 27 18:17:13 2020


#       File generated by GOLD software.
#

@<TRIPOS>MOLECULE
AV-unprocessed.smi:3228
    36    37     1
SMALL
NO_CHARGES


@<TRIPOS>ATOM
      1 ****        -0.6830   2.5328   0.3097 O.2            1 S1                 0.0000
      2 ****        -1.1920   1.4991  -0.1297 C.2            1 S1                 0.0000
      3 ****        -0.4387   0.4042  -0.2970 N.am           1 S1                 0.0000
      4 ****         0.9845   0.3085   0.0045 C.3            1 S1                 0.0000
      5 ****         1.5000  -1.1248  -0.2151 C.3            1 S1                 0.0000
      6 ****         0.8239  -2.1766   0.6802 C.3            1 S1                 0.0000
      7 ****         1.8615  -3.2873   0.9093 C.3            1 S1                 0.0000
      8 ****         3.1572  -2.8126   0.2413 C.3            1 S1                 0.0000
      9 ****         2.9915  -1.3003   0.0875 C.3            1 S1                 0.0000
     10 ****         3.8132  -0.7942  -0.9443 O.3            1 S1                 0.0000
     11 ****        -2.4872   1.3281  -0.4802 N.pl3          1 S1                -1.0000
     12 ****        -3.3563   2.3447  -0.3582 C.2            1 S1                 0.0000
     13 ****        -3.7310   3.1119  -1.3886 N.2            1 S1                 0.0000
     14 ****        -4.6481   4.1041  -1.0373 C.2            1 S1                 0.0000
     15 ****        -4.9870   4.0860   0.2897 C.2            1 S1                 0.0000
     16 ****        -4.1590   2.8147   1.1431 S.3            1 S1                 0.0000
     17 ****        -0.8898  -0.4228  -0.6592 H              1 S1                 0.0000
     18 ****         1.5306   1.0031  -0.6355 H              1 S1                 0.0000
     19 ****         1.1601   0.6183   1.0361 H              1 S1                 0.0000
     20 ****         1.3253  -1.4094  -1.2548 H              1 S1                 0.0000
     21 ****         0.5499  -1.7372   1.6405 H              1 S1                 0.0000
     22 ****        -0.0919  -2.5596   0.2282 H              1 S1                 0.0000
     23 ****         2.0160  -3.4364   1.9785 H              1 S1                 0.0000
     24 ****         1.5323  -4.2395   0.4921 H              1 S1                 0.0000
     25 ****         4.0469  -3.0800   0.8125 H              1 S1                 0.0000
     26 ****         3.2427  -3.2806  -0.7407 H              1 S1                 0.0000
     27 ****         3.2450  -0.8069   1.0273 H              1 S1                 0.0000
     28 ****         3.5613  -1.2057  -1.7568 H              1 S1                 0.0000
     29 ****        -5.0084   4.7806  -1.7979 H              1 S1                 0.0000
     30 ****        -5.6696   4.7370   0.8144 H              1 S1                 0.0000
     31 ****         0.2899   2.5523   0.5402 LP             1 S1                 0.0000
     32 ****        -1.2431   3.3516   0.4356 LP             1 S1                 0.0000
     33 ****         4.7711  -1.0002  -0.7445 LP             1 S1                 0.0000
     34 ****         3.6932   0.1960  -1.0162 LP             1 S1                 0.0000
     35 ****        -2.7977   0.4444  -0.8303 LP             1 S1                 0.0000
     36 ****        -3.3876   2.9867  -2.3194 LP             1 S1                 0.0000
@<TRIPOS>BOND
    1    1    2 2     
    2    2    3 am    
    3    2   11 1     
    4    3    4 1     
    5    3   17 1     
    6    4    5 1     
    7    4   18 1     
    8    4   19 1     
    9    5    9 1     
   10    5    6 1     
   11    5   20 1     
   12    6    7 1     
   13    6   21 1     
   14    6   22 1     
   15    7    8 1     
   16    7   23 1     
   17    7   24 1     
   18    8    9 1     
   19    8   25 1     
   20    8   26 1     
   21    9   10 1     
   22    9   27 1     
   23   10   28 1     
   24   11   12 1     
   25   12   16 1     
   26   12   13 2     
   27   13   14 1     
   28   14   15 2     
   29   14   29 1     
   30   15   16 1     
   31   15   30 1     
   32    1   31 1     
   33    1   32 1     
   34   10   33 1     
   35   10   34 1     
   36   11   35 1     
   37   13   36 1     
@<TRIPOS>SUBSTRUCTURE
      1 S1             1
@<TRIPOS>SET
LONE_PAIRS      STATIC     ATOMS    <user>   **** ""
6 31 32 33 34 35 36
DONOR_HYDROGENS      STATIC     ATOMS    <user>   **** ""
2 17 28
ATOM$BLUE        STATIC     ATOMS    COLORGROUP SYSTEM
6 31 32 33 34 35 36
ATOM$RED        STATIC     ATOMS    COLORGROUP SYSTEM
2 17 28
