AV-unprocessed.smi:1844|AV-procd|sdf|7509|dock10
  -GOLD-   22720 9213D 1   1.00000     0.00000
 Structure written by MMmdl.
 45 46  0  0  0  0  0  0  0  0  1 V2000
  145.5094  135.4809  150.8126 C   0  0  0  0  0  0  0  0  0  0  0  0
  146.5039  134.9976  151.7584 N   0  0  0  0  0  0  0  0  0  0  0  0
  146.4703  133.7912  152.3482 C   0  0  0  0  0  0  0  0  0  0  0  0
  145.5658  132.9857  152.1221 O   0  0  0  0  0  0  0  0  0  0  0  0
  147.5890  133.5473  153.2620 C   0  0  0  0  0  0  0  0  0  0  0  0
  148.4342  132.3648  153.1891 C   0  0  0  0  0  0  0  0  0  0  0  0
  149.4671  132.2070  154.0398 C   0  0  0  0  0  0  0  0  0  0  0  0
  149.7836  133.2062  155.0641 C   0  0  0  0  0  0  0  0  0  0  0  0
  150.7434  133.0806  155.8245 O   0  0  0  0  0  0  0  0  0  0  0  0
  148.9529  134.2918  155.1114 N   0  0  0  0  0  0  0  0  0  0  0  0
  149.1892  135.3851  156.0734 C   0  0  0  0  0  0  0  0  0  0  0  0
  150.4180  136.2544  155.7531 C   0  0  0  0  0  0  0  0  0  0  0  0
  151.4922  135.7114  155.4989 O   0  0  0  0  0  0  0  0  0  0  0  0
  150.2566  137.5877  155.7623 N   0  0  0  0  0  0  0  0  0  0  0  0
  151.2748  138.5939  155.4753 C   0  0  1  0  0  0  0  0  0  0  0  0
  150.9028  139.3989  154.2114 C   0  0  0  0  0  0  0  0  0  0  0  0
  149.6677  140.2890  154.4364 C   0  0  0  0  0  0  0  0  0  0  0  0
  149.8675  141.2188  155.6426 C   0  0  0  0  0  0  0  0  0  0  0  0
  150.2246  140.4259  156.9102 C   0  0  0  0  0  0  0  0  0  0  0  0
  151.4648  139.5323  156.6932 C   0  0  1  0  0  0  0  0  0  0  0  0
  151.8401  138.7728  157.9779 C   0  0  0  0  0  0  0  0  0  0  0  0
  147.8772  134.4535  154.2164 C   0  0  0  0  0  0  0  0  0  0  0  0
  145.7728  136.4842  150.4777 H   0  0  0  0  0  0  0  0  0  0  0  0
  144.5222  135.5237  151.2747 H   0  0  0  0  0  0  0  0  0  0  0  0
  145.4572  134.8318  149.9378 H   0  0  0  0  0  0  0  0  0  0  0  0
  147.2680  135.6186  151.9811 H   0  0  0  0  0  0  0  0  0  0  0  0
  148.2550  131.5900  152.4582 H   0  0  0  0  0  0  0  0  0  0  0  0
  150.0802  131.3209  153.9663 H   0  0  0  0  0  0  0  0  0  0  0  0
  148.3158  136.0375  156.1167 H   0  0  0  0  0  0  0  0  0  0  0  0
  149.2959  134.9913  157.0854 H   0  0  0  0  0  0  0  0  0  0  0  0
  149.3370  137.9399  155.9854 H   0  0  0  0  0  0  0  0  0  0  0  0
  152.2206  138.0807  155.2921 H   0  0  0  0  0  0  0  0  0  0  0  0
  151.7477  140.0271  153.9265 H   0  0  0  0  0  0  0  0  0  0  0  0
  150.7298  138.7283  153.3690 H   0  0  0  0  0  0  0  0  0  0  0  0
  149.4692  140.8798  153.5417 H   0  0  0  0  0  0  0  0  0  0  0  0
  148.7859  139.6664  154.5946 H   0  0  0  0  0  0  0  0  0  0  0  0
  150.6622  141.9332  155.4238 H   0  0  0  0  0  0  0  0  0  0  0  0
  148.9639  141.8050  155.8129 H   0  0  0  0  0  0  0  0  0  0  0  0
  150.4063  141.1197  157.7316 H   0  0  0  0  0  0  0  0  0  0  0  0
  149.3715  139.8155  157.2099 H   0  0  0  0  0  0  0  0  0  0  0  0
  152.3029  140.1915  156.4617 H   0  0  0  0  0  0  0  0  0  0  0  0
  151.0306  138.1262  158.3187 H   0  0  0  0  0  0  0  0  0  0  0  0
  152.0678  139.4661  158.7879 H   0  0  0  0  0  0  0  0  0  0  0  0
  152.7213  138.1500  157.8214 H   0  0  0  0  0  0  0  0  0  0  0  0
  147.3218  135.3714  154.3523 H   0  0  0  0  0  0  0  0  0  0  0  0
  1  2  1  0  0  0  0
  1 23  1  0  0  0  0
  1 24  1  0  0  0  0
  1 25  1  0  0  0  0
  2  3  1  0  0  0  0
  2 26  1  0  0  0  0
  3  4  2  0  0  0  0
  3  5  1  0  0  0  0
  5 22  2  0  0  0  0
  5  6  1  0  0  0  0
  6  7  2  0  0  0  0
  6 27  1  0  0  0  0
  7  8  1  0  0  0  0
  7 28  1  0  0  0  0
  8  9  2  0  0  0  0
  8 10  1  0  0  0  0
 10 11  1  0  0  0  0
 10 22  1  0  0  0  0
 11 12  1  0  0  0  0
 11 29  1  0  0  0  0
 11 30  1  0  0  0  0
 12 13  2  0  0  0  0
 12 14  1  0  0  0  0
 14 15  1  0  0  0  0
 14 31  1  0  0  0  0
 15 20  1  0  0  0  0
 15 16  1  0  0  0  0
 15 32  1  0  0  0  0
 16 17  1  0  0  0  0
 16 33  1  0  0  0  0
 16 34  1  0  0  0  0
 17 18  1  0  0  0  0
 17 35  1  0  0  0  0
 17 36  1  0  0  0  0
 18 19  1  0  0  0  0
 18 37  1  0  0  0  0
 18 38  1  0  0  0  0
 19 20  1  0  0  0  0
 19 39  1  0  0  0  0
 19 40  1  0  0  0  0
 20 21  1  0  0  0  0
 20 41  1  0  0  0  0
 21 42  1  0  0  0  0
 21 43  1  0  0  0  0
 21 44  1  0  0  0  0
 22 45  1  0  0  0  0
M  END
> <s_m_source_file>
AV-unprocessed.smi

> <i_m_source_file_index>
1844

> <i_lp_mmshare_version>
43012

> <i_f3d_flags>
0

> <s_epik_input>
W0NIM11bTkhdQyg9TyljMVtjSF1bY0hdYyg9TyluKFtjSF0xKVtDSDJdQyg9TylbTkhdW0NAQEhdMltDSDJdW0NIMl1bQ0gyXVtDSDJdW0NASF0yW0NIM10=

> <s_epik_cmdline>
J2VwaWtfcHl0aG9uJywgJy1waCcsICc3LjAnLCAnLXRuJywgJzgnLCAnLW1hJywgJzIwMCcsICctbWV0YWxfYmluZGluZycsICctaW1hZScsICc8aW5maWxlLm1hZT4nLCAnLW9tYWUnLCAnPG91dGZpbGUubWFlPic=

> <r_lp_tautomer_probability>
1

> <r_epik_Ionization_Penalty>
3.66612e-07

> <r_epik_Ionization_Penalty_Charging>
5.18929e-08

> <r_epik_Ionization_Penalty_Neutral>
3.14719e-07

> <r_epik_State_Penalty>
-0

> <r_epik_Charging_Adjusted_Penalty>
5.18929e-08

> <i_epik_Tot_Q>
0

> <i_epik_Tot_abs_Q>
0

> <r_epik_Metal_State_Penalty>
-0

> <b_epik_Metal_Only>
0

> <s_lp_Force_Field>
OPLS_2005

> <r_lp_Energy>
21.2081

> <b_lp_Chiralities_Consistent>
1

> <s_lp_Variant>
AV-unprocessed.smi:1844-2

> <Gold.Version>
5.8.1

> <Gold.Id.Protein>
6NUR|6NUR_protein|mol2

> <Gold.PLP.Fitness>
36.1327

> <Gold.PLP.PLP>
-32.5155

> <Gold.PLP.part.hbond>
-2.0000

> <Gold.PLP.part.metal>
0.0000

> <Gold.PLP.part.buried>
-0.5844

> <Gold.PLP.part.nonpolar>
-28.9090

> <Gold.PLP.part.repulsive>
0.2426

> <Gold.PLP.ligand.clash>
0.0000

> <Gold.PLP.ligand.torsion>
1.1852

> <Gold.PLP.Chemscore.Hbond>
1.9920

> <Gold.PLP.Chemscore.CHOScore>
0.0000

> <Gold.PLP.Chemscore.Metal>
0.0000

> <Gold.Chemscore.Hbonds>
donor molecule, donor type, donor heavy atom, donor atom, acceptor molecule, acceptor atom, score
      L1  H     2    26       P1  7948  1.00
      P1  H 10752 10765       L1    13  1.00

> <Gold.PLP.Chemscore.Internal.Correction>
0.0115

> <Gold.Rescore>
     Score         DG    S(hbond)    S(metal)    S(lipo)     H(rot)  DE(clash)    DE(int)     intcor
     13.45     -16.34       1.94        0.00      70.02       1.49       0.19       2.70       ----

> <Gold.Chemscore.Fitness>
13.4532

> <Gold.Chemscore.DG>
-16.3412

> <Gold.Chemscore.ZeroCoef>
-5.4800

> <Gold.Chemscore.Hbond>
1.9428

> <Gold.Chemscore.Metal>
0.0000

> <Gold.Chemscore.Lipo>
70.0216

> <Gold.Chemscore.Internal_Hbond>
0.0000

> <Gold.Chemscore.DEClash>
0.1918

> <Gold.Chemscore.DEInternal>
2.6961

> <Gold.Chemscore.Rot>
1.4923

> <Gold.Chemscore.Internal.Correction>
   9.000000E+99

> <Gold.Chemscore.Hbonds>
donor molecule, donor type, donor heavy atom, donor atom, acceptor molecule, acceptor atom, score
      L1  H     2    26       P1  7948  0.97
      P1  H 10752 10765       L1    13  1.00

> <Gold.Chemscore.Hbond.Weighted>
-6.4891

> <Gold.Chemscore.Metal.Weighted>
-0.0000

> <Gold.Chemscore.Lipo.Weighted>
-8.1925

> <Gold.Chemscore.Internal_Hbond.Weighted>
0.0000

> <Gold.Chemscore.DEClash.Weighted>
0.1918

> <Gold.Chemscore.DEInternal.Weighted>
2.6961

> <Gold.Chemscore.Rot.Weighted>
3.8204

> <Gold.Chemscore.Internal.Correction.Weighted>
   9.000000E+99

> <Gold.Protein.RotatedTorsions>
[ 6907 6896 6895 6894 ] final  -49.04 input  -60.11 | X-H torsion
[ 7974 7965 7964 7962 ] final   64.27 input  175.53 | X-H torsion
[ 8008 7997 7996 7995 ] final -108.97 input   59.86 | X-H torsion
[ 10167 10162 10161 10158 ] final   99.32 input  -65.29 | X-H torsion
[ 10718 10713 10712 10709 ] final -165.78 input   66.30 | X-H torsion
[ 10763 10752 10751 10750 ] final -169.35 input  -60.55 | X-H torsion
[ 11005 11000 10999 10996 ] final  -49.16 input  -57.11 | X-H torsion

> <Gold.Protein.ActiveResidues>
 VAL166  LYS551  ARG553  GLY616  TRP617  ASP618  TYR619  PRO620  LYS621  CYS622 
 ASP623  PHE694  ASN695  SER759  ASP760  ASP761  ALA762  ILE779  LEU786  VAL792 
 PHE793  MET794  SER795  GLU796  ALA797  LYS798  CYS799  TRP800  GLU811  SER814 

> <Gold.Protein.RotatedAtoms>
  150.8844  134.8240  159.7248 H   0  0  0  0  0  0  0  0  0  0  0  0  # atno 6907 bound_to 6896
  152.4798  134.4745  159.9656 H   0  0  0  0  0  0  0  0  0  0  0  0  # atno 6908 bound_to 6896
  151.4816  133.3506  159.2874 H   0  0  0  0  0  0  0  0  0  0  0  0  # atno 6909 bound_to 6896
  145.8522  139.3261  143.0868 H   0  0  0  0  0  0  0  0  0  0  0  0  # atno 7974 bound_to 7965
  154.9523  140.0400  157.2150 H   0  0  0  0  0  0  0  0  0  0  0  0  # atno 8008 bound_to 7997
  154.7967  140.2845  155.5929 H   0  0  0  0  0  0  0  0  0  0  0  0  # atno 8009 bound_to 7997
  156.2956  140.2563  156.2826 H   0  0  0  0  0  0  0  0  0  0  0  0  # atno 8010 bound_to 7997
  139.7628  144.6948  151.0267 H   0  0  0  0  0  0  0  0  0  0  0  0  # atno 10167 bound_to 10162
  156.6583  130.9035  151.3025 H   0  0  0  0  0  0  0  0  0  0  0  0  # atno 10718 bound_to 10713
  154.6532  135.2914  154.9960 H   0  0  0  0  0  0  0  0  0  0  0  0  # atno 10763 bound_to 10752
  154.1045  135.6571  153.4878 H   0  0  0  0  0  0  0  0  0  0  0  0  # atno 10764 bound_to 10752
  153.0388  135.5250  154.7450 H   0  0  0  0  0  0  0  0  0  0  0  0  # atno 10765 bound_to 10752
  141.0743  133.6670  156.3546 H   0  0  0  0  0  0  0  0  0  0  0  0  # atno 11005 bound_to 11000
  145.9344  140.9025  143.0339 LP  0  0  0  0  0  0  0  0  0  0  0  0  # atno 17320 bound_to 7965
  144.6729  140.1463  143.7433 LP  0  0  0  0  0  0  0  0  0  0  0  0  # atno 17321 bound_to 7965
  140.7808  143.4677  151.0190 LP  0  0  0  0  0  0  0  0  0  0  0  0  # atno 17342 bound_to 10162
  139.8362  143.7624  152.3180 LP  0  0  0  0  0  0  0  0  0  0  0  0  # atno 17343 bound_to 10162
  157.7118  130.9449  150.1116 LP  0  0  0  0  0  0  0  0  0  0  0  0  # atno 17370 bound_to 10713
  156.2031  130.3661  149.8764 LP  0  0  0  0  0  0  0  0  0  0  0  0  # atno 17371 bound_to 10713
  140.5607  134.5937  157.5432 LP  0  0  0  0  0  0  0  0  0  0  0  0  # atno 17394 bound_to 11000
  139.9556  134.7541  156.0350 LP  0  0  0  0  0  0  0  0  0  0  0  0  # atno 17395 bound_to 11000

$$$$
