AV-unprocessed.smi:3261|AV-procd|sdf|12481|dock6
  -GOLD-   2272018383D 1   1.00000     0.00000
 Structure written by MMmdl.
 31 32  0  0  0  0  0  0  0  0  2 V2000
  146.5812  132.1884  153.9070 O   0  0  0  0  0  0  0  0  0  0  0  0
  147.3335  131.8491  152.9966 C   0  0  0  0  0  0  0  0  0  0  0  0
  147.0021  131.8377  151.6899 N   0  0  0  0  0  0  0  0  0  0  0  0
  145.7885  132.2430  151.0696 C   0  0  0  0  0  0  0  0  0  0  0  0
  144.7777  132.7698  151.9041 C   0  0  0  0  0  0  0  0  0  0  0  0
  143.5487  133.1712  151.3418 C   0  0  0  0  0  0  0  0  0  0  0  0
  143.3432  133.0415  150.0138 N   0  3  0  0  0  0  0  0  0  0  0  0
  144.2728  132.5320  149.1776 C   0  0  0  0  0  0  0  0  0  0  0  0
  145.5211  132.1140  149.6823 C   0  0  0  0  0  0  0  0  0  0  0  0
  148.5827  131.4204  153.2539 N   0  0  0  0  0  0  0  0  0  0  0  0
  149.2554  131.3064  154.5491 C   0  0  1  0  0  0  0  0  0  0  0  0
  150.6451  130.6609  154.3949 C   0  0  0  0  0  0  0  0  0  0  0  0
  151.4397  130.8873  155.6874 C   0  0  0  0  0  0  0  0  0  0  0  0
  150.8398  132.4735  156.3842 S   0  0  0  0  0  0  0  0  0  0  0  0
  150.3068  132.2300  157.7331 O   0  0  0  0  0  0  0  0  0  0  0  0
  151.8337  133.5297  156.1412 O   0  0  0  0  0  0  0  0  0  0  0  0
  149.4481  132.6799  155.2116 C   0  0  0  0  0  0  0  0  0  0  0  0
  147.6969  131.4531  151.0666 H   0  0  0  0  0  0  0  0  0  0  0  0
  144.9406  132.8712  152.9676 H   0  0  0  0  0  0  0  0  0  0  0  0
  142.7296  133.5870  151.9104 H   0  0  0  0  0  0  0  0  0  0  0  0
  143.9906  132.4684  148.1368 H   0  0  0  0  0  0  0  0  0  0  0  0
  146.2386  131.6926  148.9955 H   0  0  0  0  0  0  0  0  0  0  0  0
  149.1234  131.1202  152.4552 H   0  0  0  0  0  0  0  0  0  0  0  0
  148.6762  130.6692  155.2196 H   0  0  0  0  0  0  0  0  0  0  0  0
  150.5754  129.6004  154.1510 H   0  0  0  0  0  0  0  0  0  0  0  0
  151.1759  131.1413  153.5715 H   0  0  0  0  0  0  0  0  0  0  0  0
  151.2308  130.1012  156.4134 H   0  0  0  0  0  0  0  0  0  0  0  0
  152.5164  130.9305  155.5224 H   0  0  0  0  0  0  0  0  0  0  0  0
  149.7417  133.4331  154.4792 H   0  0  0  0  0  0  0  0  0  0  0  0
  148.5633  133.0346  155.7401 H   0  0  0  0  0  0  0  0  0  0  0  0
  142.4464  133.3360  149.6265 H   0  0  0  0  0  0  0  0  0  0  0  0
  1  2  2  0  0  0  0
  2  3  1  0  0  0  0
  2 10  1  0  0  0  0
  3  4  1  0  0  0  0
  3 18  1  0  0  0  0
  4  9  1  0  0  0  0
  4  5  2  0  0  0  0
  5  6  1  0  0  0  0
  5 19  1  0  0  0  0
  6  7  2  0  0  0  0
  6 20  1  0  0  0  0
  7  8  1  0  0  0  0
  7 31  1  0  0  0  0
  8  9  2  0  0  0  0
  8 21  1  0  0  0  0
  9 22  1  0  0  0  0
 10 11  1  0  0  0  0
 10 23  1  0  0  0  0
 11 17  1  0  0  0  0
 11 12  1  0  0  0  0
 11 24  1  0  0  0  0
 12 13  1  0  0  0  0
 12 25  1  0  0  0  0
 12 26  1  0  0  0  0
 13 14  1  0  0  0  0
 13 27  1  0  0  0  0
 13 28  1  0  0  0  0
 14 15  2  0  0  0  0
 14 16  2  0  0  0  0
 14 17  1  0  0  0  0
 17 29  1  0  0  0  0
 17 30  1  0  0  0  0
M  CHG  1   7   1
M  END
> <s_m_source_file>
AV-unprocessed.smi

> <i_m_source_file_index>
3261

> <i_lp_mmshare_version>
43012

> <i_f3d_flags>
0

> <s_epik_input>
Tz1TMSg9TylbQ0gyXVtDSDJdW0NASF0oW0NIMl0xKVtOSF1DKD1PKVtOSF1jMltjSF1bY0hdbltjSF1bY0hdMg==

> <s_epik_cmdline>
J2VwaWtfcHl0aG9uJywgJy1waCcsICc3LjAnLCAnLXRuJywgJzgnLCAnLW1hJywgJzIwMCcsICctbWV0YWxfYmluZGluZycsICctaW1hZScsICc8aW5maWxlLm1hZT4nLCAnLW9tYWUnLCAnPG91dGZpbGUubWFlPic=

> <r_epik_Ionization_Penalty>
1.10375

> <r_epik_Ionization_Penalty_Charging>
1.10372

> <r_epik_Ionization_Penalty_Neutral>
2.06752e-05

> <r_epik_State_Penalty>
1.16109

> <r_epik_Charging_Adjusted_Penalty>
2.26482

> <i_epik_Tot_Q>
1

> <i_epik_Tot_abs_Q>
1

> <r_epik_Metal_State_Penalty>
1.24883

> <b_epik_Metal_Only>
0

> <s_lp_Force_Field>
OPLS_2005

> <r_lp_Energy>
25.5271

> <b_lp_Chiralities_Consistent>
1

> <s_lp_Variant>
AV-unprocessed.smi:3261-4

> <Gold.Version>
5.8.1

> <Gold.Id.Protein>
6NUR|6NUR_protein|mol2

> <Gold.PLP.Fitness>
41.7704

> <Gold.PLP.PLP>
-28.5179

> <Gold.PLP.part.hbond>
-4.1987

> <Gold.PLP.part.metal>
0.0000

> <Gold.PLP.part.buried>
-3.1063

> <Gold.PLP.part.nonpolar>
-21.2971

> <Gold.PLP.part.repulsive>
0.1833

> <Gold.PLP.ligand.clash>
0.0000

> <Gold.PLP.ligand.torsion>
0.0233

> <Gold.PLP.Chemscore.Hbond>
4.4329

> <Gold.PLP.Chemscore.CHOScore>
0.0000

> <Gold.PLP.Chemscore.Metal>
0.0000

> <Gold.Chemscore.Hbonds>
donor molecule, donor type, donor heavy atom, donor atom, acceptor molecule, acceptor atom, score
      L1  H     3    18       P1 10747  1.00
      L1  H     7    31       P1 10186  2.00
      L1  H    10    23       P1 10747  0.58
      P1  H  6896  6909       L1    15  0.88

> <Gold.PLP.Chemscore.Internal.Correction>
0.0005

> <Gold.Rescore>
     Score         DG    S(hbond)    S(metal)    S(lipo)     H(rot)  DE(clash)    DE(int)     intcor
     18.46     -20.09       2.90        0.00      63.88       1.00       0.15       1.48       ----

> <Gold.Chemscore.Fitness>
18.4637

> <Gold.Chemscore.DG>
-20.0928

> <Gold.Chemscore.ZeroCoef>
-5.4800

> <Gold.Chemscore.Hbond>
2.9038

> <Gold.Chemscore.Metal>
0.0000

> <Gold.Chemscore.Lipo>
63.8805

> <Gold.Chemscore.Internal_Hbond>
0.0000

> <Gold.Chemscore.DEClash>
0.1536

> <Gold.Chemscore.DEInternal>
1.4754

> <Gold.Chemscore.Rot>
1.0000

> <Gold.Chemscore.Internal.Correction>
   9.000000E+99

> <Gold.Chemscore.Hbonds>
donor molecule, donor type, donor heavy atom, donor atom, acceptor molecule, acceptor atom, score
      L1  H     3    18       P1 10747  0.99
      L1  H     7    31       P1 10186  0.98
      L1  H    10    23       P1 10747  0.20
      P1  H  6896  6909       L1    15  0.76

> <Gold.Chemscore.Hbond.Weighted>
-9.6988

> <Gold.Chemscore.Metal.Weighted>
-0.0000

> <Gold.Chemscore.Lipo.Weighted>
-7.4740

> <Gold.Chemscore.Internal_Hbond.Weighted>
0.0000

> <Gold.Chemscore.DEClash.Weighted>
0.1536

> <Gold.Chemscore.DEInternal.Weighted>
1.4754

> <Gold.Chemscore.Rot.Weighted>
2.5600

> <Gold.Chemscore.Internal.Correction.Weighted>
   9.000000E+99

> <Gold.Protein.RotatedTorsions>
[ 6907 6896 6895 6894 ] final  -26.21 input  -60.11 | X-H torsion
[ 7974 7965 7964 7962 ] final  150.48 input  175.53 | X-H torsion
[ 8008 7997 7996 7995 ] final   -4.46 input   59.86 | X-H torsion
[ 10167 10162 10161 10158 ] final  131.46 input  -65.29 | X-H torsion
[ 10718 10713 10712 10709 ] final -168.66 input   66.30 | X-H torsion
[ 10763 10752 10751 10750 ] final -143.79 input  -60.55 | X-H torsion
[ 11005 11000 10999 10996 ] final  -77.65 input  -57.11 | X-H torsion

> <Gold.Protein.ActiveResidues>
 VAL166  LYS551  ARG553  GLY616  TRP617  ASP618  TYR619  PRO620  LYS621  CYS622 
 ASP623  PHE694  ASN695  SER759  ASP760  ASP761  ALA762  ILE779  LEU786  VAL792 
 PHE793  MET794  SER795  GLU796  ALA797  LYS798  CYS799  TRP800  GLU811  SER814 

> <Gold.Protein.RotatedAtoms>
  151.1642  135.0287  159.8723 H   0  0  0  0  0  0  0  0  0  0  0  0  # atno 6907 bound_to 6896
  152.5451  134.1245  159.8423 H   0  0  0  0  0  0  0  0  0  0  0  0  # atno 6908 bound_to 6896
  151.1343  133.4969  159.2631 H   0  0  0  0  0  0  0  0  0  0  0  0  # atno 6909 bound_to 6896
  144.8361  139.6414  143.6037 H   0  0  0  0  0  0  0  0  0  0  0  0  # atno 7974 bound_to 7965
  154.6140  140.2483  155.7632 H   0  0  0  0  0  0  0  0  0  0  0  0  # atno 8008 bound_to 7997
  156.2388  140.2940  156.0335 H   0  0  0  0  0  0  0  0  0  0  0  0  # atno 8009 bound_to 7997
  155.2005  140.0394  157.2907 H   0  0  0  0  0  0  0  0  0  0  0  0  # atno 8010 bound_to 7997
  139.5383  144.6705  151.4710 H   0  0  0  0  0  0  0  0  0  0  0  0  # atno 10167 bound_to 10162
  156.7002  130.9193  151.3079 H   0  0  0  0  0  0  0  0  0  0  0  0  # atno 10718 bound_to 10713
  154.8455  135.3458  154.6244 H   0  0  0  0  0  0  0  0  0  0  0  0  # atno 10763 bound_to 10752
  153.6853  135.6978  153.5110 H   0  0  0  0  0  0  0  0  0  0  0  0  # atno 10764 bound_to 10752
  153.2637  135.4315  155.0875 H   0  0  0  0  0  0  0  0  0  0  0  0  # atno 10765 bound_to 10752
  141.1661  133.7031  156.7852 H   0  0  0  0  0  0  0  0  0  0  0  0  # atno 11005 bound_to 11000
  146.2659  139.6520  142.9329 LP  0  0  0  0  0  0  0  0  0  0  0  0  # atno 17320 bound_to 7965
  145.4792  141.0437  143.2655 LP  0  0  0  0  0  0  0  0  0  0  0  0  # atno 17321 bound_to 7965
  140.6601  143.8517  150.6878 LP  0  0  0  0  0  0  0  0  0  0  0  0  # atno 17342 bound_to 10162
  140.1909  143.4037  152.1864 LP  0  0  0  0  0  0  0  0  0  0  0  0  # atno 17343 bound_to 10162
  157.6976  130.9298  150.0689 LP  0  0  0  0  0  0  0  0  0  0  0  0  # atno 17370 bound_to 10713
  156.1734  130.3647  149.9133 LP  0  0  0  0  0  0  0  0  0  0  0  0  # atno 17371 bound_to 10713
  140.2365  134.8646  157.3530 LP  0  0  0  0  0  0  0  0  0  0  0  0  # atno 17394 bound_to 11000
  140.1838  134.4456  155.7756 LP  0  0  0  0  0  0  0  0  0  0  0  0  # atno 17395 bound_to 11000

$$$$
