AV-unprocessed.smi:47|AV-procd|sdf|439|dock3
  -GOLD-   2262016313D 1   1.00000     0.00000
 Structure written by MMmdl.
 32 34  0  0  0  0  0  0  0  0  2 V2000
  146.4582  140.8313  152.8842 O   0  0  0  0  0  0  0  0  0  0  0  0
  147.2895  140.3228  153.9067 C   0  0  1  0  0  0  0  0  0  0  0  0
  148.3413  139.3610  153.3355 C   0  0  0  0  0  0  0  0  0  0  0  0
  149.5651  139.6180  154.1082 N   0  3  0  0  0  0  0  0  0  0  0  0
  149.5582  141.0568  154.4208 C   0  0  2  0  0  0  0  0  0  0  0  0
  150.4101  141.2070  155.6458 C   0  0  0  0  0  0  0  0  0  0  0  0
  151.2308  140.2793  156.1450 N   0  0  0  0  0  0  0  0  0  0  0  0
  151.7873  140.8535  157.2723 N   0  0  0  0  0  0  0  0  0  0  0  0
  151.2604  142.0824  157.3743 C   0  0  0  0  0  0  0  0  0  0  0  0
  151.5850  143.0302  158.4428 C   0  0  0  0  0  0  0  0  0  0  0  0
  151.2582  144.4000  158.3101 C   0  0  0  0  0  0  0  0  0  0  0  0
  151.5664  145.3106  159.3396 C   0  0  0  0  0  0  0  0  0  0  0  0
  152.2015  144.8615  160.5125 C   0  0  0  0  0  0  0  0  0  0  0  0
  152.5292  143.5004  160.6549 C   0  0  0  0  0  0  0  0  0  0  0  0
  152.2230  142.5891  159.6256 C   0  0  0  0  0  0  0  0  0  0  0  0
  150.3972  142.3318  156.3734 N   0  0  0  0  0  0  0  0  0  0  0  0
  148.0839  141.4422  154.6002 C   0  0  0  0  0  0  0  0  0  0  0  0
  146.6720  139.8035  154.6410 H   0  0  0  0  0  0  0  0  0  0  0  0
  149.9953  141.5989  153.5808 H   0  0  0  0  0  0  0  0  0  0  0  0
  149.8601  143.1722  156.2148 H   0  0  0  0  0  0  0  0  0  0  0  0
  145.5919  140.4669  152.9880 H   0  0  0  0  0  0  0  0  0  0  0  0
  148.0361  138.3158  153.3935 H   0  0  0  0  0  0  0  0  0  0  0  0
  148.5517  139.5929  152.2901 H   0  0  0  0  0  0  0  0  0  0  0  0
  149.5078  139.1086  154.9788 H   0  0  0  0  0  0  0  0  0  0  0  0
  150.7714  144.7677  157.4191 H   0  0  0  0  0  0  0  0  0  0  0  0
  151.3147  146.3552  159.2298 H   0  0  0  0  0  0  0  0  0  0  0  0
  152.4363  145.5599  161.3022 H   0  0  0  0  0  0  0  0  0  0  0  0
  153.0152  143.1538  161.5551 H   0  0  0  0  0  0  0  0  0  0  0  0
  152.4816  141.5487  159.7571 H   0  0  0  0  0  0  0  0  0  0  0  0
  147.8813  142.4357  154.1977 H   0  0  0  0  0  0  0  0  0  0  0  0
  147.8144  141.4636  155.6573 H   0  0  0  0  0  0  0  0  0  0  0  0
  150.3974  139.3463  153.6046 H   0  0  0  0  0  0  0  0  0  0  0  0
  1  2  1  0  0  0  0
  1 21  1  0  0  0  0
  2 18  1  0  0  0  0
  2 17  1  0  0  0  0
  2  3  1  0  0  0  0
  3  4  1  0  0  0  0
  3 22  1  0  0  0  0
  3 23  1  0  0  0  0
  4  5  1  0  0  0  0
  4 24  1  0  0  0  0
  4 32  1  0  0  0  0
  5 19  1  0  0  0  0
  5 17  1  0  0  0  0
  5  6  1  0  0  0  0
  6  7  2  0  0  0  0
  6 16  1  0  0  0  0
  7  8  1  0  0  0  0
  8  9  2  0  0  0  0
  9 16  1  0  0  0  0
  9 10  1  0  0  0  0
 10 15  1  0  0  0  0
 10 11  2  0  0  0  0
 11 12  1  0  0  0  0
 11 25  1  0  0  0  0
 12 13  2  0  0  0  0
 12 26  1  0  0  0  0
 13 14  1  0  0  0  0
 13 27  1  0  0  0  0
 14 15  2  0  0  0  0
 14 28  1  0  0  0  0
 15 29  1  0  0  0  0
 16 20  1  0  0  0  0
 17 30  1  0  0  0  0
 17 31  1  0  0  0  0
M  CHG  1   4   1
M  END
> <s_m_source_file>
AV-unprocessed.smi

> <i_m_source_file_index>
47

> <i_lp_mmshare_version>
43012

> <i_f3d_flags>
0

> <s_epik_input>
W09IXVtDQEhdMVtDSDJdW05IXVtDQEBIXShbQ0gyXTEpYzJuW25IXWMobjIpLWMzW2NIXVtjSF1bY0hdW2NIXVtjSF0z

> <s_epik_cmdline>
J2VwaWtfcHl0aG9uJywgJy1waCcsICc3LjAnLCAnLXRuJywgJzgnLCAnLW1hJywgJzIwMCcsICctbWV0YWxfYmluZGluZycsICctaW1hZScsICc8aW5maWxlLm1hZT4nLCAnLW9tYWUnLCAnPG91dGZpbGUubWFlPic=

> <r_lp_tautomer_probability>
0.0517155

> <r_epik_Ionization_Penalty>
2.45729

> <r_epik_Ionization_Penalty_Charging>
0.0688988

> <r_epik_Ionization_Penalty_Neutral>
2.3884

> <r_epik_State_Penalty>
2.69236

> <r_epik_Charging_Adjusted_Penalty>
2.76126

> <i_epik_Tot_Q>
1

> <i_epik_Tot_abs_Q>
1

> <r_epik_Metal_State_Penalty>
3.18974

> <b_epik_Metal_Only>
0

> <s_lp_Force_Field>
OPLS_2005

> <r_lp_Energy>
30.5648

> <b_lp_Chiralities_Consistent>
1

> <s_lp_Variant>
AV-unprocessed.smi:47-17

> <Gold.Version>
5.8.1

> <Gold.Id.Protein>
6NUR|6NUR_protein|mol2

> <Gold.PLP.Fitness>
42.4651

> <Gold.PLP.PLP>
-37.2433

> <Gold.PLP.part.hbond>
-3.0000

> <Gold.PLP.part.metal>
0.0000

> <Gold.PLP.part.buried>
-1.2306

> <Gold.PLP.part.nonpolar>
-32.8919

> <Gold.PLP.part.repulsive>
0.2033

> <Gold.PLP.ligand.clash>
0.0000

> <Gold.PLP.ligand.torsion>
0.3843

> <Gold.PLP.Chemscore.Hbond>
1.9920

> <Gold.PLP.Chemscore.CHOScore>
0.0000

> <Gold.PLP.Chemscore.Metal>
0.0000

> <Gold.Chemscore.Hbonds>
donor molecule, donor type, donor heavy atom, donor atom, acceptor molecule, acceptor atom, score
      L1  H     1    21       P1 10175  0.96
      L1  H    16    20       P1  8028  1.00

> <Gold.PLP.Chemscore.Internal.Correction>
0.0143

> <Gold.Rescore>
     Score         DG    S(hbond)    S(metal)    S(lipo)     H(rot)  DE(clash)    DE(int)     intcor
     17.09     -18.61       1.78        0.00      94.18       1.50       1.31       0.22       ----

> <Gold.Chemscore.Fitness>
17.0883

> <Gold.Chemscore.DG>
-18.6128

> <Gold.Chemscore.ZeroCoef>
-5.4800

> <Gold.Chemscore.Hbond>
1.7800

> <Gold.Chemscore.Metal>
0.0000

> <Gold.Chemscore.Lipo>
94.1788

> <Gold.Chemscore.Internal_Hbond>
0.0000

> <Gold.Chemscore.DEClash>
1.3068

> <Gold.Chemscore.DEInternal>
0.2176

> <Gold.Chemscore.Rot>
1.4966

> <Gold.Chemscore.Internal.Correction>
   9.000000E+99

> <Gold.Chemscore.Hbonds>
donor molecule, donor type, donor heavy atom, donor atom, acceptor molecule, acceptor atom, score
      L1  H     1    21       P1 10175  0.80
      L1  H    16    20       P1  8028  1.00

> <Gold.Chemscore.Hbond.Weighted>
-5.9451

> <Gold.Chemscore.Metal.Weighted>
-0.0000

> <Gold.Chemscore.Lipo.Weighted>
-11.0189

> <Gold.Chemscore.Internal_Hbond.Weighted>
0.0000

> <Gold.Chemscore.DEClash.Weighted>
1.3068

> <Gold.Chemscore.DEInternal.Weighted>
0.2176

> <Gold.Chemscore.Rot.Weighted>
3.8312

> <Gold.Chemscore.Internal.Correction.Weighted>
   9.000000E+99

> <Gold.Protein.RotatedTorsions>
[ 6907 6896 6895 6894 ] final -112.95 input  -60.11 | X-H torsion
[ 7974 7965 7964 7962 ] final  130.93 input  175.53 | X-H torsion
[ 8008 7997 7996 7995 ] final -127.44 input   59.86 | X-H torsion
[ 10167 10162 10161 10158 ] final  179.73 input  -65.29 | X-H torsion
[ 10718 10713 10712 10709 ] final   20.49 input   66.30 | X-H torsion
[ 10763 10752 10751 10750 ] final   96.01 input  -60.55 | X-H torsion
[ 11005 11000 10999 10996 ] final   85.62 input  -57.11 | X-H torsion

> <Gold.Protein.ActiveResidues>
 VAL166  LYS551  ARG553  GLY616  TRP617  ASP618  TYR619  PRO620  LYS621  CYS622 
 ASP623  PHE694  ASN695  SER759  ASP760  ASP761  ALA762  ILE779  LEU786  VAL792 
 PHE793  MET794  SER795  GLU796  ALA797  LYS798  CYS799  TRP800  GLU811  SER814 

> <Gold.Protein.RotatedAtoms>
  150.7794  133.9016  159.3342 H   0  0  0  0  0  0  0  0  0  0  0  0  # atno 6907 bound_to 6896
  151.6882  135.0949  160.0238 H   0  0  0  0  0  0  0  0  0  0  0  0  # atno 6908 bound_to 6896
  152.3841  133.6548  159.6220 H   0  0  0  0  0  0  0  0  0  0  0  0  # atno 6909 bound_to 6896
  145.0127  139.4206  143.5237 H   0  0  0  0  0  0  0  0  0  0  0  0  # atno 7974 bound_to 7965
  155.2462  140.0430  157.2981 H   0  0  0  0  0  0  0  0  0  0  0  0  # atno 8008 bound_to 7997
  154.5797  140.2397  155.8040 H   0  0  0  0  0  0  0  0  0  0  0  0  # atno 8009 bound_to 7997
  156.2184  140.2977  155.9902 H   0  0  0  0  0  0  0  0  0  0  0  0  # atno 8010 bound_to 7997
  139.5349  144.2525  152.0772 H   0  0  0  0  0  0  0  0  0  0  0  0  # atno 10167 bound_to 10162
  157.1252  130.6567  149.5935 H   0  0  0  0  0  0  0  0  0  0  0  0  # atno 10718 bound_to 10713
  153.2599  135.4233  155.0883 H   0  0  0  0  0  0  0  0  0  0  0  0  # atno 10763 bound_to 10752
  154.8416  135.3446  154.6393 H   0  0  0  0  0  0  0  0  0  0  0  0  # atno 10764 bound_to 10752
  153.6813  135.7038  153.5174 H   0  0  0  0  0  0  0  0  0  0  0  0  # atno 10765 bound_to 10752
  139.8966  134.8299  156.2608 H   0  0  0  0  0  0  0  0  0  0  0  0  # atno 11005 bound_to 11000
  146.3472  139.9579  142.8721 LP  0  0  0  0  0  0  0  0  0  0  0  0  # atno 17320 bound_to 7965
  145.2002  140.9851  143.4160 LP  0  0  0  0  0  0  0  0  0  0  0  0  # atno 17321 bound_to 7965
  140.1995  144.4672  150.6439 LP  0  0  0  0  0  0  0  0  0  0  0  0  # atno 17342 bound_to 10162
  140.6550  143.2235  151.5990 LP  0  0  0  0  0  0  0  0  0  0  0  0  # atno 17343 bound_to 10162
  155.9820  130.4830  150.6856 LP  0  0  0  0  0  0  0  0  0  0  0  0  # atno 17370 bound_to 10713
  157.4441  131.0865  151.0913 LP  0  0  0  0  0  0  0  0  0  0  0  0  # atno 17371 bound_to 10713
  141.0164  133.7066  156.1195 LP  0  0  0  0  0  0  0  0  0  0  0  0  # atno 17394 bound_to 11000
  140.7296  134.4269  157.5567 LP  0  0  0  0  0  0  0  0  0  0  0  0  # atno 17395 bound_to 11000

$$$$
