AV-unprocessed.smi:2377|AV-procd|sdf|9445|dock8
  -GOLD-   2272013 73D 1   1.00000     0.00000
 Structure written by MMmdl.
 24 24  0  0  0  0  0  0  0  0  2 V2000
  146.6578  138.9627  151.9295 C   0  0  0  0  0  0  0  0  0  0  0  0
  147.9260  138.9333  152.6813 N   0  3  0  0  0  0  0  0  0  0  0  0
  147.8083  139.4104  154.0739 C   0  0  0  0  0  0  0  0  0  0  0  0
  148.9761  140.3376  154.4545 C   0  0  2  0  0  0  0  0  0  0  0  0
  149.1295  141.3158  153.4440 O   0  0  0  0  0  0  0  0  0  0  0  0
  150.2553  139.5461  154.6736 C   0  0  0  0  0  0  0  0  0  0  0  0
  150.3642  138.1954  154.2758 C   0  0  0  0  0  0  0  0  0  0  0  0
  151.5716  137.5108  154.5130 C   0  0  0  0  0  0  0  0  0  0  0  0
  152.6236  138.2047  155.1428 C   0  0  0  0  0  0  0  0  0  0  0  0
  152.5313  139.4942  155.5322 N   0  0  0  0  0  0  0  0  0  0  0  0
  151.3710  140.1439  155.2999 C   0  0  0  0  0  0  0  0  0  0  0  0
  146.8172  138.5968  150.9152 H   0  0  0  0  0  0  0  0  0  0  0  0
  146.2666  139.9789  151.8689 H   0  0  0  0  0  0  0  0  0  0  0  0
  145.9096  138.3293  152.4073 H   0  0  0  0  0  0  0  0  0  0  0  0
  148.2678  137.9826  152.7018 H   0  0  0  0  0  0  0  0  0  0  0  0
  146.8640  139.9476  154.1751 H   0  0  0  0  0  0  0  0  0  0  0  0
  147.7638  138.5558  154.7510 H   0  0  0  0  0  0  0  0  0  0  0  0
  148.7326  140.8616  155.3800 H   0  0  0  0  0  0  0  0  0  0  0  0
  149.1681  140.8797  152.6057 H   0  0  0  0  0  0  0  0  0  0  0  0
  149.5380  137.6891  153.7985 H   0  0  0  0  0  0  0  0  0  0  0  0
  151.6890  136.4780  154.2193 H   0  0  0  0  0  0  0  0  0  0  0  0
  153.5633  137.7104  155.3407 H   0  0  0  0  0  0  0  0  0  0  0  0
  151.3327  141.1725  155.6272 H   0  0  0  0  0  0  0  0  0  0  0  0
  148.6019  139.5087  152.1994 H   0  0  0  0  0  0  0  0  0  0  0  0
  1  2  1  0  0  0  0
  1 12  1  0  0  0  0
  1 13  1  0  0  0  0
  1 14  1  0  0  0  0
  2  3  1  0  0  0  0
  2 15  1  0  0  0  0
  2 24  1  0  0  0  0
  3  4  1  0  0  0  0
  3 16  1  0  0  0  0
  3 17  1  0  0  0  0
  4  5  1  0  0  0  0
  4  6  1  0  0  0  0
  4 18  1  0  0  0  0
  5 19  1  0  0  0  0
  6 11  1  0  0  0  0
  6  7  2  0  0  0  0
  7  8  1  0  0  0  0
  7 20  1  0  0  0  0
  8  9  2  0  0  0  0
  8 21  1  0  0  0  0
  9 10  1  0  0  0  0
  9 22  1  0  0  0  0
 10 11  2  0  0  0  0
 11 23  1  0  0  0  0
M  CHG  1   2   1
M  END
> <s_m_source_file>
AV-unprocessed.smi

> <i_m_source_file_index>
2377

> <i_lp_mmshare_version>
43012

> <i_f3d_flags>
0

> <s_epik_input>
W0NIM11bTkhdW0NIMl1bQ0BIXShbT0hdKWMxW2NIXVtjSF1bY0hdbltjSF0x

> <s_epik_cmdline>
J2VwaWtfcHl0aG9uJywgJy1waCcsICc3LjAnLCAnLXRuJywgJzgnLCAnLW1hJywgJzIwMCcsICctbWV0YWxfYmluZGluZycsICctaW1hZScsICc8aW5maWxlLm1hZT4nLCAnLW9tYWUnLCAnPG91dGZpbGUubWFlPic=

> <r_epik_Ionization_Penalty>
0.00990913

> <r_epik_Ionization_Penalty_Charging>
0.00939893

> <r_epik_Ionization_Penalty_Neutral>
0.000510194

> <r_epik_State_Penalty>
0.00713549

> <r_epik_Charging_Adjusted_Penalty>
0.0165344

> <i_epik_Tot_Q>
1

> <i_epik_Tot_abs_Q>
1

> <r_epik_Metal_State_Penalty>
0.00716299

> <b_epik_Metal_Only>
0

> <s_lp_Force_Field>
OPLS_2005

> <r_lp_Energy>
6.48909

> <b_lp_Chiralities_Consistent>
1

> <s_lp_Variant>
AV-unprocessed.smi:2377-1

> <Gold.Version>
5.8.1

> <Gold.Id.Protein>
6NUR|6NUR_protein|mol2

> <Gold.PLP.Fitness>
41.2894

> <Gold.PLP.PLP>
-27.6273

> <Gold.PLP.part.hbond>
-5.8031

> <Gold.PLP.part.metal>
0.0000

> <Gold.PLP.part.buried>
-0.6082

> <Gold.PLP.part.nonpolar>
-22.4551

> <Gold.PLP.part.repulsive>
0.0696

> <Gold.PLP.ligand.clash>
0.0000

> <Gold.PLP.ligand.torsion>
0.6602

> <Gold.PLP.Chemscore.Hbond>
4.9913

> <Gold.PLP.Chemscore.CHOScore>
0.0000

> <Gold.PLP.Chemscore.Metal>
0.0000

> <Gold.Chemscore.Hbonds>
donor molecule, donor type, donor heavy atom, donor atom, acceptor molecule, acceptor atom, score
      L1  H     2    15       P1  7948  1.95
      L1  H     2    24       P1  7957  0.99
      L1  H     5    19       P1  7957  1.00
      P1  H  7997  8009       L1    10  0.99

> <Gold.PLP.Chemscore.Internal.Correction>
0.0088

> <Gold.Rescore>
     Score         DG    S(hbond)    S(metal)    S(lipo)     H(rot)  DE(clash)    DE(int)     intcor
     18.26     -20.32       3.75        0.00      64.14       2.03       1.32       0.73       ----

> <Gold.Chemscore.Fitness>
18.2649

> <Gold.Chemscore.DG>
-20.3166

> <Gold.Chemscore.ZeroCoef>
-5.4800

> <Gold.Chemscore.Hbond>
3.7546

> <Gold.Chemscore.Metal>
0.0000

> <Gold.Chemscore.Lipo>
64.1371

> <Gold.Chemscore.Internal_Hbond>
0.0000

> <Gold.Chemscore.DEClash>
1.3181

> <Gold.Chemscore.DEInternal>
0.7336

> <Gold.Chemscore.Rot>
2.0344

> <Gold.Chemscore.Internal.Correction>
   9.000000E+99

> <Gold.Chemscore.Hbonds>
donor molecule, donor type, donor heavy atom, donor atom, acceptor molecule, acceptor atom, score
      L1  H     2    15       P1  7948  0.90
      L1  H     2    24       P1  7957  0.92
      L1  H     5    19       P1  7957  1.00
      P1  H  7997  8009       L1    10  0.65

> <Gold.Chemscore.Hbond.Weighted>
-12.5405

> <Gold.Chemscore.Metal.Weighted>
-0.0000

> <Gold.Chemscore.Lipo.Weighted>
-7.5040

> <Gold.Chemscore.Internal_Hbond.Weighted>
0.0000

> <Gold.Chemscore.DEClash.Weighted>
1.3181

> <Gold.Chemscore.DEInternal.Weighted>
0.7336

> <Gold.Chemscore.Rot.Weighted>
5.2080

> <Gold.Chemscore.Internal.Correction.Weighted>
   9.000000E+99

> <Gold.Protein.RotatedTorsions>
[ 6907 6896 6895 6894 ] final  121.35 input  -60.11 | X-H torsion
[ 7974 7965 7964 7962 ] final -176.95 input  175.53 | X-H torsion
[ 8008 7997 7996 7995 ] final -146.74 input   59.86 | X-H torsion
[ 10167 10162 10161 10158 ] final   36.02 input  -65.29 | X-H torsion
[ 10718 10713 10712 10709 ] final   96.07 input   66.30 | X-H torsion
[ 10763 10752 10751 10750 ] final  107.96 input  -60.55 | X-H torsion
[ 11005 11000 10999 10996 ] final -167.44 input  -57.11 | X-H torsion

> <Gold.Protein.ActiveResidues>
 VAL166  LYS551  ARG553  GLY616  TRP617  ASP618  TYR619  PRO620  LYS621  CYS622 
 ASP623  PHE694  ASN695  SER759  ASP760  ASP761  ALA762  ILE779  LEU786  VAL792 
 PHE793  MET794  SER795  GLU796  ALA797  LYS798  CYS799  TRP800  GLU811  SER814 

> <Gold.Protein.RotatedAtoms>
  152.4328  133.7308  159.6585 H   0  0  0  0  0  0  0  0  0  0  0  0  # atno 6907 bound_to 6896
  150.8209  133.8244  159.3145 H   0  0  0  0  0  0  0  0  0  0  0  0  # atno 6908 bound_to 6896
  151.5926  135.1054  160.0094 H   0  0  0  0  0  0  0  0  0  0  0  0  # atno 6909 bound_to 6896
  144.7127  140.1092  143.6412 H   0  0  0  0  0  0  0  0  0  0  0  0  # atno 7974 bound_to 7965
  155.5643  140.0628  157.2821 H   0  0  0  0  0  0  0  0  0  0  0  0  # atno 8008 bound_to 7997
  154.4380  140.1880  156.0859 H   0  0  0  0  0  0  0  0  0  0  0  0  # atno 8009 bound_to 7997
  156.0424  140.3294  155.7262 H   0  0  0  0  0  0  0  0  0  0  0  0  # atno 8010 bound_to 7997
  140.4167  144.1517  150.6144 H   0  0  0  0  0  0  0  0  0  0  0  0  # atno 10167 bound_to 10162
  157.6931  131.0566  150.4435 H   0  0  0  0  0  0  0  0  0  0  0  0  # atno 10718 bound_to 10713
  153.4140  135.3827  155.2068 H   0  0  0  0  0  0  0  0  0  0  0  0  # atno 10763 bound_to 10752
  154.8740  135.3801  154.4466 H   0  0  0  0  0  0  0  0  0  0  0  0  # atno 10764 bound_to 10752
  153.4978  135.7088  153.5911 H   0  0  0  0  0  0  0  0  0  0  0  0  # atno 10765 bound_to 10752
  140.5532  134.5407  157.5127 H   0  0  0  0  0  0  0  0  0  0  0  0  # atno 11005 bound_to 11000
  145.9469  139.2707  143.1235 LP  0  0  0  0  0  0  0  0  0  0  0  0  # atno 17320 bound_to 7965
  145.9364  140.9011  143.0330 LP  0  0  0  0  0  0  0  0  0  0  0  0  # atno 17321 bound_to 7965
  140.4578  143.2461  151.9261 LP  0  0  0  0  0  0  0  0  0  0  0  0  # atno 17342 bound_to 10162
  139.4782  144.5498  151.8403 LP  0  0  0  0  0  0  0  0  0  0  0  0  # atno 17343 bound_to 10162
  156.4792  130.4070  149.6472 LP  0  0  0  0  0  0  0  0  0  0  0  0  # atno 17370 bound_to 10713
  156.3524  130.7439  151.2400 LP  0  0  0  0  0  0  0  0  0  0  0  0  # atno 17371 bound_to 10713
  139.9445  134.7728  156.0597 LP  0  0  0  0  0  0  0  0  0  0  0  0  # atno 17394 bound_to 11000
  141.1159  133.6628  156.3093 LP  0  0  0  0  0  0  0  0  0  0  0  0  # atno 17395 bound_to 11000

$$$$
