AV-unprocessed.smi:2119|AV-procd|sdf|8637|dock10
  -GOLD-   2272011383D 1   1.00000     0.00000
 Structure written by MMmdl.
 48 50  0  0  0  0  0  0  0  0  2 V2000
  144.6138  137.5826  152.3974 O   0  0  0  0  0  0  0  0  0  0  0  0
  145.7076  137.1284  152.0638 C   0  0  0  0  0  0  0  0  0  0  0  0
  146.8428  137.8404  152.1043 N   0  0  0  0  0  0  0  0  0  0  0  0
  146.9465  139.2135  152.5878 C   0  0  0  0  0  0  0  0  0  0  0  0
  146.5181  139.4011  154.0713 C   0  0  1  0  0  0  0  0  0  0  0  0
  147.6896  139.0982  155.0363 C   0  0  1  0  0  0  0  0  0  0  0  0
  148.2677  137.6998  154.9030 C   0  0  0  0  0  0  0  0  0  0  0  0
  149.6247  137.8497  155.5802 C   0  0  0  0  0  0  0  0  0  0  0  0
  150.0428  139.1804  155.3002 O   0  0  0  0  0  0  0  0  0  0  0  0
  148.9475  139.9425  154.8019 C   0  0  0  0  0  0  0  0  0  0  0  0
  145.9434  140.7453  154.3873 N   0  3  0  0  0  0  0  0  0  0  0  0
  145.5113  140.9633  155.7903 C   0  0  0  0  0  0  0  0  0  0  0  0
  144.7363  142.2872  155.8979 C   0  0  0  0  0  0  0  0  0  0  0  0
  145.5498  143.3551  155.4255 O   0  0  0  0  0  0  0  0  0  0  0  0
  145.9071  143.1948  154.0571 C   0  0  0  0  0  0  0  0  0  0  0  0
  146.7222  141.9026  153.8830 C   0  0  0  0  0  0  0  0  0  0  0  0
  145.9255  135.8897  151.5906 N   0  0  0  0  0  0  0  0  0  0  0  0
  144.9942  134.8278  151.4339 C   0  0  0  0  0  0  0  0  0  0  0  0
  143.8185  134.8583  152.2122 C   0  0  0  0  0  0  0  0  0  0  0  0
  142.8685  133.8304  152.0623 C   0  0  0  0  0  0  0  0  0  0  0  0
  143.1279  132.8104  151.1268 C   0  0  0  0  0  0  0  0  0  0  0  0
  144.2399  132.7728  150.3631 N   0  0  0  0  0  0  0  0  0  0  0  0
  145.1480  133.7611  150.5131 C   0  0  0  0  0  0  0  0  0  0  0  0
  147.6979  137.3927  151.8075 H   0  0  0  0  0  0  0  0  0  0  0  0
  147.9777  139.5414  152.4495 H   0  0  0  0  0  0  0  0  0  0  0  0
  146.3514  139.8510  151.9336 H   0  0  0  0  0  0  0  0  0  0  0  0
  145.7465  138.6615  154.2901 H   0  0  0  0  0  0  0  0  0  0  0  0
  147.3685  139.2421  156.0691 H   0  0  0  0  0  0  0  0  0  0  0  0
  147.6508  136.9316  155.3705 H   0  0  0  0  0  0  0  0  0  0  0  0
  148.4019  137.4379  153.8522 H   0  0  0  0  0  0  0  0  0  0  0  0
  149.5257  137.7368  156.6604 H   0  0  0  0  0  0  0  0  0  0  0  0
  150.3523  137.1189  155.2268 H   0  0  0  0  0  0  0  0  0  0  0  0
  149.1092  140.1124  153.7364 H   0  0  0  0  0  0  0  0  0  0  0  0
  148.8942  140.9145  155.2928 H   0  0  0  0  0  0  0  0  0  0  0  0
  144.8798  140.1400  156.1240 H   0  0  0  0  0  0  0  0  0  0  0  0
  146.3775  140.9972  156.4520 H   0  0  0  0  0  0  0  0  0  0  0  0
  143.8062  142.2423  155.3289 H   0  0  0  0  0  0  0  0  0  0  0  0
  144.4656  142.4811  156.9359 H   0  0  0  0  0  0  0  0  0  0  0  0
  145.0108  143.1770  153.4349 H   0  0  0  0  0  0  0  0  0  0  0  0
  146.4964  144.0561  153.7418 H   0  0  0  0  0  0  0  0  0  0  0  0
  147.6641  141.9952  154.4216 H   0  0  0  0  0  0  0  0  0  0  0  0
  146.9644  141.7628  152.8289 H   0  0  0  0  0  0  0  0  0  0  0  0
  146.8628  135.6916  151.2727 H   0  0  0  0  0  0  0  0  0  0  0  0
  143.6453  135.6567  152.9192 H   0  0  0  0  0  0  0  0  0  0  0  0
  141.9617  133.8246  152.6492 H   0  0  0  0  0  0  0  0  0  0  0  0
  142.4209  132.0066  150.9844 H   0  0  0  0  0  0  0  0  0  0  0  0
  146.0007  133.6904  149.8562 H   0  0  0  0  0  0  0  0  0  0  0  0
  145.0927  140.7740  153.8437 H   0  0  0  0  0  0  0  0  0  0  0  0
  1  2  2  0  0  0  0
  2  3  1  0  0  0  0
  2 17  1  0  0  0  0
  3  4  1  0  0  0  0
  3 24  1  0  0  0  0
  4  5  1  0  0  0  0
  4 25  1  0  0  0  0
  4 26  1  0  0  0  0
  5  6  1  0  0  0  0
  5 11  1  0  0  0  0
  5 27  1  0  0  0  0
  6 10  1  0  0  0  0
  6  7  1  0  0  0  0
  6 28  1  0  0  0  0
  7  8  1  0  0  0  0
  7 29  1  0  0  0  0
  7 30  1  0  0  0  0
  8  9  1  0  0  0  0
  8 31  1  0  0  0  0
  8 32  1  0  0  0  0
  9 10  1  0  0  0  0
 10 33  1  0  0  0  0
 10 34  1  0  0  0  0
 11 16  1  0  0  0  0
 11 12  1  0  0  0  0
 11 48  1  0  0  0  0
 12 13  1  0  0  0  0
 12 35  1  0  0  0  0
 12 36  1  0  0  0  0
 13 14  1  0  0  0  0
 13 37  1  0  0  0  0
 13 38  1  0  0  0  0
 14 15  1  0  0  0  0
 15 16  1  0  0  0  0
 15 39  1  0  0  0  0
 15 40  1  0  0  0  0
 16 41  1  0  0  0  0
 16 42  1  0  0  0  0
 17 18  1  0  0  0  0
 17 43  1  0  0  0  0
 18 23  1  0  0  0  0
 18 19  2  0  0  0  0
 19 20  1  0  0  0  0
 19 44  1  0  0  0  0
 20 21  2  0  0  0  0
 20 45  1  0  0  0  0
 21 22  1  0  0  0  0
 21 46  1  0  0  0  0
 22 23  2  0  0  0  0
 23 47  1  0  0  0  0
M  CHG  1  11   1
M  END
> <s_m_source_file>
AV-unprocessed.smi

> <i_m_source_file_index>
2119

> <i_lp_mmshare_version>
43012

> <i_f3d_flags>
0

> <s_epik_input>
W2NIXTFuW2NIXVtjSF1bY0hdYzFbTkhdQyg9TylbTkhdW0NIMl1bQ0BIXShbQ0BASF0yW0NIMl1bQ0gyXU9bQ0gyXTIpTjNbQ0gyXVtDSDJdT1tDSDJdW0NIMl0z

> <s_epik_cmdline>
J2VwaWtfcHl0aG9uJywgJy1waCcsICc3LjAnLCAnLXRuJywgJzgnLCAnLW1hJywgJzIwMCcsICctbWV0YWxfYmluZGluZycsICctaW1hZScsICc8aW5maWxlLm1hZT4nLCAnLW9tYWUnLCAnPG91dGZpbGUubWFlPic=

> <r_epik_Ionization_Penalty>
0.987463

> <r_epik_Ionization_Penalty_Charging>
0.98326

> <r_epik_Ionization_Penalty_Neutral>
0.00420251

> <r_epik_State_Penalty>
1.01721

> <r_epik_Charging_Adjusted_Penalty>
2.00047

> <i_epik_Tot_Q>
1

> <i_epik_Tot_abs_Q>
1

> <r_epik_Metal_State_Penalty>
1.01439

> <b_epik_Metal_Only>
0

> <s_lp_Force_Field>
OPLS_2005

> <r_lp_Energy>
47.2413

> <b_lp_Chiralities_Consistent>
1

> <s_lp_Variant>
AV-unprocessed.smi:2119-8

> <Gold.Version>
5.8.1

> <Gold.Id.Protein>
6NUR|6NUR_protein|mol2

> <Gold.PLP.Fitness>
44.2970

> <Gold.PLP.PLP>
-31.4963

> <Gold.PLP.part.hbond>
-2.8937

> <Gold.PLP.part.metal>
0.0000

> <Gold.PLP.part.buried>
-5.2426

> <Gold.PLP.part.nonpolar>
-26.0870

> <Gold.PLP.part.repulsive>
2.3174

> <Gold.PLP.ligand.clash>
0.0000

> <Gold.PLP.ligand.torsion>
0.6059

> <Gold.PLP.Chemscore.Hbond>
3.7613

> <Gold.PLP.Chemscore.CHOScore>
0.8440

> <Gold.PLP.Chemscore.Metal>
0.0000

> <Gold.Chemscore.Hbonds>
donor molecule, donor type, donor heavy atom, donor atom, acceptor molecule, acceptor atom, score
      L1  H     3    24       P1  7948  1.00
      L1  H    11    48       P1 10175  2.00
      L1  H    17    43       P1  7948  0.47
      L1  C    21    46       P1 10952  0.51
      L1  C    23    47       P1  7921  0.71

> <Gold.PLP.Chemscore.Internal.Correction>
0.1965

> <Gold.Rescore>
     Score         DG    S(hbond)    S(metal)    S(lipo)     H(rot)  DE(clash)    DE(int)     intcor
     16.70     -18.91       2.82        0.00      71.61       1.70       0.10       2.11       ----

> <Gold.Chemscore.Fitness>
16.6961

> <Gold.Chemscore.DG>
-18.9097

> <Gold.Chemscore.ZeroCoef>
-5.4800

> <Gold.Chemscore.Hbond>
2.8169

> <Gold.Chemscore.Metal>
0.0000

> <Gold.Chemscore.Lipo>
71.6120

> <Gold.Chemscore.Internal_Hbond>
0.0000

> <Gold.Chemscore.DEClash>
0.1045

> <Gold.Chemscore.DEInternal>
2.1090

> <Gold.Chemscore.Rot>
1.7021

> <Gold.Chemscore.Internal.Correction>
   9.000000E+99

> <Gold.Chemscore.Hbonds>
donor molecule, donor type, donor heavy atom, donor atom, acceptor molecule, acceptor atom, score
      L1  H     3    24       P1  7948  0.99
      L1  H    11    48       P1 10175  0.94
      L1  H    17    43       P1  7948  0.46

> <Gold.Chemscore.Hbond.Weighted>
-9.4086

> <Gold.Chemscore.Metal.Weighted>
-0.0000

> <Gold.Chemscore.Lipo.Weighted>
-8.3786

> <Gold.Chemscore.Internal_Hbond.Weighted>
0.0000

> <Gold.Chemscore.DEClash.Weighted>
0.1045

> <Gold.Chemscore.DEInternal.Weighted>
2.1090

> <Gold.Chemscore.Rot.Weighted>
4.3575

> <Gold.Chemscore.Internal.Correction.Weighted>
   9.000000E+99

> <Gold.Protein.RotatedTorsions>
[ 6907 6896 6895 6894 ] final  134.51 input  -60.11 | X-H torsion
[ 7974 7965 7964 7962 ] final   87.90 input  175.53 | X-H torsion
[ 8008 7997 7996 7995 ] final  175.64 input   59.86 | X-H torsion
[ 10167 10162 10161 10158 ] final  -26.73 input  -65.29 | X-H torsion
[ 10718 10713 10712 10709 ] final   71.29 input   66.30 | X-H torsion
[ 10763 10752 10751 10750 ] final  -97.69 input  -60.55 | X-H torsion
[ 11005 11000 10999 10996 ] final  170.69 input  -57.11 | X-H torsion

> <Gold.Protein.ActiveResidues>
 VAL166  LYS551  ARG553  GLY616  TRP617  ASP618  TYR619  PRO620  LYS621  CYS622 
 ASP623  PHE694  ASN695  SER759  ASP760  ASP761  ALA762  ILE779  LEU786  VAL792 
 PHE793  MET794  SER795  GLU796  ALA797  LYS798  CYS799  TRP800  GLU811  SER814 

> <Gold.Protein.RotatedAtoms>
  152.3105  133.5748  159.5677 H   0  0  0  0  0  0  0  0  0  0  0  0  # atno 6907 bound_to 6896
  150.7321  134.0158  159.3694 H   0  0  0  0  0  0  0  0  0  0  0  0  # atno 6908 bound_to 6896
  151.8051  135.0698  160.0456 H   0  0  0  0  0  0  0  0  0  0  0  0  # atno 6909 bound_to 6896
  145.5529  139.2297  143.2503 H   0  0  0  0  0  0  0  0  0  0  0  0  # atno 7974 bound_to 7965
  156.0850  140.1404  156.9665 H   0  0  0  0  0  0  0  0  0  0  0  0  # atno 8008 bound_to 7997
  154.4607  140.0944  156.6933 H   0  0  0  0  0  0  0  0  0  0  0  0  # atno 8009 bound_to 7997
  155.5014  140.3451  155.4374 H   0  0  0  0  0  0  0  0  0  0  0  0  # atno 8010 bound_to 7997
  140.7281  143.4153  151.1038 H   0  0  0  0  0  0  0  0  0  0  0  0  # atno 10167 bound_to 10162
  157.6444  130.9521  150.0768 H   0  0  0  0  0  0  0  0  0  0  0  0  # atno 10718 bound_to 10713
  154.7350  135.5037  153.9026 H   0  0  0  0  0  0  0  0  0  0  0  0  # atno 10763 bound_to 10752
  153.0986  135.6679  153.9724 H   0  0  0  0  0  0  0  0  0  0  0  0  # atno 10764 bound_to 10752
  153.9516  135.3057  155.3417 H   0  0  0  0  0  0  0  0  0  0  0  0  # atno 10765 bound_to 10752
  140.3111  134.7516  157.3992 H   0  0  0  0  0  0  0  0  0  0  0  0  # atno 11005 bound_to 11000
  146.1904  140.6352  142.9148 LP  0  0  0  0  0  0  0  0  0  0  0  0  # atno 17320 bound_to 7965
  144.7521  140.5216  143.6795 LP  0  0  0  0  0  0  0  0  0  0  0  0  # atno 17321 bound_to 7965
  139.7792  143.8380  152.3135 LP  0  0  0  0  0  0  0  0  0  0  0  0  # atno 17342 bound_to 10162
  139.8325  144.7247  150.9432 LP  0  0  0  0  0  0  0  0  0  0  0  0  # atno 17343 bound_to 10162
  156.1756  130.3648  149.9105 LP  0  0  0  0  0  0  0  0  0  0  0  0  # atno 17370 bound_to 10713
  156.7069  130.8955  151.3605 LP  0  0  0  0  0  0  0  0  0  0  0  0  # atno 17371 bound_to 10713
  140.1024  134.5455  155.8340 LP  0  0  0  0  0  0  0  0  0  0  0  0  # atno 17394 bound_to 11000
  141.2108  133.6699  156.6535 LP  0  0  0  0  0  0  0  0  0  0  0  0  # atno 17395 bound_to 11000

$$$$
