AV-unprocessed.smi:33|AV-procd|sdf|204|dock9
  -GOLD-   2262015493D 1   1.00000     0.00000
 Structure written by MMmdl.
 67 72  0  0  0  0  0  0  0  0  1 V2000
  150.5549  140.4643  157.1485 O   0  0  0  0  0  0  0  0  0  0  0  0
  151.5925  140.7686  157.7405 C   0  0  0  0  0  0  0  0  0  0  0  0
  152.6285  139.9179  157.9152 O   0  0  0  0  0  0  0  0  0  0  0  0
  152.4814  138.5500  157.5588 C   0  0  0  0  0  0  0  0  0  0  0  0
  152.8526  138.2544  156.0919 C   0  0  1  0  0  0  0  0  0  0  0  0
  152.7191  136.8737  155.7637 O   0  0  0  0  0  0  0  0  0  0  0  0
  151.5387  136.6372  155.0474 C   0  0  1  0  0  0  0  0  0  0  0  0
  150.6178  135.8444  155.9234 N   0  0  0  0  0  0  0  0  0  0  0  0
  149.3153  136.1109  156.2928 C   0  0  0  0  0  0  0  0  0  0  0  0
  148.7586  135.2192  157.0675 N   0  0  0  0  0  0  0  0  0  0  0  0
  149.7702  134.2961  157.2938 C   0  0  0  0  0  0  0  0  0  0  0  0
  149.8656  133.1012  158.0557 C   0  0  0  0  0  0  0  0  0  0  0  0
  148.8221  132.5997  158.7553 N   0  0  0  0  0  0  0  0  0  0  0  0
  149.0409  132.3406  160.1833 C   0  0  0  0  0  0  0  0  0  0  0  0
  148.4723  131.3932  160.7286 O   0  0  0  0  0  0  0  0  0  0  0  0
  149.9991  133.1940  160.9643 C   0  0  0  0  0  0  0  0  0  0  0  0
  150.7306  132.6397  162.0375 C   0  0  0  0  0  0  0  0  0  0  0  0
  151.6102  133.4448  162.7869 C   0  0  0  0  0  0  0  0  0  0  0  0
  151.7495  134.8119  162.4801 C   0  0  0  0  0  0  0  0  0  0  0  0
  151.0024  135.3765  161.4289 C   0  0  0  0  0  0  0  0  0  0  0  0
  150.1240  134.5721  160.6780 C   0  0  0  0  0  0  0  0  0  0  0  0
  147.5769  132.3257  158.0213 C   0  0  0  0  0  0  0  0  0  0  0  0
  146.5177  132.1906  158.6372 O   0  0  0  0  0  0  0  0  0  0  0  0
  147.5800  132.2432  156.5210 C   0  0  0  0  0  0  0  0  0  0  0  0
  148.5684  131.4818  155.8600 C   0  0  0  0  0  0  0  0  0  0  0  0
  148.5869  131.4097  154.4536 C   0  0  0  0  0  0  0  0  0  0  0  0
  147.6288  132.1129  153.6990 C   0  0  0  0  0  0  0  0  0  0  0  0
  146.6571  132.8959  154.3508 C   0  0  0  0  0  0  0  0  0  0  0  0
  146.6373  132.9679  155.7571 C   0  0  0  0  0  0  0  0  0  0  0  0
  151.0553  132.4469  158.0708 N   0  0  0  0  0  0  0  0  0  0  0  0
  152.0844  132.9273  157.3661 C   0  0  0  0  0  0  0  0  0  0  0  0
  152.1359  134.0209  156.6012 N   0  0  0  0  0  0  0  0  0  0  0  0
  150.9439  134.6851  156.5939 C   0  0  0  0  0  0  0  0  0  0  0  0
  150.9148  138.0070  154.7145 C   0  0  2  0  0  0  0  0  0  0  0  0
  150.5027  138.1313  153.3677 O   0  0  0  0  0  0  0  0  0  0  0  0
  152.0399  138.9841  155.0261 C   0  0  2  0  0  0  0  0  0  0  0  0
  152.8346  139.1450  153.9639 F   0  0  0  0  0  0  0  0  0  0  0  0
  151.8375  142.1233  158.3139 C   0  0  0  0  0  0  0  0  0  0  0  0
  152.8689  142.2930  159.2673 C   0  0  0  0  0  0  0  0  0  0  0  0
  153.1249  143.5578  159.8309 C   0  0  0  0  0  0  0  0  0  0  0  0
  152.3553  144.6695  159.4440 C   0  0  0  0  0  0  0  0  0  0  0  0
  151.3239  144.5135  158.4999 C   0  0  0  0  0  0  0  0  0  0  0  0
  151.0656  143.2490  157.9377 C   0  0  0  0  0  0  0  0  0  0  0  0
  153.1150  137.9574  158.2197 H   0  0  0  0  0  0  0  0  0  0  0  0
  151.4543  138.2241  157.7303 H   0  0  0  0  0  0  0  0  0  0  0  0
  153.9071  138.5118  155.9852 H   0  0  0  0  0  0  0  0  0  0  0  0
  151.7256  135.9980  154.1834 H   0  0  0  0  0  0  0  0  0  0  0  0
  148.7724  136.9799  155.9510 H   0  0  0  0  0  0  0  0  0  0  0  0
  150.6297  131.5923  162.2832 H   0  0  0  0  0  0  0  0  0  0  0  0
  152.1768  133.0134  163.5989 H   0  0  0  0  0  0  0  0  0  0  0  0
  152.4236  135.4292  163.0557 H   0  0  0  0  0  0  0  0  0  0  0  0
  151.1009  136.4272  161.1992 H   0  0  0  0  0  0  0  0  0  0  0  0
  149.5484  135.0184  159.8796 H   0  0  0  0  0  0  0  0  0  0  0  0
  149.3084  130.9377  156.4293 H   0  0  0  0  0  0  0  0  0  0  0  0
  149.3372  130.8151  153.9539 H   0  0  0  0  0  0  0  0  0  0  0  0
  147.6432  132.0572  152.6206 H   0  0  0  0  0  0  0  0  0  0  0  0
  145.9271  133.4425  153.7723 H   0  0  0  0  0  0  0  0  0  0  0  0
  145.8897  133.5758  156.2460 H   0  0  0  0  0  0  0  0  0  0  0  0
  152.9970  132.3524  157.4212 H   0  0  0  0  0  0  0  0  0  0  0  0
  150.0665  138.1982  155.3695 H   0  0  0  0  0  0  0  0  0  0  0  0
  150.5215  137.2748  152.9688 H   0  0  0  0  0  0  0  0  0  0  0  0
  151.6933  139.9716  155.3322 H   0  0  0  0  0  0  0  0  0  0  0  0
  153.4739  141.4539  159.5799 H   0  0  0  0  0  0  0  0  0  0  0  0
  153.9124  143.6747  160.5610 H   0  0  0  0  0  0  0  0  0  0  0  0
  152.5493  145.6395  159.8776 H   0  0  0  0  0  0  0  0  0  0  0  0
  150.7264  145.3652  158.2090 H   0  0  0  0  0  0  0  0  0  0  0  0
  150.2687  143.1661  157.2161 H   0  0  0  0  0  0  0  0  0  0  0  0
  1  2  2  0  0  0  0
  2  3  1  0  0  0  0
  2 38  1  0  0  0  0
  3  4  1  0  0  0  0
  4  5  1  0  0  0  0
  4 44  1  0  0  0  0
  4 45  1  0  0  0  0
  5 36  1  0  0  0  0
  5  6  1  0  0  0  0
  5 46  1  0  0  0  0
  6  7  1  0  0  0  0
  7  8  1  0  0  0  0
  7 34  1  0  0  0  0
  7 47  1  0  0  0  0
  8 33  1  0  0  0  0
  8  9  1  0  0  0  0
  9 10  2  0  0  0  0
  9 48  1  0  0  0  0
 10 11  1  0  0  0  0
 11 33  2  0  0  0  0
 11 12  1  0  0  0  0
 12 13  1  0  0  0  0
 12 30  2  0  0  0  0
 13 14  1  0  0  0  0
 13 22  1  0  0  0  0
 14 15  2  0  0  0  0
 14 16  1  0  0  0  0
 16 21  1  0  0  0  0
 16 17  2  0  0  0  0
 17 18  1  0  0  0  0
 17 49  1  0  0  0  0
 18 19  2  0  0  0  0
 18 50  1  0  0  0  0
 19 20  1  0  0  0  0
 19 51  1  0  0  0  0
 20 21  2  0  0  0  0
 20 52  1  0  0  0  0
 21 53  1  0  0  0  0
 22 23  2  0  0  0  0
 22 24  1  0  0  0  0
 24 29  1  0  0  0  0
 24 25  2  0  0  0  0
 25 26  1  0  0  0  0
 25 54  1  0  0  0  0
 26 27  2  0  0  0  0
 26 55  1  0  0  0  0
 27 28  1  0  0  0  0
 27 56  1  0  0  0  0
 28 29  2  0  0  0  0
 28 57  1  0  0  0  0
 29 58  1  0  0  0  0
 30 31  1  0  0  0  0
 31 32  2  0  0  0  0
 31 59  1  0  0  0  0
 32 33  1  0  0  0  0
 34 35  1  0  0  0  0
 34 36  1  0  0  0  0
 34 60  1  0  0  0  0
 35 61  1  0  0  0  0
 36 37  1  0  0  0  0
 36 62  1  0  0  0  0
 38 43  1  0  0  0  0
 38 39  2  0  0  0  0
 39 40  1  0  0  0  0
 39 63  1  0  0  0  0
 40 41  2  0  0  0  0
 40 64  1  0  0  0  0
 41 42  1  0  0  0  0
 41 65  1  0  0  0  0
 42 43  2  0  0  0  0
 42 66  1  0  0  0  0
 43 67  1  0  0  0  0
M  END
> <s_m_source_file>
AV-unprocessed.smi

> <i_m_source_file_index>
33

> <i_lp_mmshare_version>
43012

> <i_f3d_flags>
0

> <s_epik_input>
W2NIXTFbY0hdW2NIXVtjSF1bY0hdYzFDKD1PKU9bQ0gyXVtDQEBIXTJPW0NASF0oW0NAQEhdKFtPSF0pW0NAQEhdMkYpbihbY0hdbjMpYyhjMzQpbltjSF1uYzROKEMoPU8pYzVbY0hdW2NIXVtjSF1bY0hdW2NIXTUpQyg9TyljNltjSF1bY0hdW2NIXVtjSF1bY0hdNg==

> <s_epik_cmdline>
J2VwaWtfcHl0aG9uJywgJy1waCcsICc3LjAnLCAnLXRuJywgJzgnLCAnLW1hJywgJzIwMCcsICctbWV0YWxfYmluZGluZycsICctaW1hZScsICc8aW5maWxlLm1hZT4nLCAnLW9tYWUnLCAnPG91dGZpbGUubWFlPic=

> <r_lp_tautomer_probability>
1

> <r_epik_Ionization_Penalty>
0.00067664

> <r_epik_Ionization_Penalty_Charging>
0

> <r_epik_Ionization_Penalty_Neutral>
0.00067664

> <r_epik_State_Penalty>
0.000428095

> <r_epik_Charging_Adjusted_Penalty>
0.000428095

> <i_epik_Tot_Q>
0

> <i_epik_Tot_abs_Q>
0

> <r_epik_Metal_State_Penalty>
-0

> <b_epik_Metal_Only>
0

> <s_epik_Chemistry_Notes>
This compound has an ester and may undergo hydrolysis at high or low pH. This compound contains an acetal/aminal-like group ( X-CH(R)-Y where X, Y are N, S, or O) that may be acid/base labile, releasing an aldehyde.

> <s_lp_Force_Field>
OPLS_2005

> <r_lp_Energy>
67.2923

> <b_lp_Chiralities_Consistent>
1

> <s_lp_Variant>
AV-unprocessed.smi:33-6

> <Gold.Version>
5.8.1

> <Gold.Id.Protein>
6NUR|6NUR_protein|mol2

> <Gold.PLP.Fitness>
56.2060

> <Gold.PLP.PLP>
-55.6408

> <Gold.PLP.part.hbond>
-3.1531

> <Gold.PLP.part.metal>
0.0000

> <Gold.PLP.part.buried>
-3.5374

> <Gold.PLP.part.nonpolar>
-49.3695

> <Gold.PLP.part.repulsive>
0.1400

> <Gold.PLP.ligand.clash>
0.0000

> <Gold.PLP.ligand.torsion>
3.3287

> <Gold.PLP.Chemscore.Hbond>
1.1254

> <Gold.PLP.Chemscore.CHOScore>
0.0000

> <Gold.PLP.Chemscore.Metal>
0.0000

> <Gold.Chemscore.Hbonds>
donor molecule, donor type, donor heavy atom, donor atom, acceptor molecule, acceptor atom, score
      L1  H    35    61       P1  7949  0.37
      P1  H 10752 10765       L1     6  0.33

> <Gold.PLP.Chemscore.Internal.Correction>
3.8464

> <Gold.Rescore>
     Score         DG    S(hbond)    S(metal)    S(lipo)     H(rot)  DE(clash)    DE(int)     intcor
     10.12     -17.54       0.46        0.00     145.08       2.52       1.07       6.35       ----

> <Gold.Chemscore.Fitness>
10.1246

> <Gold.Chemscore.DG>
-17.5410

> <Gold.Chemscore.ZeroCoef>
-5.4800

> <Gold.Chemscore.Hbond>
0.4640

> <Gold.Chemscore.Metal>
0.0000

> <Gold.Chemscore.Lipo>
145.0820

> <Gold.Chemscore.Internal_Hbond>
0.0000

> <Gold.Chemscore.DEClash>
1.0703

> <Gold.Chemscore.DEInternal>
6.3461

> <Gold.Chemscore.Rot>
2.5247

> <Gold.Chemscore.Internal.Correction>
   9.000000E+99

> <Gold.Chemscore.Hbonds>
donor molecule, donor type, donor heavy atom, donor atom, acceptor molecule, acceptor atom, score
      L1  H    35    61       P1  7949  0.01
      P1  H 10752 10765       L1    32  0.06

> <Gold.Chemscore.Hbond.Weighted>
-1.5496

> <Gold.Chemscore.Metal.Weighted>
-0.0000

> <Gold.Chemscore.Lipo.Weighted>
-16.9746

> <Gold.Chemscore.Internal_Hbond.Weighted>
0.0000

> <Gold.Chemscore.DEClash.Weighted>
1.0703

> <Gold.Chemscore.DEInternal.Weighted>
6.3461

> <Gold.Chemscore.Rot.Weighted>
6.4633

> <Gold.Chemscore.Internal.Correction.Weighted>
   9.000000E+99

> <Gold.Protein.RotatedTorsions>
[ 6907 6896 6895 6894 ] final -148.39 input  -60.11 | X-H torsion
[ 7974 7965 7964 7962 ] final   -8.83 input  175.53 | X-H torsion
[ 8008 7997 7996 7995 ] final  155.95 input   59.86 | X-H torsion
[ 10167 10162 10161 10158 ] final   -0.49 input  -65.29 | X-H torsion
[ 10718 10713 10712 10709 ] final   28.62 input   66.30 | X-H torsion
[ 10763 10752 10751 10750 ] final -134.36 input  -60.55 | X-H torsion
[ 11005 11000 10999 10996 ] final -114.54 input  -57.11 | X-H torsion

> <Gold.Protein.ActiveResidues>
 VAL166  LYS551  ARG553  GLY616  TRP617  ASP618  TYR619  PRO620  LYS621  CYS622 
 ASP623  PHE694  ASN695  SER759  ASP760  ASP761  ALA762  ILE779  LEU786  VAL792 
 PHE793  MET794  SER795  GLU796  ALA797  LYS798  CYS799  TRP800  GLU811  SER814 

> <Gold.Protein.RotatedAtoms>
  151.1692  133.4795  159.2593 H   0  0  0  0  0  0  0  0  0  0  0  0  # atno 6907 bound_to 6896
  151.1373  135.0161  159.8620 H   0  0  0  0  0  0  0  0  0  0  0  0  # atno 6908 bound_to 6896
  152.5461  134.1589  159.8602 H   0  0  0  0  0  0  0  0  0  0  0  0  # atno 6909 bound_to 6896
  146.2269  140.2526  142.8348 H   0  0  0  0  0  0  0  0  0  0  0  0  # atno 7974 bound_to 7965
  156.2450  140.1925  156.6880 H   0  0  0  0  0  0  0  0  0  0  0  0  # atno 8008 bound_to 7997
  154.6272  140.0600  156.9714 H   0  0  0  0  0  0  0  0  0  0  0  0  # atno 8009 bound_to 7997
  155.1767  140.3273  155.4385 H   0  0  0  0  0  0  0  0  0  0  0  0  # atno 8010 bound_to 7997
  140.6770  143.6888  150.8045 H   0  0  0  0  0  0  0  0  0  0  0  0  # atno 10167 bound_to 10162
  157.2358  130.7045  149.6335 H   0  0  0  0  0  0  0  0  0  0  0  0  # atno 10718 bound_to 10713
  154.8720  135.3737  154.4723 H   0  0  0  0  0  0  0  0  0  0  0  0  # atno 10763 bound_to 10752
  153.5382  135.7027  153.5654 H   0  0  0  0  0  0  0  0  0  0  0  0  # atno 10764 bound_to 10752
  153.3828  135.3992  155.1833 H   0  0  0  0  0  0  0  0  0  0  0  0  # atno 10765 bound_to 10752
  141.0545  133.9634  157.2778 H   0  0  0  0  0  0  0  0  0  0  0  0  # atno 11005 bound_to 11000
  144.9400  140.8068  143.5636 LP  0  0  0  0  0  0  0  0  0  0  0  0  # atno 17320 bound_to 7965
  145.2477  139.2045  143.4959 LP  0  0  0  0  0  0  0  0  0  0  0  0  # atno 17321 bound_to 7965
  140.0582  143.5181  152.2640 LP  0  0  0  0  0  0  0  0  0  0  0  0  # atno 17342 bound_to 10162
  139.6068  144.7598  151.3043 LP  0  0  0  0  0  0  0  0  0  0  0  0  # atno 17343 bound_to 10162
  155.9672  130.4474  150.5579 LP  0  0  0  0  0  0  0  0  0  0  0  0  # atno 17370 bound_to 10713
  157.3431  131.0720  151.1773 LP  0  0  0  0  0  0  0  0  0  0  0  0  # atno 17371 bound_to 10713
  139.9378  135.0194  156.8612 LP  0  0  0  0  0  0  0  0  0  0  0  0  # atno 17394 bound_to 11000
  140.5991  134.0189  155.7530 LP  0  0  0  0  0  0  0  0  0  0  0  0  # atno 17395 bound_to 11000

$$$$
