#       Name:                AV-unprocessed.smi:2499
#       Creating user name   scv26
#       Creation time:       Fri Mar 27 13:46:43 2020


#       File generated by GOLD software.
#

@<TRIPOS>MOLECULE
AV-unprocessed.smi:2499
    32    33     1
SMALL
NO_CHARGES


@<TRIPOS>ATOM
      1 ****        -2.5859  -1.5890  -0.9014 C.3            1 S1                 0.0000
      2 ****        -1.6376  -0.6779  -0.1099 C.3            1 S1                 0.0000
      3 ****        -0.3261  -0.7025  -0.7515 N.am           1 S1                 0.0000
      4 ****         0.6093   0.2565  -0.6854 C.2            1 S1                 0.0000
      5 ****         0.3945   1.2844  -0.0390 O.2            1 S1                 0.0000
      6 ****         1.7364  -0.0357  -1.3730 N.pl3          1 S1                -1.0000
      7 ****         2.7554   0.8385  -1.3879 C.2            1 S1                 0.0000
      8 ****         3.0560   1.6862  -2.3733 N.2            1 S1                 0.0000
      9 ****         4.1809   2.3767  -1.9495 C.2            1 S1                 0.0000
     10 ****         4.5213   1.9048  -0.7114 C.2            1 S1                 0.0000
     11 ****         3.6318   0.9319  -0.3478 O.3            1 S1                 0.0000
     12 ****        -1.6022  -1.0777   1.3561 C.3            1 S1                 0.0000
     13 ****        -2.7485  -0.7427   2.2809 C.3            1 S1                 0.0000
     14 ****        -1.4156  -0.0514   2.4489 C.3            1 S1                 0.0000
     15 ****        -3.5954  -1.5582  -0.4906 H              1 S1                 0.0000
     16 ****        -2.2497  -2.6263  -0.8800 H              1 S1                 0.0000
     17 ****        -2.6479  -1.2798  -1.9455 H              1 S1                 0.0000
     18 ****        -2.0365   0.3362  -0.1750 H              1 S1                 0.0000
     19 ****        -0.1032  -1.5237  -1.2944 H              1 S1                 0.0000
     20 ****         4.6453   3.1395  -2.5565 H              1 S1                 0.0000
     21 ****         5.3066   2.1348  -0.0074 H              1 S1                 0.0000
     22 ****        -1.1329  -2.0446   1.5290 H              1 S1                 0.0000
     23 ****        -3.5703  -0.1542   1.8781 H              1 S1                 0.0000
     24 ****        -3.0273  -1.4865   3.0244 H              1 S1                 0.0000
     25 ****        -0.8025  -0.3349   3.3018 H              1 S1                 0.0000
     26 ****        -1.3557   0.9959   2.1598 H              1 S1                 0.0000
     27 ****        -0.4773   1.4032   0.4362 LP             1 S1                 0.0000
     28 ****         1.0921   1.9992   0.0101 LP             1 S1                 0.0000
     29 ****         1.8108  -0.9007  -1.8692 LP             1 S1                 0.0000
     30 ****         2.5697   1.8001  -3.2396 LP             1 S1                 0.0000
     31 ****         4.1031   0.0611  -0.2076 LP             1 S1                 0.0000
     32 ****         3.1532   1.1907   0.4913 LP             1 S1                 0.0000
@<TRIPOS>BOND
    1    1    2 1     
    2    1   15 1     
    3    1   16 1     
    4    1   17 1     
    5    2    3 1     
    6    2   12 1     
    7    2   18 1     
    8    3   19 1     
    9    3    4 am    
   10    4    6 1     
   11    4    5 2     
   12    6    7 1     
   13    7   11 1     
   14    7    8 2     
   15    8    9 1     
   16    9   20 1     
   17    9   10 2     
   18   10   21 1     
   19   10   11 1     
   20   12   14 1     
   21   12   13 1     
   22   12   22 1     
   23   13   14 1     
   24   13   23 1     
   25   13   24 1     
   26   14   25 1     
   27   14   26 1     
   28    5   27 1     
   29    5   28 1     
   30    6   29 1     
   31    8   30 1     
   32   11   31 1     
   33   11   32 1     
@<TRIPOS>SUBSTRUCTURE
      1 S1             1
@<TRIPOS>SET
LONE_PAIRS      STATIC     ATOMS    <user>   **** ""
6 27 28 29 30 31 32
DONOR_HYDROGENS      STATIC     ATOMS    <user>   **** ""
1 19
ATOM$BLUE        STATIC     ATOMS    COLORGROUP SYSTEM
6 27 28 29 30 31 32
ATOM$RED        STATIC     ATOMS    COLORGROUP SYSTEM
1 19
