AV-unprocessed.smi:3303|AV-procd|sdf|12670|dock10
  -GOLD-   2272019 03D 1   1.00000     0.00000
 Structure written by MMmdl.
 45 46  0  0  0  0  0  0  0  0  3 V2000
  147.3869  141.8642  154.2485 C   0  0  0  0  0  0  0  0  0  0  0  0
  148.2599  140.6774  154.6934 C   0  0  1  0  0  0  0  0  0  0  0  0
  148.0625  139.4874  153.7246 C   0  0  0  0  0  0  0  0  0  0  0  0
  148.8972  138.3122  154.0844 N   0  3  2  0  0  0  0  0  0  0  0  0
  148.3782  137.5734  155.2639 C   0  0  0  0  0  0  0  0  0  0  0  0
  150.3451  138.6656  154.1328 C   0  0  2  0  0  0  0  0  0  0  0  0
  151.2513  137.4500  154.3936 C   0  0  0  0  0  0  0  0  0  0  0  0
  150.6059  139.8184  155.1236 C   0  0  0  0  0  0  0  0  0  0  0  0
  149.7565  141.0587  154.7889 C   0  0  2  0  0  0  0  0  0  0  0  0
  149.9741  142.0994  155.8200 N   0  3  0  0  0  0  0  0  0  0  0  0
  149.8299  141.6318  157.2133 C   0  0  0  0  0  0  0  0  0  0  0  0
  151.1959  141.5388  157.9063 C   0  0  0  0  0  0  0  0  0  0  0  0
  151.4892  142.7561  158.7619 C   0  0  0  0  0  0  0  0  0  0  0  0
  151.6692  144.0257  158.1728 C   0  0  0  0  0  0  0  0  0  0  0  0
  151.9451  145.1216  159.0135 C   0  0  0  0  0  0  0  0  0  0  0  0
  152.0310  144.9058  160.4024 C   0  0  0  0  0  0  0  0  0  0  0  0
  151.8371  143.5985  160.8913 C   0  0  0  0  0  0  0  0  0  0  0  0
  151.5736  142.5404  160.0936 N   0  0  0  0  0  0  0  0  0  0  0  0
  147.6935  142.2384  153.2711 H   0  0  0  0  0  0  0  0  0  0  0  0
  147.4430  142.6930  154.9544 H   0  0  0  0  0  0  0  0  0  0  0  0
  146.3384  141.5734  154.1771 H   0  0  0  0  0  0  0  0  0  0  0  0
  147.9168  140.3737  155.6835 H   0  0  0  0  0  0  0  0  0  0  0  0
  147.0126  139.1931  153.6882 H   0  0  0  0  0  0  0  0  0  0  0  0
  148.3238  139.7931  152.7101 H   0  0  0  0  0  0  0  0  0  0  0  0
  148.5065  138.1340  156.1894 H   0  0  0  0  0  0  0  0  0  0  0  0
  148.8750  136.6103  155.3778 H   0  0  0  0  0  0  0  0  0  0  0  0
  147.3146  137.3646  155.1443 H   0  0  0  0  0  0  0  0  0  0  0  0
  150.6006  139.0279  153.1355 H   0  0  0  0  0  0  0  0  0  0  0  0
  152.3006  137.7164  154.2633 H   0  0  0  0  0  0  0  0  0  0  0  0
  151.0330  136.6381  153.6989 H   0  0  0  0  0  0  0  0  0  0  0  0
  151.1416  137.0668  155.4085 H   0  0  0  0  0  0  0  0  0  0  0  0
  150.4032  139.4888  156.1436 H   0  0  0  0  0  0  0  0  0  0  0  0
  151.6629  140.0871  155.0993 H   0  0  0  0  0  0  0  0  0  0  0  0
  150.0798  141.4349  153.8160 H   0  0  0  0  0  0  0  0  0  0  0  0
  150.9063  142.4713  155.7049 H   0  0  0  0  0  0  0  0  0  0  0  0
  149.1781  142.3194  157.7542 H   0  0  0  0  0  0  0  0  0  0  0  0
  149.3459  140.6541  157.2177 H   0  0  0  0  0  0  0  0  0  0  0  0
  151.2379  140.6450  158.5303 H   0  0  0  0  0  0  0  0  0  0  0  0
  151.9875  141.4318  157.1630 H   0  0  0  0  0  0  0  0  0  0  0  0
  151.5982  144.1608  157.1035 H   0  0  0  0  0  0  0  0  0  0  0  0
  152.0893  146.1091  158.6008 H   0  0  0  0  0  0  0  0  0  0  0  0
  152.2405  145.7226  161.0772 H   0  0  0  0  0  0  0  0  0  0  0  0
  151.8966  143.3970  161.9506 H   0  0  0  0  0  0  0  0  0  0  0  0
  149.3116  142.8469  155.6678 H   0  0  0  0  0  0  0  0  0  0  0  0
  148.7988  137.6662  153.3135 H   0  0  0  0  0  0  0  0  0  0  0  0
  1  2  1  0  0  0  0
  1 19  1  0  0  0  0
  1 20  1  0  0  0  0
  1 21  1  0  0  0  0
  2  9  1  0  0  0  0
  2  3  1  0  0  0  0
  2 22  1  0  0  0  0
  3  4  1  0  0  0  0
  3 23  1  0  0  0  0
  3 24  1  0  0  0  0
  4  5  1  0  0  0  0
  4  6  1  0  0  0  0
  4 45  1  0  0  0  0
  5 25  1  0  0  0  0
  5 26  1  0  0  0  0
  5 27  1  0  0  0  0
  6  7  1  0  0  0  0
  6  8  1  0  0  0  0
  6 28  1  0  0  0  0
  7 29  1  0  0  0  0
  7 30  1  0  0  0  0
  7 31  1  0  0  0  0
  8  9  1  0  0  0  0
  8 32  1  0  0  0  0
  8 33  1  0  0  0  0
  9 10  1  0  0  0  0
  9 34  1  0  0  0  0
 10 11  1  0  0  0  0
 10 35  1  0  0  0  0
 10 44  1  0  0  0  0
 11 12  1  0  0  0  0
 11 36  1  0  0  0  0
 11 37  1  0  0  0  0
 12 13  1  0  0  0  0
 12 38  1  0  0  0  0
 12 39  1  0  0  0  0
 13 18  1  0  0  0  0
 13 14  2  0  0  0  0
 14 15  1  0  0  0  0
 14 40  1  0  0  0  0
 15 16  2  0  0  0  0
 15 41  1  0  0  0  0
 16 17  1  0  0  0  0
 16 42  1  0  0  0  0
 17 18  2  0  0  0  0
 17 43  1  0  0  0  0
M  CHG  1   4   1
M  CHG  1  10   1
M  END
> <s_m_source_file>
AV-unprocessed.smi

> <i_m_source_file_index>
3303

> <i_lp_mmshare_version>
43012

> <i_f3d_flags>
0

> <s_epik_input>
W0NIM11bQ0BASF0xW0NIMl1OKFtDSDNdKVtDQEBIXShbQ0gzXSlbQ0gyXVtDQEhdMVtOSF1bQ0gyXVtDSDJdYzJbY0hdW2NIXVtjSF1bY0hdbjI=

> <s_epik_cmdline>
J2VwaWtfcHl0aG9uJywgJy1waCcsICc3LjAnLCAnLXRuJywgJzgnLCAnLW1hJywgJzIwMCcsICctbWV0YWxfYmluZGluZycsICctaW1hZScsICc8aW5maWxlLm1hZT4nLCAnLW9tYWUnLCAnPG91dGZpbGUubWFlPic=

> <r_epik_Ionization_Penalty>
0.0769462

> <r_epik_Ionization_Penalty_Charging>
0.0759813

> <r_epik_Ionization_Penalty_Neutral>
0.000964829

> <r_epik_State_Penalty>
0.0654373

> <r_epik_Charging_Adjusted_Penalty>
0.141419

> <i_epik_Tot_Q>
2

> <i_epik_Tot_abs_Q>
2

> <r_epik_Metal_State_Penalty>
0.0656439

> <b_epik_Metal_Only>
0

> <s_lp_Force_Field>
OPLS_2005

> <r_lp_Energy>
31.8581

> <b_lp_Chiralities_Consistent>
1

> <s_lp_Variant>
AV-unprocessed.smi:3303-14

> <Gold.Version>
5.8.1

> <Gold.Id.Protein>
6NUR|6NUR_protein|mol2

> <Gold.PLP.Fitness>
53.6739

> <Gold.PLP.PLP>
-43.2513

> <Gold.PLP.part.hbond>
-2.3626

> <Gold.PLP.part.metal>
0.0000

> <Gold.PLP.part.buried>
-2.4544

> <Gold.PLP.part.nonpolar>
-38.1350

> <Gold.PLP.part.repulsive>
0.1784

> <Gold.PLP.ligand.clash>
0.0000

> <Gold.PLP.ligand.torsion>
0.6919

> <Gold.PLP.Chemscore.Hbond>
3.9345

> <Gold.PLP.Chemscore.CHOScore>
0.0000

> <Gold.PLP.Chemscore.Metal>
0.0000

> <Gold.Chemscore.Hbonds>
donor molecule, donor type, donor heavy atom, donor atom, acceptor molecule, acceptor atom, score
      L1  H     4    45       P1  7948  2.00
      L1  H    10    44       P1  8028  2.00

> <Gold.PLP.Chemscore.Internal.Correction>
0.0029

> <Gold.Rescore>
     Score         DG    S(hbond)    S(metal)    S(lipo)     H(rot)  DE(clash)    DE(int)     intcor
     21.82     -22.77       1.87        0.00     124.55       1.37       0.28       0.67       ----

> <Gold.Chemscore.Fitness>
21.8171

> <Gold.Chemscore.DG>
-22.7672

> <Gold.Chemscore.ZeroCoef>
-5.4800

> <Gold.Chemscore.Hbond>
1.8661

> <Gold.Chemscore.Metal>
0.0000

> <Gold.Chemscore.Lipo>
124.5531

> <Gold.Chemscore.Internal_Hbond>
0.0000

> <Gold.Chemscore.DEClash>
0.2838

> <Gold.Chemscore.DEInternal>
0.6664

> <Gold.Chemscore.Rot>
1.3744

> <Gold.Chemscore.Internal.Correction>
   9.000000E+99

> <Gold.Chemscore.Hbonds>
donor molecule, donor type, donor heavy atom, donor atom, acceptor molecule, acceptor atom, score
      L1  H     4    45       P1  7948  0.93
      L1  H    10    44       P1  8028  0.95

> <Gold.Chemscore.Hbond.Weighted>
-6.2329

> <Gold.Chemscore.Metal.Weighted>
-0.0000

> <Gold.Chemscore.Lipo.Weighted>
-14.5727

> <Gold.Chemscore.Internal_Hbond.Weighted>
0.0000

> <Gold.Chemscore.DEClash.Weighted>
0.2838

> <Gold.Chemscore.DEInternal.Weighted>
0.6664

> <Gold.Chemscore.Rot.Weighted>
3.5185

> <Gold.Chemscore.Internal.Correction.Weighted>
   9.000000E+99

> <Gold.Protein.RotatedTorsions>
[ 6907 6896 6895 6894 ] final   61.36 input  -60.11 | X-H torsion
[ 7974 7965 7964 7962 ] final   43.76 input  175.53 | X-H torsion
[ 8008 7997 7996 7995 ] final -123.91 input   59.86 | X-H torsion
[ 10167 10162 10161 10158 ] final  -38.33 input  -65.29 | X-H torsion
[ 10718 10713 10712 10709 ] final   20.96 input   66.30 | X-H torsion
[ 10763 10752 10751 10750 ] final   69.11 input  -60.55 | X-H torsion
[ 11005 11000 10999 10996 ] final   54.56 input  -57.11 | X-H torsion

> <Gold.Protein.ActiveResidues>
 VAL166  LYS551  ARG553  GLY616  TRP617  ASP618  TYR619  PRO620  LYS621  CYS622 
 ASP623  PHE694  ASN695  SER759  ASP760  ASP761  ALA762  ILE779  LEU786  VAL792 
 PHE793  MET794  SER795  GLU796  ALA797  LYS798  CYS799  TRP800  GLU811  SER814 

> <Gold.Protein.RotatedAtoms>
  152.4082  134.6171  160.0040 H   0  0  0  0  0  0  0  0  0  0  0  0  # atno 6907 bound_to 6896
  151.6356  133.3323  159.3126 H   0  0  0  0  0  0  0  0  0  0  0  0  # atno 6908 bound_to 6896
  150.7975  134.7085  159.6635 H   0  0  0  0  0  0  0  0  0  0  0  0  # atno 6909 bound_to 6896
  146.0628  139.5150  142.9647 H   0  0  0  0  0  0  0  0  0  0  0  0  # atno 7974 bound_to 7965
  155.1882  140.0412  157.2895 H   0  0  0  0  0  0  0  0  0  0  0  0  # atno 8008 bound_to 7997
  154.6157  140.2488  155.7585 H   0  0  0  0  0  0  0  0  0  0  0  0  # atno 8009 bound_to 7997
  156.2405  140.2905  156.0441 H   0  0  0  0  0  0  0  0  0  0  0  0  # atno 8010 bound_to 7997
  140.7095  143.3284  151.2626 H   0  0  0  0  0  0  0  0  0  0  0  0  # atno 10167 bound_to 10162
  157.1318  130.6594  149.5954 H   0  0  0  0  0  0  0  0  0  0  0  0  # atno 10718 bound_to 10713
  153.0270  135.5222  154.7238 H   0  0  0  0  0  0  0  0  0  0  0  0  # atno 10763 bound_to 10752
  154.6286  135.2897  155.0246 H   0  0  0  0  0  0  0  0  0  0  0  0  # atno 10764 bound_to 10752
  154.1206  135.6608  153.4955 H   0  0  0  0  0  0  0  0  0  0  0  0  # atno 10765 bound_to 10752
  140.0676  134.5514  155.9081 H   0  0  0  0  0  0  0  0  0  0  0  0  # atno 11005 bound_to 11000
  145.6531  141.0258  143.1750 LP  0  0  0  0  0  0  0  0  0  0  0  0  # atno 17320 bound_to 7965
  144.7184  139.8114  143.7390 LP  0  0  0  0  0  0  0  0  0  0  0  0  # atno 17321 bound_to 7965
  139.6759  143.9939  152.2780 LP  0  0  0  0  0  0  0  0  0  0  0  0  # atno 17342 bound_to 10162
  139.9553  144.6594  150.8132 LP  0  0  0  0  0  0  0  0  0  0  0  0  # atno 17343 bound_to 10162
  155.9806  130.4808  150.6783 LP  0  0  0  0  0  0  0  0  0  0  0  0  # atno 17370 bound_to 10713
  157.4385  131.0858  151.0967 LP  0  0  0  0  0  0  0  0  0  0  0  0  # atno 17371 bound_to 10713
  141.1999  133.6609  156.5869 LP  0  0  0  0  0  0  0  0  0  0  0  0  # atno 17394 bound_to 11000
  140.3675  134.7635  157.4576 LP  0  0  0  0  0  0  0  0  0  0  0  0  # atno 17395 bound_to 11000

$$$$
