AV-unprocessed.smi:2511|AV-procd|sdf|9888|dock1
  -GOLD-   2272013523D 1   1.00000     0.00000
 Structure written by MMmdl.
 40 41  0  0  0  0  0  0  0  0  1 V2000
  155.1447  132.9484  165.0110 N   0  0  0  0  0  0  0  0  0  0  0  0
  155.3416  132.9077  163.6889 C   0  0  0  0  0  0  0  0  0  0  0  0
  155.7830  131.9084  163.1234 O   0  0  0  0  0  0  0  0  0  0  0  0
  155.0369  134.1708  162.9286 C   0  0  0  0  0  0  0  0  0  0  0  0
  155.1936  134.2029  161.5241 C   0  0  0  0  0  0  0  0  0  0  0  0
  154.8956  135.3895  160.8273 C   0  0  0  0  0  0  0  0  0  0  0  0
  154.4496  136.5169  161.5560 C   0  0  0  0  0  0  0  0  0  0  0  0
  154.1018  137.7652  160.9737 N   0  0  0  0  0  0  0  0  0  0  0  0
  154.2669  139.0071  161.4707 C   0  0  0  0  0  0  0  0  0  0  0  0
  154.7847  139.2654  162.5549 O   0  0  0  0  0  0  0  0  0  0  0  0
  153.7897  139.9858  160.6798 N   0  0  0  0  0  0  0  0  0  0  0  0
  153.8025  141.4325  160.9092 C   0  0  2  0  0  0  0  0  0  0  0  0
  153.3850  141.7215  162.3622 C   0  0  0  0  0  0  0  0  0  0  0  0
  153.3235  143.2314  162.6366 C   0  0  0  0  0  0  0  0  0  0  0  0
  152.3879  143.9411  161.6457 C   0  0  0  0  0  0  0  0  0  0  0  0
  152.7995  143.6723  160.1829 C   0  0  2  0  0  0  0  0  0  0  0  0
  151.8773  144.3955  159.1797 C   0  0  0  0  0  0  0  0  0  0  0  0
  150.6806  143.8097  159.1269 F   0  0  0  0  0  0  0  0  0  0  0  0
  151.7186  145.6686  159.5419 F   0  0  0  0  0  0  0  0  0  0  0  0
  152.4214  144.3750  157.9628 F   0  0  0  0  0  0  0  0  0  0  0  0
  152.8602  142.1523  159.9202 C   0  0  0  0  0  0  0  0  0  0  0  0
  154.3063  136.3791  162.9513 C   0  0  0  0  0  0  0  0  0  0  0  0
  154.5924  135.2453  163.6249 N   0  0  0  0  0  0  0  0  0  0  0  0
  155.3293  132.1311  165.5738 H   0  0  0  0  0  0  0  0  0  0  0  0
  154.8088  133.8004  165.4368 H   0  0  0  0  0  0  0  0  0  0  0  0
  155.5363  133.3342  160.9806 H   0  0  0  0  0  0  0  0  0  0  0  0
  155.0025  135.4031  159.7540 H   0  0  0  0  0  0  0  0  0  0  0  0
  153.6005  137.7073  160.0994 H   0  0  0  0  0  0  0  0  0  0  0  0
  153.3623  139.6878  159.8145 H   0  0  0  0  0  0  0  0  0  0  0  0
  154.8175  141.8121  160.7772 H   0  0  0  0  0  0  0  0  0  0  0  0
  152.4084  141.2784  162.5635 H   0  0  0  0  0  0  0  0  0  0  0  0
  154.0861  141.2520  163.0536 H   0  0  0  0  0  0  0  0  0  0  0  0
  152.9852  143.4092  163.6579 H   0  0  0  0  0  0  0  0  0  0  0  0
  154.3248  143.6578  162.5640 H   0  0  0  0  0  0  0  0  0  0  0  0
  151.3637  143.6044  161.8101 H   0  0  0  0  0  0  0  0  0  0  0  0
  152.3951  145.0125  161.8472 H   0  0  0  0  0  0  0  0  0  0  0  0
  153.8058  144.0714  160.0439 H   0  0  0  0  0  0  0  0  0  0  0  0
  153.1900  141.9725  158.8968 H   0  0  0  0  0  0  0  0  0  0  0  0
  151.8579  141.7280  159.9958 H   0  0  0  0  0  0  0  0  0  0  0  0
  153.9549  137.2071  163.5499 H   0  0  0  0  0  0  0  0  0  0  0  0
  1  2  1  0  0  0  0
  1 24  1  0  0  0  0
  1 25  1  0  0  0  0
  2  3  2  0  0  0  0
  2  4  1  0  0  0  0
  4 23  1  0  0  0  0
  4  5  2  0  0  0  0
  5  6  1  0  0  0  0
  5 26  1  0  0  0  0
  6  7  2  0  0  0  0
  6 27  1  0  0  0  0
  7  8  1  0  0  0  0
  7 22  1  0  0  0  0
  8  9  1  0  0  0  0
  8 28  1  0  0  0  0
  9 10  2  0  0  0  0
  9 11  1  0  0  0  0
 11 12  1  0  0  0  0
 11 29  1  0  0  0  0
 12 21  1  0  0  0  0
 12 13  1  0  0  0  0
 12 30  1  0  0  0  0
 13 14  1  0  0  0  0
 13 31  1  0  0  0  0
 13 32  1  0  0  0  0
 14 15  1  0  0  0  0
 14 33  1  0  0  0  0
 14 34  1  0  0  0  0
 15 16  1  0  0  0  0
 15 35  1  0  0  0  0
 15 36  1  0  0  0  0
 16 17  1  0  0  0  0
 16 21  1  0  0  0  0
 16 37  1  0  0  0  0
 17 18  1  0  0  0  0
 17 19  1  0  0  0  0
 17 20  1  0  0  0  0
 21 38  1  0  0  0  0
 21 39  1  0  0  0  0
 22 23  2  0  0  0  0
 22 40  1  0  0  0  0
M  END
> <s_m_source_file>
AV-unprocessed.smi

> <i_m_source_file_index>
2511

> <i_lp_mmshare_version>
43012

> <i_f3d_flags>
0

> <s_epik_input>
W05IMl1DKD1PKWMxW2NIXVtjSF1jKFtjSF1uMSlbTkhdQyg9TylbTkhdW0NAQEhdMltDSDJdW0NIMl1bQ0gyXVtDQEBIXShDKEYpKEYpRilbQ0gyXTI=

> <s_epik_cmdline>
J2VwaWtfcHl0aG9uJywgJy1waCcsICc3LjAnLCAnLXRuJywgJzgnLCAnLW1hJywgJzIwMCcsICctbWV0YWxfYmluZGluZycsICctaW1hZScsICc8aW5maWxlLm1hZT4nLCAnLW9tYWUnLCAnPG91dGZpbGUubWFlPic=

> <r_lp_tautomer_probability>
1

> <r_epik_Ionization_Penalty>
4.28758e-05

> <r_epik_Ionization_Penalty_Charging>
0

> <r_epik_Ionization_Penalty_Neutral>
4.28758e-05

> <r_epik_State_Penalty>
-0

> <r_epik_Charging_Adjusted_Penalty>
0

> <i_epik_Tot_Q>
0

> <i_epik_Tot_abs_Q>
0

> <r_epik_Metal_State_Penalty>
-0

> <b_epik_Metal_Only>
0

> <s_lp_Force_Field>
OPLS_2005

> <r_lp_Energy>
28.5247

> <b_lp_Chiralities_Consistent>
1

> <s_lp_Variant>
AV-unprocessed.smi:2511-3

> <Gold.Version>
5.8.1

> <Gold.Id.Protein>
6NUR|6NUR_protein|mol2

> <Gold.PLP.Fitness>
46.1694

> <Gold.PLP.PLP>
-47.3397

> <Gold.PLP.part.hbond>
0.0000

> <Gold.PLP.part.metal>
0.0000

> <Gold.PLP.part.buried>
-5.8511

> <Gold.PLP.part.nonpolar>
-41.3516

> <Gold.PLP.part.repulsive>
0.1161

> <Gold.PLP.ligand.clash>
0.0000

> <Gold.PLP.ligand.torsion>
0.6038

> <Gold.PLP.Chemscore.Hbond>
0.0000

> <Gold.PLP.Chemscore.CHOScore>
0.0000

> <Gold.PLP.Chemscore.Metal>
0.0000

> <Gold.PLP.Chemscore.Internal.Correction>
0.0374

> <Gold.Rescore>
     Score         DG    S(hbond)    S(metal)    S(lipo)     H(rot)  DE(clash)    DE(int)     intcor
     12.51     -15.69       0.00        0.00     109.17       1.00       0.25       2.93       ----

> <Gold.Chemscore.Fitness>
12.5111

> <Gold.Chemscore.DG>
-15.6931

> <Gold.Chemscore.ZeroCoef>
-5.4800

> <Gold.Chemscore.Hbond>
0.0000

> <Gold.Chemscore.Metal>
0.0000

> <Gold.Chemscore.Lipo>
109.1718

> <Gold.Chemscore.Internal_Hbond>
0.0000

> <Gold.Chemscore.DEClash>
0.2544

> <Gold.Chemscore.DEInternal>
2.9276

> <Gold.Chemscore.Rot>
1.0000

> <Gold.Chemscore.Internal.Correction>
   9.000000E+99

> <Gold.Chemscore.Hbond.Weighted>
-0.0000

> <Gold.Chemscore.Metal.Weighted>
-0.0000

> <Gold.Chemscore.Lipo.Weighted>
-12.7731

> <Gold.Chemscore.Internal_Hbond.Weighted>
0.0000

> <Gold.Chemscore.DEClash.Weighted>
0.2544

> <Gold.Chemscore.DEInternal.Weighted>
2.9276

> <Gold.Chemscore.Rot.Weighted>
2.5600

> <Gold.Chemscore.Internal.Correction.Weighted>
   9.000000E+99

> <Gold.Protein.RotatedTorsions>
[ 6907 6896 6895 6894 ] final  125.69 input  -60.11 | X-H torsion
[ 7974 7965 7964 7962 ] final  -51.32 input  175.53 | X-H torsion
[ 8008 7997 7996 7995 ] final  -60.94 input   59.86 | X-H torsion
[ 10167 10162 10161 10158 ] final  -53.65 input  -65.29 | X-H torsion
[ 10718 10713 10712 10709 ] final   90.82 input   66.30 | X-H torsion
[ 10763 10752 10751 10750 ] final  129.42 input  -60.55 | X-H torsion
[ 11005 11000 10999 10996 ] final -100.27 input  -57.11 | X-H torsion

> <Gold.Protein.ActiveResidues>
 VAL166  LYS551  ARG553  GLY616  TRP617  ASP618  TYR619  PRO620  LYS621  CYS622 
 ASP623  PHE694  ASN695  SER759  ASP760  ASP761  ALA762  ILE779  LEU786  VAL792 
 PHE793  MET794  SER795  GLU796  ALA797  LYS798  CYS799  TRP800  GLU811  SER814 

> <Gold.Protein.RotatedAtoms>
  152.3970  133.6761  159.6283 H   0  0  0  0  0  0  0  0  0  0  0  0  # atno 6907 bound_to 6896
  150.7867  133.8857  159.3307 H   0  0  0  0  0  0  0  0  0  0  0  0  # atno 6908 bound_to 6896
  151.6632  135.0988  160.0235 H   0  0  0  0  0  0  0  0  0  0  0  0  # atno 6909 bound_to 6896
  145.9203  140.7840  142.9651 H   0  0  0  0  0  0  0  0  0  0  0  0  # atno 7974 bound_to 7965
  154.4423  140.1028  156.6353 H   0  0  0  0  0  0  0  0  0  0  0  0  # atno 8008 bound_to 7997
  155.5560  140.3486  155.4461 H   0  0  0  0  0  0  0  0  0  0  0  0  # atno 8009 bound_to 7997
  156.0494  140.1300  157.0056 H   0  0  0  0  0  0  0  0  0  0  0  0  # atno 8010 bound_to 7997
  140.6473  143.2543  151.4823 H   0  0  0  0  0  0  0  0  0  0  0  0  # atno 10167 bound_to 10162
  157.6959  131.0384  150.3635 H   0  0  0  0  0  0  0  0  0  0  0  0  # atno 10718 bound_to 10713
  153.7414  135.3223  155.3305 H   0  0  0  0  0  0  0  0  0  0  0  0  # atno 10763 bound_to 10752
  154.8294  135.4545  154.1023 H   0  0  0  0  0  0  0  0  0  0  0  0  # atno 10764 bound_to 10752
  153.2199  135.6947  153.8095 H   0  0  0  0  0  0  0  0  0  0  0  0  # atno 10765 bound_to 10752
  141.1277  133.8386  157.1081 H   0  0  0  0  0  0  0  0  0  0  0  0  # atno 11005 bound_to 11000
  144.6752  140.1964  143.7391 LP  0  0  0  0  0  0  0  0  0  0  0  0  # atno 17320 bound_to 7965
  145.8559  139.2198  143.1745 LP  0  0  0  0  0  0  0  0  0  0  0  0  # atno 17321 bound_to 7965
  139.5685  144.1985  152.1801 LP  0  0  0  0  0  0  0  0  0  0  0  0  # atno 17342 bound_to 10162
  140.1274  144.5319  150.6824 LP  0  0  0  0  0  0  0  0  0  0  0  0  # atno 17343 bound_to 10162
  156.4068  130.3926  149.6920 LP  0  0  0  0  0  0  0  0  0  0  0  0  # atno 17370 bound_to 10713
  156.4218  130.7772  151.2789 LP  0  0  0  0  0  0  0  0  0  0  0  0  # atno 17371 bound_to 10713
  140.0292  134.9909  157.0746 LP  0  0  0  0  0  0  0  0  0  0  0  0  # atno 17394 bound_to 11000
  140.4313  134.1777  155.7168 LP  0  0  0  0  0  0  0  0  0  0  0  0  # atno 17395 bound_to 11000

$$$$
