AV-unprocessed.smi:2467|AV-procd|sdf|9728|dock1
  -GOLD-   2272013373D 1   1.00000     0.00000
 Structure written by MMmdl.
 46 47  0  0  0  0  0  0  0  0  1 V2000
  153.0262  138.3960  154.7464 C   0  0  0  0  0  0  0  0  0  0  0  0
  151.5310  138.0905  154.5668 C   0  0  0  0  0  0  0  0  0  0  0  0
  150.6098  139.3366  154.4821 C   0  0  0  0  0  0  0  0  0  0  0  0
  150.6695  140.1391  155.8105 C   0  0  0  0  0  0  0  0  0  0  0  0
  150.0755  141.5533  155.7709 C   0  0  0  0  0  0  0  0  0  0  0  0
  149.1464  138.9568  154.1043 C   0  0  1  0  0  0  0  0  0  0  0  0
  148.4778  138.0138  155.1367 C   0  0  0  0  0  0  0  0  0  0  0  0
  147.0531  137.6288  154.7086 C   0  0  2  0  0  0  0  0  0  0  0  0
  147.1143  136.7465  153.5469 N   0  0  0  0  0  0  0  0  0  0  0  0
  146.1784  135.8680  153.1567 C   0  0  0  0  0  0  0  0  0  0  0  0
  145.1175  135.7143  153.7592 O   0  0  0  0  0  0  0  0  0  0  0  0
  146.4652  135.1515  152.0479 N   0  0  0  0  0  0  0  0  0  0  0  0
  145.7245  134.1472  151.3540 C   0  0  0  0  0  0  0  0  0  0  0  0
  146.5169  133.2410  150.6131 C   0  0  0  0  0  0  0  0  0  0  0  0
  145.8968  132.2073  149.8846 C   0  0  0  0  0  0  0  0  0  0  0  0
  144.4949  132.1034  149.9135 C   0  0  0  0  0  0  0  0  0  0  0  0
  143.7773  133.0438  150.6741 C   0  0  0  0  0  0  0  0  0  0  0  0
  144.3710  134.0342  151.3725 N   0  0  0  0  0  0  0  0  0  0  0  0
  146.2477  138.9052  154.4119 C   0  0  0  0  0  0  0  0  0  0  0  0
  147.0208  139.8457  153.4733 C   0  0  0  0  0  0  0  0  0  0  0  0
  148.3129  140.1131  154.0105 O   0  0  0  0  0  0  0  0  0  0  0  0
  153.6161  137.4847  154.6467 H   0  0  0  0  0  0  0  0  0  0  0  0
  153.2449  138.8099  155.7301 H   0  0  0  0  0  0  0  0  0  0  0  0
  153.3794  139.1005  153.9931 H   0  0  0  0  0  0  0  0  0  0  0  0
  151.4480  137.5143  153.6451 H   0  0  0  0  0  0  0  0  0  0  0  0
  151.1942  137.4319  155.3685 H   0  0  0  0  0  0  0  0  0  0  0  0
  151.0116  139.9645  153.6855 H   0  0  0  0  0  0  0  0  0  0  0  0
  150.1778  139.5725  156.6022 H   0  0  0  0  0  0  0  0  0  0  0  0
  151.7072  140.2481  156.1217 H   0  0  0  0  0  0  0  0  0  0  0  0
  150.2711  142.0757  156.7074 H   0  0  0  0  0  0  0  0  0  0  0  0
  148.9941  141.5328  155.6387 H   0  0  0  0  0  0  0  0  0  0  0  0
  150.5129  142.1450  154.9665 H   0  0  0  0  0  0  0  0  0  0  0  0
  149.1658  138.4881  153.1188 H   0  0  0  0  0  0  0  0  0  0  0  0
  149.0627  137.1114  155.3017 H   0  0  0  0  0  0  0  0  0  0  0  0
  148.4344  138.5181  156.1030 H   0  0  0  0  0  0  0  0  0  0  0  0
  146.5774  137.0856  155.5270 H   0  0  0  0  0  0  0  0  0  0  0  0
  147.9527  136.8033  152.9856 H   0  0  0  0  0  0  0  0  0  0  0  0
  147.3594  135.3694  151.6325 H   0  0  0  0  0  0  0  0  0  0  0  0
  147.5935  133.3332  150.6003 H   0  0  0  0  0  0  0  0  0  0  0  0
  146.4876  131.5063  149.3136 H   0  0  0  0  0  0  0  0  0  0  0  0
  143.9833  131.3244  149.3681 H   0  0  0  0  0  0  0  0  0  0  0  0
  142.6993  133.0018  150.7244 H   0  0  0  0  0  0  0  0  0  0  0  0
  145.2715  138.6634  153.9900 H   0  0  0  0  0  0  0  0  0  0  0  0
  146.0532  139.4273  155.3495 H   0  0  0  0  0  0  0  0  0  0  0  0
  147.1088  139.4178  152.4735 H   0  0  0  0  0  0  0  0  0  0  0  0
  146.4837  140.7880  153.3662 H   0  0  0  0  0  0  0  0  0  0  0  0
  1  2  1  0  0  0  0
  1 22  1  0  0  0  0
  1 23  1  0  0  0  0
  1 24  1  0  0  0  0
  2  3  1  0  0  0  0
  2 25  1  0  0  0  0
  2 26  1  0  0  0  0
  3  4  1  0  0  0  0
  3  6  1  0  0  0  0
  3 27  1  0  0  0  0
  4  5  1  0  0  0  0
  4 28  1  0  0  0  0
  4 29  1  0  0  0  0
  5 30  1  0  0  0  0
  5 31  1  0  0  0  0
  5 32  1  0  0  0  0
  6 21  1  0  0  0  0
  6  7  1  0  0  0  0
  6 33  1  0  0  0  0
  7  8  1  0  0  0  0
  7 34  1  0  0  0  0
  7 35  1  0  0  0  0
  8  9  1  0  0  0  0
  8 19  1  0  0  0  0
  8 36  1  0  0  0  0
  9 10  1  0  0  0  0
  9 37  1  0  0  0  0
 10 11  2  0  0  0  0
 10 12  1  0  0  0  0
 12 13  1  0  0  0  0
 12 38  1  0  0  0  0
 13 18  1  0  0  0  0
 13 14  2  0  0  0  0
 14 15  1  0  0  0  0
 14 39  1  0  0  0  0
 15 16  2  0  0  0  0
 15 40  1  0  0  0  0
 16 17  1  0  0  0  0
 16 41  1  0  0  0  0
 17 18  2  0  0  0  0
 17 42  1  0  0  0  0
 19 20  1  0  0  0  0
 19 43  1  0  0  0  0
 19 44  1  0  0  0  0
 20 21  1  0  0  0  0
 20 45  1  0  0  0  0
 20 46  1  0  0  0  0
M  END
> <s_m_source_file>
AV-unprocessed.smi

> <i_m_source_file_index>
2467

> <i_lp_mmshare_version>
43012

> <i_f3d_flags>
0

> <s_epik_input>
W0NIM11bQ0gyXVtDSF0oW0NIMl1bQ0gzXSlbQ0BASF0xW0NIMl1bQ0BIXShbQ0gyXVtDSDJdTzEpW05IXUMoPU8pW05IXWMyW2NIXVtjSF1bY0hdW2NIXW4y

> <s_epik_cmdline>
J2VwaWtfcHl0aG9uJywgJy1waCcsICc3LjAnLCAnLXRuJywgJzgnLCAnLW1hJywgJzIwMCcsICctbWV0YWxfYmluZGluZycsICctaW1hZScsICc8aW5maWxlLm1hZT4nLCAnLW9tYWUnLCAnPG91dGZpbGUubWFlPic=

> <r_lp_tautomer_probability>
1

> <r_epik_Ionization_Penalty>
4.80427e-05

> <r_epik_Ionization_Penalty_Charging>
0

> <r_epik_Ionization_Penalty_Neutral>
4.80427e-05

> <r_epik_State_Penalty>
-0

> <r_epik_Charging_Adjusted_Penalty>
0

> <i_epik_Tot_Q>
0

> <i_epik_Tot_abs_Q>
0

> <r_epik_Metal_State_Penalty>
-0

> <b_epik_Metal_Only>
0

> <s_lp_Force_Field>
OPLS_2005

> <r_lp_Energy>
20.8854

> <b_lp_Chiralities_Consistent>
1

> <s_lp_Variant>
AV-unprocessed.smi:2467-4

> <Gold.Version>
5.8.1

> <Gold.Id.Protein>
6NUR|6NUR_protein|mol2

> <Gold.PLP.Fitness>
45.2283

> <Gold.PLP.PLP>
-37.5269

> <Gold.PLP.part.hbond>
-2.0000

> <Gold.PLP.part.metal>
0.0000

> <Gold.PLP.part.buried>
-3.0880

> <Gold.PLP.part.nonpolar>
-33.2174

> <Gold.PLP.part.repulsive>
0.4176

> <Gold.PLP.ligand.clash>
0.0000

> <Gold.PLP.ligand.torsion>
0.5556

> <Gold.PLP.Chemscore.Hbond>
1.9440

> <Gold.PLP.Chemscore.CHOScore>
0.9790

> <Gold.PLP.Chemscore.Metal>
0.0000

> <Gold.Chemscore.Hbonds>
donor molecule, donor type, donor heavy atom, donor atom, acceptor molecule, acceptor atom, score
      L1  H     9    37       P1  7948  1.00
      L1  H    12    38       P1  7948  0.94
      L1  C    17    42       P1 10186  0.99

> <Gold.PLP.Chemscore.Internal.Correction>
0.0435

> <Gold.Rescore>
     Score         DG    S(hbond)    S(metal)    S(lipo)     H(rot)  DE(clash)    DE(int)     intcor
     16.48     -18.82       1.85        0.00      93.58       1.49       0.38       1.96       ----

> <Gold.Chemscore.Fitness>
16.4777

> <Gold.Chemscore.DG>
-18.8186

> <Gold.Chemscore.ZeroCoef>
-5.4800

> <Gold.Chemscore.Hbond>
1.8540

> <Gold.Chemscore.Metal>
0.0000

> <Gold.Chemscore.Lipo>
93.5850

> <Gold.Chemscore.Internal_Hbond>
0.0000

> <Gold.Chemscore.DEClash>
0.3828

> <Gold.Chemscore.DEInternal>
1.9581

> <Gold.Chemscore.Rot>
1.4856

> <Gold.Chemscore.Internal.Correction>
   9.000000E+99

> <Gold.Chemscore.Hbonds>
donor molecule, donor type, donor heavy atom, donor atom, acceptor molecule, acceptor atom, score
      L1  H     9    37       P1  7948  0.95
      L1  H    12    38       P1  7948  0.87

> <Gold.Chemscore.Hbond.Weighted>
-6.1923

> <Gold.Chemscore.Metal.Weighted>
-0.0000

> <Gold.Chemscore.Lipo.Weighted>
-10.9494

> <Gold.Chemscore.Internal_Hbond.Weighted>
0.0000

> <Gold.Chemscore.DEClash.Weighted>
0.3828

> <Gold.Chemscore.DEInternal.Weighted>
1.9581

> <Gold.Chemscore.Rot.Weighted>
3.8031

> <Gold.Chemscore.Internal.Correction.Weighted>
   9.000000E+99

> <Gold.Protein.RotatedTorsions>
[ 6907 6896 6895 6894 ] final -115.18 input  -60.11 | X-H torsion
[ 7974 7965 7964 7962 ] final  -25.49 input  175.53 | X-H torsion
[ 8008 7997 7996 7995 ] final   74.55 input   59.86 | X-H torsion
[ 10167 10162 10161 10158 ] final   72.44 input  -65.29 | X-H torsion
[ 10718 10713 10712 10709 ] final  -68.75 input   66.30 | X-H torsion
[ 10763 10752 10751 10750 ] final   42.20 input  -60.55 | X-H torsion
[ 11005 11000 10999 10996 ] final  -74.47 input  -57.11 | X-H torsion

> <Gold.Protein.ActiveResidues>
 VAL166  LYS551  ARG553  GLY616  TRP617  ASP618  TYR619  PRO620  LYS621  CYS622 
 ASP623  PHE694  ASN695  SER759  ASP760  ASP761  ALA762  ILE779  LEU786  VAL792 
 PHE793  MET794  SER795  GLU796  ALA797  LYS798  CYS799  TRP800  GLU811  SER814 

> <Gold.Protein.RotatedAtoms>
  150.7958  133.8695  159.3254 H   0  0  0  0  0  0  0  0  0  0  0  0  # atno 6907 bound_to 6896
  151.6521  135.0998  160.0172 H   0  0  0  0  0  0  0  0  0  0  0  0  # atno 6908 bound_to 6896
  152.4039  133.6821  159.6375 H   0  0  0  0  0  0  0  0  0  0  0  0  # atno 6909 bound_to 6896
  146.1488  140.4893  142.8620 H   0  0  0  0  0  0  0  0  0  0  0  0  # atno 7974 bound_to 7965
  155.8000  140.3476  155.5397 H   0  0  0  0  0  0  0  0  0  0  0  0  # atno 8008 bound_to 7997
  155.8548  140.0962  157.1672 H   0  0  0  0  0  0  0  0  0  0  0  0  # atno 8009 bound_to 7997
  154.4009  140.1370  156.3875 H   0  0  0  0  0  0  0  0  0  0  0  0  # atno 8010 bound_to 7997
  140.0353  144.5433  150.7475 H   0  0  0  0  0  0  0  0  0  0  0  0  # atno 10167 bound_to 10162
  156.0489  130.4300  150.2046 H   0  0  0  0  0  0  0  0  0  0  0  0  # atno 10718 bound_to 10713
  152.9889  135.6139  154.2911 H   0  0  0  0  0  0  0  0  0  0  0  0  # atno 10763 bound_to 10752
  154.2636  135.2781  155.2769 H   0  0  0  0  0  0  0  0  0  0  0  0  # atno 10764 bound_to 10752
  154.5184  135.5821  153.6718 H   0  0  0  0  0  0  0  0  0  0  0  0  # atno 10765 bound_to 10752
  141.1635  133.6912  156.7369 H   0  0  0  0  0  0  0  0  0  0  0  0  # atno 11005 bound_to 11000
  144.7878  140.5972  143.6562 LP  0  0  0  0  0  0  0  0  0  0  0  0  # atno 17320 bound_to 7965
  145.4874  139.1491  143.3728 LP  0  0  0  0  0  0  0  0  0  0  0  0  # atno 17321 bound_to 7965
  140.7284  143.2661  151.4039 LP  0  0  0  0  0  0  0  0  0  0  0  0  # atno 17342 bound_to 10162
  139.6049  144.1218  152.2238 LP  0  0  0  0  0  0  0  0  0  0  0  0  # atno 17343 bound_to 10162
  157.0132  130.9957  151.3360 LP  0  0  0  0  0  0  0  0  0  0  0  0  # atno 17370 bound_to 10713
  157.5395  130.8111  149.8012 LP  0  0  0  0  0  0  0  0  0  0  0  0  # atno 17371 bound_to 10713
  140.2703  134.8397  157.3841 LP  0  0  0  0  0  0  0  0  0  0  0  0  # atno 17394 bound_to 11000
  140.1527  134.4828  155.7949 LP  0  0  0  0  0  0  0  0  0  0  0  0  # atno 17395 bound_to 11000

$$$$
