AV-unprocessed.smi:2983|AV-procd|sdf|11377|dock2
  -GOLD-   2272016293D 1   1.00000     0.00000
 Structure written by MMmdl.
 39 40  0  0  0  0  0  0  0  0  1 V2000
  143.6136  133.9672  151.5963 C   0  0  0  0  0  0  0  0  0  0  0  0
  143.8360  135.4834  151.6125 C   0  0  0  0  0  0  0  0  0  0  0  0
  144.7909  135.9259  152.7291 C   0  0  0  0  0  0  0  0  0  0  0  0
  144.8776  137.4561  152.8536 C   0  0  0  0  0  0  0  0  0  0  0  0
  145.8107  137.8779  153.8790 N   0  0  0  0  0  0  0  0  0  0  0  0
  147.0442  138.4758  153.6044 C   0  0  0  0  0  0  0  0  0  0  0  0
  147.3924  138.6784  152.2787 N   0  0  0  0  0  0  0  0  0  0  0  0
  147.8942  138.8638  154.5988 C   0  0  0  0  0  0  0  0  0  0  0  0
  149.1240  139.4713  154.3712 N   0  0  0  0  0  0  0  0  0  0  0  0
  150.3567  138.7296  154.1391 C   0  0  0  0  0  0  0  0  0  0  0  0
  151.4025  139.0649  155.2188 C   0  0  0  0  0  0  0  0  0  0  0  0
  151.5969  140.4750  155.2805 O   0  0  0  0  0  0  0  0  0  0  0  0
  150.3962  141.1704  155.6044 C   0  0  0  0  0  0  0  0  0  0  0  0
  149.3407  140.9039  154.5174 C   0  0  0  0  0  0  0  0  0  0  0  0
  147.5325  138.6649  156.0060 C   0  0  0  0  0  0  0  0  0  0  0  0
  148.2288  138.9653  156.9753 O   0  0  0  0  0  0  0  0  0  0  0  0
  146.2806  138.0915  156.2156 N   0  0  0  0  0  0  0  0  0  0  0  0
  145.3933  137.6989  155.2195 C   0  0  0  0  0  0  0  0  0  0  0  0
  144.3022  137.2233  155.5356 O   0  0  0  0  0  0  0  0  0  0  0  0
  145.9894  137.9560  157.1728 H   0  0  0  0  0  0  0  0  0  0  0  0
  142.9338  133.6818  150.7932 H   0  0  0  0  0  0  0  0  0  0  0  0
  143.1810  133.6236  152.5363 H   0  0  0  0  0  0  0  0  0  0  0  0
  144.5521  133.4338  151.4433 H   0  0  0  0  0  0  0  0  0  0  0  0
  144.2323  135.7992  150.6465 H   0  0  0  0  0  0  0  0  0  0  0  0
  142.8753  135.9857  151.7319 H   0  0  0  0  0  0  0  0  0  0  0  0
  144.4600  135.5026  153.6783 H   0  0  0  0  0  0  0  0  0  0  0  0
  145.7837  135.5159  152.5389 H   0  0  0  0  0  0  0  0  0  0  0  0
  145.1655  137.9306  151.9136 H   0  0  0  0  0  0  0  0  0  0  0  0
  143.9115  137.8932  153.1041 H   0  0  0  0  0  0  0  0  0  0  0  0
  146.7798  138.4056  151.5238 H   0  0  0  0  0  0  0  0  0  0  0  0
  148.2551  139.1332  152.0167 H   0  0  0  0  0  0  0  0  0  0  0  0
  150.1562  137.6575  154.1299 H   0  0  0  0  0  0  0  0  0  0  0  0
  150.7393  138.9867  153.1505 H   0  0  0  0  0  0  0  0  0  0  0  0
  151.0955  138.6891  156.1953 H   0  0  0  0  0  0  0  0  0  0  0  0
  152.3527  138.5862  154.9819 H   0  0  0  0  0  0  0  0  0  0  0  0
  150.0345  140.8573  156.5850 H   0  0  0  0  0  0  0  0  0  0  0  0
  150.6098  142.2373  155.6689 H   0  0  0  0  0  0  0  0  0  0  0  0
  149.6674  141.3143  153.5613 H   0  0  0  0  0  0  0  0  0  0  0  0
  148.4052  141.4035  154.7723 H   0  0  0  0  0  0  0  0  0  0  0  0
  1  2  1  0  0  0  0
  1 21  1  0  0  0  0
  1 22  1  0  0  0  0
  1 23  1  0  0  0  0
  2  3  1  0  0  0  0
  2 24  1  0  0  0  0
  2 25  1  0  0  0  0
  3  4  1  0  0  0  0
  3 26  1  0  0  0  0
  3 27  1  0  0  0  0
  4  5  1  0  0  0  0
  4 28  1  0  0  0  0
  4 29  1  0  0  0  0
  5 18  1  0  0  0  0
  5  6  1  0  0  0  0
  6  7  1  0  0  0  0
  6  8  2  0  0  0  0
  7 30  1  0  0  0  0
  7 31  1  0  0  0  0
  8  9  1  0  0  0  0
  8 15  1  0  0  0  0
  9 14  1  0  0  0  0
  9 10  1  0  0  0  0
 10 11  1  0  0  0  0
 10 32  1  0  0  0  0
 10 33  1  0  0  0  0
 11 12  1  0  0  0  0
 11 34  1  0  0  0  0
 11 35  1  0  0  0  0
 12 13  1  0  0  0  0
 13 14  1  0  0  0  0
 13 36  1  0  0  0  0
 13 37  1  0  0  0  0
 14 38  1  0  0  0  0
 14 39  1  0  0  0  0
 15 16  2  0  0  0  0
 15 17  1  0  0  0  0
 17 20  1  0  0  0  0
 17 18  1  0  0  0  0
 18 19  2  0  0  0  0
M  END
> <s_m_source_file>
AV-unprocessed.smi

> <i_m_source_file_index>
2983

> <i_lp_mmshare_version>
43012

> <i_f3d_flags>
0

> <s_epik_input>
W0NIM11bQ0gyXVtDSDJdW0NIMl1uMWMoW05IMl0pYyhjKD1PKVtuSF1jMT1PKU4yW0NIMl1bQ0gyXU9bQ0gyXVtDSDJdMg==

> <s_epik_cmdline>
J2VwaWtfcHl0aG9uJywgJy1waCcsICc3LjAnLCAnLXRuJywgJzgnLCAnLW1hJywgJzIwMCcsICctbWV0YWxfYmluZGluZycsICctaW1hZScsICc8aW5maWxlLm1hZT4nLCAnLW9tYWUnLCAnPG91dGZpbGUubWFlPic=

> <r_lp_tautomer_probability>
1

> <r_epik_Ionization_Penalty>
1.02563e-05

> <r_epik_Ionization_Penalty_Charging>
2.70122e-06

> <r_epik_Ionization_Penalty_Neutral>
7.55508e-06

> <r_epik_State_Penalty>
-0

> <r_epik_Charging_Adjusted_Penalty>
2.70122e-06

> <i_epik_Tot_Q>
0

> <i_epik_Tot_abs_Q>
0

> <r_epik_Metal_State_Penalty>
-0

> <b_epik_Metal_Only>
0

> <s_epik_Chemistry_Notes>
This compound has an imine and may undergo hydrolysis.

> <s_lp_Force_Field>
OPLS_2005

> <r_lp_Energy>
27.0785

> <b_lp_Chiralities_Consistent>
1

> <s_lp_Variant>
AV-unprocessed.smi:2983-1

> <Gold.Version>
5.8.1

> <Gold.Id.Protein>
6NUR|6NUR_protein|mol2

> <Gold.PLP.Fitness>
31.2385

> <Gold.PLP.PLP>
-27.4740

> <Gold.PLP.part.hbond>
-3.0000

> <Gold.PLP.part.metal>
0.0000

> <Gold.PLP.part.buried>
-3.7599

> <Gold.PLP.part.nonpolar>
-20.7683

> <Gold.PLP.part.repulsive>
0.1247

> <Gold.PLP.ligand.clash>
0.0000

> <Gold.PLP.ligand.torsion>
1.6127

> <Gold.PLP.Chemscore.Hbond>
1.7904

> <Gold.PLP.Chemscore.CHOScore>
0.0000

> <Gold.PLP.Chemscore.Metal>
0.0000

> <Gold.Chemscore.Hbonds>
donor molecule, donor type, donor heavy atom, donor atom, acceptor molecule, acceptor atom, score
      L1  H     7    31       P1  7957  1.00
      P1  H  7989  7998       L1    12  0.75

> <Gold.PLP.Chemscore.Internal.Correction>
1.6187

> <Gold.Rescore>
     Score         DG    S(hbond)    S(metal)    S(lipo)     H(rot)  DE(clash)    DE(int)     intcor
     10.01     -11.76       1.13        0.00      53.13       1.45       0.10       1.65       ----

> <Gold.Chemscore.Fitness>
10.0108

> <Gold.Chemscore.DG>
-11.7587

> <Gold.Chemscore.ZeroCoef>
-5.4800

> <Gold.Chemscore.Hbond>
1.1314

> <Gold.Chemscore.Metal>
0.0000

> <Gold.Chemscore.Lipo>
53.1257

> <Gold.Chemscore.Internal_Hbond>
0.0000

> <Gold.Chemscore.DEClash>
0.1023

> <Gold.Chemscore.DEInternal>
1.6456

> <Gold.Chemscore.Rot>
1.4515

> <Gold.Chemscore.Internal.Correction>
   9.000000E+99

> <Gold.Chemscore.Hbonds>
donor molecule, donor type, donor heavy atom, donor atom, acceptor molecule, acceptor atom, score
      L1  H     7    31       P1  7957  0.99
      P1  H  7989  7998       L1    12  0.04

> <Gold.Chemscore.Hbond.Weighted>
-3.7788

> <Gold.Chemscore.Metal.Weighted>
-0.0000

> <Gold.Chemscore.Lipo.Weighted>
-6.2157

> <Gold.Chemscore.Internal_Hbond.Weighted>
0.0000

> <Gold.Chemscore.DEClash.Weighted>
0.1023

> <Gold.Chemscore.DEInternal.Weighted>
1.6456

> <Gold.Chemscore.Rot.Weighted>
3.7159

> <Gold.Chemscore.Internal.Correction.Weighted>
   9.000000E+99

> <Gold.Protein.RotatedTorsions>
[ 6907 6896 6895 6894 ] final  -55.62 input  -60.11 | X-H torsion
[ 7974 7965 7964 7962 ] final    9.10 input  175.53 | X-H torsion
[ 8008 7997 7996 7995 ] final   78.86 input   59.86 | X-H torsion
[ 10167 10162 10161 10158 ] final -177.20 input  -65.29 | X-H torsion
[ 10718 10713 10712 10709 ] final   -3.05 input   66.30 | X-H torsion
[ 10763 10752 10751 10750 ] final -160.68 input  -60.55 | X-H torsion
[ 11005 11000 10999 10996 ] final  149.15 input  -57.11 | X-H torsion

> <Gold.Protein.ActiveResidues>
 VAL166  LYS551  ARG553  GLY616  TRP617  ASP618  TYR619  PRO620  LYS621  CYS622 
 ASP623  PHE694  ASN695  SER759  ASP760  ASP761  ALA762  ILE779  LEU786  VAL792 
 PHE793  MET794  SER795  GLU796  ALA797  LYS798  CYS799  TRP800  GLU811  SER814 

> <Gold.Protein.RotatedAtoms>
  150.8236  134.7456  159.6792 H   0  0  0  0  0  0  0  0  0  0  0  0  # atno 6907 bound_to 6896
  152.4349  134.5703  159.9929 H   0  0  0  0  0  0  0  0  0  0  0  0  # atno 6908 bound_to 6896
  151.5881  133.3332  159.3058 H   0  0  0  0  0  0  0  0  0  0  0  0  # atno 6909 bound_to 6896
  146.2408  139.9835  142.8433 H   0  0  0  0  0  0  0  0  0  0  0  0  # atno 7974 bound_to 7965
  155.8617  140.3453  155.5761 H   0  0  0  0  0  0  0  0  0  0  0  0  # atno 8008 bound_to 7997
  155.7926  140.0874  157.2020 H   0  0  0  0  0  0  0  0  0  0  0  0  # atno 8009 bound_to 7997
  154.4012  140.1480  156.3168 H   0  0  0  0  0  0  0  0  0  0  0  0  # atno 8010 bound_to 7997
  139.5492  144.2155  152.1045 H   0  0  0  0  0  0  0  0  0  0  0  0  # atno 10167 bound_to 10162
  156.7817  130.5333  149.5750 H   0  0  0  0  0  0  0  0  0  0  0  0  # atno 10718 bound_to 10713
  154.7369  135.3059  154.8796 H   0  0  0  0  0  0  0  0  0  0  0  0  # atno 10763 bound_to 10752
  153.9622  135.6751  153.4749 H   0  0  0  0  0  0  0  0  0  0  0  0  # atno 10764 bound_to 10752
  153.0971  135.4930  154.8722 H   0  0  0  0  0  0  0  0  0  0  0  0  # atno 10765 bound_to 10752
  140.1020  134.8977  157.1810 H   0  0  0  0  0  0  0  0  0  0  0  0  # atno 11005 bound_to 11000
  145.1570  140.9653  143.4399 LP  0  0  0  0  0  0  0  0  0  0  0  0  # atno 17320 bound_to 7965
  145.0152  139.3474  143.6100 LP  0  0  0  0  0  0  0  0  0  0  0  0  # atno 17321 bound_to 7965
  140.1647  144.4992  150.6612 LP  0  0  0  0  0  0  0  0  0  0  0  0  # atno 17342 bound_to 10162
  140.6749  143.2301  151.5532 LP  0  0  0  0  0  0  0  0  0  0  0  0  # atno 17343 bound_to 10162
  156.1214  130.6112  151.0198 LP  0  0  0  0  0  0  0  0  0  0  0  0  # atno 17370 bound_to 10713
  157.6643  131.0875  150.7765 LP  0  0  0  0  0  0  0  0  0  0  0  0  # atno 17371 bound_to 10713
  140.3207  134.2919  155.7247 LP  0  0  0  0  0  0  0  0  0  0  0  0  # atno 17394 bound_to 11000
  141.2108  133.7708  156.9907 LP  0  0  0  0  0  0  0  0  0  0  0  0  # atno 17395 bound_to 11000

$$$$
