AV-unprocessed.smi:2923|AV-procd|sdf|11202|dock10
  -GOLD-   2272016 93D 1   1.00000     0.00000
 Structure written by MMmdl.
 47 49  0  0  0  0  0  0  0  0  2 V2000
  145.5618  131.2075  150.8445 C   0  0  0  0  0  0  0  0  0  0  0  0
  145.1030  132.3983  150.1453 N   0  0  0  0  0  0  0  0  0  0  0  0
  143.7557  132.3392  149.5990 C   0  0  0  0  0  0  0  0  0  0  0  0
  145.3532  133.5782  150.8591 C   0  0  0  0  0  0  0  0  0  0  0  0
  145.5202  133.5657  152.2592 C   0  0  0  0  0  0  0  0  0  0  0  0
  145.7646  134.7773  152.9375 C   0  0  0  0  0  0  0  0  0  0  0  0
  145.8479  135.9841  152.2096 C   0  0  0  0  0  0  0  0  0  0  0  0
  146.0771  137.1822  152.9384 N   0  0  0  0  0  0  0  0  0  0  0  0
  146.4970  138.3735  152.4790 C   0  0  0  0  0  0  0  0  0  0  0  0
  146.7943  138.6224  151.3110 O   0  0  0  0  0  0  0  0  0  0  0  0
  146.5688  139.2746  153.4672 N   0  0  0  0  0  0  0  0  0  0  0  0
  147.0169  140.6613  153.3009 C   0  0  2  0  0  0  0  0  0  0  0  0
  148.4508  140.8760  153.7924 C   0  0  2  0  0  0  0  0  0  0  0  0
  149.6131  140.0024  154.0990 C   0  0  0  0  0  0  0  0  0  0  0  0
  150.0646  140.7293  155.3949 C   0  0  0  0  0  0  0  0  0  0  0  0
  149.0032  141.6640  155.7194 O   0  0  0  0  0  0  0  0  0  0  0  0
  147.8454  141.0691  155.1677 C   0  0  1  0  0  0  0  0  0  0  0  0
  146.6062  141.6583  154.4574 C   0  0  0  0  0  0  0  0  0  0  0  0
  146.6331  143.1632  154.1335 C   0  0  0  0  0  0  0  0  0  0  0  0
  145.2659  141.4072  155.1574 C   0  0  0  0  0  0  0  0  0  0  0  0
  145.6628  135.9376  150.8059 C   0  0  0  0  0  0  0  0  0  0  0  0
  145.4289  134.7558  150.1950 N   0  3  0  0  0  0  0  0  0  0  0  0
  146.5879  131.3324  151.1932 H   0  0  0  0  0  0  0  0  0  0  0  0
  145.5367  130.3457  150.1772 H   0  0  0  0  0  0  0  0  0  0  0  0
  144.9285  130.9908  151.7056 H   0  0  0  0  0  0  0  0  0  0  0  0
  143.5041  133.2669  149.0837 H   0  0  0  0  0  0  0  0  0  0  0  0
  143.0203  132.1707  150.3864 H   0  0  0  0  0  0  0  0  0  0  0  0
  143.6772  131.5239  148.8792 H   0  0  0  0  0  0  0  0  0  0  0  0
  145.4604  132.6384  152.8105 H   0  0  0  0  0  0  0  0  0  0  0  0
  145.8909  134.7752  154.0104 H   0  0  0  0  0  0  0  0  0  0  0  0
  145.9472  137.1144  153.9373 H   0  0  0  0  0  0  0  0  0  0  0  0
  146.3084  138.9880  154.3994 H   0  0  0  0  0  0  0  0  0  0  0  0
  146.8485  141.0641  152.3006 H   0  0  0  0  0  0  0  0  0  0  0  0
  148.8244  141.8073  153.3599 H   0  0  0  0  0  0  0  0  0  0  0  0
  149.3165  138.9704  154.2904 H   0  0  0  0  0  0  0  0  0  0  0  0
  150.3757  140.0192  153.3200 H   0  0  0  0  0  0  0  0  0  0  0  0
  150.2061  140.0175  156.2090 H   0  0  0  0  0  0  0  0  0  0  0  0
  150.9995  141.2722  155.2538 H   0  0  0  0  0  0  0  0  0  0  0  0
  147.6133  140.1350  155.6895 H   0  0  0  0  0  0  0  0  0  0  0  0
  146.6412  143.7619  155.0448 H   0  0  0  0  0  0  0  0  0  0  0  0
  145.7558  143.4595  153.5577 H   0  0  0  0  0  0  0  0  0  0  0  0
  147.5004  143.4686  153.5510 H   0  0  0  0  0  0  0  0  0  0  0  0
  145.1253  142.0759  156.0072 H   0  0  0  0  0  0  0  0  0  0  0  0
  145.1891  140.3908  155.5434 H   0  0  0  0  0  0  0  0  0  0  0  0
  144.4275  141.5588  154.4770 H   0  0  0  0  0  0  0  0  0  0  0  0
  145.6774  136.7923  150.1468 H   0  0  0  0  0  0  0  0  0  0  0  0
  145.2990  134.7527  149.1831 H   0  0  0  0  0  0  0  0  0  0  0  0
  1  2  1  0  0  0  0
  1 23  1  0  0  0  0
  1 24  1  0  0  0  0
  1 25  1  0  0  0  0
  2  3  1  0  0  0  0
  2  4  1  0  0  0  0
  3 26  1  0  0  0  0
  3 27  1  0  0  0  0
  3 28  1  0  0  0  0
  4 22  1  0  0  0  0
  4  5  2  0  0  0  0
  5  6  1  0  0  0  0
  5 29  1  0  0  0  0
  6  7  2  0  0  0  0
  6 30  1  0  0  0  0
  7  8  1  0  0  0  0
  7 21  1  0  0  0  0
  8  9  1  0  0  0  0
  8 31  1  0  0  0  0
  9 10  2  0  0  0  0
  9 11  1  0  0  0  0
 11 12  1  0  0  0  0
 11 32  1  0  0  0  0
 12 18  1  0  0  0  0
 12 13  1  0  0  0  0
 12 33  1  0  0  0  0
 13 17  1  0  0  0  0
 13 14  1  0  0  0  0
 13 34  1  0  0  0  0
 14 15  1  0  0  0  0
 14 35  1  0  0  0  0
 14 36  1  0  0  0  0
 15 16  1  0  0  0  0
 15 37  1  0  0  0  0
 15 38  1  0  0  0  0
 16 17  1  0  0  0  0
 17 18  1  0  0  0  0
 17 39  1  0  0  0  0
 18 19  1  0  0  0  0
 18 20  1  0  0  0  0
 19 40  1  0  0  0  0
 19 41  1  0  0  0  0
 19 42  1  0  0  0  0
 20 43  1  0  0  0  0
 20 44  1  0  0  0  0
 20 45  1  0  0  0  0
 21 22  2  0  0  0  0
 21 46  1  0  0  0  0
 22 47  1  0  0  0  0
M  CHG  1  22   1
M  END
> <s_m_source_file>
AV-unprocessed.smi

> <i_m_source_file_index>
2923

> <i_lp_mmshare_version>
43012

> <i_f3d_flags>
0

> <s_epik_input>
W0NIM11OKFtDSDNdKWMxW2NIXVtjSF1jKFtjSF1uMSlbTkhdQyg9TylbTkhdW0NASF0yQyhbQ0gzXSkoW0NIM10pW0NAQEhdKFtDQEhdMjMpT1tDSDJdW0NIMl0z

> <s_epik_cmdline>
J2VwaWtfcHl0aG9uJywgJy1waCcsICc3LjAnLCAnLXRuJywgJzgnLCAnLW1hJywgJzIwMCcsICctbWV0YWxfYmluZGluZycsICctaW1hZScsICc8aW5maWxlLm1hZT4nLCAnLW9tYWUnLCAnPG91dGZpbGUubWFlPic=

> <r_lp_tautomer_probability>
0.999994

> <r_epik_Ionization_Penalty>
0.252205

> <r_epik_Ionization_Penalty_Charging>
0.252185

> <r_epik_Ionization_Penalty_Neutral>
1.99479e-05

> <r_epik_State_Penalty>
0.243573

> <r_epik_Charging_Adjusted_Penalty>
0.495758

> <i_epik_Tot_Q>
1

> <i_epik_Tot_abs_Q>
1

> <r_epik_Metal_State_Penalty>
0.534372

> <b_epik_Metal_Only>
0

> <s_lp_Force_Field>
OPLS_2005

> <r_lp_Energy>
76.1272

> <b_lp_Chiralities_Consistent>
1

> <s_lp_Variant>
AV-unprocessed.smi:2923-1

> <Gold.Version>
5.8.1

> <Gold.Id.Protein>
6NUR|6NUR_protein|mol2

> <Gold.PLP.Fitness>
40.5958

> <Gold.PLP.PLP>
-35.9936

> <Gold.PLP.part.hbond>
-2.6037

> <Gold.PLP.part.metal>
0.0000

> <Gold.PLP.part.buried>
-1.6413

> <Gold.PLP.part.nonpolar>
-33.5466

> <Gold.PLP.part.repulsive>
1.8220

> <Gold.PLP.ligand.clash>
0.0000

> <Gold.PLP.ligand.torsion>
0.7192

> <Gold.PLP.Chemscore.Hbond>
1.8613

> <Gold.PLP.Chemscore.CHOScore>
0.0000

> <Gold.PLP.Chemscore.Metal>
0.0000

> <Gold.Chemscore.Hbonds>
donor molecule, donor type, donor heavy atom, donor atom, acceptor molecule, acceptor atom, score
      L1  H    22    47       P1  7921  0.88
      P1  H  7954  7966       L1    10  0.81

> <Gold.PLP.Chemscore.Internal.Correction>
0.4570

> <Gold.Rescore>
     Score         DG    S(hbond)    S(metal)    S(lipo)     H(rot)  DE(clash)    DE(int)     intcor
     15.51     -19.10       1.82        0.00      90.79       1.20       1.73       1.86       ----

> <Gold.Chemscore.Fitness>
15.5146

> <Gold.Chemscore.DG>
-19.1042

> <Gold.Chemscore.ZeroCoef>
-5.4800

> <Gold.Chemscore.Hbond>
1.8221

> <Gold.Chemscore.Metal>
0.0000

> <Gold.Chemscore.Lipo>
90.7947

> <Gold.Chemscore.Internal_Hbond>
0.0000

> <Gold.Chemscore.DEClash>
1.7305

> <Gold.Chemscore.DEInternal>
1.8591

> <Gold.Chemscore.Rot>
1.2049

> <Gold.Chemscore.Internal.Correction>
   9.000000E+99

> <Gold.Chemscore.Hbonds>
donor molecule, donor type, donor heavy atom, donor atom, acceptor molecule, acceptor atom, score
      L1  H    22    47       P1  7921  0.86
      P1  H  7954  7966       L1    10  0.78

> <Gold.Chemscore.Hbond.Weighted>
-6.0858

> <Gold.Chemscore.Metal.Weighted>
-0.0000

> <Gold.Chemscore.Lipo.Weighted>
-10.6230

> <Gold.Chemscore.Internal_Hbond.Weighted>
0.0000

> <Gold.Chemscore.DEClash.Weighted>
1.7305

> <Gold.Chemscore.DEInternal.Weighted>
1.8591

> <Gold.Chemscore.Rot.Weighted>
3.0846

> <Gold.Chemscore.Internal.Correction.Weighted>
   9.000000E+99

> <Gold.Protein.RotatedTorsions>
[ 6907 6896 6895 6894 ] final  -36.52 input  -60.11 | X-H torsion
[ 7974 7965 7964 7962 ] final -154.92 input  175.53 | X-H torsion
[ 8008 7997 7996 7995 ] final    8.80 input   59.86 | X-H torsion
[ 10167 10162 10161 10158 ] final -174.75 input  -65.29 | X-H torsion
[ 10718 10713 10712 10709 ] final -135.23 input   66.30 | X-H torsion
[ 10763 10752 10751 10750 ] final   30.40 input  -60.55 | X-H torsion
[ 11005 11000 10999 10996 ] final  -88.55 input  -57.11 | X-H torsion

> <Gold.Protein.ActiveResidues>
 VAL166  LYS551  ARG553  GLY616  TRP617  ASP618  TYR619  PRO620  LYS621  CYS622 
 ASP623  PHE694  ASN695  SER759  ASP760  ASP761  ALA762  ILE779  LEU786  VAL792 
 PHE793  MET794  SER795  GLU796  ALA797  LYS798  CYS799  TRP800  GLU811  SER814 

> <Gold.Protein.RotatedAtoms>
  151.0261  134.9505  159.8085 H   0  0  0  0  0  0  0  0  0  0  0  0  # atno 6907 bound_to 6896
  152.5335  134.2841  159.9028 H   0  0  0  0  0  0  0  0  0  0  0  0  # atno 6908 bound_to 6896
  151.2849  133.4150  159.2663 H   0  0  0  0  0  0  0  0  0  0  0  0  # atno 6909 bound_to 6896
  144.7665  140.4321  143.5938 H   0  0  0  0  0  0  0  0  0  0  0  0  # atno 7974 bound_to 7965
  154.7716  140.2803  155.6134 H   0  0  0  0  0  0  0  0  0  0  0  0  # atno 8008 bound_to 7997
  156.2934  140.2640  156.2447 H   0  0  0  0  0  0  0  0  0  0  0  0  # atno 8009 bound_to 7997
  154.9893  140.0374  157.2302 H   0  0  0  0  0  0  0  0  0  0  0  0  # atno 8010 bound_to 7997
  139.5617  144.1854  152.1249 H   0  0  0  0  0  0  0  0  0  0  0  0  # atno 10167 bound_to 10162
  156.2639  130.7226  151.1169 H   0  0  0  0  0  0  0  0  0  0  0  0  # atno 10718 bound_to 10713
  153.0374  135.6465  154.1038 H   0  0  0  0  0  0  0  0  0  0  0  0  # atno 10763 bound_to 10752
  154.0751  135.2877  155.3302 H   0  0  0  0  0  0  0  0  0  0  0  0  # atno 10764 bound_to 10752
  154.6568  135.5406  153.8033 H   0  0  0  0  0  0  0  0  0  0  0  0  # atno 10765 bound_to 10752
  141.1600  133.7576  156.9467 H   0  0  0  0  0  0  0  0  0  0  0  0  # atno 11005 bound_to 11000
  145.6454  139.1556  143.2892 LP  0  0  0  0  0  0  0  0  0  0  0  0  # atno 17320 bound_to 7965
  146.1777  140.6547  142.9204 LP  0  0  0  0  0  0  0  0  0  0  0  0  # atno 17321 bound_to 7965
  140.1368  144.5238  150.6768 LP  0  0  0  0  0  0  0  0  0  0  0  0  # atno 17342 bound_to 10162
  140.6897  143.2369  151.5164 LP  0  0  0  0  0  0  0  0  0  0  0  0  # atno 17343 bound_to 10162
  157.7260  131.0649  150.5927 LP  0  0  0  0  0  0  0  0  0  0  0  0  # atno 17370 bound_to 10713
  156.6017  130.4356  149.5894 LP  0  0  0  0  0  0  0  0  0  0  0  0  # atno 17371 bound_to 10713
  140.1285  134.9371  157.2303 LP  0  0  0  0  0  0  0  0  0  0  0  0  # atno 17394 bound_to 11000
  140.2983  134.3161  155.7296 LP  0  0  0  0  0  0  0  0  0  0  0  0  # atno 17395 bound_to 11000

$$$$
