AV-unprocessed.smi:2883|AV-procd|sdf|11082|dock6
  -GOLD-   2272015553D 1   1.00000     0.00000
 Structure written by MMmdl.
 39 41  0  0  0  0  0  0  0  0  1 V2000
  153.1058  138.6422  154.7151 C   0  0  0  0  0  0  0  0  0  0  0  0
  151.6933  138.3747  155.2659 C   0  0  0  0  0  0  0  0  0  0  0  0
  151.0933  137.1287  154.5721 C   0  0  0  0  0  0  0  0  0  0  0  0
  151.7816  138.0266  156.7705 C   0  0  0  0  0  0  0  0  0  0  0  0
  150.8103  139.6127  155.0341 C   0  0  0  0  0  0  0  0  0  0  0  0
  149.7794  139.4829  154.1885 N   0  0  0  0  0  0  0  0  0  0  0  0
  148.9279  140.5244  154.0783 C   0  0  0  0  0  0  0  0  0  0  0  0
  149.0861  141.6961  154.8432 C   0  0  0  0  0  0  0  0  0  0  0  0
  150.1767  141.7203  155.7347 C   0  0  0  0  0  0  0  0  0  0  0  0
  150.3873  142.8498  156.5374 N   0  0  0  0  0  0  0  0  0  0  0  0
  151.5513  142.9423  157.4122 C   0  0  1  0  0  0  0  0  0  0  0  0
  151.6778  144.3055  158.1046 C   0  0  0  0  0  0  0  0  0  0  0  0
  151.7271  143.9059  159.5843 C   0  0  2  0  0  0  0  0  0  0  0  0
  153.0266  143.1744  159.9475 C   0  0  0  0  0  0  0  0  0  0  0  0
  152.8099  141.8098  159.2939 C   0  0  0  0  0  0  0  0  0  0  0  0
  151.4440  141.9954  158.6194 C   0  0  1  0  0  0  0  0  0  0  0  0
  150.8101  142.8263  159.5788 O   0  0  0  0  0  0  0  0  0  0  0  0
  151.0197  140.6666  155.8336 N   0  0  0  0  0  0  0  0  0  0  0  0
  153.7593  137.7814  154.8593 H   0  0  0  0  0  0  0  0  0  0  0  0
  153.5694  139.4952  155.2118 H   0  0  0  0  0  0  0  0  0  0  0  0
  153.0793  138.8597  153.6467 H   0  0  0  0  0  0  0  0  0  0  0  0
  151.0534  137.2427  153.4882 H   0  0  0  0  0  0  0  0  0  0  0  0
  150.0788  136.9301  154.9203 H   0  0  0  0  0  0  0  0  0  0  0  0
  151.6888  136.2374  154.7727 H   0  0  0  0  0  0  0  0  0  0  0  0
  152.3687  137.1224  156.9351 H   0  0  0  0  0  0  0  0  0  0  0  0
  150.7926  137.8571  157.1976 H   0  0  0  0  0  0  0  0  0  0  0  0
  152.2593  138.8200  157.3463 H   0  0  0  0  0  0  0  0  0  0  0  0
  148.1111  140.4196  153.3797 H   0  0  0  0  0  0  0  0  0  0  0  0
  148.4011  142.5260  154.7524 H   0  0  0  0  0  0  0  0  0  0  0  0
  149.8244  143.6757  156.3939 H   0  0  0  0  0  0  0  0  0  0  0  0
  152.4473  142.7033  156.8374 H   0  0  0  0  0  0  0  0  0  0  0  0
  152.5657  144.8551  157.7902 H   0  0  0  0  0  0  0  0  0  0  0  0
  150.8070  144.9354  157.9164 H   0  0  0  0  0  0  0  0  0  0  0  0
  151.4664  144.7139  160.2683 H   0  0  0  0  0  0  0  0  0  0  0  0
  153.9100  143.6904  159.5697 H   0  0  0  0  0  0  0  0  0  0  0  0
  153.1264  143.0691  161.0283 H   0  0  0  0  0  0  0  0  0  0  0  0
  153.5955  141.5494  158.5837 H   0  0  0  0  0  0  0  0  0  0  0  0
  152.7625  141.0271  160.0520 H   0  0  0  0  0  0  0  0  0  0  0  0
  150.9274  141.0565  158.4160 H   0  0  0  0  0  0  0  0  0  0  0  0
  1  2  1  0  0  0  0
  1 19  1  0  0  0  0
  1 20  1  0  0  0  0
  1 21  1  0  0  0  0
  2  3  1  0  0  0  0
  2  4  1  0  0  0  0
  2  5  1  0  0  0  0
  3 22  1  0  0  0  0
  3 23  1  0  0  0  0
  3 24  1  0  0  0  0
  4 25  1  0  0  0  0
  4 26  1  0  0  0  0
  4 27  1  0  0  0  0
  5 18  1  0  0  0  0
  5  6  2  0  0  0  0
  6  7  1  0  0  0  0
  7  8  2  0  0  0  0
  7 28  1  0  0  0  0
  8  9  1  0  0  0  0
  8 29  1  0  0  0  0
  9 10  1  0  0  0  0
  9 18  2  0  0  0  0
 10 11  1  0  0  0  0
 10 30  1  0  0  0  0
 11 16  1  0  0  0  0
 11 12  1  0  0  0  0
 11 31  1  0  0  0  0
 12 13  1  0  0  0  0
 12 32  1  0  0  0  0
 12 33  1  0  0  0  0
 13 17  1  0  0  0  0
 13 14  1  0  0  0  0
 13 34  1  0  0  0  0
 14 15  1  0  0  0  0
 14 35  1  0  0  0  0
 14 36  1  0  0  0  0
 15 16  1  0  0  0  0
 15 37  1  0  0  0  0
 15 38  1  0  0  0  0
 16 17  1  0  0  0  0
 16 39  1  0  0  0  0
M  END
> <s_m_source_file>
AV-unprocessed.smi

> <i_m_source_file_index>
2883

> <i_lp_mmshare_version>
43012

> <i_f3d_flags>
0

> <s_epik_input>
W0NIM11DKFtDSDNdKShbQ0gzXSljMW5bY0hdW2NIXWMobjEpW05IXVtDQEhdKFtDSDJdW0NAQEhdMjMpW0NAQEhdKE8zKVtDSDJdW0NIMl0y

> <s_epik_cmdline>
J2VwaWtfcHl0aG9uJywgJy1waCcsICc3LjAnLCAnLXRuJywgJzgnLCAnLW1hJywgJzIwMCcsICctbWV0YWxfYmluZGluZycsICctaW1hZScsICc8aW5maWxlLm1hZT4nLCAnLW9tYWUnLCAnPG91dGZpbGUubWFlPic=

> <r_lp_tautomer_probability>
1

> <r_epik_Ionization_Penalty>
0.453006

> <r_epik_Ionization_Penalty_Charging>
0

> <r_epik_Ionization_Penalty_Neutral>
0.453006

> <r_epik_State_Penalty>
0.455155

> <r_epik_Charging_Adjusted_Penalty>
0.455155

> <i_epik_Tot_Q>
0

> <i_epik_Tot_abs_Q>
0

> <r_epik_Metal_State_Penalty>
0.255592

> <b_epik_Metal_Only>
0

> <s_lp_Force_Field>
OPLS_2005

> <r_lp_Energy>
33.3257

> <b_lp_Chiralities_Consistent>
1

> <s_lp_Variant>
AV-unprocessed.smi:2883-8

> <Gold.Version>
5.8.1

> <Gold.Id.Protein>
6NUR|6NUR_protein|mol2

> <Gold.PLP.Fitness>
43.7828

> <Gold.PLP.PLP>
-40.9139

> <Gold.PLP.part.hbond>
-2.1138

> <Gold.PLP.part.metal>
0.0000

> <Gold.PLP.part.buried>
-2.2744

> <Gold.PLP.part.nonpolar>
-36.8132

> <Gold.PLP.part.repulsive>
0.4678

> <Gold.PLP.ligand.clash>
0.0000

> <Gold.PLP.ligand.torsion>
0.4084

> <Gold.PLP.Chemscore.Hbond>
1.0000

> <Gold.PLP.Chemscore.CHOScore>
0.1775

> <Gold.PLP.Chemscore.Metal>
0.0000

> <Gold.Chemscore.Hbonds>
donor molecule, donor type, donor heavy atom, donor atom, acceptor molecule, acceptor atom, score
      L1  H    10    30       P1  8028  1.00
      L1  C     7    28       P1  7957  0.21

> <Gold.PLP.Chemscore.Internal.Correction>
0.1534

> <Gold.Rescore>
     Score         DG    S(hbond)    S(metal)    S(lipo)     H(rot)  DE(clash)    DE(int)     intcor
     17.96     -18.32       0.98        0.00     106.90       1.15       0.05       0.32       ----

> <Gold.Chemscore.Fitness>
17.9552

> <Gold.Chemscore.DG>
-18.3177

> <Gold.Chemscore.ZeroCoef>
-5.4800

> <Gold.Chemscore.Hbond>
0.9788

> <Gold.Chemscore.Metal>
0.0000

> <Gold.Chemscore.Lipo>
106.9041

> <Gold.Chemscore.Internal_Hbond>
0.0000

> <Gold.Chemscore.DEClash>
0.0456

> <Gold.Chemscore.DEInternal>
0.3169

> <Gold.Chemscore.Rot>
1.1482

> <Gold.Chemscore.Internal.Correction>
   9.000000E+99

> <Gold.Chemscore.Hbonds>
donor molecule, donor type, donor heavy atom, donor atom, acceptor molecule, acceptor atom, score
      L1  H    10    30       P1  8028  0.97

> <Gold.Chemscore.Hbond.Weighted>
-3.2692

> <Gold.Chemscore.Metal.Weighted>
-0.0000

> <Gold.Chemscore.Lipo.Weighted>
-12.5078

> <Gold.Chemscore.Internal_Hbond.Weighted>
0.0000

> <Gold.Chemscore.DEClash.Weighted>
0.0456

> <Gold.Chemscore.DEInternal.Weighted>
0.3169

> <Gold.Chemscore.Rot.Weighted>
2.9393

> <Gold.Chemscore.Internal.Correction.Weighted>
   9.000000E+99

> <Gold.Protein.RotatedTorsions>
[ 6907 6896 6895 6894 ] final  160.31 input  -60.11 | X-H torsion
[ 7974 7965 7964 7962 ] final    5.39 input  175.53 | X-H torsion
[ 8008 7997 7996 7995 ] final  137.41 input   59.86 | X-H torsion
[ 10167 10162 10161 10158 ] final  163.05 input  -65.29 | X-H torsion
[ 10718 10713 10712 10709 ] final  -41.42 input   66.30 | X-H torsion
[ 10763 10752 10751 10750 ] final   -1.56 input  -60.55 | X-H torsion
[ 11005 11000 10999 10996 ] final   92.85 input  -57.11 | X-H torsion

> <Gold.Protein.ActiveResidues>
 VAL166  LYS551  ARG553  GLY616  TRP617  ASP618  TYR619  PRO620  LYS621  CYS622 
 ASP623  PHE694  ASN695  SER759  ASP760  ASP761  ALA762  ILE779  LEU786  VAL792 
 PHE793  MET794  SER795  GLU796  ALA797  LYS798  CYS799  TRP800  GLU811  SER814 

> <Gold.Protein.RotatedAtoms>
  151.9726  133.3731  159.4076 H   0  0  0  0  0  0  0  0  0  0  0  0  # atno 6907 bound_to 6896
  150.6946  134.4124  159.5177 H   0  0  0  0  0  0  0  0  0  0  0  0  # atno 6908 bound_to 6896
  152.1830  134.8737  160.0575 H   0  0  0  0  0  0  0  0  0  0  0  0  # atno 6909 bound_to 6896
  146.2440  140.0390  142.8383 H   0  0  0  0  0  0  0  0  0  0  0  0  # atno 7974 bound_to 7965
  156.3002  140.2420  156.3905 H   0  0  0  0  0  0  0  0  0  0  0  0  # atno 8008 bound_to 7997
  154.8618  140.0419  157.1690 H   0  0  0  0  0  0  0  0  0  0  0  0  # atno 8009 bound_to 7997
  154.8888  140.2960  155.5386 H   0  0  0  0  0  0  0  0  0  0  0  0  # atno 8010 bound_to 7997
  139.4868  144.4376  151.8992 H   0  0  0  0  0  0  0  0  0  0  0  0  # atno 10167 bound_to 10162
  156.2705  130.4206  149.8443 H   0  0  0  0  0  0  0  0  0  0  0  0  # atno 10718 bound_to 10713
  153.3465  135.6983  153.6823 H   0  0  0  0  0  0  0  0  0  0  0  0  # atno 10763 bound_to 10752
  153.5567  135.3543  155.2783 H   0  0  0  0  0  0  0  0  0  0  0  0  # atno 10764 bound_to 10752
  154.8646  135.4239  154.2691 H   0  0  0  0  0  0  0  0  0  0  0  0  # atno 10765 bound_to 10752
  139.8818  134.8756  156.3632 H   0  0  0  0  0  0  0  0  0  0  0  0  # atno 11005 bound_to 11000
  145.1086  140.9391  143.4670 LP  0  0  0  0  0  0  0  0  0  0  0  0  # atno 17320 bound_to 7965
  145.0599  139.3114  143.5885 LP  0  0  0  0  0  0  0  0  0  0  0  0  # atno 17321 bound_to 7965
  140.3827  144.2716  150.5907 LP  0  0  0  0  0  0  0  0  0  0  0  0  # atno 17342 bound_to 10162
  140.5219  143.2264  151.8376 LP  0  0  0  0  0  0  0  0  0  0  0  0  # atno 17343 bound_to 10162
  156.5926  130.8512  151.3412 LP  0  0  0  0  0  0  0  0  0  0  0  0  # atno 17370 bound_to 10713
  157.7282  130.9654  150.1733 LP  0  0  0  0  0  0  0  0  0  0  0  0  # atno 17371 bound_to 10713
  140.9515  133.7448  156.0278 LP  0  0  0  0  0  0  0  0  0  0  0  0  # atno 17394 bound_to 11000
  140.8100  134.3410  157.5414 LP  0  0  0  0  0  0  0  0  0  0  0  0  # atno 17395 bound_to 11000

$$$$
