AV-unprocessed.smi:1969|AV-procd|sdf|7959|dock6
  -GOLD-   2272010133D 1   1.00000     0.00000
 Structure written by MMmdl.
 44 45  0  0  0  0  0  0  0  0  1 V2000
  153.4752  141.2173  160.5699 C   0  0  0  0  0  0  0  0  0  0  0  0
  152.9893  142.0311  159.3661 C   0  0  1  0  0  0  0  0  0  0  0  0
  152.0398  141.2177  158.4679 C   0  0  0  0  0  0  0  0  0  0  0  0
  151.5219  142.0608  157.3998 N   0  0  0  0  0  0  0  0  0  0  0  0
  150.7758  141.3575  156.4438 C   0  0  0  0  0  0  0  0  0  0  0  0
  151.3160  140.1804  155.8870 C   0  0  0  0  0  0  0  0  0  0  0  0
  150.5618  139.4778  154.9286 C   0  0  0  0  0  0  0  0  0  0  0  0
  149.2907  139.9637  154.5621 C   0  0  0  0  0  0  0  0  0  0  0  0
  148.5603  139.2449  153.5783 N   0  0  0  0  0  0  0  0  0  0  0  0
  147.4910  139.6458  152.8647 C   0  0  0  0  0  0  0  0  0  0  0  0
  146.9564  140.7492  152.9658 O   0  0  0  0  0  0  0  0  0  0  0  0
  146.9249  138.6317  151.8692 C   0  0  0  0  0  0  0  0  0  0  0  0
  145.7399  138.0562  152.3988 O   0  0  0  0  0  0  0  0  0  0  0  0
  145.9297  136.7236  152.8462 C   0  0  0  0  0  0  0  0  0  0  0  0
  145.1681  135.7640  151.9240 C   0  0  0  0  0  0  0  0  0  0  0  0
  145.7194  135.7888  150.7113 F   0  0  0  0  0  0  0  0  0  0  0  0
  145.2336  134.5205  152.3991 F   0  0  0  0  0  0  0  0  0  0  0  0
  143.8929  136.1381  151.8227 F   0  0  0  0  0  0  0  0  0  0  0  0
  148.8426  141.1618  155.1697 C   0  0  0  0  0  0  0  0  0  0  0  0
  149.5622  141.8412  156.0883 N   0  0  0  0  0  0  0  0  0  0  0  0
  150.8441  143.2460  157.9097 C   0  0  0  0  0  0  0  0  0  0  0  0
  151.7721  144.0447  158.8463 C   0  0  2  0  0  0  0  0  0  0  0  0
  152.8738  144.8218  158.1038 C   0  0  0  0  0  0  0  0  0  0  0  0
  152.3071  143.1858  159.8576 O   0  0  0  0  0  0  0  0  0  0  0  0
  154.0141  140.3258  160.2483 H   0  0  0  0  0  0  0  0  0  0  0  0
  152.6398  140.8975  161.1936 H   0  0  0  0  0  0  0  0  0  0  0  0
  154.1495  141.8064  161.1919 H   0  0  0  0  0  0  0  0  0  0  0  0
  153.8628  142.3385  158.7909 H   0  0  0  0  0  0  0  0  0  0  0  0
  152.5664  140.3635  158.0400 H   0  0  0  0  0  0  0  0  0  0  0  0
  151.2114  140.8238  159.0590 H   0  0  0  0  0  0  0  0  0  0  0  0
  152.2897  139.8216  156.1873 H   0  0  0  0  0  0  0  0  0  0  0  0
  150.9553  138.5742  154.4860 H   0  0  0  0  0  0  0  0  0  0  0  0
  148.8375  138.2826  153.4480 H   0  0  0  0  0  0  0  0  0  0  0  0
  146.7122  139.1287  150.9210 H   0  0  0  0  0  0  0  0  0  0  0  0
  147.6743  137.8610  151.6835 H   0  0  0  0  0  0  0  0  0  0  0  0
  146.9928  136.4774  152.8447 H   0  0  0  0  0  0  0  0  0  0  0  0
  145.5705  136.6177  153.8712 H   0  0  0  0  0  0  0  0  0  0  0  0
  147.8979  141.6146  154.9124 H   0  0  0  0  0  0  0  0  0  0  0  0
  150.5080  143.8717  157.0819 H   0  0  0  0  0  0  0  0  0  0  0  0
  149.9530  142.9397  158.4596 H   0  0  0  0  0  0  0  0  0  0  0  0
  151.1616  144.7835  159.3662 H   0  0  0  0  0  0  0  0  0  0  0  0
  152.4377  145.5600  157.4306 H   0  0  0  0  0  0  0  0  0  0  0  0
  153.5067  144.1702  157.5020 H   0  0  0  0  0  0  0  0  0  0  0  0
  153.5139  145.3551  158.8066 H   0  0  0  0  0  0  0  0  0  0  0  0
  1  2  1  0  0  0  0
  1 25  1  0  0  0  0
  1 26  1  0  0  0  0
  1 27  1  0  0  0  0
  2 24  1  0  0  0  0
  2  3  1  0  0  0  0
  2 28  1  0  0  0  0
  3  4  1  0  0  0  0
  3 29  1  0  0  0  0
  3 30  1  0  0  0  0
  4  5  1  0  0  0  0
  4 21  1  0  0  0  0
  5 20  1  0  0  0  0
  5  6  2  0  0  0  0
  6  7  1  0  0  0  0
  6 31  1  0  0  0  0
  7  8  2  0  0  0  0
  7 32  1  0  0  0  0
  8  9  1  0  0  0  0
  8 19  1  0  0  0  0
  9 10  1  0  0  0  0
  9 33  1  0  0  0  0
 10 11  2  0  0  0  0
 10 12  1  0  0  0  0
 12 13  1  0  0  0  0
 12 34  1  0  0  0  0
 12 35  1  0  0  0  0
 13 14  1  0  0  0  0
 14 15  1  0  0  0  0
 14 36  1  0  0  0  0
 14 37  1  0  0  0  0
 15 16  1  0  0  0  0
 15 17  1  0  0  0  0
 15 18  1  0  0  0  0
 19 20  2  0  0  0  0
 19 38  1  0  0  0  0
 21 22  1  0  0  0  0
 21 39  1  0  0  0  0
 21 40  1  0  0  0  0
 22 23  1  0  0  0  0
 22 24  1  0  0  0  0
 22 41  1  0  0  0  0
 23 42  1  0  0  0  0
 23 43  1  0  0  0  0
 23 44  1  0  0  0  0
M  END
> <s_m_source_file>
AV-unprocessed.smi

> <i_m_source_file_index>
1969

> <i_lp_mmshare_version>
43012

> <i_f3d_flags>
0

> <s_epik_input>
W0NIM11bQ0BASF0xW0NIMl1OKFtDSDJdW0NASF0oTzEpW0NIM10pYzJbY0hdW2NIXWMoW2NIXW4yKVtOSF1DKD1PKVtDSDJdT1tDSDJdQyhGKShGKUY=

> <s_epik_cmdline>
J2VwaWtfcHl0aG9uJywgJy1waCcsICc3LjAnLCAnLXRuJywgJzgnLCAnLW1hJywgJzIwMCcsICctbWV0YWxfYmluZGluZycsICctaW1hZScsICc8aW5maWxlLm1hZT4nLCAnLW9tYWUnLCAnPG91dGZpbGUubWFlPic=

> <r_lp_tautomer_probability>
1

> <r_epik_Ionization_Penalty>
0.000531129

> <r_epik_Ionization_Penalty_Charging>
0

> <r_epik_Ionization_Penalty_Neutral>
0.000531129

> <r_epik_State_Penalty>
0.000331002

> <r_epik_Charging_Adjusted_Penalty>
0.000331002

> <i_epik_Tot_Q>
0

> <i_epik_Tot_abs_Q>
0

> <r_epik_Metal_State_Penalty>
-0

> <b_epik_Metal_Only>
0

> <s_lp_Force_Field>
OPLS_2005

> <r_lp_Energy>
27.2534

> <b_lp_Chiralities_Consistent>
1

> <s_lp_Variant>
AV-unprocessed.smi:1969-3

> <Gold.Version>
5.8.1

> <Gold.Id.Protein>
6NUR|6NUR_protein|mol2

> <Gold.PLP.Fitness>
45.3388

> <Gold.PLP.PLP>
-47.3247

> <Gold.PLP.part.hbond>
-1.0000

> <Gold.PLP.part.metal>
0.0000

> <Gold.PLP.part.buried>
-3.9370

> <Gold.PLP.part.nonpolar>
-43.4975

> <Gold.PLP.part.repulsive>
1.7742

> <Gold.PLP.ligand.clash>
0.0000

> <Gold.PLP.ligand.torsion>
1.0885

> <Gold.PLP.Chemscore.Hbond>
0.0000

> <Gold.PLP.Chemscore.CHOScore>
0.0000

> <Gold.PLP.Chemscore.Metal>
0.0000

> <Gold.PLP.Chemscore.Internal.Correction>
0.1911

> <Gold.Rescore>
     Score         DG    S(hbond)    S(metal)    S(lipo)     H(rot)  DE(clash)    DE(int)     intcor
     10.23     -12.93       0.00        0.00     106.20       1.94       0.44       2.25       ----

> <Gold.Chemscore.Fitness>
10.2326

> <Gold.Chemscore.DG>
-12.9294

> <Gold.Chemscore.ZeroCoef>
-5.4800

> <Gold.Chemscore.Hbond>
0.0000

> <Gold.Chemscore.Metal>
0.0000

> <Gold.Chemscore.Lipo>
106.2006

> <Gold.Chemscore.Internal_Hbond>
0.0000

> <Gold.Chemscore.DEClash>
0.4438

> <Gold.Chemscore.DEInternal>
2.2530

> <Gold.Chemscore.Rot>
1.9438

> <Gold.Chemscore.Internal.Correction>
   9.000000E+99

> <Gold.Chemscore.Hbond.Weighted>
-0.0000

> <Gold.Chemscore.Metal.Weighted>
-0.0000

> <Gold.Chemscore.Lipo.Weighted>
-12.4255

> <Gold.Chemscore.Internal_Hbond.Weighted>
0.0000

> <Gold.Chemscore.DEClash.Weighted>
0.4438

> <Gold.Chemscore.DEInternal.Weighted>
2.2530

> <Gold.Chemscore.Rot.Weighted>
4.9761

> <Gold.Chemscore.Internal.Correction.Weighted>
   9.000000E+99

> <Gold.Protein.RotatedTorsions>
[ 6907 6896 6895 6894 ] final -141.35 input  -60.11 | X-H torsion
[ 7974 7965 7964 7962 ] final   96.54 input  175.53 | X-H torsion
[ 8008 7997 7996 7995 ] final   85.31 input   59.86 | X-H torsion
[ 10167 10162 10161 10158 ] final   72.32 input  -65.29 | X-H torsion
[ 10718 10713 10712 10709 ] final  167.72 input   66.30 | X-H torsion
[ 10763 10752 10751 10750 ] final    1.39 input  -60.55 | X-H torsion
[ 11005 11000 10999 10996 ] final  -33.88 input  -57.11 | X-H torsion

> <Gold.Protein.ActiveResidues>
 VAL166  LYS551  ARG553  GLY616  TRP617  ASP618  TYR619  PRO620  LYS621  CYS622 
 ASP623  PHE694  ASN695  SER759  ASP760  ASP761  ALA762  ILE779  LEU786  VAL792 
 PHE793  MET794  SER795  GLU796  ALA797  LYS798  CYS799  TRP800  GLU811  SER814 

> <Gold.Protein.RotatedAtoms>
  151.0726  133.5454  159.2625 H   0  0  0  0  0  0  0  0  0  0  0  0  # atno 6907 bound_to 6896
  151.2387  135.0580  159.9026 H   0  0  0  0  0  0  0  0  0  0  0  0  # atno 6908 bound_to 6896
  152.5413  134.0504  159.8161 H   0  0  0  0  0  0  0  0  0  0  0  0  # atno 6909 bound_to 6896
  145.4375  139.2304  143.3110 H   0  0  0  0  0  0  0  0  0  0  0  0  # atno 7974 bound_to 7965
  155.9483  140.3403  155.6386 H   0  0  0  0  0  0  0  0  0  0  0  0  # atno 8008 bound_to 7997
  155.6952  140.0753  157.2450 H   0  0  0  0  0  0  0  0  0  0  0  0  # atno 8009 bound_to 7997
  154.4116  140.1650  156.2118 H   0  0  0  0  0  0  0  0  0  0  0  0  # atno 8010 bound_to 7997
  140.0366  144.5423  150.7466 H   0  0  0  0  0  0  0  0  0  0  0  0  # atno 10167 bound_to 10162
  157.0474  131.0304  151.2692 H   0  0  0  0  0  0  0  0  0  0  0  0  # atno 10718 bound_to 10713
  153.3086  135.6961  153.7137 H   0  0  0  0  0  0  0  0  0  0  0  0  # atno 10763 bound_to 10752
  153.6023  135.3460  155.2950 H   0  0  0  0  0  0  0  0  0  0  0  0  # atno 10764 bound_to 10752
  154.8569  135.4343  154.2217 H   0  0  0  0  0  0  0  0  0  0  0  0  # atno 10765 bound_to 10752
  140.9671  133.7131  156.1463 H   0  0  0  0  0  0  0  0  0  0  0  0  # atno 11005 bound_to 11000
  146.2574  140.5120  142.8868 LP  0  0  0  0  0  0  0  0  0  0  0  0  # atno 17320 bound_to 7965
  144.8143  140.6440  143.6395 LP  0  0  0  0  0  0  0  0  0  0  0  0  # atno 17321 bound_to 7965
  140.7279  143.2656  151.4057 LP  0  0  0  0  0  0  0  0  0  0  0  0  # atno 17342 bound_to 10162
  139.6041  144.1233  152.2230 LP  0  0  0  0  0  0  0  0  0  0  0  0  # atno 17343 bound_to 10162
  157.5057  130.7907  149.7651 LP  0  0  0  0  0  0  0  0  0  0  0  0  # atno 17370 bound_to 10713
  156.0018  130.3876  150.2576 LP  0  0  0  0  0  0  0  0  0  0  0  0  # atno 17371 bound_to 10713
  140.7383  134.4178  157.5558 LP  0  0  0  0  0  0  0  0  0  0  0  0  # atno 17394 bound_to 11000
  139.8898  134.8820  156.2400 LP  0  0  0  0  0  0  0  0  0  0  0  0  # atno 17395 bound_to 11000

$$$$
