AV-unprocessed.smi:1737|AV-procd|sdf|6995|dock7
  -GOLD-   22720 8213D 1   1.00000     0.00000
 Structure written by MMmdl.
 43 44  0  0  0  0  0  0  0  0  2 V2000
  151.0494  142.3835  156.5693 C   0  0  0  0  0  0  0  0  0  0  0  0
  151.5611  142.4347  157.9998 C   0  0  0  0  0  0  0  0  0  0  0  0
  151.9781  143.6701  158.5396 C   0  0  0  0  0  0  0  0  0  0  0  0
  152.4497  143.7165  159.8626 C   0  0  0  0  0  0  0  0  0  0  0  0
  152.4847  142.5175  160.5947 C   0  0  0  0  0  0  0  0  0  0  0  0
  152.0881  141.3326  160.0869 N   0  0  0  0  0  0  0  0  0  0  0  0
  151.6295  141.2706  158.8115 C   0  0  0  0  0  0  0  0  0  0  0  0
  151.2005  140.0541  158.2092 N   0  0  0  0  0  0  0  0  0  0  0  0
  151.9099  139.2055  157.4444 C   0  0  0  0  0  0  0  0  0  0  0  0
  153.1010  139.3272  157.1560 O   0  0  0  0  0  0  0  0  0  0  0  0
  151.1538  138.1826  157.0202 N   0  0  0  0  0  0  0  0  0  0  0  0
  151.6333  137.0923  156.1755 C   0  0  0  0  0  0  0  0  0  0  0  0
  151.0411  137.1259  154.7409 C   0  0  2  0  0  0  0  0  0  0  0  0
  150.7174  138.5838  154.3334 C   0  0  0  0  0  0  0  0  0  0  0  0
  149.8651  136.2008  154.6446 N   0  3  0  0  0  0  0  0  0  0  0  0
  150.1436  134.7686  154.9433 C   0  0  0  0  0  0  0  0  0  0  0  0
  148.8754  133.9124  154.7819 C   0  0  0  0  0  0  0  0  0  0  0  0
  147.8421  134.4135  155.6169 O   0  0  0  0  0  0  0  0  0  0  0  0
  147.4927  135.7454  155.2710 C   0  0  0  0  0  0  0  0  0  0  0  0
  148.7118  136.6611  155.4659 C   0  0  0  0  0  0  0  0  0  0  0  0
  151.0931  143.3649  156.0964 H   0  0  0  0  0  0  0  0  0  0  0  0
  150.0124  142.0469  156.5479 H   0  0  0  0  0  0  0  0  0  0  0  0
  151.6503  141.6971  155.9717 H   0  0  0  0  0  0  0  0  0  0  0  0
  151.9388  144.5737  157.9489 H   0  0  0  0  0  0  0  0  0  0  0  0
  152.7764  144.6462  160.3042 H   0  0  0  0  0  0  0  0  0  0  0  0
  152.8415  142.5077  161.6140 H   0  0  0  0  0  0  0  0  0  0  0  0
  150.2358  139.8085  158.3748 H   0  0  0  0  0  0  0  0  0  0  0  0
  150.1845  138.1532  157.3020 H   0  0  0  0  0  0  0  0  0  0  0  0
  152.7219  137.1286  156.1704 H   0  0  0  0  0  0  0  0  0  0  0  0
  151.3673  136.1525  156.6605 H   0  0  0  0  0  0  0  0  0  0  0  0
  151.7940  136.7666  154.0374 H   0  0  0  0  0  0  0  0  0  0  0  0
  151.5851  139.2343  154.4404 H   0  0  0  0  0  0  0  0  0  0  0  0
  149.9187  139.0023  154.9467 H   0  0  0  0  0  0  0  0  0  0  0  0
  150.4219  138.6598  153.2870 H   0  0  0  0  0  0  0  0  0  0  0  0
  150.8959  134.3677  154.2645 H   0  0  0  0  0  0  0  0  0  0  0  0
  150.5323  134.6741  155.9587 H   0  0  0  0  0  0  0  0  0  0  0  0
  148.5446  133.8985  153.7421 H   0  0  0  0  0  0  0  0  0  0  0  0
  149.0836  132.8795  155.0616 H   0  0  0  0  0  0  0  0  0  0  0  0
  147.1301  135.7890  154.2427 H   0  0  0  0  0  0  0  0  0  0  0  0
  146.6728  136.0711  155.9115 H   0  0  0  0  0  0  0  0  0  0  0  0
  148.9964  136.6727  156.5192 H   0  0  0  0  0  0  0  0  0  0  0  0
  148.4243  137.6787  155.2088 H   0  0  0  0  0  0  0  0  0  0  0  0
  149.5670  136.2256  153.6799 H   0  0  0  0  0  0  0  0  0  0  0  0
  1  2  1  0  0  0  0
  1 21  1  0  0  0  0
  1 22  1  0  0  0  0
  1 23  1  0  0  0  0
  2  7  1  0  0  0  0
  2  3  2  0  0  0  0
  3  4  1  0  0  0  0
  3 24  1  0  0  0  0
  4  5  2  0  0  0  0
  4 25  1  0  0  0  0
  5  6  1  0  0  0  0
  5 26  1  0  0  0  0
  6  7  2  0  0  0  0
  7  8  1  0  0  0  0
  8  9  1  0  0  0  0
  8 27  1  0  0  0  0
  9 10  2  0  0  0  0
  9 11  1  0  0  0  0
 11 12  1  0  0  0  0
 11 28  1  0  0  0  0
 12 13  1  0  0  0  0
 12 29  1  0  0  0  0
 12 30  1  0  0  0  0
 13 14  1  0  0  0  0
 13 15  1  0  0  0  0
 13 31  1  0  0  0  0
 14 32  1  0  0  0  0
 14 33  1  0  0  0  0
 14 34  1  0  0  0  0
 15 20  1  0  0  0  0
 15 16  1  0  0  0  0
 15 43  1  0  0  0  0
 16 17  1  0  0  0  0
 16 35  1  0  0  0  0
 16 36  1  0  0  0  0
 17 18  1  0  0  0  0
 17 37  1  0  0  0  0
 17 38  1  0  0  0  0
 18 19  1  0  0  0  0
 19 20  1  0  0  0  0
 19 39  1  0  0  0  0
 19 40  1  0  0  0  0
 20 41  1  0  0  0  0
 20 42  1  0  0  0  0
M  CHG  1  15   1
M  END
> <s_m_source_file>
AV-unprocessed.smi

> <i_m_source_file_index>
1737

> <i_lp_mmshare_version>
43012

> <i_f3d_flags>
0

> <s_epik_input>
W0NIM11jMVtjSF1bY0hdW2NIXW5jMVtOSF1DKD1PKVtOSF1bQ0gyXVtDQEhdKFtDSDNdKU4yW0NIMl1bQ0gyXU9bQ0gyXVtDSDJdMg==

> <s_epik_cmdline>
J2VwaWtfcHl0aG9uJywgJy1waCcsICc3LjAnLCAnLXRuJywgJzgnLCAnLW1hJywgJzIwMCcsICctbWV0YWxfYmluZGluZycsICctaW1hZScsICc8aW5maWxlLm1hZT4nLCAnLW9tYWUnLCAnPG91dGZpbGUubWFlPic=

> <r_epik_Ionization_Penalty>
0.602573

> <r_epik_Ionization_Penalty_Charging>
0.602531

> <r_epik_Ionization_Penalty_Neutral>
4.25912e-05

> <r_epik_State_Penalty>
0.617039

> <r_epik_Charging_Adjusted_Penalty>
1.21957

> <i_epik_Tot_Q>
1

> <i_epik_Tot_abs_Q>
1

> <r_epik_Metal_State_Penalty>
0.617042

> <b_epik_Metal_Only>
0

> <s_lp_Force_Field>
OPLS_2005

> <r_lp_Energy>
21.8503

> <b_lp_Chiralities_Consistent>
1

> <s_lp_Variant>
AV-unprocessed.smi:1737-3

> <Gold.Version>
5.8.1

> <Gold.Id.Protein>
6NUR|6NUR_protein|mol2

> <Gold.PLP.Fitness>
39.9940

> <Gold.PLP.PLP>
-33.4891

> <Gold.PLP.part.hbond>
-2.0000

> <Gold.PLP.part.metal>
0.0000

> <Gold.PLP.part.buried>
-4.9079

> <Gold.PLP.part.nonpolar>
-27.3004

> <Gold.PLP.part.repulsive>
0.2090

> <Gold.PLP.ligand.clash>
0.0000

> <Gold.PLP.ligand.torsion>
1.2561

> <Gold.PLP.Chemscore.Hbond>
2.9913

> <Gold.PLP.Chemscore.CHOScore>
0.0000

> <Gold.PLP.Chemscore.Metal>
0.0000

> <Gold.Chemscore.Hbonds>
donor molecule, donor type, donor heavy atom, donor atom, acceptor molecule, acceptor atom, score
      L1  H    15    43       P1  7948  2.00
      P1  H  7997  8010       L1    10  1.00

> <Gold.PLP.Chemscore.Internal.Correction>
0.0434

> <Gold.Rescore>
     Score         DG    S(hbond)    S(metal)    S(lipo)     H(rot)  DE(clash)    DE(int)     intcor
     17.00     -18.18       1.97        0.00      85.23       1.51       0.02       1.15       ----

> <Gold.Chemscore.Fitness>
16.9994

> <Gold.Chemscore.DG>
-18.1755

> <Gold.Chemscore.ZeroCoef>
-5.4800

> <Gold.Chemscore.Hbond>
1.9750

> <Gold.Chemscore.Metal>
0.0000

> <Gold.Chemscore.Lipo>
85.2281

> <Gold.Chemscore.Internal_Hbond>
0.0000

> <Gold.Chemscore.DEClash>
0.0224

> <Gold.Chemscore.DEInternal>
1.1537

> <Gold.Chemscore.Rot>
1.5128

> <Gold.Chemscore.Internal.Correction>
   9.000000E+99

> <Gold.Chemscore.Hbonds>
donor molecule, donor type, donor heavy atom, donor atom, acceptor molecule, acceptor atom, score
      L1  H    15    43       P1  7948  0.55
      P1  H  7997  8010       L1    10  0.97

> <Gold.Chemscore.Hbond.Weighted>
-6.5965

> <Gold.Chemscore.Metal.Weighted>
-0.0000

> <Gold.Chemscore.Lipo.Weighted>
-9.9717

> <Gold.Chemscore.Internal_Hbond.Weighted>
0.0000

> <Gold.Chemscore.DEClash.Weighted>
0.0224

> <Gold.Chemscore.DEInternal.Weighted>
1.1537

> <Gold.Chemscore.Rot.Weighted>
3.8726

> <Gold.Chemscore.Internal.Correction.Weighted>
   9.000000E+99

> <Gold.Protein.RotatedTorsions>
[ 6907 6896 6895 6894 ] final  -50.46 input  -60.11 | X-H torsion
[ 7974 7965 7964 7962 ] final   48.29 input  175.53 | X-H torsion
[ 8008 7997 7996 7995 ] final   58.85 input   59.86 | X-H torsion
[ 10167 10162 10161 10158 ] final  -87.19 input  -65.29 | X-H torsion
[ 10718 10713 10712 10709 ] final  -77.70 input   66.30 | X-H torsion
[ 10763 10752 10751 10750 ] final  -80.15 input  -60.55 | X-H torsion
[ 11005 11000 10999 10996 ] final  -25.10 input  -57.11 | X-H torsion

> <Gold.Protein.ActiveResidues>
 VAL166  LYS551  ARG553  GLY616  TRP617  ASP618  TYR619  PRO620  LYS621  CYS622 
 ASP623  PHE694  ASN695  SER759  ASP760  ASP761  ALA762  ILE779  LEU786  VAL792 
 PHE793  MET794  SER795  GLU796  ALA797  LYS798  CYS799  TRP800  GLU811  SER814 

> <Gold.Protein.RotatedAtoms>
  150.8705  134.8078  159.7150 H   0  0  0  0  0  0  0  0  0  0  0  0  # atno 6907 bound_to 6896
  152.4711  134.4954  159.9718 H   0  0  0  0  0  0  0  0  0  0  0  0  # atno 6908 bound_to 6896
  151.5044  133.3459  159.2910 H   0  0  0  0  0  0  0  0  0  0  0  0  # atno 6909 bound_to 6896
  146.0218  139.4660  142.9892 H   0  0  0  0  0  0  0  0  0  0  0  0  # atno 7974 bound_to 7965
  155.5566  140.3487  155.4481 H   0  0  0  0  0  0  0  0  0  0  0  0  # atno 8008 bound_to 7997
  156.0545  140.1325  157.0039 H   0  0  0  0  0  0  0  0  0  0  0  0  # atno 8009 bound_to 7997
  154.4450  140.0998  156.6409 H   0  0  0  0  0  0  0  0  0  0  0  0  # atno 8010 bound_to 7997
  140.3869  143.2723  151.9314 H   0  0  0  0  0  0  0  0  0  0  0  0  # atno 10167 bound_to 10162
  156.0138  130.4498  150.3384 H   0  0  0  0  0  0  0  0  0  0  0  0  # atno 10718 bound_to 10713
  154.5476  135.5671  153.6893 H   0  0  0  0  0  0  0  0  0  0  0  0  # atno 10763 bound_to 10752
  152.9980  135.6243  154.2418 H   0  0  0  0  0  0  0  0  0  0  0  0  # atno 10764 bound_to 10752
  154.2351  135.2864  155.2855 H   0  0  0  0  0  0  0  0  0  0  0  0  # atno 10765 bound_to 10752
  140.8906  133.7591  156.0417 H   0  0  0  0  0  0  0  0  0  0  0  0  # atno 11005 bound_to 11000
  145.7180  141.0084  143.1417 LP  0  0  0  0  0  0  0  0  0  0  0  0  # atno 17320 bound_to 7965
  144.6993  139.8837  143.7449 LP  0  0  0  0  0  0  0  0  0  0  0  0  # atno 17321 bound_to 7965
  139.4791  144.5765  151.8003 LP  0  0  0  0  0  0  0  0  0  0  0  0  # atno 17342 bound_to 10162
  140.4880  144.1352  150.5945 LP  0  0  0  0  0  0  0  0  0  0  0  0  # atno 17343 bound_to 10162
  157.1480  131.0313  151.2898 LP  0  0  0  0  0  0  0  0  0  0  0  0  # atno 17370 bound_to 10713
  157.4416  130.7547  149.7074 LP  0  0  0  0  0  0  0  0  0  0  0  0  # atno 17371 bound_to 10713
  140.8351  134.3133  157.5334 LP  0  0  0  0  0  0  0  0  0  0  0  0  # atno 17394 bound_to 11000
  139.8729  134.9385  156.3716 LP  0  0  0  0  0  0  0  0  0  0  0  0  # atno 17395 bound_to 11000

$$$$
