AV-unprocessed.smi:2591|AV-procd|sdf|10153|dock4
  -GOLD-   2272014163D 1   1.00000     0.00000
 Structure written by MMmdl.
 35 36  0  0  0  0  0  0  0  0  2 V2000
  146.9262  138.3609  152.8560 C   0  0  0  0  0  0  0  0  0  0  0  0
  147.6849  139.5952  153.1504 N   0  3  1  0  0  0  0  0  0  0  0  0
  146.8062  140.7397  153.4793 C   0  0  0  0  0  0  0  0  0  0  0  0
  147.6479  141.9997  153.7329 C   0  0  0  0  0  0  0  0  0  0  0  0
  148.5793  141.7447  154.7769 O   0  0  0  0  0  0  0  0  0  0  0  0
  149.5000  140.7042  154.4486 C   0  0  1  0  0  0  0  0  0  0  0  0
  150.5233  140.5671  155.5873 C   0  0  0  0  0  0  0  0  0  0  0  0
  151.3030  139.6139  155.5954 O   0  0  0  0  0  0  0  0  0  0  0  0
  150.5093  141.5429  156.5164 N   0  0  0  0  0  0  0  0  0  0  0  0
  151.3265  141.6741  157.6703 C   0  0  0  0  0  0  0  0  0  0  0  0
  151.1142  142.8505  158.4227 C   0  0  0  0  0  0  0  0  0  0  0  0
  151.8709  143.0806  159.5913 C   0  0  0  0  0  0  0  0  0  0  0  0
  151.6506  144.3453  160.4066 C   0  0  0  0  0  0  0  0  0  0  0  0
  152.3107  144.3077  161.5645 F   0  0  0  0  0  0  0  0  0  0  0  0
  152.0723  145.3992  159.7088 F   0  0  0  0  0  0  0  0  0  0  0  0
  150.3517  144.4935  160.6660 F   0  0  0  0  0  0  0  0  0  0  0  0
  152.8294  142.1171  159.9673 C   0  0  0  0  0  0  0  0  0  0  0  0
  152.9773  140.9735  159.1618 C   0  0  0  0  0  0  0  0  0  0  0  0
  152.2494  140.7553  158.0472 N   0  0  0  0  0  0  0  0  0  0  0  0
  148.7118  139.3964  154.1989 C   0  0  0  0  0  0  0  0  0  0  0  0
  146.3621  138.0296  153.7288 H   0  0  0  0  0  0  0  0  0  0  0  0
  147.6006  137.5573  152.5590 H   0  0  0  0  0  0  0  0  0  0  0  0
  146.2248  138.5271  152.0379 H   0  0  0  0  0  0  0  0  0  0  0  0
  146.1088  140.9175  152.6599 H   0  0  0  0  0  0  0  0  0  0  0  0
  146.2111  140.5041  154.3633 H   0  0  0  0  0  0  0  0  0  0  0  0
  148.1719  142.3099  152.8275 H   0  0  0  0  0  0  0  0  0  0  0  0
  147.0043  142.8281  154.0286 H   0  0  0  0  0  0  0  0  0  0  0  0
  150.0493  140.9830  153.5476 H   0  0  0  0  0  0  0  0  0  0  0  0
  149.8217  142.2704  156.3865 H   0  0  0  0  0  0  0  0  0  0  0  0
  150.3767  143.5758  158.1101 H   0  0  0  0  0  0  0  0  0  0  0  0
  153.4402  142.2429  160.8489 H   0  0  0  0  0  0  0  0  0  0  0  0
  153.7004  140.2135  159.4184 H   0  0  0  0  0  0  0  0  0  0  0  0
  148.2292  139.0623  155.1193 H   0  0  0  0  0  0  0  0  0  0  0  0
  149.3887  138.6005  153.8839 H   0  0  0  0  0  0  0  0  0  0  0  0
  148.1783  139.8407  152.3037 H   0  0  0  0  0  0  0  0  0  0  0  0
  1  2  1  0  0  0  0
  1 21  1  0  0  0  0
  1 22  1  0  0  0  0
  1 23  1  0  0  0  0
  2 20  1  0  0  0  0
  2  3  1  0  0  0  0
  2 35  1  0  0  0  0
  3  4  1  0  0  0  0
  3 24  1  0  0  0  0
  3 25  1  0  0  0  0
  4  5  1  0  0  0  0
  4 26  1  0  0  0  0
  4 27  1  0  0  0  0
  5  6  1  0  0  0  0
  6  7  1  0  0  0  0
  6 20  1  0  0  0  0
  6 28  1  0  0  0  0
  7  8  2  0  0  0  0
  7  9  1  0  0  0  0
  9 10  1  0  0  0  0
  9 29  1  0  0  0  0
 10 19  1  0  0  0  0
 10 11  2  0  0  0  0
 11 12  1  0  0  0  0
 11 30  1  0  0  0  0
 12 13  1  0  0  0  0
 12 17  2  0  0  0  0
 13 14  1  0  0  0  0
 13 15  1  0  0  0  0
 13 16  1  0  0  0  0
 17 18  1  0  0  0  0
 17 31  1  0  0  0  0
 18 19  2  0  0  0  0
 18 32  1  0  0  0  0
 20 33  1  0  0  0  0
 20 34  1  0  0  0  0
M  CHG  1   2   1
M  END
> <s_m_source_file>
AV-unprocessed.smi

> <i_m_source_file_index>
2591

> <i_lp_mmshare_version>
43012

> <i_f3d_flags>
0

> <s_epik_input>
W0NIM11OMVtDSDJdW0NIMl1PW0NASF0oW0NIMl0xKUMoPU8pW05IXWMyW2NIXWMoQyhGKShGKUYpW2NIXVtjSF1uMg==

> <s_epik_cmdline>
J2VwaWtfcHl0aG9uJywgJy1waCcsICc3LjAnLCAnLXRuJywgJzgnLCAnLW1hJywgJzIwMCcsICctbWV0YWxfYmluZGluZycsICctaW1hZScsICc8aW5maWxlLm1hZT4nLCAnLW9tYWUnLCAnPG91dGZpbGUubWFlPic=

> <r_epik_Ionization_Penalty>
0.314028

> <r_epik_Ionization_Penalty_Charging>
0.314023

> <r_epik_Ionization_Penalty_Neutral>
5.2303e-06

> <r_epik_State_Penalty>
0.308208

> <r_epik_Charging_Adjusted_Penalty>
0.62223

> <i_epik_Tot_Q>
1

> <i_epik_Tot_abs_Q>
1

> <r_epik_Metal_State_Penalty>
0.308209

> <b_epik_Metal_Only>
0

> <s_lp_Force_Field>
OPLS_2005

> <r_lp_Energy>
17.8582

> <b_lp_Chiralities_Consistent>
1

> <s_lp_Variant>
AV-unprocessed.smi:2591-1

> <Gold.Version>
5.8.1

> <Gold.Id.Protein>
6NUR|6NUR_protein|mol2

> <Gold.PLP.Fitness>
42.5755

> <Gold.PLP.PLP>
-40.4486

> <Gold.PLP.part.hbond>
-1.0000

> <Gold.PLP.part.metal>
0.0000

> <Gold.PLP.part.buried>
-3.6788

> <Gold.PLP.part.nonpolar>
-36.6745

> <Gold.PLP.part.repulsive>
0.3770

> <Gold.PLP.ligand.clash>
0.0000

> <Gold.PLP.ligand.torsion>
0.4383

> <Gold.PLP.Chemscore.Hbond>
1.0000

> <Gold.PLP.Chemscore.CHOScore>
0.0000

> <Gold.PLP.Chemscore.Metal>
0.0000

> <Gold.Chemscore.Hbonds>
donor molecule, donor type, donor heavy atom, donor atom, acceptor molecule, acceptor atom, score
      L1  H     2    35       P1  7957  1.00

> <Gold.PLP.Chemscore.Internal.Correction>
0.0034

> <Gold.Rescore>
     Score         DG    S(hbond)    S(metal)    S(lipo)     H(rot)  DE(clash)    DE(int)     intcor
     13.70     -16.13       1.00        0.00      84.49       1.00       0.94       1.50       ----

> <Gold.Chemscore.Fitness>
13.6995

> <Gold.Chemscore.DG>
-16.1347

> <Gold.Chemscore.ZeroCoef>
-5.4800

> <Gold.Chemscore.Hbond>
0.9968

> <Gold.Chemscore.Metal>
0.0000

> <Gold.Chemscore.Lipo>
84.4916

> <Gold.Chemscore.Internal_Hbond>
0.0000

> <Gold.Chemscore.DEClash>
0.9395

> <Gold.Chemscore.DEInternal>
1.4957

> <Gold.Chemscore.Rot>
1.0000

> <Gold.Chemscore.Internal.Correction>
   9.000000E+99

> <Gold.Chemscore.Hbonds>
donor molecule, donor type, donor heavy atom, donor atom, acceptor molecule, acceptor atom, score
      L1  H     2    35       P1  7957  0.99

> <Gold.Chemscore.Hbond.Weighted>
-3.3292

> <Gold.Chemscore.Metal.Weighted>
-0.0000

> <Gold.Chemscore.Lipo.Weighted>
-9.8855

> <Gold.Chemscore.Internal_Hbond.Weighted>
0.0000

> <Gold.Chemscore.DEClash.Weighted>
0.9395

> <Gold.Chemscore.DEInternal.Weighted>
1.4957

> <Gold.Chemscore.Rot.Weighted>
2.5600

> <Gold.Chemscore.Internal.Correction.Weighted>
   9.000000E+99

> <Gold.Protein.RotatedTorsions>
[ 6907 6896 6895 6894 ] final   55.43 input  -60.11 | X-H torsion
[ 7974 7965 7964 7962 ] final -114.34 input  175.53 | X-H torsion
[ 8008 7997 7996 7995 ] final    7.45 input   59.86 | X-H torsion
[ 10167 10162 10161 10158 ] final  126.77 input  -65.29 | X-H torsion
[ 10718 10713 10712 10709 ] final   14.94 input   66.30 | X-H torsion
[ 10763 10752 10751 10750 ] final  121.27 input  -60.55 | X-H torsion
[ 11005 11000 10999 10996 ] final   40.06 input  -57.11 | X-H torsion

> <Gold.Protein.ActiveResidues>
 VAL166  LYS551  ARG553  GLY616  TRP617  ASP618  TYR619  PRO620  LYS621  CYS622 
 ASP623  PHE694  ASN695  SER759  ASP760  ASP761  ALA762  ILE779  LEU786  VAL792 
 PHE793  MET794  SER795  GLU796  ALA797  LYS798  CYS799  TRP800  GLU811  SER814 

> <Gold.Protein.RotatedAtoms>
  152.3538  134.6969  160.0228 H   0  0  0  0  0  0  0  0  0  0  0  0  # atno 6907 bound_to 6896
  151.7315  133.3312  159.3349 H   0  0  0  0  0  0  0  0  0  0  0  0  # atno 6908 bound_to 6896
  150.7557  134.6293  159.6222 H   0  0  0  0  0  0  0  0  0  0  0  0  # atno 6909 bound_to 6896
  145.1214  140.8671  143.3812 H   0  0  0  0  0  0  0  0  0  0  0  0  # atno 7974 bound_to 7965
  154.7541  140.2772  155.6268 H   0  0  0  0  0  0  0  0  0  0  0  0  # atno 8008 bound_to 7997
  156.2902  140.2673  156.2228 H   0  0  0  0  0  0  0  0  0  0  0  0  # atno 8009 bound_to 7997
  155.0100  140.0372  157.2385 H   0  0  0  0  0  0  0  0  0  0  0  0  # atno 8010 bound_to 7997
  139.5613  144.6883  151.4034 H   0  0  0  0  0  0  0  0  0  0  0  0  # atno 10167 bound_to 10162
  157.0464  130.6252  149.5760 H   0  0  0  0  0  0  0  0  0  0  0  0  # atno 10718 bound_to 10713
  153.6115  135.3429  155.2980 H   0  0  0  0  0  0  0  0  0  0  0  0  # atno 10763 bound_to 10752
  154.8618  135.4251  154.2305 H   0  0  0  0  0  0  0  0  0  0  0  0  # atno 10764 bound_to 10752
  153.3156  135.7034  153.7148 H   0  0  0  0  0  0  0  0  0  0  0  0  # atno 10765 bound_to 10752
  140.1967  134.3920  155.8117 H   0  0  0  0  0  0  0  0  0  0  0  0  # atno 11005 bound_to 11000
  145.0736  139.3012  143.5819 LP  0  0  0  0  0  0  0  0  0  0  0  0  # atno 17320 bound_to 7965
  146.3520  140.0219  142.8658 LP  0  0  0  0  0  0  0  0  0  0  0  0  # atno 17321 bound_to 7965
  140.6893  143.7899  150.7232 LP  0  0  0  0  0  0  0  0  0  0  0  0  # atno 17342 bound_to 10162
  140.1376  143.4470  152.2214 LP  0  0  0  0  0  0  0  0  0  0  0  0  # atno 17343 bound_to 10162
  156.0021  130.5102  150.7702 LP  0  0  0  0  0  0  0  0  0  0  0  0  # atno 17370 bound_to 10713
  157.5065  131.0922  151.0251 LP  0  0  0  0  0  0  0  0  0  0  0  0  # atno 17371 bound_to 10713
  141.2227  133.7073  156.8189 LP  0  0  0  0  0  0  0  0  0  0  0  0  # atno 17394 bound_to 11000
  140.2099  134.8835  157.3263 LP  0  0  0  0  0  0  0  0  0  0  0  0  # atno 17395 bound_to 11000

$$$$
