AV-unprocessed.smi:2424|AV-procd|sdf|9561|dock2
  -GOLD-   2272013193D 1   1.00000     0.00000
 Structure written by MMmdl.
 50 51  0  0  0  0  0  0  0  0  1 V2000
  150.6529  138.5868  155.5188 C   0  0  0  0  0  0  0  0  0  0  0  0
  149.3820  137.9394  154.9379 C   0  0  0  0  0  0  0  0  0  0  0  0
  148.0184  138.5054  155.4324 C   0  0  0  0  0  0  0  0  0  0  0  0
  147.9936  140.0358  155.2548 C   0  0  0  0  0  0  0  0  0  0  0  0
  146.8353  140.7454  155.9736 C   0  0  0  0  0  0  0  0  0  0  0  0
  146.7255  137.7738  154.9725 C   0  0  1  0  0  0  0  0  0  0  0  0
  146.8339  137.0324  153.7207 N   0  0  0  0  0  0  0  0  0  0  0  0
  145.8340  136.3417  153.1566 C   0  0  0  0  0  0  0  0  0  0  0  0
  144.7086  136.2623  153.6483 O   0  0  0  0  0  0  0  0  0  0  0  0
  146.2332  135.7803  152.0000 N   0  0  0  0  0  0  0  0  0  0  0  0
  145.5086  134.9801  151.1040 C   0  0  0  0  0  0  0  0  0  0  0  0
  144.1977  135.1184  150.8108 C   0  0  0  0  0  0  0  0  0  0  0  0
  143.5635  134.2658  149.9031 N   0  0  0  0  0  0  0  0  0  0  0  0
  144.1767  133.2515  149.2514 C   0  0  0  0  0  0  0  0  0  0  0  0
  143.5488  132.5452  148.4646 O   0  0  0  0  0  0  0  0  0  0  0  0
  145.6056  133.0771  149.5572 C   0  0  0  0  0  0  0  0  0  0  0  0
  146.3557  131.9556  148.8614 C   0  0  0  0  0  0  0  0  0  0  0  0
  146.2168  133.9042  150.4359 C   0  0  0  0  0  0  0  0  0  0  0  0
  146.8131  136.8605  156.1998 C   0  0  2  0  0  0  0  0  0  0  0  0
  145.5209  136.3613  156.8331 C   0  0  0  0  0  0  0  0  0  0  0  0
  147.5856  138.0218  156.8432 C   0  0  1  0  0  0  0  0  0  0  0  0
  148.6842  137.6388  157.6580 O   0  0  0  0  0  0  0  0  0  0  0  0
  149.3452  138.7370  158.2608 C   0  0  0  0  0  0  0  0  0  0  0  0
  142.5823  134.4298  149.7302 H   0  0  0  0  0  0  0  0  0  0  0  0
  151.5387  138.1874  155.0246 H   0  0  0  0  0  0  0  0  0  0  0  0
  150.7649  138.3776  156.5822 H   0  0  0  0  0  0  0  0  0  0  0  0
  150.6684  139.6664  155.3869 H   0  0  0  0  0  0  0  0  0  0  0  0
  149.4435  138.0140  153.8523 H   0  0  0  0  0  0  0  0  0  0  0  0
  149.4353  136.8693  155.1382 H   0  0  0  0  0  0  0  0  0  0  0  0
  148.9424  140.4785  155.5569 H   0  0  0  0  0  0  0  0  0  0  0  0
  147.9114  140.2742  154.1937 H   0  0  0  0  0  0  0  0  0  0  0  0
  146.8378  141.8110  155.7442 H   0  0  0  0  0  0  0  0  0  0  0  0
  146.9080  140.6474  157.0564 H   0  0  0  0  0  0  0  0  0  0  0  0
  145.8702  140.3443  155.6630 H   0  0  0  0  0  0  0  0  0  0  0  0
  145.8432  138.4165  155.0308 H   0  0  0  0  0  0  0  0  0  0  0  0
  147.7282  137.0532  153.2526 H   0  0  0  0  0  0  0  0  0  0  0  0
  147.1874  135.9612  151.7254 H   0  0  0  0  0  0  0  0  0  0  0  0
  143.5279  135.8565  151.2225 H   0  0  0  0  0  0  0  0  0  0  0  0
  147.4003  131.9221  149.1720 H   0  0  0  0  0  0  0  0  0  0  0  0
  146.3299  132.0941  147.7801 H   0  0  0  0  0  0  0  0  0  0  0  0
  145.9035  130.9913  149.0956 H   0  0  0  0  0  0  0  0  0  0  0  0
  147.2668  133.7622  150.6474 H   0  0  0  0  0  0  0  0  0  0  0  0
  147.4942  136.0293  156.0079 H   0  0  0  0  0  0  0  0  0  0  0  0
  144.8628  137.1881  157.1011 H   0  0  0  0  0  0  0  0  0  0  0  0
  145.7146  135.7867  157.7382 H   0  0  0  0  0  0  0  0  0  0  0  0
  144.9728  135.7157  156.1470 H   0  0  0  0  0  0  0  0  0  0  0  0
  146.9264  138.7401  157.3372 H   0  0  0  0  0  0  0  0  0  0  0  0
  150.2109  138.3790  158.8177 H   0  0  0  0  0  0  0  0  0  0  0  0
  148.6925  139.2574  158.9611 H   0  0  0  0  0  0  0  0  0  0  0  0
  149.6973  139.4476  157.5118 H   0  0  0  0  0  0  0  0  0  0  0  0
  1  2  1  0  0  0  0
  1 25  1  0  0  0  0
  1 26  1  0  0  0  0
  1 27  1  0  0  0  0
  2  3  1  0  0  0  0
  2 28  1  0  0  0  0
  2 29  1  0  0  0  0
  3 21  1  0  0  0  0
  3  4  1  0  0  0  0
  3  6  1  0  0  0  0
  4  5  1  0  0  0  0
  4 30  1  0  0  0  0
  4 31  1  0  0  0  0
  5 32  1  0  0  0  0
  5 33  1  0  0  0  0
  5 34  1  0  0  0  0
  6  7  1  0  0  0  0
  6 19  1  0  0  0  0
  6 35  1  0  0  0  0
  7  8  1  0  0  0  0
  7 36  1  0  0  0  0
  8  9  2  0  0  0  0
  8 10  1  0  0  0  0
 10 11  1  0  0  0  0
 10 37  1  0  0  0  0
 11 18  1  0  0  0  0
 11 12  2  0  0  0  0
 12 13  1  0  0  0  0
 12 38  1  0  0  0  0
 13 24  1  0  0  0  0
 13 14  1  0  0  0  0
 14 15  2  0  0  0  0
 14 16  1  0  0  0  0
 16 17  1  0  0  0  0
 16 18  2  0  0  0  0
 17 39  1  0  0  0  0
 17 40  1  0  0  0  0
 17 41  1  0  0  0  0
 18 42  1  0  0  0  0
 19 20  1  0  0  0  0
 19 21  1  0  0  0  0
 19 43  1  0  0  0  0
 20 44  1  0  0  0  0
 20 45  1  0  0  0  0
 20 46  1  0  0  0  0
 21 22  1  0  0  0  0
 21 47  1  0  0  0  0
 22 23  1  0  0  0  0
 23 48  1  0  0  0  0
 23 49  1  0  0  0  0
 23 50  1  0  0  0  0
M  END
> <s_m_source_file>
AV-unprocessed.smi

> <i_m_source_file_index>
2424

> <i_lp_mmshare_version>
43012

> <i_f3d_flags>
0

> <s_epik_input>
W0NIM11PW0NAQEhdMVtDQEhdKFtDSDNdKVtDQEBIXShDMShbQ0gyXVtDSDNdKVtDSDJdW0NIM10pW05IXUMoPU8pW05IXWMyW2NIXVtuSF1jKD1PKWMoW0NIM10pW2NIXTI=

> <s_epik_cmdline>
J2VwaWtfcHl0aG9uJywgJy1waCcsICc3LjAnLCAnLXRuJywgJzgnLCAnLW1hJywgJzIwMCcsICctbWV0YWxfYmluZGluZycsICctaW1hZScsICc8aW5maWxlLm1hZT4nLCAnLW9tYWUnLCAnPG91dGZpbGUubWFlPic=

> <r_lp_tautomer_probability>
1

> <r_epik_Ionization_Penalty>
4.7326e-05

> <r_epik_Ionization_Penalty_Charging>
2.70169e-05

> <r_epik_Ionization_Penalty_Neutral>
2.0309e-05

> <r_epik_State_Penalty>
-0

> <r_epik_Charging_Adjusted_Penalty>
2.70169e-05

> <i_epik_Tot_Q>
0

> <i_epik_Tot_abs_Q>
0

> <r_epik_Metal_State_Penalty>
0.0198736

> <b_epik_Metal_Only>
0

> <s_lp_Force_Field>
OPLS_2005

> <r_lp_Energy>
35.9396

> <b_lp_Chiralities_Consistent>
1

> <s_lp_Variant>
AV-unprocessed.smi:2424-3

> <Gold.Version>
5.8.1

> <Gold.Id.Protein>
6NUR|6NUR_protein|mol2

> <Gold.PLP.Fitness>
49.4305

> <Gold.PLP.PLP>
-35.9013

> <Gold.PLP.part.hbond>
-4.0000

> <Gold.PLP.part.metal>
0.0000

> <Gold.PLP.part.buried>
-2.5956

> <Gold.PLP.part.nonpolar>
-29.9233

> <Gold.PLP.part.repulsive>
0.6279

> <Gold.PLP.ligand.clash>
0.0000

> <Gold.PLP.ligand.torsion>
0.7463

> <Gold.PLP.Chemscore.Hbond>
3.8080

> <Gold.PLP.Chemscore.CHOScore>
1.0000

> <Gold.PLP.Chemscore.Metal>
0.0000

> <Gold.Chemscore.Hbonds>
donor molecule, donor type, donor heavy atom, donor atom, acceptor molecule, acceptor atom, score
      L1  H     7    36       P1  7948  0.96
      L1  H    10    37       P1  7948  1.00
      L1  H    13    24       P1 10186  1.00

> <Gold.PLP.Chemscore.Internal.Correction>
0.5977

> <Gold.Rescore>
     Score         DG    S(hbond)    S(metal)    S(lipo)     H(rot)  DE(clash)    DE(int)     intcor
     20.41     -24.52       3.87        0.00      86.16       1.55       2.30       1.81       ----

> <Gold.Chemscore.Fitness>
20.4084

> <Gold.Chemscore.DG>
-24.5175

> <Gold.Chemscore.ZeroCoef>
-5.4800

> <Gold.Chemscore.Hbond>
3.8698

> <Gold.Chemscore.Metal>
0.0000

> <Gold.Chemscore.Lipo>
86.1615

> <Gold.Chemscore.Internal_Hbond>
0.0000

> <Gold.Chemscore.DEClash>
2.3015

> <Gold.Chemscore.DEInternal>
1.8075

> <Gold.Chemscore.Rot>
1.5502

> <Gold.Chemscore.Internal.Correction>
   9.000000E+99

> <Gold.Chemscore.Hbonds>
donor molecule, donor type, donor heavy atom, donor atom, acceptor molecule, acceptor atom, score
      L1  H     7    36       P1  7948  0.86
      L1  H    10    37       P1  7948  1.00
      L1  H    13    24       P1 10186  0.94
      P1  H 10785 10796       L1    15  0.05

> <Gold.Chemscore.Hbond.Weighted>
-12.9251

> <Gold.Chemscore.Metal.Weighted>
-0.0000

> <Gold.Chemscore.Lipo.Weighted>
-10.0809

> <Gold.Chemscore.Internal_Hbond.Weighted>
0.0000

> <Gold.Chemscore.DEClash.Weighted>
2.3015

> <Gold.Chemscore.DEInternal.Weighted>
1.8075

> <Gold.Chemscore.Rot.Weighted>
3.9685

> <Gold.Chemscore.Internal.Correction.Weighted>
   9.000000E+99

> <Gold.Protein.RotatedTorsions>
[ 6907 6896 6895 6894 ] final   20.85 input  -60.11 | X-H torsion
[ 7974 7965 7964 7962 ] final  160.10 input  175.53 | X-H torsion
[ 8008 7997 7996 7995 ] final   87.53 input   59.86 | X-H torsion
[ 10167 10162 10161 10158 ] final  -91.43 input  -65.29 | X-H torsion
[ 10718 10713 10712 10709 ] final   50.56 input   66.30 | X-H torsion
[ 10763 10752 10751 10750 ] final   46.48 input  -60.55 | X-H torsion
[ 11005 11000 10999 10996 ] final  -57.83 input  -57.11 | X-H torsion

> <Gold.Protein.ActiveResidues>
 VAL166  LYS551  ARG553  GLY616  TRP617  ASP618  TYR619  PRO620  LYS621  CYS622 
 ASP623  PHE694  ASN695  SER759  ASP760  ASP761  ALA762  ILE779  LEU786  VAL792 
 PHE793  MET794  SER795  GLU796  ALA797  LYS798  CYS799  TRP800  GLU811  SER814 

> <Gold.Protein.RotatedAtoms>
  151.9028  135.0371  160.0507 H   0  0  0  0  0  0  0  0  0  0  0  0  # atno 6907 bound_to 6896
  152.2344  133.5080  159.5242 H   0  0  0  0  0  0  0  0  0  0  0  0  # atno 6908 bound_to 6896
  150.7035  134.1089  159.4035 H   0  0  0  0  0  0  0  0  0  0  0  0  # atno 6909 bound_to 6896
  144.7755  139.7710  143.6280 H   0  0  0  0  0  0  0  0  0  0  0  0  # atno 7974 bound_to 7965
  155.9766  140.3381  155.6624 H   0  0  0  0  0  0  0  0  0  0  0  0  # atno 8008 bound_to 7997
  155.6605  140.0715  157.2574 H   0  0  0  0  0  0  0  0  0  0  0  0  # atno 8009 bound_to 7997
  154.4180  140.1709  156.1758 H   0  0  0  0  0  0  0  0  0  0  0  0  # atno 8010 bound_to 7997
  140.3450  143.2922  151.9792 H   0  0  0  0  0  0  0  0  0  0  0  0  # atno 10167 bound_to 10162
  157.4896  130.8367  149.8187 H   0  0  0  0  0  0  0  0  0  0  0  0  # atno 10718 bound_to 10713
  152.9810  135.6007  154.3606 H   0  0  0  0  0  0  0  0  0  0  0  0  # atno 10763 bound_to 10752
  154.3288  135.2769  155.2484 H   0  0  0  0  0  0  0  0  0  0  0  0  # atno 10764 bound_to 10752
  154.4617  135.5964  153.6316 H   0  0  0  0  0  0  0  0  0  0  0  0  # atno 10765 bound_to 10752
  141.1181  133.6611  156.4828 H   0  0  0  0  0  0  0  0  0  0  0  0  # atno 11005 bound_to 11000
  146.1931  139.5182  142.9792 LP  0  0  0  0  0  0  0  0  0  0  0  0  # atno 17320 bound_to 7965
  145.6200  141.0324  143.1920 LP  0  0  0  0  0  0  0  0  0  0  0  0  # atno 17321 bound_to 7965
  139.4835  144.6125  151.7408 LP  0  0  0  0  0  0  0  0  0  0  0  0  # atno 17342 bound_to 10162
  140.5273  144.0785  150.6042 LP  0  0  0  0  0  0  0  0  0  0  0  0  # atno 17343 bound_to 10162
  156.0166  130.3811  150.2092 LP  0  0  0  0  0  0  0  0  0  0  0  0  # atno 17370 bound_to 10713
  157.0280  130.9999  151.3320 LP  0  0  0  0  0  0  0  0  0  0  0  0  # atno 17371 bound_to 10713
  140.4586  134.6862  157.5074 LP  0  0  0  0  0  0  0  0  0  0  0  0  # atno 17394 bound_to 11000
  140.0118  134.6679  155.9369 LP  0  0  0  0  0  0  0  0  0  0  0  0  # atno 17395 bound_to 11000

$$$$
