AV-unprocessed.smi:1354|AV-procd|sdf|5534|dock10
  -GOLD-   22720 5123D 1   1.00000     0.00000
 Structure written by MMmdl.
 39 41  0  0  0  0  0  0  0  0  1 V2000
  147.9320  139.1560  153.3577 O   0  0  0  0  0  0  0  0  0  0  0  0
  147.3640  140.3764  153.7843 C   0  0  0  0  0  0  0  0  0  0  0  0
  148.1560  140.9791  154.9578 C   0  0  0  0  0  0  0  0  0  0  0  0
  148.5108  139.9734  156.0170 C   0  0  0  0  0  0  0  0  0  0  0  0
  147.5812  139.1843  156.5588 N   0  0  0  0  0  0  0  0  0  0  0  0
  148.3010  138.4457  157.4761 C   0  0  0  0  0  0  0  0  0  0  0  0
  147.8798  137.4484  158.3847 C   0  0  0  0  0  0  0  0  0  0  0  0
  148.8097  136.8264  159.2432 C   0  0  0  0  0  0  0  0  0  0  0  0
  150.1710  137.1900  159.2035 C   0  0  0  0  0  0  0  0  0  0  0  0
  150.6119  138.1781  158.3023 C   0  0  0  0  0  0  0  0  0  0  0  0
  149.6794  138.7975  157.4479 C   0  0  0  0  0  0  0  0  0  0  0  0
  149.7784  139.7834  156.4695 N   0  0  0  0  0  0  0  0  0  0  0  0
  151.0083  140.4502  156.0599 C   0  0  0  0  0  0  0  0  0  0  0  0
  151.0844  141.8964  156.5681 C   0  0  0  0  0  0  0  0  0  0  0  0
  151.8174  141.9164  157.7856 O   0  0  0  0  0  0  0  0  0  0  0  0
  151.8409  143.0792  158.5238 C   0  0  0  0  0  0  0  0  0  0  0  0
  151.1889  144.2761  158.1330 C   0  0  0  0  0  0  0  0  0  0  0  0
  151.2610  145.4252  158.9441 C   0  0  0  0  0  0  0  0  0  0  0  0
  151.9838  145.3942  160.1507 C   0  0  0  0  0  0  0  0  0  0  0  0
  152.6363  144.2118  160.5456 C   0  0  0  0  0  0  0  0  0  0  0  0
  152.5658  143.0609  159.7361 C   0  0  0  0  0  0  0  0  0  0  0  0
  153.3697  141.6184  160.2443 Cl  0  0  0  0  0  0  0  0  0  0  0  0
  148.4570  139.3211  152.5894 H   0  0  0  0  0  0  0  0  0  0  0  0
  147.3083  141.0715  152.9461 H   0  0  0  0  0  0  0  0  0  0  0  0
  146.3397  140.1746  154.0985 H   0  0  0  0  0  0  0  0  0  0  0  0
  149.0893  141.3953  154.5770 H   0  0  0  0  0  0  0  0  0  0  0  0
  147.6072  141.8202  155.3775 H   0  0  0  0  0  0  0  0  0  0  0  0
  146.8386  137.1644  158.4236 H   0  0  0  0  0  0  0  0  0  0  0  0
  148.4768  136.0679  159.9362 H   0  0  0  0  0  0  0  0  0  0  0  0
  150.8771  136.7111  159.8659 H   0  0  0  0  0  0  0  0  0  0  0  0
  151.6534  138.4608  158.2742 H   0  0  0  0  0  0  0  0  0  0  0  0
  151.8521  139.8844  156.4551 H   0  0  0  0  0  0  0  0  0  0  0  0
  151.1070  140.4081  154.9755 H   0  0  0  0  0  0  0  0  0  0  0  0
  151.5713  142.5263  155.8225 H   0  0  0  0  0  0  0  0  0  0  0  0
  150.0766  142.2811  156.7205 H   0  0  0  0  0  0  0  0  0  0  0  0
  150.6290  144.3384  157.2124 H   0  0  0  0  0  0  0  0  0  0  0  0
  150.7609  146.3326  158.6387 H   0  0  0  0  0  0  0  0  0  0  0  0
  152.0384  146.2759  160.7721 H   0  0  0  0  0  0  0  0  0  0  0  0
  153.1910  144.1879  161.4720 H   0  0  0  0  0  0  0  0  0  0  0  0
  1  2  1  0  0  0  0
  1 23  1  0  0  0  0
  2  3  1  0  0  0  0
  2 24  1  0  0  0  0
  2 25  1  0  0  0  0
  3  4  1  0  0  0  0
  3 26  1  0  0  0  0
  3 27  1  0  0  0  0
  4 12  1  0  0  0  0
  4  5  2  0  0  0  0
  5  6  1  0  0  0  0
  6 11  2  0  0  0  0
  6  7  1  0  0  0  0
  7  8  2  0  0  0  0
  7 28  1  0  0  0  0
  8  9  1  0  0  0  0
  8 29  1  0  0  0  0
  9 10  2  0  0  0  0
  9 30  1  0  0  0  0
 10 11  1  0  0  0  0
 10 31  1  0  0  0  0
 11 12  1  0  0  0  0
 12 13  1  0  0  0  0
 13 14  1  0  0  0  0
 13 32  1  0  0  0  0
 13 33  1  0  0  0  0
 14 15  1  0  0  0  0
 14 34  1  0  0  0  0
 14 35  1  0  0  0  0
 15 16  1  0  0  0  0
 16 21  1  0  0  0  0
 16 17  2  0  0  0  0
 17 18  1  0  0  0  0
 17 36  1  0  0  0  0
 18 19  2  0  0  0  0
 18 37  1  0  0  0  0
 19 20  1  0  0  0  0
 19 38  1  0  0  0  0
 20 21  2  0  0  0  0
 20 39  1  0  0  0  0
 21 22  1  0  0  0  0
M  END
> <s_m_source_file>
AV-unprocessed.smi

> <i_m_source_file_index>
1354

> <i_lp_mmshare_version>
43012

> <i_f3d_flags>
0

> <s_epik_input>
W2NIXTFbY0hdW2NIXVtjSF1jKGMxMiluKGMobjIpW0NIMl1bQ0gyXVtPSF0pW0NIMl1bQ0gyXU9jM1tjSF1bY0hdW2NIXVtjSF1jM0Ns

> <s_epik_cmdline>
J2VwaWtfcHl0aG9uJywgJy1waCcsICc3LjAnLCAnLXRuJywgJzgnLCAnLW1hJywgJzIwMCcsICctbWV0YWxfYmluZGluZycsICctaW1hZScsICc8aW5maWxlLm1hZT4nLCAnLW9tYWUnLCAnPG91dGZpbGUubWFlPic=

> <r_lp_tautomer_probability>
1

> <r_epik_Ionization_Penalty>
0.195126

> <r_epik_Ionization_Penalty_Charging>
0

> <r_epik_Ionization_Penalty_Neutral>
0.195126

> <r_epik_State_Penalty>
0.184862

> <r_epik_Charging_Adjusted_Penalty>
0.184862

> <i_epik_Tot_Q>
0

> <i_epik_Tot_abs_Q>
0

> <r_epik_Metal_State_Penalty>
0.000216911

> <b_epik_Metal_Only>
0

> <s_lp_Force_Field>
OPLS_2005

> <r_lp_Energy>
15.3671

> <b_lp_Chiralities_Consistent>
1

> <s_lp_Variant>
AV-unprocessed.smi:1354-1

> <Gold.Version>
5.8.1

> <Gold.Id.Protein>
6NUR|6NUR_protein|mol2

> <Gold.PLP.Fitness>
45.3360

> <Gold.PLP.PLP>
-43.2996

> <Gold.PLP.part.hbond>
-0.9893

> <Gold.PLP.part.metal>
0.0000

> <Gold.PLP.part.buried>
-6.7635

> <Gold.PLP.part.nonpolar>
-35.7904

> <Gold.PLP.part.repulsive>
0.0245

> <Gold.PLP.ligand.clash>
0.0000

> <Gold.PLP.ligand.torsion>
0.5178

> <Gold.PLP.Chemscore.Hbond>
1.0000

> <Gold.PLP.Chemscore.CHOScore>
0.0000

> <Gold.PLP.Chemscore.Metal>
0.0000

> <Gold.Chemscore.Hbonds>
donor molecule, donor type, donor heavy atom, donor atom, acceptor molecule, acceptor atom, score
      L1  H     1    23       P1  7957  1.00

> <Gold.PLP.Chemscore.Internal.Correction>
0.0720

> <Gold.Rescore>
     Score         DG    S(hbond)    S(metal)    S(lipo)     H(rot)  DE(clash)    DE(int)     intcor
     16.50     -17.03       1.00        0.00     120.74       2.31       0.02       0.50       ----

> <Gold.Chemscore.Fitness>
16.5039

> <Gold.Chemscore.DG>
-17.0256

> <Gold.Chemscore.ZeroCoef>
-5.4800

> <Gold.Chemscore.Hbond>
0.9975

> <Gold.Chemscore.Metal>
0.0000

> <Gold.Chemscore.Lipo>
120.7431

> <Gold.Chemscore.Internal_Hbond>
0.0000

> <Gold.Chemscore.DEClash>
0.0197

> <Gold.Chemscore.DEInternal>
0.5021

> <Gold.Chemscore.Rot>
2.3098

> <Gold.Chemscore.Internal.Correction>
   9.000000E+99

> <Gold.Chemscore.Hbonds>
donor molecule, donor type, donor heavy atom, donor atom, acceptor molecule, acceptor atom, score
      L1  H     1    23       P1  7957  0.99

> <Gold.Chemscore.Hbond.Weighted>
-3.3318

> <Gold.Chemscore.Metal.Weighted>
-0.0000

> <Gold.Chemscore.Lipo.Weighted>
-14.1269

> <Gold.Chemscore.Internal_Hbond.Weighted>
0.0000

> <Gold.Chemscore.DEClash.Weighted>
0.0197

> <Gold.Chemscore.DEInternal.Weighted>
0.5021

> <Gold.Chemscore.Rot.Weighted>
5.9131

> <Gold.Chemscore.Internal.Correction.Weighted>
   9.000000E+99

> <Gold.Protein.RotatedTorsions>
[ 6907 6896 6895 6894 ] final -106.65 input  -60.11 | X-H torsion
[ 7974 7965 7964 7962 ] final  -37.81 input  175.53 | X-H torsion
[ 8008 7997 7996 7995 ] final -114.50 input   59.86 | X-H torsion
[ 10167 10162 10161 10158 ] final   40.47 input  -65.29 | X-H torsion
[ 10718 10713 10712 10709 ] final   62.60 input   66.30 | X-H torsion
[ 10763 10752 10751 10750 ] final   21.46 input  -60.55 | X-H torsion
[ 11005 11000 10999 10996 ] final  -17.52 input  -57.11 | X-H torsion

> <Gold.Protein.ActiveResidues>
 VAL166  LYS551  ARG553  GLY616  TRP617  ASP618  TYR619  PRO620  LYS621  CYS622 
 ASP623  PHE694  ASN695  SER759  ASP760  ASP761  ALA762  ILE779  LEU786  VAL792 
 PHE793  MET794  SER795  GLU796  ALA797  LYS798  CYS799  TRP800  GLU811  SER814 

> <Gold.Protein.RotatedAtoms>
  150.7400  133.9945  159.3617 H   0  0  0  0  0  0  0  0  0  0  0  0  # atno 6907 bound_to 6896
  151.7895  135.0737  160.0394 H   0  0  0  0  0  0  0  0  0  0  0  0  # atno 6908 bound_to 6896
  152.3218  133.5825  159.5786 H   0  0  0  0  0  0  0  0  0  0  0  0  # atno 6909 bound_to 6896
  146.0542  140.6440  142.9028 H   0  0  0  0  0  0  0  0  0  0  0  0  # atno 7974 bound_to 7965
  155.0374  140.0392  157.2496 H   0  0  0  0  0  0  0  0  0  0  0  0  # atno 8008 bound_to 7997
  154.7245  140.2718  155.6487 H   0  0  0  0  0  0  0  0  0  0  0  0  # atno 8009 bound_to 7997
  156.2825  140.2696  156.1927 H   0  0  0  0  0  0  0  0  0  0  0  0  # atno 8010 bound_to 7997
  140.3739  144.2069  150.6132 H   0  0  0  0  0  0  0  0  0  0  0  0  # atno 10167 bound_to 10162
  157.5912  130.9059  149.9608 H   0  0  0  0  0  0  0  0  0  0  0  0  # atno 10718 bound_to 10713
  153.0994  135.6668  153.9702 H   0  0  0  0  0  0  0  0  0  0  0  0  # atno 10763 bound_to 10752
  153.9277  135.3007  155.3448 H   0  0  0  0  0  0  0  0  0  0  0  0  # atno 10764 bound_to 10752
  154.7414  135.5078  153.9204 H   0  0  0  0  0  0  0  0  0  0  0  0  # atno 10765 bound_to 10752
  140.8177  133.8092  155.9627 H   0  0  0  0  0  0  0  0  0  0  0  0  # atno 11005 bound_to 11000
  144.7139  140.4138  143.7059 LP  0  0  0  0  0  0  0  0  0  0  0  0  # atno 17320 bound_to 7965
  145.6673  139.1592  143.2774 LP  0  0  0  0  0  0  0  0  0  0  0  0  # atno 17321 bound_to 7965
  140.5006  143.2319  151.8685 LP  0  0  0  0  0  0  0  0  0  0  0  0  # atno 17342 bound_to 10162
  139.4801  144.5064  151.8992 LP  0  0  0  0  0  0  0  0  0  0  0  0  # atno 17343 bound_to 10162
  156.0967  130.3659  150.0293 LP  0  0  0  0  0  0  0  0  0  0  0  0  # atno 17370 bound_to 10713
  156.8416  130.9427  151.3631 LP  0  0  0  0  0  0  0  0  0  0  0  0  # atno 17371 bound_to 10713
  140.9132  134.2235  157.4973 LP  0  0  0  0  0  0  0  0  0  0  0  0  # atno 17394 bound_to 11000
  139.8710  134.9759  156.4902 LP  0  0  0  0  0  0  0  0  0  0  0  0  # atno 17395 bound_to 11000

$$$$
