AV-unprocessed.smi:135|AV-procd|sdf|1170|dock1
  -GOLD-   2262018313D 1   1.00000     0.00000
 Structure written by MMmdl.
 51 54  0  0  0  0  0  0  0  0  1 V2000
  147.0408  136.8630  155.1423 O   0  0  0  0  0  0  0  0  0  0  0  0
  147.8816  135.9639  155.1476 C   0  0  0  0  0  0  0  0  0  0  0  0
  149.1591  136.1016  155.9908 C   0  0  0  0  0  0  0  0  0  0  0  0
  149.9373  137.3227  155.6886 N   0  0  0  0  0  0  0  0  0  0  0  0
  151.1827  137.1836  155.0276 C   0  0  0  0  0  0  0  0  0  0  0  0
  151.6119  136.0758  154.7015 O   0  0  0  0  0  0  0  0  0  0  0  0
  151.9031  138.4261  154.7731 C   0  0  0  0  0  0  0  0  0  0  0  0
  153.0874  138.3904  154.1391 F   0  0  0  0  0  0  0  0  0  0  0  0
  151.3982  139.6150  155.1620 C   0  0  0  0  0  0  0  0  0  0  0  0
  150.1870  139.7347  155.8205 N   0  0  0  0  0  0  0  0  0  0  0  0
  149.6329  141.0771  156.2498 C   0  0  1  0  0  0  0  0  0  0  0  0
  149.4720  141.1350  157.7809 C   0  0  0  0  0  0  0  0  0  0  0  0
  150.1841  142.4231  158.1436 C   0  0  0  0  0  0  0  0  0  0  0  0
  151.2355  142.5198  157.0487 C   0  0  0  0  0  0  0  0  0  0  0  0
  150.5238  142.0960  155.8934 O   0  0  0  0  0  0  0  0  0  0  0  0
  149.4255  138.5779  156.0950 C   0  0  0  0  0  0  0  0  0  0  0  0
  148.3440  138.6641  156.6809 O   0  0  0  0  0  0  0  0  0  0  0  0
  147.8015  134.8256  154.4356 N   0  0  0  0  0  0  0  0  0  0  0  0
  146.7775  134.3386  153.5727 C   0  0  0  0  0  0  0  0  0  0  0  0
  145.4222  134.7496  153.6410 C   0  0  0  0  0  0  0  0  0  0  0  0
  144.4711  134.2243  152.7455 C   0  0  0  0  0  0  0  0  0  0  0  0
  144.8580  133.2856  151.7727 C   0  0  0  0  0  0  0  0  0  0  0  0
  146.1979  132.8656  151.7012 C   0  0  0  0  0  0  0  0  0  0  0  0
  147.1545  133.3775  152.6013 C   0  0  0  0  0  0  0  0  0  0  0  0
  148.4527  132.9413  152.4975 O   0  0  0  0  0  0  0  0  0  0  0  0
  148.9362  132.1222  153.4884 C   0  0  0  0  0  0  0  0  0  0  0  0
  148.5374  130.7704  153.5933 C   0  0  0  0  0  0  0  0  0  0  0  0
  149.0526  129.9577  154.6218 C   0  0  0  0  0  0  0  0  0  0  0  0
  149.9718  130.4891  155.5466 C   0  0  0  0  0  0  0  0  0  0  0  0
  150.3783  131.8333  155.4410 C   0  0  0  0  0  0  0  0  0  0  0  0
  149.8637  132.6458  154.4123 C   0  0  0  0  0  0  0  0  0  0  0  0
  148.8908  136.0725  157.0487 H   0  0  0  0  0  0  0  0  0  0  0  0
  149.7589  135.2017  155.8482 H   0  0  0  0  0  0  0  0  0  0  0  0
  151.9797  140.4963  154.9395 H   0  0  0  0  0  0  0  0  0  0  0  0
  148.7003  141.2018  155.6966 H   0  0  0  0  0  0  0  0  0  0  0  0
  148.4192  141.1306  158.0644 H   0  0  0  0  0  0  0  0  0  0  0  0
  149.9685  140.2822  158.2464 H   0  0  0  0  0  0  0  0  0  0  0  0
  149.4948  143.2658  158.0750 H   0  0  0  0  0  0  0  0  0  0  0  0
  150.6110  142.4090  159.1466 H   0  0  0  0  0  0  0  0  0  0  0  0
  151.6309  143.5286  156.9293 H   0  0  0  0  0  0  0  0  0  0  0  0
  152.0677  141.8434  157.2490 H   0  0  0  0  0  0  0  0  0  0  0  0
  148.5963  134.2094  154.5269 H   0  0  0  0  0  0  0  0  0  0  0  0
  145.0746  135.4630  154.3698 H   0  0  0  0  0  0  0  0  0  0  0  0
  143.4416  134.5450  152.8052 H   0  0  0  0  0  0  0  0  0  0  0  0
  144.1279  132.8865  151.0843 H   0  0  0  0  0  0  0  0  0  0  0  0
  146.4943  132.1419  150.9562 H   0  0  0  0  0  0  0  0  0  0  0  0
  147.8350  130.3514  152.8876 H   0  0  0  0  0  0  0  0  0  0  0  0
  148.7428  128.9261  154.7005 H   0  0  0  0  0  0  0  0  0  0  0  0
  150.3669  129.8650  156.3347 H   0  0  0  0  0  0  0  0  0  0  0  0
  151.0856  132.2407  156.1482 H   0  0  0  0  0  0  0  0  0  0  0  0
  150.1781  133.6764  154.3349 H   0  0  0  0  0  0  0  0  0  0  0  0
  1  2  2  0  0  0  0
  2  3  1  0  0  0  0
  2 18  1  0  0  0  0
  3  4  1  0  0  0  0
  3 32  1  0  0  0  0
  3 33  1  0  0  0  0
  4 16  1  0  0  0  0
  4  5  1  0  0  0  0
  5  6  2  0  0  0  0
  5  7  1  0  0  0  0
  7  8  1  0  0  0  0
  7  9  2  0  0  0  0
  9 10  1  0  0  0  0
  9 34  1  0  0  0  0
 10 11  1  0  0  0  0
 10 16  1  0  0  0  0
 11 15  1  0  0  0  0
 11 12  1  0  0  0  0
 11 35  1  0  0  0  0
 12 13  1  0  0  0  0
 12 36  1  0  0  0  0
 12 37  1  0  0  0  0
 13 14  1  0  0  0  0
 13 38  1  0  0  0  0
 13 39  1  0  0  0  0
 14 15  1  0  0  0  0
 14 40  1  0  0  0  0
 14 41  1  0  0  0  0
 16 17  2  0  0  0  0
 18 19  1  0  0  0  0
 18 42  1  0  0  0  0
 19 24  1  0  0  0  0
 19 20  2  0  0  0  0
 20 21  1  0  0  0  0
 20 43  1  0  0  0  0
 21 22  2  0  0  0  0
 21 44  1  0  0  0  0
 22 23  1  0  0  0  0
 22 45  1  0  0  0  0
 23 24  2  0  0  0  0
 23 46  1  0  0  0  0
 24 25  1  0  0  0  0
 25 26  1  0  0  0  0
 26 31  1  0  0  0  0
 26 27  2  0  0  0  0
 27 28  1  0  0  0  0
 27 47  1  0  0  0  0
 28 29  2  0  0  0  0
 28 48  1  0  0  0  0
 29 30  1  0  0  0  0
 29 49  1  0  0  0  0
 30 31  2  0  0  0  0
 30 50  1  0  0  0  0
 31 51  1  0  0  0  0
M  END
> <s_m_source_file>
AV-unprocessed.smi

> <i_m_source_file_index>
135

> <i_lp_mmshare_version>
43012

> <i_f3d_flags>
0

> <s_epik_input>
TzFbQ0gyXVtDSDJdW0NIMl1bQ0BIXTFuKGMyPU8pW2NIXWMoRiljKD1PKW4yW0NIMl1DKD1PKVtOSF1jM1tjSF1bY0hdW2NIXVtjSF1jM09jNFtjSF1bY0hdW2NIXVtjSF1bY0hdNA==

> <s_epik_cmdline>
J2VwaWtfcHl0aG9uJywgJy1waCcsICc3LjAnLCAnLXRuJywgJzgnLCAnLW1hJywgJzIwMCcsICctbWV0YWxfYmluZGluZycsICctaW1hZScsICc8aW5maWxlLm1hZT4nLCAnLW9tYWUnLCAnPG91dGZpbGUubWFlPic=

> <r_lp_tautomer_probability>
1

> <r_epik_Ionization_Penalty>
1.89877e-06

> <r_epik_Ionization_Penalty_Charging>
3.88729e-08

> <r_epik_Ionization_Penalty_Neutral>
1.8599e-06

> <r_epik_State_Penalty>
-0

> <r_epik_Charging_Adjusted_Penalty>
3.88729e-08

> <i_epik_Tot_Q>
0

> <i_epik_Tot_abs_Q>
0

> <r_epik_Metal_State_Penalty>
-0

> <b_epik_Metal_Only>
0

> <s_epik_Chemistry_Notes>
This compound contains an acetal/aminal-like group ( X-CH(R)-Y where X, Y are N, S, or O) that may be acid/base labile, releasing an aldehyde.

> <s_lp_Force_Field>
OPLS_2005

> <r_lp_Energy>
40.6736

> <b_lp_Chiralities_Consistent>
1

> <s_lp_Variant>
AV-unprocessed.smi:135-2

> <Gold.Version>
5.8.1

> <Gold.Id.Protein>
6NUR|6NUR_protein|mol2

> <Gold.PLP.Fitness>
43.3798

> <Gold.PLP.PLP>
-41.1373

> <Gold.PLP.part.hbond>
-2.0000

> <Gold.PLP.part.metal>
0.0000

> <Gold.PLP.part.buried>
-4.2092

> <Gold.PLP.part.nonpolar>
-35.6283

> <Gold.PLP.part.repulsive>
1.9525

> <Gold.PLP.ligand.clash>
0.0000

> <Gold.PLP.ligand.torsion>
0.4967

> <Gold.PLP.Chemscore.Hbond>
1.0000

> <Gold.PLP.Chemscore.CHOScore>
0.0000

> <Gold.PLP.Chemscore.Metal>
0.0000

> <Gold.Chemscore.Hbonds>
donor molecule, donor type, donor heavy atom, donor atom, acceptor molecule, acceptor atom, score
      P1  H 10752 10765       L1     6  0.89

> <Gold.PLP.Chemscore.Internal.Correction>
0.2360

> <Gold.Rescore>
     Score         DG    S(hbond)    S(metal)    S(lipo)     H(rot)  DE(clash)    DE(int)     intcor
     11.34     -14.30       0.98        0.00      91.91       2.04       0.10       2.86       ----

> <Gold.Chemscore.Fitness>
11.3393

> <Gold.Chemscore.DG>
-14.3007

> <Gold.Chemscore.ZeroCoef>
-5.4800

> <Gold.Chemscore.Hbond>
0.9832

> <Gold.Chemscore.Metal>
0.0000

> <Gold.Chemscore.Lipo>
91.9091

> <Gold.Chemscore.Internal_Hbond>
0.0000

> <Gold.Chemscore.DEClash>
0.1025

> <Gold.Chemscore.DEInternal>
2.8589

> <Gold.Chemscore.Rot>
2.0377

> <Gold.Chemscore.Internal.Correction>
   9.000000E+99

> <Gold.Chemscore.Hbonds>
donor molecule, donor type, donor heavy atom, donor atom, acceptor molecule, acceptor atom, score
      P1  H 10752 10765       L1     6  0.82

> <Gold.Chemscore.Hbond.Weighted>
-3.2839

> <Gold.Chemscore.Metal.Weighted>
-0.0000

> <Gold.Chemscore.Lipo.Weighted>
-10.7534

> <Gold.Chemscore.Internal_Hbond.Weighted>
0.0000

> <Gold.Chemscore.DEClash.Weighted>
0.1025

> <Gold.Chemscore.DEInternal.Weighted>
2.8589

> <Gold.Chemscore.Rot.Weighted>
5.2165

> <Gold.Chemscore.Internal.Correction.Weighted>
   9.000000E+99

> <Gold.Protein.RotatedTorsions>
[ 6907 6896 6895 6894 ] final  132.53 input  -60.11 | X-H torsion
[ 7974 7965 7964 7962 ] final  -40.43 input  175.53 | X-H torsion
[ 8008 7997 7996 7995 ] final   35.76 input   59.86 | X-H torsion
[ 10167 10162 10161 10158 ] final  174.56 input  -65.29 | X-H torsion
[ 10718 10713 10712 10709 ] final  -22.40 input   66.30 | X-H torsion
[ 10763 10752 10751 10750 ] final -164.62 input  -60.55 | X-H torsion
[ 11005 11000 10999 10996 ] final  167.58 input  -57.11 | X-H torsion

> <Gold.Protein.ActiveResidues>
 VAL166  LYS551  ARG553  GLY616  TRP617  ASP618  TYR619  PRO620  LYS621  CYS622 
 ASP623  PHE694  ASN695  SER759  ASP760  ASP761  ALA762  ILE779  LEU786  VAL792 
 PHE793  MET794  SER795  GLU796  ALA797  LYS798  CYS799  TRP800  GLU811  SER814 

> <Gold.Protein.RotatedAtoms>
  152.3314  133.5962  159.5811 H   0  0  0  0  0  0  0  0  0  0  0  0  # atno 6907 bound_to 6896
  150.7425  133.9862  159.3601 H   0  0  0  0  0  0  0  0  0  0  0  0  # atno 6908 bound_to 6896
  151.7736  135.0780  160.0414 H   0  0  0  0  0  0  0  0  0  0  0  0  # atno 6909 bound_to 6896
  146.0305  140.6738  142.9135 H   0  0  0  0  0  0  0  0  0  0  0  0  # atno 7974 bound_to 7965
  155.1764  140.3296  155.4383 H   0  0  0  0  0  0  0  0  0  0  0  0  # atno 8008 bound_to 7997
  156.2492  140.1934  156.6815 H   0  0  0  0  0  0  0  0  0  0  0  0  # atno 8009 bound_to 7997
  154.6301  140.0583  156.9708 H   0  0  0  0  0  0  0  0  0  0  0  0  # atno 8010 bound_to 7997
  139.5146  144.3132  152.0272 H   0  0  0  0  0  0  0  0  0  0  0  0  # atno 10167 bound_to 10162
  156.5050  130.4597  149.6679 H   0  0  0  0  0  0  0  0  0  0  0  0  # atno 10718 bound_to 10713
  154.7011  135.2988  154.9339 H   0  0  0  0  0  0  0  0  0  0  0  0  # atno 10763 bound_to 10752
  154.0271  135.6675  153.4781 H   0  0  0  0  0  0  0  0  0  0  0  0  # atno 10764 bound_to 10752
  153.0682  135.5076  154.8155 H   0  0  0  0  0  0  0  0  0  0  0  0  # atno 10765 bound_to 10752
  140.2783  134.7771  157.3735 H   0  0  0  0  0  0  0  0  0  0  0  0  # atno 11005 bound_to 11000
  144.7028  140.3727  143.7142 LP  0  0  0  0  0  0  0  0  0  0  0  0  # atno 17320 bound_to 7965
  145.7049  139.1670  143.2572 LP  0  0  0  0  0  0  0  0  0  0  0  0  # atno 17321 bound_to 7965
  140.2576  144.4101  150.6197 LP  0  0  0  0  0  0  0  0  0  0  0  0  # atno 17342 bound_to 10162
  140.6180  143.2174  151.6752 LP  0  0  0  0  0  0  0  0  0  0  0  0  # atno 17343 bound_to 10162
  156.3295  130.7324  151.2251 LP  0  0  0  0  0  0  0  0  0  0  0  0  # atno 17370 bound_to 10713
  157.7458  131.0433  150.4740 LP  0  0  0  0  0  0  0  0  0  0  0  0  # atno 17371 bound_to 10713
  140.1308  134.5098  155.8107 LP  0  0  0  0  0  0  0  0  0  0  0  0  # atno 17394 bound_to 11000
  141.2167  133.6789  156.7035 LP  0  0  0  0  0  0  0  0  0  0  0  0  # atno 17395 bound_to 11000

$$$$
