#       Name:                AV-unprocessed.smi:2344
#       Creating user name   scv26
#       Creation time:       Fri Mar 27 12:58:08 2020


#       File generated by GOLD software.
#

@<TRIPOS>MOLECULE
AV-unprocessed.smi:2344
    40    41     1
SMALL
NO_CHARGES


@<TRIPOS>ATOM
      1 ****        -5.9498   3.2699   0.1724 C.3            1 S1                 0.0000
      2 ****        -4.7345   2.3720   0.2697 C.ar           1 S1                 0.0000
      3 ****        -4.8661   0.9707   0.2911 C.ar           1 S1                 0.0000
      4 ****        -3.7035   0.1814   0.3822 C.ar           1 S1                 0.0000
      5 ****        -2.4391   0.8093   0.4480 C.ar           1 S1                 0.0000
      6 ****        -1.3327  -0.0764   0.5404 N.am           1 S1                 0.0000
      7 ****        -0.0254   0.2295   0.6126 C.2            1 S1                 0.0000
      8 ****         0.4428   1.3684   0.6082 O.2            1 S1                 0.0000
      9 ****         0.7271  -0.8775   0.6884 N.am           1 S1                 0.0000
     10 ****         2.1835  -0.8923   0.7627 C.3            1 S1                 0.0000
     11 ****         2.6777  -2.2603   1.1443 C.2            1 S1                 0.0000
     12 ****         3.4827  -2.7910   0.2267 C.2            1 S1                 0.0000
     13 ****         3.6750  -1.8990  -0.9716 C.3            1 S1                 0.0000
     14 ****         5.1611  -1.6247  -1.2539 C.3            1 S1                 0.0000
     15 ****         5.3024  -0.8688  -2.4379 O.3            1 S1                 0.0000
     16 ****         2.8576  -0.6310  -0.6098 C.3            1 S1                 0.0000
     17 ****        -2.3227   2.1604   0.4236 N.ar           1 S1                 0.0000
     18 ****        -3.4373   2.9162   0.3363 C.ar           1 S1                 0.0000
     19 ****         2.5311  -0.1763   1.5095 H              1 S1                 0.0000
     20 ****         3.2236  -2.4016  -1.8280 H              1 S1                 0.0000
     21 ****        -6.8426   2.7603   0.5362 H              1 S1                 0.0000
     22 ****        -6.1188   3.5630  -0.8640 H              1 S1                 0.0000
     23 ****        -5.8096   4.1729   0.7674 H              1 S1                 0.0000
     24 ****        -5.8393   0.5049   0.2392 H              1 S1                 0.0000
     25 ****        -3.7870  -0.8955   0.4014 H              1 S1                 0.0000
     26 ****        -1.5638  -1.0585   0.5522 H              1 S1                 0.0000
     27 ****         0.2622  -1.7733   0.6848 H              1 S1                 0.0000
     28 ****         2.4015  -2.7327   2.0756 H              1 S1                 0.0000
     29 ****         3.9484  -3.7628   0.2986 H              1 S1                 0.0000
     30 ****         5.6245  -1.0892  -0.4245 H              1 S1                 0.0000
     31 ****         5.7040  -2.5623  -1.3776 H              1 S1                 0.0000
     32 ****         6.2230  -0.7225  -2.5931 H              1 S1                 0.0000
     33 ****         2.1284  -0.4141  -1.3917 H              1 S1                 0.0000
     34 ****         3.5025   0.2455  -0.5381 H              1 S1                 0.0000
     35 ****        -3.2871   3.9856   0.3193 H              1 S1                 0.0000
     36 ****        -0.1663   2.1592   0.5471 LP             1 S1                 0.0000
     37 ****         1.4321   1.5025   0.6657 LP             1 S1                 0.0000
     38 ****         4.8342   0.0088  -2.3355 LP             1 S1                 0.0000
     39 ****         4.9063  -1.3701  -3.2072 LP             1 S1                 0.0000
     40 ****        -1.4215   2.5914   0.4697 LP             1 S1                 0.0000
@<TRIPOS>BOND
    1    1    2 1     
    2    1   21 1     
    3    1   22 1     
    4    1   23 1     
    5    2   18 ar    
    6    2    3 ar    
    7    3    4 ar    
    8    3   24 1     
    9    4    5 ar    
   10    4   25 1     
   11    5    6 1     
   12    5   17 ar    
   13    6    7 am    
   14    6   26 1     
   15    7    8 2     
   16    7    9 am    
   17    9   10 1     
   18    9   27 1     
   19   10   19 1     
   20   10   16 1     
   21   10   11 1     
   22   11   12 2     
   23   11   28 1     
   24   12   13 1     
   25   12   29 1     
   26   13   20 1     
   27   13   14 1     
   28   13   16 1     
   29   14   15 1     
   30   14   30 1     
   31   14   31 1     
   32   15   32 1     
   33   16   33 1     
   34   16   34 1     
   35   17   18 ar    
   36   18   35 1     
   37    8   36 1     
   38    8   37 1     
   39   15   38 1     
   40   15   39 1     
   41   17   40 1     
@<TRIPOS>SUBSTRUCTURE
      1 S1             1
@<TRIPOS>SET
LONE_PAIRS      STATIC     ATOMS    <user>   **** ""
5 36 37 38 39 40
DONOR_HYDROGENS      STATIC     ATOMS    <user>   **** ""
3 26 27 32
ATOM$BLUE        STATIC     ATOMS    COLORGROUP SYSTEM
5 36 37 38 39 40
ATOM$RED        STATIC     ATOMS    COLORGROUP SYSTEM
3 26 27 32
