AV-unprocessed.smi:991|AV-procd|sdf|4328|dock4
  -GOLD-   22720 2233D 1   1.00000     0.00000
 Structure written by MMmdl.
 32 33  0  0  0  0  0  0  0  0  1 V2000
  147.9285  141.1990  155.6838 O   0  0  0  0  0  0  0  0  0  0  0  0
  148.9691  140.5489  155.5875 C   0  0  0  0  0  0  0  0  0  0  0  0
  149.2692  139.7729  154.3044 C   0  0  0  0  0  0  0  0  0  0  0  0
  150.5177  139.0399  154.4123 N   0  0  0  0  0  0  0  0  0  0  0  0
  150.7744  137.7375  154.2753 C   0  0  0  0  0  0  0  0  0  0  0  0
  152.0502  137.4222  154.4509 N   0  0  0  0  0  0  0  0  0  0  0  0
  152.5590  138.6640  154.7088 C   0  0  0  0  0  0  0  0  0  0  0  0
  151.6827  139.6686  154.6978 N   0  0  0  0  0  0  0  0  0  0  0  0
  149.8904  140.4780  156.5621 N   0  0  0  0  0  0  0  0  0  0  0  0
  149.8057  141.1586  157.8526 C   0  0  0  0  0  0  0  0  0  0  0  0
  151.1816  141.5304  158.4360 C   0  0  0  0  0  0  0  0  0  0  0  0
  152.0142  140.6487  158.6561 O   0  0  0  0  0  0  0  0  0  0  0  0
  151.4295  142.8293  158.7035 N   0  0  0  0  0  0  0  0  0  0  0  0
  152.6770  143.3681  159.2444 C   0  0  0  0  0  0  0  0  0  0  0  0
  152.5448  144.8890  159.1547 C   0  0  0  0  0  0  0  0  0  0  0  0
  151.0423  145.1342  159.1682 C   0  0  0  0  0  0  0  0  0  0  0  0
  150.4572  143.8983  158.4851 C   0  0  0  0  0  0  0  0  0  0  0  0
  148.4652  139.0647  154.0987 H   0  0  0  0  0  0  0  0  0  0  0  0
  149.3182  140.4593  153.4575 H   0  0  0  0  0  0  0  0  0  0  0  0
  150.0126  137.0065  154.0462 H   0  0  0  0  0  0  0  0  0  0  0  0
  153.6066  138.8327  154.9109 H   0  0  0  0  0  0  0  0  0  0  0  0
  150.7164  139.9218  156.3933 H   0  0  0  0  0  0  0  0  0  0  0  0
  149.1827  142.0488  157.7530 H   0  0  0  0  0  0  0  0  0  0  0  0
  149.2977  140.4947  158.5523 H   0  0  0  0  0  0  0  0  0  0  0  0
  152.7788  143.0572  160.2851 H   0  0  0  0  0  0  0  0  0  0  0  0
  153.5518  143.0174  158.6950 H   0  0  0  0  0  0  0  0  0  0  0  0
  153.0658  145.4073  159.9604 H   0  0  0  0  0  0  0  0  0  0  0  0
  152.9615  145.2377  158.2089 H   0  0  0  0  0  0  0  0  0  0  0  0
  150.6900  145.1829  160.1996 H   0  0  0  0  0  0  0  0  0  0  0  0
  150.7593  146.0645  158.6745 H   0  0  0  0  0  0  0  0  0  0  0  0
  150.3509  144.0668  157.4123 H   0  0  0  0  0  0  0  0  0  0  0  0
  149.4740  143.6501  158.8885 H   0  0  0  0  0  0  0  0  0  0  0  0
  1  2  2  0  0  0  0
  2  3  1  0  0  0  0
  2  9  1  0  0  0  0
  3  4  1  0  0  0  0
  3 18  1  0  0  0  0
  3 19  1  0  0  0  0
  4  8  1  0  0  0  0
  4  5  1  0  0  0  0
  5  6  2  0  0  0  0
  5 20  1  0  0  0  0
  6  7  1  0  0  0  0
  7  8  2  0  0  0  0
  7 21  1  0  0  0  0
  9 10  1  0  0  0  0
  9 22  1  0  0  0  0
 10 11  1  0  0  0  0
 10 23  1  0  0  0  0
 10 24  1  0  0  0  0
 11 12  2  0  0  0  0
 11 13  1  0  0  0  0
 13 17  1  0  0  0  0
 13 14  1  0  0  0  0
 14 15  1  0  0  0  0
 14 25  1  0  0  0  0
 14 26  1  0  0  0  0
 15 16  1  0  0  0  0
 15 27  1  0  0  0  0
 15 28  1  0  0  0  0
 16 17  1  0  0  0  0
 16 29  1  0  0  0  0
 16 30  1  0  0  0  0
 17 31  1  0  0  0  0
 17 32  1  0  0  0  0
M  END
> <s_m_source_file>
AV-unprocessed.smi

> <i_m_source_file_index>
991

> <i_lp_mmshare_version>
43012

> <i_f3d_flags>
0

> <s_epik_input>
bjFbY0hdbltjSF1uMVtDSDJdQyg9TylbTkhdW0NIMl1DKD1PKU4yW0NIMl1bQ0gyXVtDSDJdW0NIMl0y

> <s_epik_cmdline>
J2VwaWtfcHl0aG9uJywgJy1waCcsICc3LjAnLCAnLXRuJywgJzgnLCAnLW1hJywgJzIwMCcsICctbWV0YWxfYmluZGluZycsICctaW1hZScsICc8aW5maWxlLm1hZT4nLCAnLW9tYWUnLCAnPG91dGZpbGUubWFlPic=

> <r_lp_tautomer_probability>
1

> <r_epik_Ionization_Penalty>
7.3183e-06

> <r_epik_Ionization_Penalty_Charging>
0

> <r_epik_Ionization_Penalty_Neutral>
7.3183e-06

> <r_epik_State_Penalty>
-0

> <r_epik_Charging_Adjusted_Penalty>
0

> <i_epik_Tot_Q>
0

> <i_epik_Tot_abs_Q>
0

> <r_epik_Metal_State_Penalty>
-0

> <b_epik_Metal_Only>
0

> <s_lp_Force_Field>
OPLS_2005

> <r_lp_Energy>
26.0119

> <b_lp_Chiralities_Consistent>
1

> <s_lp_Variant>
AV-unprocessed.smi:991-1

> <Gold.Version>
5.8.1

> <Gold.Id.Protein>
6NUR|6NUR_protein|mol2

> <Gold.PLP.Fitness>
43.1234

> <Gold.PLP.PLP>
-34.8347

> <Gold.PLP.part.hbond>
-2.0000

> <Gold.PLP.part.metal>
0.0000

> <Gold.PLP.part.buried>
-6.8101

> <Gold.PLP.part.nonpolar>
-27.2593

> <Gold.PLP.part.repulsive>
0.2917

> <Gold.PLP.ligand.clash>
0.0000

> <Gold.PLP.ligand.torsion>
0.2025

> <Gold.PLP.Chemscore.Hbond>
1.8960

> <Gold.PLP.Chemscore.CHOScore>
1.0000

> <Gold.PLP.Chemscore.Metal>
0.0000

> <Gold.Chemscore.Hbonds>
donor molecule, donor type, donor heavy atom, donor atom, acceptor molecule, acceptor atom, score
      P1  H  7989  7998       L1     8  1.00
      P1  H 10752 10765       L1     6  0.88
      L1  C     5    20       P1  7948  1.00

> <Gold.PLP.Chemscore.Internal.Correction>
0.0057

> <Gold.Rescore>
     Score         DG    S(hbond)    S(metal)    S(lipo)     H(rot)  DE(clash)    DE(int)     intcor
     11.76     -11.97       1.87        0.00      57.56       2.54       0.01       0.20       ----

> <Gold.Chemscore.Fitness>
11.7627

> <Gold.Chemscore.DG>
-11.9714

> <Gold.Chemscore.ZeroCoef>
-5.4800

> <Gold.Chemscore.Hbond>
1.8714

> <Gold.Chemscore.Metal>
0.0000

> <Gold.Chemscore.Lipo>
57.5597

> <Gold.Chemscore.Internal_Hbond>
0.0000

> <Gold.Chemscore.DEClash>
0.0067

> <Gold.Chemscore.DEInternal>
0.2020

> <Gold.Chemscore.Rot>
2.5366

> <Gold.Chemscore.Internal.Correction>
   9.000000E+99

> <Gold.Chemscore.Hbonds>
donor molecule, donor type, donor heavy atom, donor atom, acceptor molecule, acceptor atom, score
      P1  H  7989  7998       L1     8  0.25
      P1  H 10752 10765       L1     6  0.85

> <Gold.Chemscore.Hbond.Weighted>
-6.2506

> <Gold.Chemscore.Metal.Weighted>
-0.0000

> <Gold.Chemscore.Lipo.Weighted>
-6.7345

> <Gold.Chemscore.Internal_Hbond.Weighted>
0.0000

> <Gold.Chemscore.DEClash.Weighted>
0.0067

> <Gold.Chemscore.DEInternal.Weighted>
0.2020

> <Gold.Chemscore.Rot.Weighted>
6.4937

> <Gold.Chemscore.Internal.Correction.Weighted>
   9.000000E+99

> <Gold.Protein.RotatedTorsions>
[ 6907 6896 6895 6894 ] final  -54.84 input  -60.11 | X-H torsion
[ 7974 7965 7964 7962 ] final  165.84 input  175.53 | X-H torsion
[ 8008 7997 7996 7995 ] final   17.61 input   59.86 | X-H torsion
[ 10167 10162 10161 10158 ] final   28.02 input  -65.29 | X-H torsion
[ 10718 10713 10712 10709 ] final  -98.49 input   66.30 | X-H torsion
[ 10763 10752 10751 10750 ] final  158.91 input  -60.55 | X-H torsion
[ 11005 11000 10999 10996 ] final  122.82 input  -57.11 | X-H torsion

> <Gold.Protein.ActiveResidues>
 VAL166  LYS551  ARG553  GLY616  TRP617  ASP618  TYR619  PRO620  LYS621  CYS622 
 ASP623  PHE694  ASN695  SER759  ASP760  ASP761  ALA762  ILE779  LEU786  VAL792 
 PHE793  MET794  SER795  GLU796  ALA797  LYS798  CYS799  TRP800  GLU811  SER814 

> <Gold.Protein.RotatedAtoms>
  150.8303  134.7553  159.6847 H   0  0  0  0  0  0  0  0  0  0  0  0  # atno 6907 bound_to 6896
  152.4408  134.5591  159.9898 H   0  0  0  0  0  0  0  0  0  0  0  0  # atno 6908 bound_to 6896
  151.5753  133.3347  159.3033 H   0  0  0  0  0  0  0  0  0  0  0  0  # atno 6909 bound_to 6896
  144.7486  139.8529  143.6374 H   0  0  0  0  0  0  0  0  0  0  0  0  # atno 7974 bound_to 7965
  154.8939  140.2991  155.5355 H   0  0  0  0  0  0  0  0  0  0  0  0  # atno 8008 bound_to 7997
  156.3020  140.2419  156.3893 H   0  0  0  0  0  0  0  0  0  0  0  0  # atno 8009 bound_to 7997
  154.8590  140.0406  157.1642 H   0  0  0  0  0  0  0  0  0  0  0  0  # atno 8010 bound_to 7997
  140.4889  144.0499  150.6290 H   0  0  0  0  0  0  0  0  0  0  0  0  # atno 10167 bound_to 10162
  156.0109  130.5240  150.6530 H   0  0  0  0  0  0  0  0  0  0  0  0  # atno 10718 bound_to 10713
  154.2235  135.2781  155.2916 H   0  0  0  0  0  0  0  0  0  0  0  0  # atno 10763 bound_to 10752
  154.5682  135.5626  153.7074 H   0  0  0  0  0  0  0  0  0  0  0  0  # atno 10764 bound_to 10752
  153.0036  135.6315  154.2376 H   0  0  0  0  0  0  0  0  0  0  0  0  # atno 10765 bound_to 10752
  139.9285  134.9641  156.8167 H   0  0  0  0  0  0  0  0  0  0  0  0  # atno 11005 bound_to 11000
  146.1403  139.4458  143.0113 LP  0  0  0  0  0  0  0  0  0  0  0  0  # atno 17320 bound_to 7965
  145.7028  141.0130  143.1495 LP  0  0  0  0  0  0  0  0  0  0  0  0  # atno 17321 bound_to 7965
  140.3762  143.2827  152.0222 LP  0  0  0  0  0  0  0  0  0  0  0  0  # atno 17342 bound_to 10162
  139.4847  144.6191  151.7289 LP  0  0  0  0  0  0  0  0  0  0  0  0  # atno 17343 bound_to 10162
  157.4288  131.0846  151.1059 LP  0  0  0  0  0  0  0  0  0  0  0  0  # atno 17370 bound_to 10713
  157.1639  130.6237  149.5619 LP  0  0  0  0  0  0  0  0  0  0  0  0  # atno 17371 bound_to 10713
  140.6268  133.9943  155.7643 LP  0  0  0  0  0  0  0  0  0  0  0  0  # atno 17394 bound_to 11000
  141.0859  133.9991  157.3314 LP  0  0  0  0  0  0  0  0  0  0  0  0  # atno 17395 bound_to 11000

$$$$
