AV-unprocessed.smi:220|AV-procd|sdf|1685|dock3
  -GOLD-   2262020123D 1   1.00000     0.00000
 Structure written by MMmdl.
 51 55  0  0  0  0  0  0  0  0  1 V2000
  141.8415  133.8216  153.8747 N   0  0  0  0  0  0  0  0  0  0  0  0
  142.4247  134.9028  153.3522 C   0  0  0  0  0  0  0  0  0  0  0  0
  141.8620  135.9959  153.3137 O   0  0  0  0  0  0  0  0  0  0  0  0
  143.8393  134.7174  152.7768 C   0  0  1  0  0  0  0  0  0  0  0  0
  143.8143  133.8937  151.4692 C   0  0  2  0  0  0  0  0  0  0  0  0
  144.2143  132.4195  151.6421 C   0  0  0  0  0  0  0  0  0  0  0  0
  145.7057  132.3706  151.3075 C   0  0  0  0  0  0  0  0  0  0  0  0
  145.8751  133.4139  150.2030 C   0  0  0  0  0  0  0  0  0  0  0  0
  144.8750  134.5249  150.5542 C   0  0  2  0  0  0  0  0  0  0  0  0
  145.4656  135.6773  151.3716 C   0  0  0  0  0  0  0  0  0  0  0  0
  144.4741  135.9794  152.3909 N   0  0  0  0  0  0  0  0  0  0  0  0
  144.8796  136.8711  153.3341 C   0  0  0  0  0  0  0  0  0  0  0  0
  144.5044  136.7162  154.6324 N   0  0  0  0  0  0  0  0  0  0  0  0
  144.9140  137.5822  155.5633 C   0  0  0  0  0  0  0  0  0  0  0  0
  145.6935  138.6547  155.4185 N   0  0  0  0  0  0  0  0  0  0  0  0
  146.0721  138.8194  154.1190 C   0  0  0  0  0  0  0  0  0  0  0  0
  145.7112  137.9840  153.0241 C   0  0  0  0  0  0  0  0  0  0  0  0
  146.2723  138.4755  151.8515 N   0  0  0  0  0  0  0  0  0  0  0  0
  146.9351  139.5328  152.2325 C   0  0  0  0  0  0  0  0  0  0  0  0
  146.8814  139.8056  153.5809 N   0  0  0  0  0  0  0  0  0  0  0  0
  147.5295  140.9084  154.2743 C   0  0  0  0  0  0  0  0  0  0  0  0
  148.7776  140.4872  155.0764 C   0  0  0  0  0  0  0  0  0  0  0  0
  148.3670  139.8428  156.4122 C   0  0  0  0  0  0  0  0  0  0  0  0
  147.6702  140.7584  157.2326 O   0  0  0  0  0  0  0  0  0  0  0  0
  149.8423  139.7023  154.2966 C   0  0  0  0  0  0  0  0  0  0  0  0
  150.8941  140.5937  154.7222 O   0  0  0  0  0  0  0  0  0  0  0  0
  149.8970  141.5325  155.1782 C   0  0  0  0  0  0  0  0  0  0  0  0
  140.9149  133.8941  154.2689 H   0  0  0  0  0  0  0  0  0  0  0  0
  142.3295  132.9378  153.8782 H   0  0  0  0  0  0  0  0  0  0  0  0
  144.4733  134.2140  153.5102 H   0  0  0  0  0  0  0  0  0  0  0  0
  142.8367  133.9577  150.9871 H   0  0  0  0  0  0  0  0  0  0  0  0
  143.9931  132.0273  152.6353 H   0  0  0  0  0  0  0  0  0  0  0  0
  143.6652  131.8099  150.9233 H   0  0  0  0  0  0  0  0  0  0  0  0
  146.2887  132.6624  152.1819 H   0  0  0  0  0  0  0  0  0  0  0  0
  146.0361  131.3774  151.0021 H   0  0  0  0  0  0  0  0  0  0  0  0
  146.9015  133.7715  150.1142 H   0  0  0  0  0  0  0  0  0  0  0  0
  145.6002  132.9702  149.2452 H   0  0  0  0  0  0  0  0  0  0  0  0
  144.4063  134.9219  149.6526 H   0  0  0  0  0  0  0  0  0  0  0  0
  146.4005  135.3844  151.8535 H   0  0  0  0  0  0  0  0  0  0  0  0
  145.6738  136.5336  150.7306 H   0  0  0  0  0  0  0  0  0  0  0  0
  144.5700  137.3859  156.5681 H   0  0  0  0  0  0  0  0  0  0  0  0
  147.4864  140.1437  151.5333 H   0  0  0  0  0  0  0  0  0  0  0  0
  147.7922  141.6575  153.5263 H   0  0  0  0  0  0  0  0  0  0  0  0
  146.7971  141.3914  154.9219 H   0  0  0  0  0  0  0  0  0  0  0  0
  147.7500  138.9571  156.2613 H   0  0  0  0  0  0  0  0  0  0  0  0
  149.2461  139.5065  156.9628 H   0  0  0  0  0  0  0  0  0  0  0  0
  147.3346  140.2946  157.9845 H   0  0  0  0  0  0  0  0  0  0  0  0
  149.9877  138.6800  154.6476 H   0  0  0  0  0  0  0  0  0  0  0  0
  149.7137  139.7268  153.2137 H   0  0  0  0  0  0  0  0  0  0  0  0
  149.7852  142.3711  154.4889 H   0  0  0  0  0  0  0  0  0  0  0  0
  150.0872  141.8864  156.1922 H   0  0  0  0  0  0  0  0  0  0  0  0
  1  2  1  0  0  0  0
  1 28  1  0  0  0  0
  1 29  1  0  0  0  0
  2  3  2  0  0  0  0
  2  4  1  0  0  0  0
  4 11  1  0  0  0  0
  4  5  1  0  0  0  0
  4 30  1  0  0  0  0
  5  9  1  0  0  0  0
  5  6  1  0  0  0  0
  5 31  1  0  0  0  0
  6  7  1  0  0  0  0
  6 32  1  0  0  0  0
  6 33  1  0  0  0  0
  7  8  1  0  0  0  0
  7 34  1  0  0  0  0
  7 35  1  0  0  0  0
  8  9  1  0  0  0  0
  8 36  1  0  0  0  0
  8 37  1  0  0  0  0
  9 10  1  0  0  0  0
  9 38  1  0  0  0  0
 10 11  1  0  0  0  0
 10 39  1  0  0  0  0
 10 40  1  0  0  0  0
 11 12  1  0  0  0  0
 12 17  1  0  0  0  0
 12 13  2  0  0  0  0
 13 14  1  0  0  0  0
 14 15  2  0  0  0  0
 14 41  1  0  0  0  0
 15 16  1  0  0  0  0
 16 20  1  0  0  0  0
 16 17  2  0  0  0  0
 17 18  1  0  0  0  0
 18 19  2  0  0  0  0
 19 20  1  0  0  0  0
 19 42  1  0  0  0  0
 20 21  1  0  0  0  0
 21 22  1  0  0  0  0
 21 43  1  0  0  0  0
 21 44  1  0  0  0  0
 22 27  1  0  0  0  0
 22 23  1  0  0  0  0
 22 25  1  0  0  0  0
 23 24  1  0  0  0  0
 23 45  1  0  0  0  0
 23 46  1  0  0  0  0
 24 47  1  0  0  0  0
 25 26  1  0  0  0  0
 25 48  1  0  0  0  0
 25 49  1  0  0  0  0
 26 27  1  0  0  0  0
 27 50  1  0  0  0  0
 27 51  1  0  0  0  0
M  END
> <s_m_source_file>
AV-unprocessed.smi

> <i_m_source_file_index>
220

> <i_lp_mmshare_version>
43012

> <i_f3d_flags>
0

> <s_epik_input>
W0NIMl0xW0NIMl1bQ0gyXVtDQEhdKFtDQEhdMTIpW0NIMl1OKFtDQEBIXTJDKD1PKVtOSDJdKWMobltjSF1uMyljKGMzNCluW2NIXW40W0NIMl1DNShbQ0gyXVtPSF0pW0NIMl1PW0NIMl01

> <s_epik_cmdline>
J2VwaWtfcHl0aG9uJywgJy1waCcsICc3LjAnLCAnLXRuJywgJzgnLCAnLW1hJywgJzIwMCcsICctbWV0YWxfYmluZGluZycsICctaW1hZScsICc8aW5maWxlLm1hZT4nLCAnLW9tYWUnLCAnPG91dGZpbGUubWFlPic=

> <r_lp_tautomer_probability>
1

> <r_epik_Ionization_Penalty>
0.00118987

> <r_epik_Ionization_Penalty_Charging>
0

> <r_epik_Ionization_Penalty_Neutral>
0.00118987

> <r_epik_State_Penalty>
0.000654261

> <r_epik_Charging_Adjusted_Penalty>
0.000654261

> <i_epik_Tot_Q>
0

> <i_epik_Tot_abs_Q>
0

> <r_epik_Metal_State_Penalty>
-0

> <b_epik_Metal_Only>
0

> <s_lp_Force_Field>
OPLS_2005

> <r_lp_Energy>
59.1601

> <b_lp_Chiralities_Consistent>
1

> <s_lp_Variant>
AV-unprocessed.smi:220-4

> <Gold.Version>
5.8.1

> <Gold.Id.Protein>
6NUR|6NUR_protein|mol2

> <Gold.PLP.Fitness>
43.2015

> <Gold.PLP.PLP>
-36.3204

> <Gold.PLP.part.hbond>
-2.5973

> <Gold.PLP.part.metal>
0.0000

> <Gold.PLP.part.buried>
-3.3625

> <Gold.PLP.part.nonpolar>
-31.5419

> <Gold.PLP.part.repulsive>
0.8981

> <Gold.PLP.ligand.clash>
0.0000

> <Gold.PLP.ligand.torsion>
1.2286

> <Gold.PLP.Chemscore.Hbond>
1.9440

> <Gold.PLP.Chemscore.CHOScore>
1.0000

> <Gold.PLP.Chemscore.Metal>
0.0000

> <Gold.Chemscore.Hbonds>
donor molecule, donor type, donor heavy atom, donor atom, acceptor molecule, acceptor atom, score
      L1  H     1    29       P1 10957  0.77
      P1  H  7989  7998       L1    26  0.80
      L1  C    19    42       P1  7957  0.94

> <Gold.PLP.Chemscore.Internal.Correction>
0.5064

> <Gold.Rescore>
     Score         DG    S(hbond)    S(metal)    S(lipo)     H(rot)  DE(clash)    DE(int)     intcor
      7.34     -11.74       1.84        0.00      72.59       3.27       0.20       4.20       ----

> <Gold.Chemscore.Fitness>
7.3397

> <Gold.Chemscore.DG>
-11.7401

> <Gold.Chemscore.ZeroCoef>
-5.4800

> <Gold.Chemscore.Hbond>
1.8381

> <Gold.Chemscore.Metal>
0.0000

> <Gold.Chemscore.Lipo>
72.5898

> <Gold.Chemscore.Internal_Hbond>
0.0000

> <Gold.Chemscore.DEClash>
0.2009

> <Gold.Chemscore.DEInternal>
4.1994

> <Gold.Chemscore.Rot>
3.2703

> <Gold.Chemscore.Internal.Correction>
   9.000000E+99

> <Gold.Chemscore.Hbonds>
donor molecule, donor type, donor heavy atom, donor atom, acceptor molecule, acceptor atom, score
      L1  H     1    29       P1 10957  0.72
      P1  H  7989  7998       L1    26  0.33

> <Gold.Chemscore.Hbond.Weighted>
-6.1391

> <Gold.Chemscore.Metal.Weighted>
-0.0000

> <Gold.Chemscore.Lipo.Weighted>
-8.4930

> <Gold.Chemscore.Internal_Hbond.Weighted>
0.0000

> <Gold.Chemscore.DEClash.Weighted>
0.2009

> <Gold.Chemscore.DEInternal.Weighted>
4.1994

> <Gold.Chemscore.Rot.Weighted>
8.3721

> <Gold.Chemscore.Internal.Correction.Weighted>
   9.000000E+99

> <Gold.Protein.RotatedTorsions>
[ 6907 6896 6895 6894 ] final  -98.47 input  -60.11 | X-H torsion
[ 7974 7965 7964 7962 ] final  110.94 input  175.53 | X-H torsion
[ 8008 7997 7996 7995 ] final  -71.68 input   59.86 | X-H torsion
[ 10167 10162 10161 10158 ] final  -77.70 input  -65.29 | X-H torsion
[ 10718 10713 10712 10709 ] final -138.52 input   66.30 | X-H torsion
[ 10763 10752 10751 10750 ] final -170.91 input  -60.55 | X-H torsion
[ 11005 11000 10999 10996 ] final  112.23 input  -57.11 | X-H torsion

> <Gold.Protein.ActiveResidues>
 VAL166  LYS551  ARG553  GLY616  TRP617  ASP618  TYR619  PRO620  LYS621  CYS622 
 ASP623  PHE694  ASN695  SER759  ASP760  ASP761  ALA762  ILE779  LEU786  VAL792 
 PHE793  MET794  SER795  GLU796  ALA797  LYS798  CYS799  TRP800  GLU811  SER814 

> <Gold.Protein.RotatedAtoms>
  150.7048  134.1190  159.4027 H   0  0  0  0  0  0  0  0  0  0  0  0  # atno 6907 bound_to 6896
  151.9176  135.0310  160.0529 H   0  0  0  0  0  0  0  0  0  0  0  0  # atno 6908 bound_to 6896
  152.2283  133.5002  159.5238 H   0  0  0  0  0  0  0  0  0  0  0  0  # atno 6909 bound_to 6896
  145.2486  139.2749  143.4079 H   0  0  0  0  0  0  0  0  0  0  0  0  # atno 7974 bound_to 7965
  154.5106  140.0811  156.7983 H   0  0  0  0  0  0  0  0  0  0  0  0  # atno 8008 bound_to 7997
  155.3793  140.3427  155.4228 H   0  0  0  0  0  0  0  0  0  0  0  0  # atno 8009 bound_to 7997
  156.1569  140.1576  156.8665 H   0  0  0  0  0  0  0  0  0  0  0  0  # atno 8010 bound_to 7997
  140.4747  143.2417  151.8151 H   0  0  0  0  0  0  0  0  0  0  0  0  # atno 10167 bound_to 10162
  156.3003  130.7425  151.1475 H   0  0  0  0  0  0  0  0  0  0  0  0  # atno 10718 bound_to 10713
  154.6363  135.2893  155.0157 H   0  0  0  0  0  0  0  0  0  0  0  0  # atno 10763 bound_to 10752
  154.1299  135.6535  153.4924 H   0  0  0  0  0  0  0  0  0  0  0  0  # atno 10764 bound_to 10752
  153.0304  135.5308  154.7211 H   0  0  0  0  0  0  0  0  0  0  0  0  # atno 10765 bound_to 10752
  139.8922  134.9525  156.6554 H   0  0  0  0  0  0  0  0  0  0  0  0  # atno 11005 bound_to 11000
  146.3309  140.2870  142.8613 LP  0  0  0  0  0  0  0  0  0  0  0  0  # atno 17320 bound_to 7965
  144.9524  140.8191  143.5564 LP  0  0  0  0  0  0  0  0  0  0  0  0  # atno 17321 bound_to 7965
  139.4824  144.4848  151.9261 LP  0  0  0  0  0  0  0  0  0  0  0  0  # atno 17342 bound_to 10162
  140.3933  144.2587  150.5898 LP  0  0  0  0  0  0  0  0  0  0  0  0  # atno 17343 bound_to 10162
  157.7366  131.0560  150.5403 LP  0  0  0  0  0  0  0  0  0  0  0  0  # atno 17370 bound_to 10713
  156.5530  130.4236  149.6098 LP  0  0  0  0  0  0  0  0  0  0  0  0  # atno 17371 bound_to 10713
  140.7488  133.8915  155.8332 LP  0  0  0  0  0  0  0  0  0  0  0  0  # atno 17394 bound_to 11000
  141.0017  134.1140  157.4310 LP  0  0  0  0  0  0  0  0  0  0  0  0  # atno 17395 bound_to 11000

$$$$
