AV-unprocessed.smi:101|AV-procd|sdf|916|dock6
  -GOLD-   2262017413D 1   1.00000     0.00000
 Structure written by MMmdl.
 44 46  0  0  0  0  0  0  0  0  1 V2000
  150.4171  133.9259  154.2460 C   0  0  0  0  0  0  0  0  0  0  0  0
  149.2245  134.8520  154.4185 C   0  0  0  0  0  0  0  0  0  0  0  0
  149.3546  136.1322  154.8519 C   0  0  0  0  0  0  0  0  0  0  0  0
  148.2834  137.0009  155.0196 N   0  0  0  0  0  0  0  0  0  0  0  0
  148.4647  138.4274  155.5020 C   0  0  1  0  0  0  0  0  0  0  0  0
  149.8131  138.6507  155.8020 O   0  0  0  0  0  0  0  0  0  0  0  0
  150.3629  139.5909  154.8859 C   0  0  2  0  0  0  0  0  0  0  0  0
  151.5749  140.2989  155.5073 C   0  0  0  0  0  0  0  0  0  0  0  0
  151.2043  140.9251  156.7255 O   0  0  0  0  0  0  0  0  0  0  0  0
  152.0265  140.8757  157.7900 C   0  0  0  0  0  0  0  0  0  0  0  0
  152.8024  139.9437  158.0111 O   0  0  0  0  0  0  0  0  0  0  0  0
  151.8982  142.0691  158.6752 C   0  0  0  0  0  0  0  0  0  0  0  0
  151.3179  143.2530  158.1630 C   0  0  0  0  0  0  0  0  0  0  0  0
  151.1859  144.3963  158.9748 C   0  0  0  0  0  0  0  0  0  0  0  0
  151.6327  144.3700  160.3087 C   0  0  0  0  0  0  0  0  0  0  0  0
  152.2118  143.1986  160.8303 C   0  0  0  0  0  0  0  0  0  0  0  0
  152.3443  142.0538  160.0203 C   0  0  0  0  0  0  0  0  0  0  0  0
  149.1768  140.4885  154.5370 C   0  0  1  0  0  0  0  0  0  0  0  0
  149.3735  141.2291  153.3470 O   0  0  0  0  0  0  0  0  0  0  0  0
  148.0335  139.4824  154.4523 C   0  0  1  0  0  0  0  0  0  0  0  0
  147.8848  138.9509  153.1433 O   0  0  0  0  0  0  0  0  0  0  0  0
  146.9808  136.5569  154.7144 C   0  0  0  0  0  0  0  0  0  0  0  0
  145.9904  137.2800  154.8155 O   0  0  0  0  0  0  0  0  0  0  0  0
  146.8461  135.2422  154.2729 N   0  0  0  0  0  0  0  0  0  0  0  0
  147.8918  134.3322  154.1001 C   0  0  0  0  0  0  0  0  0  0  0  0
  147.6470  133.1939  153.7040 O   0  0  0  0  0  0  0  0  0  0  0  0
  145.9143  134.9203  154.0556 H   0  0  0  0  0  0  0  0  0  0  0  0
  151.3549  134.4230  154.4947 H   0  0  0  0  0  0  0  0  0  0  0  0
  150.4865  133.5799  153.2141 H   0  0  0  0  0  0  0  0  0  0  0  0
  150.3190  133.0543  154.8943 H   0  0  0  0  0  0  0  0  0  0  0  0
  150.3514  136.4828  155.0711 H   0  0  0  0  0  0  0  0  0  0  0  0
  147.9140  138.5038  156.4415 H   0  0  0  0  0  0  0  0  0  0  0  0
  150.6814  139.0488  153.9941 H   0  0  0  0  0  0  0  0  0  0  0  0
  152.3723  139.5779  155.6919 H   0  0  0  0  0  0  0  0  0  0  0  0
  151.9633  141.0463  154.8139 H   0  0  0  0  0  0  0  0  0  0  0  0
  150.9675  143.2976  157.1418 H   0  0  0  0  0  0  0  0  0  0  0  0
  150.7411  145.2945  158.5726 H   0  0  0  0  0  0  0  0  0  0  0  0
  151.5311  145.2472  160.9307 H   0  0  0  0  0  0  0  0  0  0  0  0
  152.5557  143.1773  161.8540 H   0  0  0  0  0  0  0  0  0  0  0  0
  152.7934  141.1713  160.4520 H   0  0  0  0  0  0  0  0  0  0  0  0
  148.9747  141.1811  155.3549 H   0  0  0  0  0  0  0  0  0  0  0  0
  149.3462  140.6328  152.6143 H   0  0  0  0  0  0  0  0  0  0  0  0
  147.0836  139.9273  154.7508 H   0  0  0  0  0  0  0  0  0  0  0  0
  148.4683  139.4174  152.5645 H   0  0  0  0  0  0  0  0  0  0  0  0
  1  2  1  0  0  0  0
  1 28  1  0  0  0  0
  1 29  1  0  0  0  0
  1 30  1  0  0  0  0
  2 25  1  0  0  0  0
  2  3  2  0  0  0  0
  3  4  1  0  0  0  0
  3 31  1  0  0  0  0
  4  5  1  0  0  0  0
  4 22  1  0  0  0  0
  5 20  1  0  0  0  0
  5  6  1  0  0  0  0
  5 32  1  0  0  0  0
  6  7  1  0  0  0  0
  7  8  1  0  0  0  0
  7 18  1  0  0  0  0
  7 33  1  0  0  0  0
  8  9  1  0  0  0  0
  8 34  1  0  0  0  0
  8 35  1  0  0  0  0
  9 10  1  0  0  0  0
 10 11  2  0  0  0  0
 10 12  1  0  0  0  0
 12 17  1  0  0  0  0
 12 13  2  0  0  0  0
 13 14  1  0  0  0  0
 13 36  1  0  0  0  0
 14 15  2  0  0  0  0
 14 37  1  0  0  0  0
 15 16  1  0  0  0  0
 15 38  1  0  0  0  0
 16 17  2  0  0  0  0
 16 39  1  0  0  0  0
 17 40  1  0  0  0  0
 18 19  1  0  0  0  0
 18 20  1  0  0  0  0
 18 41  1  0  0  0  0
 19 42  1  0  0  0  0
 20 21  1  0  0  0  0
 20 43  1  0  0  0  0
 21 44  1  0  0  0  0
 22 23  2  0  0  0  0
 22 24  1  0  0  0  0
 24 27  1  0  0  0  0
 24 25  1  0  0  0  0
 25 26  2  0  0  0  0
M  END
> <s_m_source_file>
AV-unprocessed.smi

> <i_m_source_file_index>
101

> <i_lp_mmshare_version>
43012

> <i_f3d_flags>
0

> <s_epik_input>
Tz1jMVtuSF1jKD1PKW4oW2NIXWMxW0NIM10pW0NAQEhdMk9bQ0BIXShbQ0BASF0oW09IXSlbQ0BIXTJbT0hdKVtDSDJdT0MoPU8pYzNbY0hdW2NIXVtjSF1bY0hdW2NIXTM=

> <s_epik_cmdline>
J2VwaWtfcHl0aG9uJywgJy1waCcsICc3LjAnLCAnLXRuJywgJzgnLCAnLW1hJywgJzIwMCcsICctbWV0YWxfYmluZGluZycsICctaW1hZScsICc8aW5maWxlLm1hZT4nLCAnLW9tYWUnLCAnPG91dGZpbGUubWFlPic=

> <r_lp_tautomer_probability>
0.999537

> <r_epik_Ionization_Penalty>
0.00263537

> <r_epik_Ionization_Penalty_Charging>
0.00263428

> <r_epik_Ionization_Penalty_Neutral>
1.09111e-06

> <r_epik_State_Penalty>
0.00183335

> <r_epik_Charging_Adjusted_Penalty>
0.00446763

> <i_epik_Tot_Q>
0

> <i_epik_Tot_abs_Q>
0

> <r_epik_Metal_State_Penalty>
1.00528

> <b_epik_Metal_Only>
0

> <s_epik_Chemistry_Notes>
This compound has an ester and may undergo hydrolysis at high or low pH. This compound contains an acetal/aminal-like group ( X-CH(R)-Y where X, Y are N, S, or O) that may be acid/base labile, releasing an aldehyde.

> <s_lp_Force_Field>
OPLS_2005

> <r_lp_Energy>
40.9392

> <b_lp_Chiralities_Consistent>
1

> <s_lp_Variant>
AV-unprocessed.smi:101-4

> <Gold.Version>
5.8.1

> <Gold.Id.Protein>
6NUR|6NUR_protein|mol2

> <Gold.PLP.Fitness>
52.6039

> <Gold.PLP.PLP>
-42.3289

> <Gold.PLP.part.hbond>
-4.8844

> <Gold.PLP.part.metal>
0.0000

> <Gold.PLP.part.buried>
-4.0512

> <Gold.PLP.part.nonpolar>
-33.1677

> <Gold.PLP.part.repulsive>
0.1040

> <Gold.PLP.ligand.clash>
0.0000

> <Gold.PLP.ligand.torsion>
0.8524

> <Gold.PLP.Chemscore.Hbond>
3.9644

> <Gold.PLP.Chemscore.CHOScore>
0.0000

> <Gold.PLP.Chemscore.Metal>
0.0000

> <Gold.Chemscore.Hbonds>
donor molecule, donor type, donor heavy atom, donor atom, acceptor molecule, acceptor atom, score
      L1  H    19    42       P1  7957  1.00
      L1  H    21    44       P1  7957  1.00
      P1  H  7989  7998       L1    19  0.01
      P1  H  7997  8010       L1    11  0.98
      P1  H  8011  8017       L1    19  0.45

> <Gold.PLP.Chemscore.Internal.Correction>
0.0865

> <Gold.Rescore>
     Score         DG    S(hbond)    S(metal)    S(lipo)     H(rot)  DE(clash)    DE(int)     intcor
     18.37     -19.27       3.02        0.00     104.13       3.32       0.10       0.81       ----

> <Gold.Chemscore.Fitness>
18.3661

> <Gold.Chemscore.DG>
-19.2728

> <Gold.Chemscore.ZeroCoef>
-5.4800

> <Gold.Chemscore.Hbond>
3.0244

> <Gold.Chemscore.Metal>
0.0000

> <Gold.Chemscore.Lipo>
104.1317

> <Gold.Chemscore.Internal_Hbond>
0.0000

> <Gold.Chemscore.DEClash>
0.0985

> <Gold.Chemscore.DEInternal>
0.8082

> <Gold.Chemscore.Rot>
3.3172

> <Gold.Chemscore.Internal.Correction>
   9.000000E+99

> <Gold.Chemscore.Hbonds>
donor molecule, donor type, donor heavy atom, donor atom, acceptor molecule, acceptor atom, score
      L1  H    19    42       P1  7957  0.97
      L1  H    21    44       P1  7957  1.00
      P1  H  7997  8010       L1    11  0.82
      P1  H  8011  8017       L1    19  0.02

> <Gold.Chemscore.Hbond.Weighted>
-10.1014

> <Gold.Chemscore.Metal.Weighted>
-0.0000

> <Gold.Chemscore.Lipo.Weighted>
-12.1834

> <Gold.Chemscore.Internal_Hbond.Weighted>
0.0000

> <Gold.Chemscore.DEClash.Weighted>
0.0985

> <Gold.Chemscore.DEInternal.Weighted>
0.8082

> <Gold.Chemscore.Rot.Weighted>
8.4920

> <Gold.Chemscore.Internal.Correction.Weighted>
   9.000000E+99

> <Gold.Protein.RotatedTorsions>
[ 6907 6896 6895 6894 ] final  132.15 input  -60.11 | X-H torsion
[ 7974 7965 7964 7962 ] final  -14.42 input  175.53 | X-H torsion
[ 8008 7997 7996 7995 ] final   35.43 input   59.86 | X-H torsion
[ 10167 10162 10161 10158 ] final  -95.34 input  -65.29 | X-H torsion
[ 10718 10713 10712 10709 ] final -137.60 input   66.30 | X-H torsion
[ 10763 10752 10751 10750 ] final  -74.02 input  -60.55 | X-H torsion
[ 11005 11000 10999 10996 ] final   71.73 input  -57.11 | X-H torsion

> <Gold.Protein.ActiveResidues>
 VAL166  LYS551  ARG553  GLY616  TRP617  ASP618  TYR619  PRO620  LYS621  CYS622 
 ASP623  PHE694  ASN695  SER759  ASP760  ASP761  ALA762  ILE779  LEU786  VAL792 
 PHE793  MET794  SER795  GLU796  ALA797  LYS798  CYS799  TRP800  GLU811  SER814 

> <Gold.Protein.RotatedAtoms>
  152.3353  133.6005  159.5838 H   0  0  0  0  0  0  0  0  0  0  0  0  # atno 6907 bound_to 6896
  150.7447  133.9805  159.3583 H   0  0  0  0  0  0  0  0  0  0  0  0  # atno 6908 bound_to 6896
  151.7675  135.0795  160.0406 H   0  0  0  0  0  0  0  0  0  0  0  0  # atno 6909 bound_to 6896
  146.2075  140.3346  142.8402 H   0  0  0  0  0  0  0  0  0  0  0  0  # atno 7974 bound_to 7965
  155.1709  140.3291  155.4393 H   0  0  0  0  0  0  0  0  0  0  0  0  # atno 8008 bound_to 7997
  156.2510  140.1943  156.6763 H   0  0  0  0  0  0  0  0  0  0  0  0  # atno 8009 bound_to 7997
  154.6338  140.0579  156.9750 H   0  0  0  0  0  0  0  0  0  0  0  0  # atno 8010 bound_to 7997
  140.3051  143.3138  152.0207 H   0  0  0  0  0  0  0  0  0  0  0  0  # atno 10167 bound_to 10162
  156.2899  130.7369  151.1391 H   0  0  0  0  0  0  0  0  0  0  0  0  # atno 10718 bound_to 10713
  154.4674  135.5878  153.6297 H   0  0  0  0  0  0  0  0  0  0  0  0  # atno 10763 bound_to 10752
  152.9830  135.6058  154.3410 H   0  0  0  0  0  0  0  0  0  0  0  0  # atno 10764 bound_to 10752
  154.3288  135.2843  155.2461 H   0  0  0  0  0  0  0  0  0  0  0  0  # atno 10765 bound_to 10752
  139.9528  134.7197  156.0823 H   0  0  0  0  0  0  0  0  0  0  0  0  # atno 11005 bound_to 11000
  144.8828  140.7423  143.5975 LP  0  0  0  0  0  0  0  0  0  0  0  0  # atno 17320 bound_to 7965
  145.3266  139.1772  143.4559 LP  0  0  0  0  0  0  0  0  0  0  0  0  # atno 17321 bound_to 7965
  139.4906  144.6426  151.6844 LP  0  0  0  0  0  0  0  0  0  0  0  0  # atno 17342 bound_to 10162
  140.5617  144.0258  150.6173 LP  0  0  0  0  0  0  0  0  0  0  0  0  # atno 17343 bound_to 10162
  157.7339  131.0586  150.5551 LP  0  0  0  0  0  0  0  0  0  0  0  0  # atno 17370 bound_to 10713
  156.5666  130.4269  149.6038 LP  0  0  0  0  0  0  0  0  0  0  0  0  # atno 17371 bound_to 10713
  141.1194  133.6617  156.3176 LP  0  0  0  0  0  0  0  0  0  0  0  0  # atno 17394 bound_to 11000
  140.5679  134.5869  157.5450 LP  0  0  0  0  0  0  0  0  0  0  0  0  # atno 17395 bound_to 11000

$$$$
