#       Name:                AV-unprocessed.smi:2346
#       Creating user name   scv26
#       Creation time:       Fri Mar 27 12:59:06 2020


#       File generated by GOLD software.
#

@<TRIPOS>MOLECULE
AV-unprocessed.smi:2346
    52    54     1
SMALL
NO_CHARGES


@<TRIPOS>ATOM
      1 ****        -2.6121   1.4090   2.7397 C.3            1 S1                 0.0000
      2 ****        -1.4243   1.2985   1.9705 O.3            1 S1                 0.0000
      3 ****        -1.0018   2.3982   1.2517 C.ar           1 S1                 0.0000
      4 ****        -1.6780   3.6445   1.2489 C.ar           1 S1                 0.0000
      5 ****        -1.1866   4.7228   0.4868 C.ar           1 S1                 0.0000
      6 ****        -1.8864   5.9966   0.4901 C.1            1 S1                 0.0000
      7 ****        -2.4436   7.0105   0.4928 N.1            1 S1                 0.0000
      8 ****        -0.0160   4.5643  -0.2782 C.ar           1 S1                 0.0000
      9 ****         0.6607   3.3311  -0.2828 C.ar           1 S1                 0.0000
     10 ****         0.1720   2.2417   0.4800 C.ar           1 S1                 0.0000
     11 ****         0.7813   1.0072   0.5260 O.3            1 S1                 0.0000
     12 ****         1.8637   0.7409  -0.3546 C.3            1 S1                 0.0000
     13 ****         2.2555  -0.7372  -0.2129 C.3            1 S1                 0.0000
     14 ****         1.1315  -1.6252  -0.4787 N.pl3          1 S1                 0.0000
     15 ****         0.7481  -2.1732  -1.6605 C.2            1 S1                 0.0000
     16 ****         1.4973  -1.9303  -2.9417 C.3            1 S1                 0.0000
     17 ****         2.5335  -3.0283  -3.2156 C.3            1 S1                 0.0000
     18 ****         0.6341  -1.8444  -4.0576 O.3            1 S1                 0.0000
     19 ****        -0.3221  -2.9702  -1.6060 N.2            1 S1                 0.0000
     20 ****        -0.6828  -2.9094  -0.2747 C.ar           1 S1                 0.0000
     21 ****        -1.7512  -3.5243   0.4165 C.ar           1 S1                 0.0000
     22 ****        -1.9276  -3.3050   1.7984 C.ar           1 S1                 0.0000
     23 ****        -1.0384  -2.4722   2.5081 C.ar           1 S1                 0.0000
     24 ****         0.0359  -1.8553   1.8395 C.ar           1 S1                 0.0000
     25 ****         0.2061  -2.0750   0.4591 C.ar           1 S1                 0.0000
     26 ****        -2.8097   0.4564   3.2312 H              1 S1                 0.0000
     27 ****        -3.4737   1.6408   2.1122 H              1 S1                 0.0000
     28 ****        -2.5145   2.1678   3.5171 H              1 S1                 0.0000
     29 ****        -2.5785   3.7918   1.8269 H              1 S1                 0.0000
     30 ****         0.3703   5.3857  -0.8649 H              1 S1                 0.0000
     31 ****         1.5570   3.2458  -0.8780 H              1 S1                 0.0000
     32 ****         1.5742   0.9480  -1.3861 H              1 S1                 0.0000
     33 ****         2.7168   1.3739  -0.1077 H              1 S1                 0.0000
     34 ****         3.0841  -0.9849  -0.8759 H              1 S1                 0.0000
     35 ****         2.6130  -0.9291   0.7993 H              1 S1                 0.0000
     36 ****         2.0052  -0.9684  -2.8857 H              1 S1                 0.0000
     37 ****         3.2564  -3.0948  -2.4020 H              1 S1                 0.0000
     38 ****         3.0880  -2.8272  -4.1327 H              1 S1                 0.0000
     39 ****         2.0597  -4.0052  -3.3185 H              1 S1                 0.0000
     40 ****         0.1551  -2.6566  -4.1246 H              1 S1                 0.0000
     41 ****        -2.4385  -4.1626  -0.1187 H              1 S1                 0.0000
     42 ****        -2.7496  -3.7770   2.3162 H              1 S1                 0.0000
     43 ****        -1.1815  -2.3068   3.5658 H              1 S1                 0.0000
     44 ****         0.7160  -1.2134   2.3795 H              1 S1                 0.0000
     45 ****        -1.5635   0.5543   1.3173 LP             1 S1                 0.0000
     46 ****        -0.6862   1.0557   2.6000 LP             1 S1                 0.0000
     47 ****        -2.9252   7.8869   0.4952 LP             1 S1                 0.0000
     48 ****         0.0753   0.3246   0.3375 LP             1 S1                 0.0000
     49 ****         1.1240   0.8839   1.4574 LP             1 S1                 0.0000
     50 ****         1.1698  -1.6979  -4.8892 LP             1 S1                 0.0000
     51 ****        -0.0040  -1.0845  -3.9340 LP             1 S1                 0.0000
     52 ****        -0.7552  -3.4841  -2.3465 LP             1 S1                 0.0000
@<TRIPOS>BOND
    1    1    2 1     
    2    1   26 1     
    3    1   27 1     
    4    1   28 1     
    5    2    3 1     
    6    3   10 ar    
    7    3    4 ar    
    8    4    5 ar    
    9    4   29 1     
   10    5    6 1     
   11    5    8 ar    
   12    6    7 3     
   13    8    9 ar    
   14    8   30 1     
   15    9   10 ar    
   16    9   31 1     
   17   10   11 1     
   18   11   12 1     
   19   12   13 1     
   20   12   32 1     
   21   12   33 1     
   22   13   14 1     
   23   13   34 1     
   24   13   35 1     
   25   14   25 1     
   26   14   15 1     
   27   15   16 1     
   28   15   19 2     
   29   16   17 1     
   30   16   18 1     
   31   16   36 1     
   32   17   37 1     
   33   17   38 1     
   34   17   39 1     
   35   18   40 1     
   36   19   20 1     
   37   20   25 ar    
   38   20   21 ar    
   39   21   22 ar    
   40   21   41 1     
   41   22   23 ar    
   42   22   42 1     
   43   23   24 ar    
   44   23   43 1     
   45   24   25 ar    
   46   24   44 1     
   47    2   45 1     
   48    2   46 1     
   49    7   47 1     
   50   11   48 1     
   51   11   49 1     
   52   18   50 1     
   53   18   51 1     
   54   19   52 1     
@<TRIPOS>SUBSTRUCTURE
      1 S1             1
@<TRIPOS>SET
LONE_PAIRS      STATIC     ATOMS    <user>   **** ""
8 45 46 47 48 49 50 51 52
DONOR_HYDROGENS      STATIC     ATOMS    <user>   **** ""
1 40
ATOM$BLUE        STATIC     ATOMS    COLORGROUP SYSTEM
8 45 46 47 48 49 50 51 52
ATOM$RED        STATIC     ATOMS    COLORGROUP SYSTEM
1 40
