#       Name:                AV-unprocessed.smi:2679
#       Creating user name   scv26
#       Creation time:       Fri Mar 27 14:40:03 2020


#       File generated by GOLD software.
#

@<TRIPOS>MOLECULE
AV-unprocessed.smi:2679
    44    45     1
SMALL
NO_CHARGES


@<TRIPOS>ATOM
      1 ****        -3.9221   2.0163   1.5169 C.3            1 S1                 0.0000
      2 ****        -3.0433   1.6364   0.3691 C.2            1 S1                 0.0000
      3 ****        -3.4255   0.8139  -0.6095 N.2            1 S1                 0.0000
      4 ****        -2.3421   0.7240  -1.4539 N.2            1 S1                 0.0000
      5 ****        -1.3963   1.4958  -0.9114 C.2            1 S1                 0.0000
      6 ****         0.2135   1.7284  -1.6009 S.3            1 S1                 0.0000
      7 ****         0.5634   0.0477  -2.2179 C.3            1 S1                 0.0000
      8 ****         1.3715   0.1970  -3.4396 C.1            1 S1                 0.0000
      9 ****         2.0062   0.3152  -4.4000 N.1            1 S1                 0.0000
     10 ****         1.2430  -0.8543  -1.1550 C.3            1 S1                 0.0000
     11 ****         1.7651  -2.1736  -1.7720 C.3            1 S1                 0.0000
     12 ****         2.4425  -3.0767  -0.7287 C.3            1 S1                 0.0000
     13 ****         1.4997  -3.3795   0.4431 C.3            1 S1                 0.0000
     14 ****         0.9906  -2.0802   1.0795 C.3            1 S1                 0.0000
     15 ****         0.3133  -1.1766   0.0378 C.3            1 S1                 0.0000
     16 ****        -1.7839   2.1005   0.2315 N.pl3          1 S1                 0.0000
     17 ****        -1.0332   3.0014   1.0972 C.3            1 S1                 0.0000
     18 ****        -0.1584   2.2220   2.0821 C.2            1 S1                 0.0000
     19 ****         1.1646   2.3141   1.9286 N.am           1 S1                 0.0000
     20 ****        -0.6702   1.5354   2.9635 O.2            1 S1                 0.0000
     21 ****        -4.8659   1.4723   1.4710 H              1 S1                 0.0000
     22 ****        -4.1373   3.0845   1.4878 H              1 S1                 0.0000
     23 ****        -3.4342   1.7794   2.4625 H              1 S1                 0.0000
     24 ****        -0.3596  -0.4225  -2.5539 H              1 S1                 0.0000
     25 ****         2.1075  -0.3123  -0.7686 H              1 S1                 0.0000
     26 ****         0.9382  -2.7118  -2.2368 H              1 S1                 0.0000
     27 ****         2.4827  -1.9682  -2.5662 H              1 S1                 0.0000
     28 ****         2.7634  -4.0079  -1.1962 H              1 S1                 0.0000
     29 ****         3.3452  -2.5908  -0.3562 H              1 S1                 0.0000
     30 ****         0.6542  -3.9723   0.0918 H              1 S1                 0.0000
     31 ****         2.0146  -3.9843   1.1901 H              1 S1                 0.0000
     32 ****         0.2898  -2.3092   1.8828 H              1 S1                 0.0000
     33 ****         1.8233  -1.5463   1.5390 H              1 S1                 0.0000
     34 ****         0.0044  -0.2633   0.5399 H              1 S1                 0.0000
     35 ****        -0.5984  -1.6537  -0.3245 H              1 S1                 0.0000
     36 ****        -0.4287   3.6691   0.4819 H              1 S1                 0.0000
     37 ****        -1.7253   3.6353   1.6518 H              1 S1                 0.0000
     38 ****         1.7828   1.8179   2.5540 H              1 S1                 0.0000
     39 ****         1.5434   2.8821   1.1844 H              1 S1                 0.0000
     40 ****        -4.3107   0.3594  -0.7085 LP             1 S1                 0.0000
     41 ****        -2.2767   0.1916  -2.2979 LP             1 S1                 0.0000
     42 ****         2.5547   0.4173  -5.2299 LP             1 S1                 0.0000
     43 ****        -1.6657   1.4827   3.0414 LP             1 S1                 0.0000
     44 ****        -0.0911   1.0294   3.6027 LP             1 S1                 0.0000
@<TRIPOS>BOND
    1    1    2 1     
    2    1   21 1     
    3    1   22 1     
    4    1   23 1     
    5    2   16 1     
    6    2    3 2     
    7    3    4 1     
    8    4    5 2     
    9    5    6 1     
   10    5   16 1     
   11    6    7 1     
   12    7    8 1     
   13    7   10 1     
   14    7   24 1     
   15    8    9 3     
   16   10   15 1     
   17   10   11 1     
   18   10   25 1     
   19   11   12 1     
   20   11   26 1     
   21   11   27 1     
   22   12   13 1     
   23   12   28 1     
   24   12   29 1     
   25   13   14 1     
   26   13   30 1     
   27   13   31 1     
   28   14   15 1     
   29   14   32 1     
   30   14   33 1     
   31   15   34 1     
   32   15   35 1     
   33   16   17 1     
   34   17   18 1     
   35   17   36 1     
   36   17   37 1     
   37   18   19 am    
   38   18   20 2     
   39   19   38 1     
   40   19   39 1     
   41    3   40 1     
   42    4   41 1     
   43    9   42 1     
   44   20   43 1     
   45   20   44 1     
@<TRIPOS>SUBSTRUCTURE
      1 S1             1
@<TRIPOS>SET
LONE_PAIRS      STATIC     ATOMS    <user>   **** ""
5 40 41 42 43 44
DONOR_HYDROGENS      STATIC     ATOMS    <user>   **** ""
2 38 39
ATOM$BLUE        STATIC     ATOMS    COLORGROUP SYSTEM
5 40 41 42 43 44
ATOM$RED        STATIC     ATOMS    COLORGROUP SYSTEM
2 38 39
