AV-unprocessed.smi:21|AV-procd|sdf|134|dock2
  -GOLD-   2262015323D 1   1.00000     0.00000
 Structure written by MMmdl.
 62 65  0  0  0  0  0  0  0  0  2 V2000
  146.5561  130.7145  152.6674 C   0  0  0  0  0  0  0  0  0  0  0  0
  146.1498  132.0127  153.0705 O   0  0  0  0  0  0  0  0  0  0  0  0
  147.1687  132.9941  152.9414 C   0  0  2  0  0  0  0  0  0  0  0  0
  148.4209  132.5568  153.7117 C   0  0  0  0  0  0  0  0  0  0  0  0
  148.7210  133.6760  154.7230 C   0  0  1  0  0  0  0  0  0  0  0  0
  150.2285  133.9617  154.9036 C   0  0  0  0  0  0  0  0  0  0  0  0
  150.6191  134.0679  156.3120 N   0  0  0  0  0  0  0  0  0  0  0  0
  151.1353  132.8787  156.9798 C   0  0  0  0  0  0  0  0  0  0  0  0
  150.2519  135.1625  157.0426 C   0  0  0  0  0  0  0  0  0  0  0  0
  149.3101  135.0006  158.0119 N   0  0  0  0  0  0  0  0  0  0  0  0
  148.9088  136.0292  158.7624 C   0  0  0  0  0  0  0  0  0  0  0  0
  149.3145  137.2972  158.7201 N   0  0  0  0  0  0  0  0  0  0  0  0
  150.2608  137.4785  157.7568 C   0  0  0  0  0  0  0  0  0  0  0  0
  150.7809  136.4819  156.8785 C   0  0  0  0  0  0  0  0  0  0  0  0
  151.7289  137.0634  156.0407 N   0  0  0  0  0  0  0  0  0  0  0  0
  151.7646  138.3168  156.3992 C   0  0  0  0  0  0  0  0  0  0  0  0
  150.9211  138.6499  157.4323 N   0  0  0  0  0  0  0  0  0  0  0  0
  150.7585  139.9599  158.0385 C   0  0  0  0  0  0  0  0  0  0  0  0
  151.6093  141.0538  157.3413 C   0  0  1  0  0  0  0  0  0  0  0  0
  150.9010  141.6006  156.0801 C   0  0  0  0  0  0  0  0  0  0  0  0
  149.5678  141.9727  156.3611 O   0  0  0  0  0  0  0  0  0  0  0  0
  152.0534  142.1954  158.2970 C   0  0  1  0  0  0  0  0  0  0  0  0
  150.9776  143.1902  158.7152 C   0  0  0  0  0  0  0  0  0  0  0  0
  151.5311  143.7169  160.0312 C   0  0  0  0  0  0  0  0  0  0  0  0
  152.0558  142.5489  160.6407 O   0  0  0  0  0  0  0  0  0  0  0  0
  152.6686  141.7475  159.6351 C   0  0  0  0  0  0  0  0  0  0  0  0
  147.9849  134.8550  154.2203 N   0  3  2  0  0  0  0  0  0  0  0  0
  147.7108  135.8965  155.2354 C   0  0  0  0  0  0  0  0  0  0  0  0
  146.7677  134.3337  153.5707 C   0  0  0  0  0  0  0  0  0  0  0  0
  147.4360  133.1336  151.8921 H   0  0  0  0  0  0  0  0  0  0  0  0
  148.2749  133.3973  155.6795 H   0  0  0  0  0  0  0  0  0  0  0  0
  145.7344  130.0141  152.8156 H   0  0  0  0  0  0  0  0  0  0  0  0
  147.4036  130.3654  153.2585 H   0  0  0  0  0  0  0  0  0  0  0  0
  146.8308  130.6886  151.6125 H   0  0  0  0  0  0  0  0  0  0  0  0
  148.2850  131.6002  154.2179 H   0  0  0  0  0  0  0  0  0  0  0  0
  149.2444  132.4315  153.0079 H   0  0  0  0  0  0  0  0  0  0  0  0
  150.8088  133.1698  154.4286 H   0  0  0  0  0  0  0  0  0  0  0  0
  150.5177  134.8718  154.3787 H   0  0  0  0  0  0  0  0  0  0  0  0
  152.0044  133.1254  157.5899 H   0  0  0  0  0  0  0  0  0  0  0  0
  151.4499  132.1261  156.2568 H   0  0  0  0  0  0  0  0  0  0  0  0
  150.3712  132.4299  157.6151 H   0  0  0  0  0  0  0  0  0  0  0  0
  148.1555  135.8040  159.5030 H   0  0  0  0  0  0  0  0  0  0  0  0
  152.4180  139.0333  155.9233 H   0  0  0  0  0  0  0  0  0  0  0  0
  149.6998  140.2164  158.0052 H   0  0  0  0  0  0  0  0  0  0  0  0
  151.0173  139.8644  159.0922 H   0  0  0  0  0  0  0  0  0  0  0  0
  152.5270  140.5715  157.0008 H   0  0  0  0  0  0  0  0  0  0  0  0
  151.4067  142.4876  155.6992 H   0  0  0  0  0  0  0  0  0  0  0  0
  150.9091  140.8620  155.2783 H   0  0  0  0  0  0  0  0  0  0  0  0
  149.4622  142.8899  156.1594 H   0  0  0  0  0  0  0  0  0  0  0  0
  152.8325  142.7713  157.7956 H   0  0  0  0  0  0  0  0  0  0  0  0
  150.8174  143.9781  157.9785 H   0  0  0  0  0  0  0  0  0  0  0  0
  150.0224  142.7020  158.9022 H   0  0  0  0  0  0  0  0  0  0  0  0
  152.3348  144.4351  159.8595 H   0  0  0  0  0  0  0  0  0  0  0  0
  150.7695  144.1895  160.6518 H   0  0  0  0  0  0  0  0  0  0  0  0
  152.5117  140.6932  159.8594 H   0  0  0  0  0  0  0  0  0  0  0  0
  153.7455  141.9207  159.6369 H   0  0  0  0  0  0  0  0  0  0  0  0
  147.1195  135.4983  156.0611 H   0  0  0  0  0  0  0  0  0  0  0  0
  147.1580  136.7234  154.7885 H   0  0  0  0  0  0  0  0  0  0  0  0
  148.6370  136.2999  155.6439 H   0  0  0  0  0  0  0  0  0  0  0  0
  146.3658  135.0362  152.8398 H   0  0  0  0  0  0  0  0  0  0  0  0
  146.0030  134.1672  154.3318 H   0  0  0  0  0  0  0  0  0  0  0  0
  148.5518  135.2665  153.4927 H   0  0  0  0  0  0  0  0  0  0  0  0
  1  2  1  0  0  0  0
  1 32  1  0  0  0  0
  1 33  1  0  0  0  0
  1 34  1  0  0  0  0
  2  3  1  0  0  0  0
  3 30  1  0  0  0  0
  3 29  1  0  0  0  0
  3  4  1  0  0  0  0
  4  5  1  0  0  0  0
  4 35  1  0  0  0  0
  4 36  1  0  0  0  0
  5 31  1  0  0  0  0
  5  6  1  0  0  0  0
  5 27  1  0  0  0  0
  6  7  1  0  0  0  0
  6 37  1  0  0  0  0
  6 38  1  0  0  0  0
  7  8  1  0  0  0  0
  7  9  1  0  0  0  0
  8 39  1  0  0  0  0
  8 40  1  0  0  0  0
  8 41  1  0  0  0  0
  9 14  1  0  0  0  0
  9 10  2  0  0  0  0
 10 11  1  0  0  0  0
 11 12  2  0  0  0  0
 11 42  1  0  0  0  0
 12 13  1  0  0  0  0
 13 17  1  0  0  0  0
 13 14  2  0  0  0  0
 14 15  1  0  0  0  0
 15 16  2  0  0  0  0
 16 17  1  0  0  0  0
 16 43  1  0  0  0  0
 17 18  1  0  0  0  0
 18 19  1  0  0  0  0
 18 44  1  0  0  0  0
 18 45  1  0  0  0  0
 19 20  1  0  0  0  0
 19 22  1  0  0  0  0
 19 46  1  0  0  0  0
 20 21  1  0  0  0  0
 20 47  1  0  0  0  0
 20 48  1  0  0  0  0
 21 49  1  0  0  0  0
 22 26  1  0  0  0  0
 22 23  1  0  0  0  0
 22 50  1  0  0  0  0
 23 24  1  0  0  0  0
 23 51  1  0  0  0  0
 23 52  1  0  0  0  0
 24 25  1  0  0  0  0
 24 53  1  0  0  0  0
 24 54  1  0  0  0  0
 25 26  1  0  0  0  0
 26 55  1  0  0  0  0
 26 56  1  0  0  0  0
 27 28  1  0  0  0  0
 27 29  1  0  0  0  0
 27 62  1  0  0  0  0
 28 57  1  0  0  0  0
 28 58  1  0  0  0  0
 28 59  1  0  0  0  0
 29 60  1  0  0  0  0
 29 61  1  0  0  0  0
M  CHG  1  27   1
M  END
> <s_m_source_file>
AV-unprocessed.smi

> <i_m_source_file_index>
21

> <i_lp_mmshare_version>
43012

> <i_f3d_flags>
0

> <s_epik_input>
W0NIM11PW0NASF0xW0NIMl1bQ0BIXShOKFtDSDNdKVtDSDJdMSlbQ0gyXU4oW0NIM10pYyhuW2NIXW4yKWMoYzIzKW5bY0hdbjNbQ0gyXVtDQEhdKFtDSDJdW09IXSlbQ0BASF00W0NIMl1bQ0gyXU9bQ0gyXTQ=

> <s_epik_cmdline>
J2VwaWtfcHl0aG9uJywgJy1waCcsICc3LjAnLCAnLXRuJywgJzgnLCAnLW1hJywgJzIwMCcsICctbWV0YWxfYmluZGluZycsICctaW1hZScsICc8aW5maWxlLm1hZT4nLCAnLW9tYWUnLCAnPG91dGZpbGUubWFlPic=

> <r_lp_tautomer_probability>
1

> <r_epik_Ionization_Penalty>
0.0157465

> <r_epik_Ionization_Penalty_Charging>
0.015354

> <r_epik_Ionization_Penalty_Neutral>
0.000392529

> <r_epik_State_Penalty>
0.0120612

> <r_epik_Charging_Adjusted_Penalty>
0.0274152

> <i_epik_Tot_Q>
1

> <i_epik_Tot_abs_Q>
1

> <r_epik_Metal_State_Penalty>
0.0121253

> <b_epik_Metal_Only>
0

> <s_lp_Force_Field>
OPLS_2005

> <r_lp_Energy>
60.5183

> <b_lp_Chiralities_Consistent>
1

> <s_lp_Variant>
AV-unprocessed.smi:21-14

> <Gold.Version>
5.8.1

> <Gold.Id.Protein>
6NUR|6NUR_protein|mol2

> <Gold.PLP.Fitness>
47.2545

> <Gold.PLP.PLP>
-39.7849

> <Gold.PLP.part.hbond>
-3.3918

> <Gold.PLP.part.metal>
0.0000

> <Gold.PLP.part.buried>
-6.7872

> <Gold.PLP.part.nonpolar>
-28.9847

> <Gold.PLP.part.repulsive>
0.1865

> <Gold.PLP.ligand.clash>
0.0000

> <Gold.PLP.ligand.torsion>
2.6403

> <Gold.PLP.Chemscore.Hbond>
3.9635

> <Gold.PLP.Chemscore.CHOScore>
0.0000

> <Gold.PLP.Chemscore.Metal>
0.0000

> <Gold.Chemscore.Hbonds>
donor molecule, donor type, donor heavy atom, donor atom, acceptor molecule, acceptor atom, score
      L1  H    21    49       P1  8028  1.00
      L1  H    27    62       P1  7948  2.00
      P1  H  6896  6907       L1    10  0.50
      P1  H 10752 10765       L1    15  0.28

> <Gold.PLP.Chemscore.Internal.Correction>
0.8596

> <Gold.Rescore>
     Score         DG    S(hbond)    S(metal)    S(lipo)     H(rot)  DE(clash)    DE(int)     intcor
     14.06     -17.75       2.56        0.00      99.18       3.08       0.13       3.56       ----

> <Gold.Chemscore.Fitness>
14.0604

> <Gold.Chemscore.DG>
-17.7545

> <Gold.Chemscore.ZeroCoef>
-5.4800

> <Gold.Chemscore.Hbond>
2.5582

> <Gold.Chemscore.Metal>
0.0000

> <Gold.Chemscore.Lipo>
99.1805

> <Gold.Chemscore.Internal_Hbond>
0.0000

> <Gold.Chemscore.DEClash>
0.1326

> <Gold.Chemscore.DEInternal>
3.5615

> <Gold.Chemscore.Rot>
3.0758

> <Gold.Chemscore.Internal.Correction>
   9.000000E+99

> <Gold.Chemscore.Hbonds>
donor molecule, donor type, donor heavy atom, donor atom, acceptor molecule, acceptor atom, score
      L1  H    21    49       P1  8028  0.97
      L1  H    27    62       P1  7948  0.92
      P1  H  6896  6907       L1    10  0.01
      P1  H 10752 10765       L1    15  0.25

> <Gold.Chemscore.Hbond.Weighted>
-8.5445

> <Gold.Chemscore.Metal.Weighted>
-0.0000

> <Gold.Chemscore.Lipo.Weighted>
-11.6041

> <Gold.Chemscore.Internal_Hbond.Weighted>
0.0000

> <Gold.Chemscore.DEClash.Weighted>
0.1326

> <Gold.Chemscore.DEInternal.Weighted>
3.5615

> <Gold.Chemscore.Rot.Weighted>
7.8741

> <Gold.Chemscore.Internal.Correction.Weighted>
   9.000000E+99

> <Gold.Protein.RotatedTorsions>
[ 6907 6896 6895 6894 ] final -103.67 input  -60.11 | X-H torsion
[ 7974 7965 7964 7962 ] final  -24.04 input  175.53 | X-H torsion
[ 8008 7997 7996 7995 ] final  -54.87 input   59.86 | X-H torsion
[ 10167 10162 10161 10158 ] final  119.14 input  -65.29 | X-H torsion
[ 10718 10713 10712 10709 ] final   94.64 input   66.30 | X-H torsion
[ 10763 10752 10751 10750 ] final -160.41 input  -60.55 | X-H torsion
[ 11005 11000 10999 10996 ] final   64.58 input  -57.11 | X-H torsion

> <Gold.Protein.ActiveResidues>
 VAL166  LYS551  ARG553  GLY616  TRP617  ASP618  TYR619  PRO620  LYS621  CYS622 
 ASP623  PHE694  ASN695  SER759  ASP760  ASP761  ALA762  ILE779  LEU786  VAL792 
 PHE793  MET794  SER795  GLU796  ALA797  LYS798  CYS799  TRP800  GLU811  SER814 

> <Gold.Protein.RotatedAtoms>
  150.7251  134.0393  159.3759 H   0  0  0  0  0  0  0  0  0  0  0  0  # atno 6907 bound_to 6896
  151.8366  135.0602  160.0452 H   0  0  0  0  0  0  0  0  0  0  0  0  # atno 6908 bound_to 6896
  152.2894  133.5510  159.5584 H   0  0  0  0  0  0  0  0  0  0  0  0  # atno 6909 bound_to 6896
  146.1579  140.4698  142.8584 H   0  0  0  0  0  0  0  0  0  0  0  0  # atno 7974 bound_to 7965
  154.4176  140.1166  156.5385 H   0  0  0  0  0  0  0  0  0  0  0  0  # atno 8008 bound_to 7997
  155.6533  140.3496  155.4737 H   0  0  0  0  0  0  0  0  0  0  0  0  # atno 8009 bound_to 7997
  155.9774  140.1153  157.0747 H   0  0  0  0  0  0  0  0  0  0  0  0  # atno 8010 bound_to 7997
  139.6066  144.7071  151.2940 H   0  0  0  0  0  0  0  0  0  0  0  0  # atno 10167 bound_to 10162
  157.6946  131.0519  150.4217 H   0  0  0  0  0  0  0  0  0  0  0  0  # atno 10718 bound_to 10713
  154.7392  135.3064  154.8757 H   0  0  0  0  0  0  0  0  0  0  0  0  # atno 10763 bound_to 10752
  153.9577  135.6756  153.4749 H   0  0  0  0  0  0  0  0  0  0  0  0  # atno 10764 bound_to 10752
  153.0993  135.4920  154.8760 H   0  0  0  0  0  0  0  0  0  0  0  0  # atno 10765 bound_to 10752
  139.9949  134.6532  156.0027 H   0  0  0  0  0  0  0  0  0  0  0  0  # atno 11005 bound_to 11000
  144.7988  140.6173  143.6492 LP  0  0  0  0  0  0  0  0  0  0  0  0  # atno 17320 bound_to 7965
  145.4662  139.1508  143.3839 LP  0  0  0  0  0  0  0  0  0  0  0  0  # atno 17321 bound_to 7965
  140.7289  143.6923  150.7912 LP  0  0  0  0  0  0  0  0  0  0  0  0  # atno 17342 bound_to 10162
  140.0510  143.5250  152.2674 LP  0  0  0  0  0  0  0  0  0  0  0  0  # atno 17343 bound_to 10162
  156.4591  130.4028  149.6587 LP  0  0  0  0  0  0  0  0  0  0  0  0  # atno 17370 bound_to 10713
  156.3709  130.7530  151.2513 LP  0  0  0  0  0  0  0  0  0  0  0  0  # atno 17371 bound_to 10713
  141.1596  133.6540  156.4276 LP  0  0  0  0  0  0  0  0  0  0  0  0  # atno 17394 bound_to 11000
  140.4837  134.6641  157.5181 LP  0  0  0  0  0  0  0  0  0  0  0  0  # atno 17395 bound_to 11000

$$$$
