AV-unprocessed.smi:987|AV-procd|sdf|4323|dock2
  -GOLD-   22720 2223D 1   1.00000     0.00000
 Structure written by MMmdl.
 50 52  0  0  0  0  0  0  0  0  1 V2000
  152.5208  144.7033  157.8548 C   0  0  0  0  0  0  0  0  0  0  0  0
  151.5801  143.8595  158.7338 C   0  0  1  0  0  0  0  0  0  0  0  0
  150.6203  142.9651  157.9243 C   0  0  0  0  0  0  0  0  0  0  0  0
  151.3224  141.8097  157.3699 N   0  0  0  0  0  0  0  0  0  0  0  0
  150.6596  141.0368  156.3932 C   0  0  0  0  0  0  0  0  0  0  0  0
  149.2989  141.2849  156.0978 C   0  0  0  0  0  0  0  0  0  0  0  0
  148.6565  140.5046  155.1184 C   0  0  0  0  0  0  0  0  0  0  0  0
  149.3846  139.5023  154.4490 C   0  0  0  0  0  0  0  0  0  0  0  0
  148.7050  138.7188  153.4777 N   0  0  0  0  0  0  0  0  0  0  0  0
  147.3912  138.6892  153.1966 C   0  0  0  0  0  0  0  0  0  0  0  0
  146.5223  139.3271  153.7897 O   0  0  0  0  0  0  0  0  0  0  0  0
  147.1342  137.8494  152.1845 N   0  0  0  0  0  0  0  0  0  0  0  0
  145.8139  137.5936  151.6168 C   0  0  0  0  0  0  0  0  0  0  0  0
  145.3902  136.1195  151.7504 C   0  0  0  0  0  0  0  0  0  0  0  0
  146.5684  135.3706  151.5240 O   0  0  0  0  0  0  0  0  0  0  0  0
  144.5757  135.6783  152.9832 C   0  0  0  0  0  0  0  0  0  0  0  0
  143.7112  134.8049  152.0732 C   0  0  0  0  0  0  0  0  0  0  0  0
  144.2016  135.6456  150.8930 C   0  0  0  0  0  0  0  0  0  0  0  0
  150.7368  139.3148  154.8219 C   0  0  0  0  0  0  0  0  0  0  0  0
  151.3549  140.0580  155.7641 N   0  0  0  0  0  0  0  0  0  0  0  0
  152.0629  141.0525  158.3734 C   0  0  0  0  0  0  0  0  0  0  0  0
  153.0236  141.9778  159.1416 C   0  0  2  0  0  0  0  0  0  0  0  0
  153.7208  141.2472  160.2940 C   0  0  0  0  0  0  0  0  0  0  0  0
  152.2955  143.0755  159.6914 O   0  0  0  0  0  0  0  0  0  0  0  0
  151.9508  145.3915  157.2305 H   0  0  0  0  0  0  0  0  0  0  0  0
  153.1258  144.0896  157.1879 H   0  0  0  0  0  0  0  0  0  0  0  0
  153.1970  145.2986  158.4686 H   0  0  0  0  0  0  0  0  0  0  0  0
  150.9738  144.5607  159.3078 H   0  0  0  0  0  0  0  0  0  0  0  0
  149.8182  142.6092  158.5723 H   0  0  0  0  0  0  0  0  0  0  0  0
  150.1556  143.5497  157.1291 H   0  0  0  0  0  0  0  0  0  0  0  0
  148.7419  142.0495  156.6186 H   0  0  0  0  0  0  0  0  0  0  0  0
  147.6159  140.6781  154.8856 H   0  0  0  0  0  0  0  0  0  0  0  0
  149.2835  138.0717  152.9624 H   0  0  0  0  0  0  0  0  0  0  0  0
  147.9107  137.3612  151.7633 H   0  0  0  0  0  0  0  0  0  0  0  0
  145.1216  138.2313  152.1669 H   0  0  0  0  0  0  0  0  0  0  0  0
  145.7649  137.9458  150.5841 H   0  0  0  0  0  0  0  0  0  0  0  0
  147.2986  135.9360  151.7229 H   0  0  0  0  0  0  0  0  0  0  0  0
  145.1427  135.1240  153.7320 H   0  0  0  0  0  0  0  0  0  0  0  0
  144.0073  136.4915  153.4372 H   0  0  0  0  0  0  0  0  0  0  0  0
  144.0568  133.7713  152.0278 H   0  0  0  0  0  0  0  0  0  0  0  0
  142.6397  134.8676  152.2645 H   0  0  0  0  0  0  0  0  0  0  0  0
  143.5074  136.4474  150.6372 H   0  0  0  0  0  0  0  0  0  0  0  0
  144.4735  135.0634  150.0118 H   0  0  0  0  0  0  0  0  0  0  0  0
  151.3498  138.5427  154.3844 H   0  0  0  0  0  0  0  0  0  0  0  0
  151.3498  140.5968  159.0616 H   0  0  0  0  0  0  0  0  0  0  0  0
  152.6313  140.2387  157.9247 H   0  0  0  0  0  0  0  0  0  0  0  0
  153.7930  142.3488  158.4644 H   0  0  0  0  0  0  0  0  0  0  0  0
  154.3066  140.4041  159.9271 H   0  0  0  0  0  0  0  0  0  0  0  0
  152.9969  140.8644  161.0141 H   0  0  0  0  0  0  0  0  0  0  0  0
  154.3982  141.9159  160.8255 H   0  0  0  0  0  0  0  0  0  0  0  0
  1  2  1  0  0  0  0
  1 25  1  0  0  0  0
  1 26  1  0  0  0  0
  1 27  1  0  0  0  0
  2 24  1  0  0  0  0
  2  3  1  0  0  0  0
  2 28  1  0  0  0  0
  3  4  1  0  0  0  0
  3 29  1  0  0  0  0
  3 30  1  0  0  0  0
  4  5  1  0  0  0  0
  4 21  1  0  0  0  0
  5 20  1  0  0  0  0
  5  6  2  0  0  0  0
  6  7  1  0  0  0  0
  6 31  1  0  0  0  0
  7  8  2  0  0  0  0
  7 32  1  0  0  0  0
  8  9  1  0  0  0  0
  8 19  1  0  0  0  0
  9 10  1  0  0  0  0
  9 33  1  0  0  0  0
 10 11  2  0  0  0  0
 10 12  1  0  0  0  0
 12 13  1  0  0  0  0
 12 34  1  0  0  0  0
 13 14  1  0  0  0  0
 13 35  1  0  0  0  0
 13 36  1  0  0  0  0
 14 18  1  0  0  0  0
 14 15  1  0  0  0  0
 14 16  1  0  0  0  0
 15 37  1  0  0  0  0
 16 17  1  0  0  0  0
 16 38  1  0  0  0  0
 16 39  1  0  0  0  0
 17 18  1  0  0  0  0
 17 40  1  0  0  0  0
 17 41  1  0  0  0  0
 18 42  1  0  0  0  0
 18 43  1  0  0  0  0
 19 20  2  0  0  0  0
 19 44  1  0  0  0  0
 21 22  1  0  0  0  0
 21 45  1  0  0  0  0
 21 46  1  0  0  0  0
 22 23  1  0  0  0  0
 22 24  1  0  0  0  0
 22 47  1  0  0  0  0
 23 48  1  0  0  0  0
 23 49  1  0  0  0  0
 23 50  1  0  0  0  0
M  END
> <s_m_source_file>
AV-unprocessed.smi

> <i_m_source_file_index>
987

> <i_lp_mmshare_version>
43012

> <i_f3d_flags>
0

> <s_epik_input>
W0NIM11bQ0BASF0xW0NIMl1OKFtDSDJdW0NASF0oTzEpW0NIM10pYzJbY0hdW2NIXWMoW2NIXW4yKVtOSF1DKD1PKVtOSF1bQ0gyXUMzKFtPSF0pW0NIMl1bQ0gyXVtDSDJdMw==

> <s_epik_cmdline>
J2VwaWtfcHl0aG9uJywgJy1waCcsICc3LjAnLCAnLXRuJywgJzgnLCAnLW1hJywgJzIwMCcsICctbWV0YWxfYmluZGluZycsICctaW1hZScsICc8aW5maWxlLm1hZT4nLCAnLW9tYWUnLCAnPG91dGZpbGUubWFlPic=

> <r_lp_tautomer_probability>
1

> <r_epik_Ionization_Penalty>
0.00275455

> <r_epik_Ionization_Penalty_Charging>
0

> <r_epik_Ionization_Penalty_Neutral>
0.00275455

> <r_epik_State_Penalty>
0.00189097

> <r_epik_Charging_Adjusted_Penalty>
0.00189097

> <i_epik_Tot_Q>
0

> <i_epik_Tot_abs_Q>
0

> <r_epik_Metal_State_Penalty>
-0

> <b_epik_Metal_Only>
0

> <s_lp_Force_Field>
OPLS_2005

> <r_lp_Energy>
31.4947

> <b_lp_Chiralities_Consistent>
1

> <s_lp_Variant>
AV-unprocessed.smi:987-3

> <Gold.Version>
5.8.1

> <Gold.Id.Protein>
6NUR|6NUR_protein|mol2

> <Gold.PLP.Fitness>
51.4858

> <Gold.PLP.PLP>
-44.5033

> <Gold.PLP.part.hbond>
-3.8033

> <Gold.PLP.part.metal>
0.0000

> <Gold.PLP.part.buried>
-4.1038

> <Gold.PLP.part.nonpolar>
-37.9106

> <Gold.PLP.part.repulsive>
0.3468

> <Gold.PLP.ligand.clash>
0.0000

> <Gold.PLP.ligand.torsion>
0.5553

> <Gold.PLP.Chemscore.Hbond>
2.5616

> <Gold.PLP.Chemscore.CHOScore>
0.0000

> <Gold.PLP.Chemscore.Metal>
0.0000

> <Gold.Chemscore.Hbonds>
donor molecule, donor type, donor heavy atom, donor atom, acceptor molecule, acceptor atom, score
      L1  H     9    33       P1  7948  0.55
      L1  H    12    34       P1  7948  0.94
      L1  H    15    37       P1  7948  1.00

> <Gold.PLP.Chemscore.Internal.Correction>
0.4083

> <Gold.Rescore>
     Score         DG    S(hbond)    S(metal)    S(lipo)     H(rot)  DE(clash)    DE(int)     intcor
     19.59     -21.73       2.50        0.00     109.89       1.93       0.23       1.90       ----

> <Gold.Chemscore.Fitness>
19.5925

> <Gold.Chemscore.DG>
-21.7268

> <Gold.Chemscore.ZeroCoef>
-5.4800

> <Gold.Chemscore.Hbond>
2.4973

> <Gold.Chemscore.Metal>
0.0000

> <Gold.Chemscore.Lipo>
109.8869

> <Gold.Chemscore.Internal_Hbond>
0.0000

> <Gold.Chemscore.DEClash>
0.2342

> <Gold.Chemscore.DEInternal>
1.9001

> <Gold.Chemscore.Rot>
1.9340

> <Gold.Chemscore.Internal.Correction>
   9.000000E+99

> <Gold.Chemscore.Hbonds>
donor molecule, donor type, donor heavy atom, donor atom, acceptor molecule, acceptor atom, score
      L1  H     9    33       P1  7948  0.51
      L1  H    12    34       P1  7948  0.85
      L1  H    15    37       P1  7948  0.94

> <Gold.Chemscore.Hbond.Weighted>
-8.3409

> <Gold.Chemscore.Metal.Weighted>
-0.0000

> <Gold.Chemscore.Lipo.Weighted>
-12.8568

> <Gold.Chemscore.Internal_Hbond.Weighted>
0.0000

> <Gold.Chemscore.DEClash.Weighted>
0.2342

> <Gold.Chemscore.DEInternal.Weighted>
1.9001

> <Gold.Chemscore.Rot.Weighted>
4.9509

> <Gold.Chemscore.Internal.Correction.Weighted>
   9.000000E+99

> <Gold.Protein.RotatedTorsions>
[ 6907 6896 6895 6894 ] final   24.79 input  -60.11 | X-H torsion
[ 7974 7965 7964 7962 ] final  104.16 input  175.53 | X-H torsion
[ 8008 7997 7996 7995 ] final   86.76 input   59.86 | X-H torsion
[ 10167 10162 10161 10158 ] final  -13.01 input  -65.29 | X-H torsion
[ 10718 10713 10712 10709 ] final -168.23 input   66.30 | X-H torsion
[ 10763 10752 10751 10750 ] final  -41.15 input  -60.55 | X-H torsion
[ 11005 11000 10999 10996 ] final   35.23 input  -57.11 | X-H torsion

> <Gold.Protein.ActiveResidues>
 VAL166  LYS551  ARG553  GLY616  TRP617  ASP618  TYR619  PRO620  LYS621  CYS622 
 ASP623  PHE694  ASN695  SER759  ASP760  ASP761  ALA762  ILE779  LEU786  VAL792 
 PHE793  MET794  SER795  GLU796  ALA797  LYS798  CYS799  TRP800  GLU811  SER814 

> <Gold.Protein.RotatedAtoms>
  151.9627  135.0115  160.0548 H   0  0  0  0  0  0  0  0  0  0  0  0  # atno 6907 bound_to 6896
  152.1854  133.4731  159.4988 H   0  0  0  0  0  0  0  0  0  0  0  0  # atno 6908 bound_to 6896
  150.6925  134.1698  159.4251 H   0  0  0  0  0  0  0  0  0  0  0  0  # atno 6909 bound_to 6896
  145.3364  139.2473  143.3633 H   0  0  0  0  0  0  0  0  0  0  0  0  # atno 7974 bound_to 7965
  155.9668  140.3389  155.6540 H   0  0  0  0  0  0  0  0  0  0  0  0  # atno 8008 bound_to 7997
  155.6726  140.0728  157.2532 H   0  0  0  0  0  0  0  0  0  0  0  0  # atno 8009 bound_to 7997
  154.4156  140.1689  156.1883 H   0  0  0  0  0  0  0  0  0  0  0  0  # atno 8010 bound_to 7997
  140.7173  143.5471  150.9343 H   0  0  0  0  0  0  0  0  0  0  0  0  # atno 10167 bound_to 10162
  156.6939  130.9170  151.3072 H   0  0  0  0  0  0  0  0  0  0  0  0  # atno 10718 bound_to 10713
  153.9577  135.6743  153.4745 H   0  0  0  0  0  0  0  0  0  0  0  0  # atno 10763 bound_to 10752
  153.0853  135.4902  154.8582 H   0  0  0  0  0  0  0  0  0  0  0  0  # atno 10764 bound_to 10752
  154.7290  135.3134  154.8882 H   0  0  0  0  0  0  0  0  0  0  0  0  # atno 10765 bound_to 10752
  140.2447  134.3373  155.7912 H   0  0  0  0  0  0  0  0  0  0  0  0  # atno 11005 bound_to 11000
  146.3025  140.3952  142.8699 LP  0  0  0  0  0  0  0  0  0  0  0  0  # atno 17320 bound_to 7965
  144.8824  140.7418  143.5978 LP  0  0  0  0  0  0  0  0  0  0  0  0  # atno 17321 bound_to 7965
  139.9195  143.6623  152.3099 LP  0  0  0  0  0  0  0  0  0  0  0  0  # atno 17342 bound_to 10162
  139.7035  144.7631  151.1233 LP  0  0  0  0  0  0  0  0  0  0  0  0  # atno 17343 bound_to 10162
  157.6998  130.9321  150.0752 LP  0  0  0  0  0  0  0  0  0  0  0  0  # atno 17370 bound_to 10713
  156.1777  130.3649  149.9077 LP  0  0  0  0  0  0  0  0  0  0  0  0  # atno 17371 bound_to 10713
  141.2207  133.7319  156.8942 LP  0  0  0  0  0  0  0  0  0  0  0  0  # atno 17394 bound_to 11000
  140.1617  134.9161  157.2723 LP  0  0  0  0  0  0  0  0  0  0  0  0  # atno 17395 bound_to 11000

$$$$
