AV-unprocessed.smi:3253|AV-procd|sdf|12451|dock2
  -GOLD-   2272018343D 1   1.00000     0.00000
 Structure written by MMmdl.
 36 37  0  0  0  0  0  0  0  0  1 V2000
  146.3859  128.3885  152.9733 C   0  0  0  0  0  0  0  0  0  0  0  0
  146.2024  129.8531  152.5432 C   0  0  2  0  0  0  0  0  0  0  0  0
  145.8001  130.0040  151.0595 C   0  0  0  0  0  0  0  0  0  0  0  0
  145.3935  131.3552  150.7230 N   0  0  0  0  0  0  0  0  0  0  0  0
  144.1175  131.7914  150.3909 C   0  0  0  0  0  0  0  0  0  0  0  0
  144.2148  133.1433  150.1499 C   0  0  0  0  0  0  0  0  0  0  0  0
  145.5340  133.5562  150.3211 N   0  0  0  0  0  0  0  0  0  0  0  0
  146.1732  132.4430  150.6565 C   0  0  0  0  0  0  0  0  0  0  0  0
  147.4361  130.5877  152.8085 N   0  0  0  0  0  0  0  0  0  0  0  0
  147.9942  130.7576  154.0172 C   0  0  0  0  0  0  0  0  0  0  0  0
  147.5092  130.3049  155.0547 O   0  0  0  0  0  0  0  0  0  0  0  0
  149.3016  131.5639  154.0611 C   0  0  1  0  0  0  0  0  0  0  0  0
  149.1924  132.7649  155.0227 C   0  0  0  0  0  0  0  0  0  0  0  0
  150.1525  132.4236  156.1499 C   0  0  0  0  0  0  0  0  0  0  0  0
  150.2706  133.1161  157.1596 O   0  0  0  0  0  0  0  0  0  0  0  0
  150.8164  131.2948  155.8872 N   0  0  0  0  0  0  0  0  0  0  0  0
  151.8113  130.6722  156.7499 C   0  0  0  0  0  0  0  0  0  0  0  0
  150.4898  130.7300  154.5893 C   0  0  0  0  0  0  0  0  0  0  0  0
  145.4579  127.8240  152.8793 H   0  0  0  0  0  0  0  0  0  0  0  0
  146.6982  128.3227  154.0161 H   0  0  0  0  0  0  0  0  0  0  0  0
  147.1422  127.8892  152.3668 H   0  0  0  0  0  0  0  0  0  0  0  0
  145.4097  130.2762  153.1634 H   0  0  0  0  0  0  0  0  0  0  0  0
  146.6310  129.7314  150.4072 H   0  0  0  0  0  0  0  0  0  0  0  0
  144.9799  129.3262  150.8188 H   0  0  0  0  0  0  0  0  0  0  0  0
  143.2691  131.1239  150.3574 H   0  0  0  0  0  0  0  0  0  0  0  0
  143.4436  133.8443  149.8673 H   0  0  0  0  0  0  0  0  0  0  0  0
  147.2334  132.4182  150.8617 H   0  0  0  0  0  0  0  0  0  0  0  0
  147.9024  130.9955  152.0111 H   0  0  0  0  0  0  0  0  0  0  0  0
  149.5317  131.9217  153.0558 H   0  0  0  0  0  0  0  0  0  0  0  0
  149.5143  133.6874  154.5384 H   0  0  0  0  0  0  0  0  0  0  0  0
  148.1864  132.9243  155.4145 H   0  0  0  0  0  0  0  0  0  0  0  0
  152.6647  131.3367  156.8893 H   0  0  0  0  0  0  0  0  0  0  0  0
  152.1752  129.7384  156.3204 H   0  0  0  0  0  0  0  0  0  0  0  0
  151.3844  130.4502  157.7286 H   0  0  0  0  0  0  0  0  0  0  0  0
  150.2598  129.6670  154.6822 H   0  0  0  0  0  0  0  0  0  0  0  0
  151.3522  130.8228  153.9279 H   0  0  0  0  0  0  0  0  0  0  0  0
  1  2  1  0  0  0  0
  1 19  1  0  0  0  0
  1 20  1  0  0  0  0
  1 21  1  0  0  0  0
  2  3  1  0  0  0  0
  2  9  1  0  0  0  0
  2 22  1  0  0  0  0
  3  4  1  0  0  0  0
  3 23  1  0  0  0  0
  3 24  1  0  0  0  0
  4  8  1  0  0  0  0
  4  5  1  0  0  0  0
  5  6  2  0  0  0  0
  5 25  1  0  0  0  0
  6  7  1  0  0  0  0
  6 26  1  0  0  0  0
  7  8  2  0  0  0  0
  8 27  1  0  0  0  0
  9 10  1  0  0  0  0
  9 28  1  0  0  0  0
 10 11  2  0  0  0  0
 10 12  1  0  0  0  0
 12 18  1  0  0  0  0
 12 13  1  0  0  0  0
 12 29  1  0  0  0  0
 13 14  1  0  0  0  0
 13 30  1  0  0  0  0
 13 31  1  0  0  0  0
 14 15  2  0  0  0  0
 14 16  1  0  0  0  0
 16 17  1  0  0  0  0
 16 18  1  0  0  0  0
 17 32  1  0  0  0  0
 17 33  1  0  0  0  0
 17 34  1  0  0  0  0
 18 35  1  0  0  0  0
 18 36  1  0  0  0  0
M  END
> <s_m_source_file>
AV-unprocessed.smi

> <i_m_source_file_index>
3253

> <i_lp_mmshare_version>
43012

> <i_f3d_flags>
0

> <s_epik_input>
W2NIXTFuW2NIXVtjSF1uMVtDSDJdW0NAQEhdKFtDSDNdKVtOSF1DKD1PKVtDQEBIXTJbQ0gyXUMoPU8pTihbQ0gzXSlbQ0gyXTI=

> <s_epik_cmdline>
J2VwaWtfcHl0aG9uJywgJy1waCcsICc3LjAnLCAnLXRuJywgJzgnLCAnLW1hJywgJzIwMCcsICctbWV0YWxfYmluZGluZycsICctaW1hZScsICc8aW5maWxlLm1hZT4nLCAnLW9tYWUnLCAnPG91dGZpbGUubWFlPic=

> <r_lp_tautomer_probability>
1

> <r_epik_Ionization_Penalty>
0.628884

> <r_epik_Ionization_Penalty_Charging>
0.628884

> <r_epik_Ionization_Penalty_Neutral>
2.35084e-08

> <r_epik_State_Penalty>
0.64556

> <r_epik_Charging_Adjusted_Penalty>
1.27444

> <i_epik_Tot_Q>
0

> <i_epik_Tot_abs_Q>
0

> <r_epik_Metal_State_Penalty>
0.308736

> <b_epik_Metal_Only>
0

> <s_lp_Force_Field>
OPLS_2005

> <r_lp_Energy>
12.6609

> <b_lp_Chiralities_Consistent>
1

> <s_lp_Variant>
AV-unprocessed.smi:3253-7

> <Gold.Version>
5.8.1

> <Gold.Id.Protein>
6NUR|6NUR_protein|mol2

> <Gold.PLP.Fitness>
43.7550

> <Gold.PLP.PLP>
-31.7960

> <Gold.PLP.part.hbond>
-1.5482

> <Gold.PLP.part.metal>
0.0000

> <Gold.PLP.part.buried>
-5.4693

> <Gold.PLP.part.nonpolar>
-25.6995

> <Gold.PLP.part.repulsive>
0.3338

> <Gold.PLP.ligand.clash>
0.0000

> <Gold.PLP.ligand.torsion>
0.1610

> <Gold.PLP.Chemscore.Hbond>
1.4300

> <Gold.PLP.Chemscore.CHOScore>
2.6523

> <Gold.PLP.Chemscore.Metal>
0.0000

> <Gold.Chemscore.Hbonds>
donor molecule, donor type, donor heavy atom, donor atom, acceptor molecule, acceptor atom, score
      L1  H     9    28       P1 10747  0.98
      P1  H  6896  6909       L1    15  0.52
      L1  C     5    25       P1 10952  0.61
      L1  C     6    26       P1 10186  1.00
      L1  C     8    27       P1 10747  1.00

> <Gold.PLP.Chemscore.Internal.Correction>
0.0343

> <Gold.Rescore>
     Score         DG    S(hbond)    S(metal)    S(lipo)     H(rot)  DE(clash)    DE(int)     intcor
     12.61     -13.20       1.59        0.00      63.58       1.97       0.28       0.31       ----

> <Gold.Chemscore.Fitness>
12.6114

> <Gold.Chemscore.DG>
-13.1959

> <Gold.Chemscore.ZeroCoef>
-5.4800

> <Gold.Chemscore.Hbond>
1.5905

> <Gold.Chemscore.Metal>
0.0000

> <Gold.Chemscore.Lipo>
63.5807

> <Gold.Chemscore.Internal_Hbond>
0.0000

> <Gold.Chemscore.DEClash>
0.2765

> <Gold.Chemscore.DEInternal>
0.3080

> <Gold.Chemscore.Rot>
1.9669

> <Gold.Chemscore.Internal.Correction>
   9.000000E+99

> <Gold.Chemscore.Hbonds>
donor molecule, donor type, donor heavy atom, donor atom, acceptor molecule, acceptor atom, score
      L1  H     9    28       P1 10747  0.89
      P1  H  6896  6909       L1    15  0.51

> <Gold.Chemscore.Hbond.Weighted>
-5.3121

> <Gold.Chemscore.Metal.Weighted>
-0.0000

> <Gold.Chemscore.Lipo.Weighted>
-7.4389

> <Gold.Chemscore.Internal_Hbond.Weighted>
0.0000

> <Gold.Chemscore.DEClash.Weighted>
0.2765

> <Gold.Chemscore.DEInternal.Weighted>
0.3080

> <Gold.Chemscore.Rot.Weighted>
5.0352

> <Gold.Chemscore.Internal.Correction.Weighted>
   9.000000E+99

> <Gold.Protein.RotatedTorsions>
[ 6907 6896 6895 6894 ] final  -18.82 input  -60.11 | X-H torsion
[ 7974 7965 7964 7962 ] final   19.31 input  175.53 | X-H torsion
[ 8008 7997 7996 7995 ] final -102.14 input   59.86 | X-H torsion
[ 10167 10162 10161 10158 ] final  124.39 input  -65.29 | X-H torsion
[ 10718 10713 10712 10709 ] final -122.26 input   66.30 | X-H torsion
[ 10763 10752 10751 10750 ] final   62.05 input  -60.55 | X-H torsion
[ 11005 11000 10999 10996 ] final -157.96 input  -57.11 | X-H torsion

> <Gold.Protein.ActiveResidues>
 VAL166  LYS551  ARG553  GLY616  TRP617  ASP618  TYR619  PRO620  LYS621  CYS622 
 ASP623  PHE694  ASN695  SER759  ASP760  ASP761  ALA762  ILE779  LEU786  VAL792 
 PHE793  MET794  SER795  GLU796  ALA797  LYS798  CYS799  TRP800  GLU811  SER814 

> <Gold.Protein.RotatedAtoms>
  151.2725  135.0689  159.9138 H   0  0  0  0  0  0  0  0  0  0  0  0  # atno 6907 bound_to 6896
  152.5348  134.0116  159.7951 H   0  0  0  0  0  0  0  0  0  0  0  0  # atno 6908 bound_to 6896
  151.0356  133.5701  159.2687 H   0  0  0  0  0  0  0  0  0  0  0  0  # atno 6909 bound_to 6896
  146.2154  139.8331  142.8656 H   0  0  0  0  0  0  0  0  0  0  0  0  # atno 7974 bound_to 7965
  154.8525  140.0430  157.1613 H   0  0  0  0  0  0  0  0  0  0  0  0  # atno 8008 bound_to 7997
  154.8927  140.2989  155.5341 H   0  0  0  0  0  0  0  0  0  0  0  0  # atno 8009 bound_to 7997
  156.2996  140.2390  156.3945 H   0  0  0  0  0  0  0  0  0  0  0  0  # atno 8010 bound_to 7997
  139.5744  144.6956  151.3691 H   0  0  0  0  0  0  0  0  0  0  0  0  # atno 10167 bound_to 10162
  156.1404  130.6462  150.9762 H   0  0  0  0  0  0  0  0  0  0  0  0  # atno 10718 bound_to 10713
  152.9970  135.5479  154.6131 H   0  0  0  0  0  0  0  0  0  0  0  0  # atno 10763 bound_to 10752
  154.5447  135.2822  155.1066 H   0  0  0  0  0  0  0  0  0  0  0  0  # atno 10764 bound_to 10752
  154.2329  135.6430  153.5234 H   0  0  0  0  0  0  0  0  0  0  0  0  # atno 10765 bound_to 10752
  140.6588  134.4371  157.5234 H   0  0  0  0  0  0  0  0  0  0  0  0  # atno 11005 bound_to 11000
  145.2977  141.0185  143.3627 LP  0  0  0  0  0  0  0  0  0  0  0  0  # atno 17320 bound_to 7965
  144.9030  139.4625  143.6623 LP  0  0  0  0  0  0  0  0  0  0  0  0  # atno 17321 bound_to 7965
  140.7028  143.7590  150.7431 LP  0  0  0  0  0  0  0  0  0  0  0  0  # atno 17342 bound_to 10162
  140.1105  143.4703  152.2372 LP  0  0  0  0  0  0  0  0  0  0  0  0  # atno 17343 bound_to 10162
  157.6570  131.0887  150.7924 LP  0  0  0  0  0  0  0  0  0  0  0  0  # atno 17370 bound_to 10713
  156.8000  130.4918  149.5371 LP  0  0  0  0  0  0  0  0  0  0  0  0  # atno 17371 bound_to 10713
  139.9020  134.8534  156.1857 LP  0  0  0  0  0  0  0  0  0  0  0  0  # atno 17394 bound_to 11000
  141.0481  133.6903  156.1720 LP  0  0  0  0  0  0  0  0  0  0  0  0  # atno 17395 bound_to 11000

$$$$
