#       Name:                AV-unprocessed.smi:2647
#       Creating user name   scv26
#       Creation time:       Fri Mar 27 14:29:43 2020


#       File generated by GOLD software.
#

@<TRIPOS>MOLECULE
AV-unprocessed.smi:2647
    40    41     1
SMALL
NO_CHARGES


@<TRIPOS>ATOM
      1 ****        -2.0574   0.9558   1.5997 O.2            1 S1                 0.0000
      2 ****        -2.4745   1.3239   0.4991 C.2            1 S1                 0.0000
      3 ****        -2.3622   0.5146  -0.5640 N.am           1 S1                 0.0000
      4 ****        -1.7656  -0.8168  -0.5680 C.3            1 S1                 0.0000
      5 ****        -0.2313  -0.7486  -0.6261 C.3            1 S1                 0.0000
      6 ****         0.4157  -2.1423  -0.6922 C.3            1 S1                 0.0000
      7 ****         1.8788  -2.0526  -0.7359 N.am           1 S1                 0.0000
      8 ****         2.5880  -1.9007  -1.8633 C.2            1 S1                 0.0000
      9 ****         2.1359  -1.8320  -3.0060 O.2            1 S1                 0.0000
     10 ****         4.0783  -1.8122  -1.5641 C.3            1 S1                 0.0000
     11 ****         4.1335  -1.9425  -0.0388 C.3            1 S1                 0.0000
     12 ****         2.6671  -2.0793   0.3483 C.2            1 S1                 0.0000
     13 ****         2.2983  -2.1940   1.5166 O.2            1 S1                 0.0000
     14 ****        -3.0590   2.5113   0.2200 N.pl3          1 S1                -1.0000
     15 ****        -3.2229   3.4243   1.1916 C.2            1 S1                 0.0000
     16 ****        -4.3924   3.5930   1.8295 N.2            1 S1                 0.0000
     17 ****        -4.3496   4.5905   2.7942 N.2            1 S1                 0.0000
     18 ****        -3.1449   5.1578   2.8532 C.2            1 S1                 0.0000
     19 ****        -1.9547   4.5267   1.7349 S.3            1 S1                 0.0000
     20 ****        -2.7186   0.8566  -1.4443 H              1 S1                 0.0000
     21 ****        -2.0927  -1.3787   0.3085 H              1 S1                 0.0000
     22 ****        -2.1461  -1.3512  -1.4387 H              1 S1                 0.0000
     23 ****         0.0713  -0.1634  -1.4957 H              1 S1                 0.0000
     24 ****         0.1444  -0.2169   0.2491 H              1 S1                 0.0000
     25 ****         0.1016  -2.7366   0.1676 H              1 S1                 0.0000
     26 ****         0.0512  -2.6800  -1.5692 H              1 S1                 0.0000
     27 ****         4.6180  -2.6185  -2.0618 H              1 S1                 0.0000
     28 ****         4.4789  -0.8568  -1.9044 H              1 S1                 0.0000
     29 ****         4.6945  -2.8237   0.2741 H              1 S1                 0.0000
     30 ****         4.5721  -1.0606   0.4294 H              1 S1                 0.0000
     31 ****        -2.9565   5.9541   3.5576 H              1 S1                 0.0000
     32 ****        -1.6358   0.0544   1.6987 LP             1 S1                 0.0000
     33 ****        -2.1407   1.5587   2.3931 LP             1 S1                 0.0000
     34 ****         1.1492  -1.8904  -3.1577 LP             1 S1                 0.0000
     35 ****         2.7553  -1.7179  -3.7828 LP             1 S1                 0.0000
     36 ****         1.3245  -2.2787   1.7275 LP             1 S1                 0.0000
     37 ****         2.9724  -2.2026   2.2551 LP             1 S1                 0.0000
     38 ****        -3.3691   2.7095  -0.7098 LP             1 S1                 0.0000
     39 ****        -5.2112   3.0547   1.6299 LP             1 S1                 0.0000
     40 ****        -5.1239   4.8502   3.3712 LP             1 S1                 0.0000
@<TRIPOS>BOND
    1    1    2 2     
    2    2    3 am    
    3    2   14 1     
    4    3    4 1     
    5    3   20 1     
    6    4    5 1     
    7    4   21 1     
    8    4   22 1     
    9    5    6 1     
   10    5   23 1     
   11    5   24 1     
   12    6    7 1     
   13    6   25 1     
   14    6   26 1     
   15    7   12 am    
   16    7    8 am    
   17    8    9 2     
   18    8   10 1     
   19   10   11 1     
   20   10   27 1     
   21   10   28 1     
   22   11   12 1     
   23   11   29 1     
   24   11   30 1     
   25   12   13 2     
   26   14   15 1     
   27   15   19 1     
   28   15   16 2     
   29   16   17 1     
   30   17   18 2     
   31   18   19 1     
   32   18   31 1     
   33    1   32 1     
   34    1   33 1     
   35    9   34 1     
   36    9   35 1     
   37   13   36 1     
   38   13   37 1     
   39   14   38 1     
   40   16   39 1     
   41   17   40 1     
@<TRIPOS>SUBSTRUCTURE
      1 S1             1
@<TRIPOS>SET
LONE_PAIRS      STATIC     ATOMS    <user>   **** ""
9 32 33 34 35 36 37 38 39 40
DONOR_HYDROGENS      STATIC     ATOMS    <user>   **** ""
1 20
ATOM$BLUE        STATIC     ATOMS    COLORGROUP SYSTEM
9 32 33 34 35 36 37 38 39 40
ATOM$RED        STATIC     ATOMS    COLORGROUP SYSTEM
1 20
