AV-unprocessed.smi:2298|AV-procd|sdf|9224|dock5
  -GOLD-   2272012443D 1   1.00000     0.00000
 Structure written by MMmdl.
 37 38  0  0  0  0  0  0  0  0  1 V2000
  145.9948  130.5469  151.8300 C   0  0  0  0  0  0  0  0  0  0  0  0
  145.4360  131.9364  151.5873 C   0  0  0  0  0  0  0  0  0  0  0  0
  144.2030  131.9823  151.0379 N   0  0  0  0  0  0  0  0  0  0  0  0
  143.6620  133.1932  150.7940 C   0  0  0  0  0  0  0  0  0  0  0  0
  144.3134  134.4062  151.0870 C   0  0  0  0  0  0  0  0  0  0  0  0
  145.5995  134.3632  151.6776 C   0  0  0  0  0  0  0  0  0  0  0  0
  146.3580  135.5240  152.0014 N   0  0  0  0  0  0  0  0  0  0  0  0
  145.9337  136.7133  152.4628 C   0  0  0  0  0  0  0  0  0  0  0  0
  144.7634  137.0130  152.6986 O   0  0  0  0  0  0  0  0  0  0  0  0
  146.9629  137.5515  152.6540 N   0  0  0  0  0  0  0  0  0  0  0  0
  146.8540  138.9206  153.1494 C   0  0  1  0  0  0  0  0  0  0  0  0
  147.8544  139.1365  154.3009 C   0  0  0  0  0  0  0  0  0  0  0  0
  147.8140  140.5845  154.8156 C   0  0  0  0  0  0  0  0  0  0  0  0
  148.0674  141.5848  153.6746 C   0  0  2  0  0  0  0  0  0  0  0  0
  147.9552  142.9027  154.1682 O   0  0  0  0  0  0  0  0  0  0  0  0
  147.0659  141.3786  152.5252 C   0  0  0  0  0  0  0  0  0  0  0  0
  147.1033  139.9308  152.0104 C   0  0  0  0  0  0  0  0  0  0  0  0
  146.1770  133.0946  151.9216 C   0  0  0  0  0  0  0  0  0  0  0  0
  147.7565  132.9597  152.6201 Cl  0  0  0  0  0  0  0  0  0  0  0  0
  145.8481  139.0771  153.5449 H   0  0  0  0  0  0  0  0  0  0  0  0
  149.0824  141.4532  153.2977 H   0  0  0  0  0  0  0  0  0  0  0  0
  146.1941  130.3994  152.8915 H   0  0  0  0  0  0  0  0  0  0  0  0
  146.9267  130.4117  151.2808 H   0  0  0  0  0  0  0  0  0  0  0  0
  145.2984  129.7718  151.5070 H   0  0  0  0  0  0  0  0  0  0  0  0
  142.6800  133.1962  150.3445 H   0  0  0  0  0  0  0  0  0  0  0  0
  143.8196  135.3334  150.8425 H   0  0  0  0  0  0  0  0  0  0  0  0
  147.3586  135.4124  151.9285 H   0  0  0  0  0  0  0  0  0  0  0  0
  147.8921  137.2202  152.4390 H   0  0  0  0  0  0  0  0  0  0  0  0
  147.6351  138.4507  155.1201 H   0  0  0  0  0  0  0  0  0  0  0  0
  148.8650  138.9021  153.9631 H   0  0  0  0  0  0  0  0  0  0  0  0
  146.8417  140.7784  155.2710 H   0  0  0  0  0  0  0  0  0  0  0  0
  148.5570  140.7172  155.6029 H   0  0  0  0  0  0  0  0  0  0  0  0
  147.7208  142.8626  155.0828 H   0  0  0  0  0  0  0  0  0  0  0  0
  146.0559  141.6138  152.8645 H   0  0  0  0  0  0  0  0  0  0  0  0
  147.2862  142.0660  151.7075 H   0  0  0  0  0  0  0  0  0  0  0  0
  148.0731  139.7365  151.5497 H   0  0  0  0  0  0  0  0  0  0  0  0
  146.3579  139.8049  151.2243 H   0  0  0  0  0  0  0  0  0  0  0  0
  1  2  1  0  0  0  0
  1 22  1  0  0  0  0
  1 23  1  0  0  0  0
  1 24  1  0  0  0  0
  2 18  1  0  0  0  0
  2  3  2  0  0  0  0
  3  4  1  0  0  0  0
  4  5  2  0  0  0  0
  4 25  1  0  0  0  0
  5  6  1  0  0  0  0
  5 26  1  0  0  0  0
  6  7  1  0  0  0  0
  6 18  2  0  0  0  0
  7  8  1  0  0  0  0
  7 27  1  0  0  0  0
  8  9  2  0  0  0  0
  8 10  1  0  0  0  0
 10 11  1  0  0  0  0
 10 28  1  0  0  0  0
 11 20  1  0  0  0  0
 11 17  1  0  0  0  0
 11 12  1  0  0  0  0
 12 13  1  0  0  0  0
 12 29  1  0  0  0  0
 12 30  1  0  0  0  0
 13 14  1  0  0  0  0
 13 31  1  0  0  0  0
 13 32  1  0  0  0  0
 14 21  1  0  0  0  0
 14 15  1  0  0  0  0
 14 16  1  0  0  0  0
 15 33  1  0  0  0  0
 16 17  1  0  0  0  0
 16 34  1  0  0  0  0
 16 35  1  0  0  0  0
 17 36  1  0  0  0  0
 17 37  1  0  0  0  0
 18 19  1  0  0  0  0
M  END
> <s_m_source_file>
AV-unprocessed.smi

> <i_m_source_file_index>
2298

> <i_lp_mmshare_version>
43012

> <i_f3d_flags>
0

> <s_epik_input>
W0NIM11jMW5bY0hdW2NIXWMoYzFDbClbTkhdQyg9TylbTkhdW0NASF0yW0NIMl1bQ0gyXVtDQEhdKFtPSF0pW0NIMl1bQ0gyXTI=

> <s_epik_cmdline>
J2VwaWtfcHl0aG9uJywgJy1waCcsICc3LjAnLCAnLXRuJywgJzgnLCAnLW1hJywgJzIwMCcsICctbWV0YWxfYmluZGluZycsICctaW1hZScsICc8aW5maWxlLm1hZT4nLCAnLW9tYWUnLCAnPG91dGZpbGUubWFlPic=

> <r_epik_Ionization_Penalty>
0.00999805

> <r_epik_Ionization_Penalty_Charging>
0

> <r_epik_Ionization_Penalty_Neutral>
0.00999805

> <r_epik_State_Penalty>
0.00759022

> <r_epik_Charging_Adjusted_Penalty>
0.00759022

> <i_epik_Tot_Q>
0

> <i_epik_Tot_abs_Q>
0

> <r_epik_Metal_State_Penalty>
0.00746447

> <b_epik_Metal_Only>
0

> <s_lp_Force_Field>
OPLS_2005

> <r_lp_Energy>
13.5765

> <b_lp_Chiralities_Consistent>
1

> <s_lp_Variant>
AV-unprocessed.smi:2298-1

> <Gold.Version>
5.8.1

> <Gold.Id.Protein>
6NUR|6NUR_protein|mol2

> <Gold.PLP.Fitness>
39.3558

> <Gold.PLP.PLP>
-28.5096

> <Gold.PLP.part.hbond>
-4.7903

> <Gold.PLP.part.metal>
0.0000

> <Gold.PLP.part.buried>
1.6548

> <Gold.PLP.part.nonpolar>
-23.9351

> <Gold.PLP.part.repulsive>
0.4481

> <Gold.PLP.ligand.clash>
0.0000

> <Gold.PLP.ligand.torsion>
0.3747

> <Gold.PLP.Chemscore.Hbond>
2.8640

> <Gold.PLP.Chemscore.CHOScore>
1.0000

> <Gold.PLP.Chemscore.Metal>
0.0000

> <Gold.Chemscore.Hbonds>
donor molecule, donor type, donor heavy atom, donor atom, acceptor molecule, acceptor atom, score
      L1  H     7    27       P1  7948  0.94
      L1  H    10    28       P1  7948  1.00
      P1  H  8022  8030       L1    15  0.90
      L1  C     4    25       P1 10186  1.00

> <Gold.PLP.Chemscore.Internal.Correction>
0.0036

> <Gold.Rescore>
     Score         DG    S(hbond)    S(metal)    S(lipo)     H(rot)  DE(clash)    DE(int)     intcor
     18.02     -21.10       2.71        0.00      87.24       1.42       2.62       0.46       ----

> <Gold.Chemscore.Fitness>
18.0195

> <Gold.Chemscore.DG>
-21.1032

> <Gold.Chemscore.ZeroCoef>
-5.4800

> <Gold.Chemscore.Hbond>
2.7099

> <Gold.Chemscore.Metal>
0.0000

> <Gold.Chemscore.Lipo>
87.2396

> <Gold.Chemscore.Internal_Hbond>
0.0000

> <Gold.Chemscore.DEClash>
2.6244

> <Gold.Chemscore.DEInternal>
0.4593

> <Gold.Chemscore.Rot>
1.4199

> <Gold.Chemscore.Internal.Correction>
   9.000000E+99

> <Gold.Chemscore.Hbonds>
donor molecule, donor type, donor heavy atom, donor atom, acceptor molecule, acceptor atom, score
      L1  H     7    27       P1  7948  0.92
      L1  H    10    28       P1  7948  0.94
      L1  H    15    33       P1  8028  0.01
      P1  H  8022  8030       L1    15  0.68

> <Gold.Chemscore.Hbond.Weighted>
-9.0511

> <Gold.Chemscore.Metal.Weighted>
-0.0000

> <Gold.Chemscore.Lipo.Weighted>
-10.2070

> <Gold.Chemscore.Internal_Hbond.Weighted>
0.0000

> <Gold.Chemscore.DEClash.Weighted>
2.6244

> <Gold.Chemscore.DEInternal.Weighted>
0.4593

> <Gold.Chemscore.Rot.Weighted>
3.6349

> <Gold.Chemscore.Internal.Correction.Weighted>
   9.000000E+99

> <Gold.Protein.RotatedTorsions>
[ 6907 6896 6895 6894 ] final  -41.63 input  -60.11 | X-H torsion
[ 7974 7965 7964 7962 ] final -175.05 input  175.53 | X-H torsion
[ 8008 7997 7996 7995 ] final  -58.40 input   59.86 | X-H torsion
[ 10167 10162 10161 10158 ] final  -79.10 input  -65.29 | X-H torsion
[ 10718 10713 10712 10709 ] final   50.61 input   66.30 | X-H torsion
[ 10763 10752 10751 10750 ] final   32.79 input  -60.55 | X-H torsion
[ 11005 11000 10999 10996 ] final -175.81 input  -57.11 | X-H torsion

> <Gold.Protein.ActiveResidues>
 VAL166  LYS551  ARG553  GLY616  TRP617  ASP618  TYR619  PRO620  LYS621  CYS622 
 ASP623  PHE694  ASN695  SER759  ASP760  ASP761  ALA762  ILE779  LEU786  VAL792 
 PHE793  MET794  SER795  GLU796  ALA797  LYS798  CYS799  TRP800  GLU811  SER814 

> <Gold.Protein.RotatedAtoms>
  150.9646  134.9028  159.7750 H   0  0  0  0  0  0  0  0  0  0  0  0  # atno 6907 bound_to 6896
  152.5168  134.3625  159.9300 H   0  0  0  0  0  0  0  0  0  0  0  0  # atno 6908 bound_to 6896
  151.3636  133.3839  159.2727 H   0  0  0  0  0  0  0  0  0  0  0  0  # atno 6909 bound_to 6896
  144.7129  140.1379  143.6394 H   0  0  0  0  0  0  0  0  0  0  0  0  # atno 7974 bound_to 7965
  154.4307  140.1085  156.5951 H   0  0  0  0  0  0  0  0  0  0  0  0  # atno 8008 bound_to 7997
  155.5971  140.3493  155.4564 H   0  0  0  0  0  0  0  0  0  0  0  0  # atno 8009 bound_to 7997
  156.0202  140.1238  157.0354 H   0  0  0  0  0  0  0  0  0  0  0  0  # atno 8010 bound_to 7997
  140.4623  143.2450  151.8330 H   0  0  0  0  0  0  0  0  0  0  0  0  # atno 10167 bound_to 10162
  157.4902  130.8371  149.8193 H   0  0  0  0  0  0  0  0  0  0  0  0  # atno 10718 bound_to 10713
  153.0244  135.6404  154.1410 H   0  0  0  0  0  0  0  0  0  0  0  0  # atno 10763 bound_to 10752
  154.1141  135.2851  155.3225 H   0  0  0  0  0  0  0  0  0  0  0  0  # atno 10764 bound_to 10752
  154.6310  135.5492  153.7743 H   0  0  0  0  0  0  0  0  0  0  0  0  # atno 10765 bound_to 10752
  140.4592  134.6271  157.4835 H   0  0  0  0  0  0  0  0  0  0  0  0  # atno 11005 bound_to 11000
  145.9228  139.2556  143.1371 LP  0  0  0  0  0  0  0  0  0  0  0  0  # atno 17320 bound_to 7965
  145.9603  140.8841  143.0214 LP  0  0  0  0  0  0  0  0  0  0  0  0  # atno 17321 bound_to 7965
  139.4808  144.4992  151.9082 LP  0  0  0  0  0  0  0  0  0  0  0  0  # atno 17342 bound_to 10162
  140.4078  144.2409  150.5890 LP  0  0  0  0  0  0  0  0  0  0  0  0  # atno 17343 bound_to 10162
  156.0169  130.3810  150.2083 LP  0  0  0  0  0  0  0  0  0  0  0  0  # atno 17370 bound_to 10713
  157.0271  130.9996  151.3323 LP  0  0  0  0  0  0  0  0  0  0  0  0  # atno 17371 bound_to 10713
  139.9956  134.6916  155.9614 LP  0  0  0  0  0  0  0  0  0  0  0  0  # atno 17394 bound_to 11000
  141.1629  133.6538  156.4380 LP  0  0  0  0  0  0  0  0  0  0  0  0  # atno 17395 bound_to 11000

$$$$
