AV-unprocessed.smi:1703|AV-procd|sdf|6876|dock4
  -GOLD-   22720 8 73D 1   1.00000     0.00000
 Structure written by MMmdl.
 50 52  0  0  0  0  0  0  0  0  3 V2000
  137.4528  136.9533  155.6972 C   0  0  0  0  0  0  0  0  0  0  0  0
  138.8373  137.4377  155.2535 C   0  0  1  0  0  0  0  0  0  0  0  0
  139.3879  136.6051  154.0757 C   0  0  0  0  0  0  0  0  0  0  0  0
  140.6754  137.1496  153.5707 N   0  3  2  0  0  0  0  0  0  0  0  0
  141.8611  136.8373  154.4138 C   0  0  0  0  0  0  0  0  0  0  0  0
  142.6177  135.5716  153.9502 C   0  0  1  0  0  0  0  0  0  0  0  0
  141.9263  134.4249  154.4013 O   0  0  0  0  0  0  0  0  0  0  0  0
  142.7513  135.4599  152.4183 C   0  0  0  0  0  0  0  0  0  0  0  0
  144.1358  135.2103  151.9787 N   0  0  0  0  0  0  0  0  0  0  0  0
  145.2284  136.0280  152.0236 C   0  0  0  0  0  0  0  0  0  0  0  0
  145.2849  137.4318  152.5290 C   0  0  0  0  0  0  0  0  0  0  0  0
  146.5667  138.0024  152.3764 O   0  0  0  0  0  0  0  0  0  0  0  0
  146.2750  135.3348  151.4946 N   0  3  0  0  0  0  0  0  0  0  0  0
  145.8535  134.0630  151.1076 C   0  0  0  0  0  0  0  0  0  0  0  0
  146.5555  133.0126  150.5245 C   0  0  0  0  0  0  0  0  0  0  0  0
  145.8243  131.8398  150.2464 C   0  0  0  0  0  0  0  0  0  0  0  0
  144.4499  131.7450  150.5443 C   0  0  0  0  0  0  0  0  0  0  0  0
  143.7486  132.8169  151.1352 C   0  0  0  0  0  0  0  0  0  0  0  0
  144.4790  133.9738  151.4130 C   0  0  0  0  0  0  0  0  0  0  0  0
  140.5343  138.5941  153.2648 C   0  0  0  0  0  0  0  0  0  0  0  0
  139.9728  139.3713  154.4738 C   0  0  1  0  0  0  0  0  0  0  0  0
  139.7392  140.8507  154.1500 C   0  0  0  0  0  0  0  0  0  0  0  0
  138.7250  138.7988  154.8517 O   0  0  0  0  0  0  0  0  0  0  0  0
  137.4887  135.9147  156.0275 H   0  0  0  0  0  0  0  0  0  0  0  0
  136.7299  137.0215  154.8836 H   0  0  0  0  0  0  0  0  0  0  0  0
  137.0775  137.5524  156.5270 H   0  0  0  0  0  0  0  0  0  0  0  0
  139.5064  137.3720  156.1125 H   0  0  0  0  0  0  0  0  0  0  0  0
  139.4817  135.5582  154.3593 H   0  0  0  0  0  0  0  0  0  0  0  0
  138.6711  136.6289  153.2537 H   0  0  0  0  0  0  0  0  0  0  0  0
  142.5572  137.6775  154.3996 H   0  0  0  0  0  0  0  0  0  0  0  0
  141.5400  136.7398  155.4493 H   0  0  0  0  0  0  0  0  0  0  0  0
  143.6187  135.5421  154.3764 H   0  0  0  0  0  0  0  0  0  0  0  0
  142.5480  133.7305  154.5571 H   0  0  0  0  0  0  0  0  0  0  0  0
  142.1415  134.6344  152.0489 H   0  0  0  0  0  0  0  0  0  0  0  0
  142.3654  136.3537  151.9302 H   0  0  0  0  0  0  0  0  0  0  0  0
  144.5538  138.0459  152.0030 H   0  0  0  0  0  0  0  0  0  0  0  0
  145.0130  137.4457  153.5849 H   0  0  0  0  0  0  0  0  0  0  0  0
  147.1877  137.3066  152.2203 H   0  0  0  0  0  0  0  0  0  0  0  0
  147.6085  133.0835  150.2932 H   0  0  0  0  0  0  0  0  0  0  0  0
  146.3275  130.9967  149.7947 H   0  0  0  0  0  0  0  0  0  0  0  0
  143.9223  130.8300  150.3158 H   0  0  0  0  0  0  0  0  0  0  0  0
  142.6956  132.7242  151.3539 H   0  0  0  0  0  0  0  0  0  0  0  0
  141.4888  139.0109  152.9407 H   0  0  0  0  0  0  0  0  0  0  0  0
  139.8545  138.6976  152.4178 H   0  0  0  0  0  0  0  0  0  0  0  0
  140.6659  139.3110  155.3143 H   0  0  0  0  0  0  0  0  0  0  0  0
  140.6692  141.3414  153.8616 H   0  0  0  0  0  0  0  0  0  0  0  0
  139.3391  141.3806  155.0148 H   0  0  0  0  0  0  0  0  0  0  0  0
  139.0300  140.9691  153.3304 H   0  0  0  0  0  0  0  0  0  0  0  0
  140.8546  136.6980  152.6853 H   0  0  0  0  0  0  0  0  0  0  0  0
  147.2110  135.7093  151.4038 H   0  0  0  0  0  0  0  0  0  0  0  0
  1  2  1  0  0  0  0
  1 24  1  0  0  0  0
  1 25  1  0  0  0  0
  1 26  1  0  0  0  0
  2 23  1  0  0  0  0
  2  3  1  0  0  0  0
  2 27  1  0  0  0  0
  3  4  1  0  0  0  0
  3 28  1  0  0  0  0
  3 29  1  0  0  0  0
  4  5  1  0  0  0  0
  4 20  1  0  0  0  0
  4 49  1  0  0  0  0
  5  6  1  0  0  0  0
  5 30  1  0  0  0  0
  5 31  1  0  0  0  0
  6  7  1  0  0  0  0
  6  8  1  0  0  0  0
  6 32  1  0  0  0  0
  7 33  1  0  0  0  0
  8  9  1  0  0  0  0
  8 34  1  0  0  0  0
  8 35  1  0  0  0  0
  9 19  1  0  0  0  0
  9 10  1  0  0  0  0
 10 11  1  0  0  0  0
 10 13  2  0  0  0  0
 11 12  1  0  0  0  0
 11 36  1  0  0  0  0
 11 37  1  0  0  0  0
 12 38  1  0  0  0  0
 13 14  1  0  0  0  0
 13 50  1  0  0  0  0
 14 19  2  0  0  0  0
 14 15  1  0  0  0  0
 15 16  2  0  0  0  0
 15 39  1  0  0  0  0
 16 17  1  0  0  0  0
 16 40  1  0  0  0  0
 17 18  2  0  0  0  0
 17 41  1  0  0  0  0
 18 19  1  0  0  0  0
 18 42  1  0  0  0  0
 20 21  1  0  0  0  0
 20 43  1  0  0  0  0
 20 44  1  0  0  0  0
 21 22  1  0  0  0  0
 21 23  1  0  0  0  0
 21 45  1  0  0  0  0
 22 46  1  0  0  0  0
 22 47  1  0  0  0  0
 22 48  1  0  0  0  0
M  CHG  1   4   1
M  CHG  1  13   1
M  END
> <s_m_source_file>
AV-unprocessed.smi

> <i_m_source_file_index>
1703

> <i_lp_mmshare_version>
43012

> <i_f3d_flags>
0

> <s_epik_input>
W0NIM11bQ0BASF0xW0NIMl1OKFtDSDJdW0NASF0oTzEpW0NIM10pW0NIMl1bQ0BIXShbT0hdKVtDSDJdbihjKG4yKVtDSDJdW09IXSljKGMyMylbY0hdW2NIXVtjSF1bY0hdMw==

> <s_epik_cmdline>
J2VwaWtfcHl0aG9uJywgJy1waCcsICc3LjAnLCAnLXRuJywgJzgnLCAnLW1hJywgJzIwMCcsICctbWV0YWxfYmluZGluZycsICctaW1hZScsICc8aW5maWxlLm1hZT4nLCAnLW9tYWUnLCAnPG91dGZpbGUubWFlPic=

> <r_epik_Ionization_Penalty>
2.22579

> <r_epik_Ionization_Penalty_Charging>
2.22492

> <r_epik_Ionization_Penalty_Neutral>
0.000870007

> <r_epik_State_Penalty>
2.3141

> <r_epik_Charging_Adjusted_Penalty>
4.53902

> <i_epik_Tot_Q>
2

> <i_epik_Tot_abs_Q>
2

> <r_epik_Metal_State_Penalty>
6.36517

> <b_epik_Metal_Only>
0

> <s_lp_Force_Field>
OPLS_2005

> <r_lp_Energy>
31.3011

> <b_lp_Chiralities_Consistent>
1

> <s_lp_Variant>
AV-unprocessed.smi:1703-24

> <Gold.Version>
5.8.1

> <Gold.Id.Protein>
6NUR|6NUR_protein|mol2

> <Gold.PLP.Fitness>
54.7287

> <Gold.PLP.PLP>
-43.0002

> <Gold.PLP.part.hbond>
-4.0000

> <Gold.PLP.part.metal>
0.0000

> <Gold.PLP.part.buried>
-8.2139

> <Gold.PLP.part.nonpolar>
-32.3652

> <Gold.PLP.part.repulsive>
0.0866

> <Gold.PLP.ligand.clash>
0.0000

> <Gold.PLP.ligand.torsion>
1.4774

> <Gold.PLP.Chemscore.Hbond>
4.8720

> <Gold.PLP.Chemscore.CHOScore>
0.0000

> <Gold.PLP.Chemscore.Metal>
0.0000

> <Gold.Chemscore.Hbonds>
donor molecule, donor type, donor heavy atom, donor atom, acceptor molecule, acceptor atom, score
      L1  H     7    33       P1 10957  0.82
      L1  H    12    38       P1  7948  0.88
      L1  H    13    50       P1  7948  2.00
      P1  H 11000 11005       L1     7  0.94

> <Gold.PLP.Chemscore.Internal.Correction>
0.0673

> <Gold.Rescore>
     Score         DG    S(hbond)    S(metal)    S(lipo)     H(rot)  DE(clash)    DE(int)     intcor
     19.88     -21.44       3.59        0.00     100.44       3.04       0.10       1.46       ----

> <Gold.Chemscore.Fitness>
19.8827

> <Gold.Chemscore.DG>
-21.4363

> <Gold.Chemscore.ZeroCoef>
-5.4800

> <Gold.Chemscore.Hbond>
3.5873

> <Gold.Chemscore.Metal>
0.0000

> <Gold.Chemscore.Lipo>
100.4380

> <Gold.Chemscore.Internal_Hbond>
0.0000

> <Gold.Chemscore.DEClash>
0.0971

> <Gold.Chemscore.DEInternal>
1.4565

> <Gold.Chemscore.Rot>
3.0378

> <Gold.Chemscore.Internal.Correction>
   9.000000E+99

> <Gold.Chemscore.Hbonds>
donor molecule, donor type, donor heavy atom, donor atom, acceptor molecule, acceptor atom, score
      L1  H     7    33       P1 10957  0.80
      L1  H    12    38       P1  7948  0.85
      L1  H    13    50       P1  7948  0.98
      P1  H 11000 11005       L1     7  0.23

> <Gold.Chemscore.Hbond.Weighted>
-11.9817

> <Gold.Chemscore.Metal.Weighted>
-0.0000

> <Gold.Chemscore.Lipo.Weighted>
-11.7512

> <Gold.Chemscore.Internal_Hbond.Weighted>
0.0000

> <Gold.Chemscore.DEClash.Weighted>
0.0971

> <Gold.Chemscore.DEInternal.Weighted>
1.4565

> <Gold.Chemscore.Rot.Weighted>
7.7767

> <Gold.Chemscore.Internal.Correction.Weighted>
   9.000000E+99

> <Gold.Protein.RotatedTorsions>
[ 6907 6896 6895 6894 ] final   55.37 input  -60.11 | X-H torsion
[ 7974 7965 7964 7962 ] final   81.79 input  175.53 | X-H torsion
[ 8008 7997 7996 7995 ] final -171.38 input   59.86 | X-H torsion
[ 10167 10162 10161 10158 ] final  -14.55 input  -65.29 | X-H torsion
[ 10718 10713 10712 10709 ] final  179.70 input   66.30 | X-H torsion
[ 10763 10752 10751 10750 ] final  -52.30 input  -60.55 | X-H torsion
[ 11005 11000 10999 10996 ] final    5.47 input  -57.11 | X-H torsion

> <Gold.Protein.ActiveResidues>
 VAL166  LYS551  ARG553  GLY616  TRP617  ASP618  TYR619  PRO620  LYS621  CYS622 
 ASP623  PHE694  ASN695  SER759  ASP760  ASP761  ALA762  ILE779  LEU786  VAL792 
 PHE793  MET794  SER795  GLU796  ALA797  LYS798  CYS799  TRP800  GLU811  SER814 

> <Gold.Protein.RotatedAtoms>
  152.3532  134.6976  160.0229 H   0  0  0  0  0  0  0  0  0  0  0  0  # atno 6907 bound_to 6896
  151.7323  133.3313  159.3352 H   0  0  0  0  0  0  0  0  0  0  0  0  # atno 6908 bound_to 6896
  150.7554  134.6285  159.6218 H   0  0  0  0  0  0  0  0  0  0  0  0  # atno 6909 bound_to 6896
  145.6335  139.2410  143.2071 H   0  0  0  0  0  0  0  0  0  0  0  0  # atno 7974 bound_to 7965
  155.9308  140.1091  157.1134 H   0  0  0  0  0  0  0  0  0  0  0  0  # atno 8008 bound_to 7997
  154.4070  140.1238  156.4866 H   0  0  0  0  0  0  0  0  0  0  0  0  # atno 8009 bound_to 7997
  155.7082  140.3471  155.4964 H   0  0  0  0  0  0  0  0  0  0  0  0  # atno 8010 bound_to 7997
  140.7203  143.5309  150.9521 H   0  0  0  0  0  0  0  0  0  0  0  0  # atno 10167 bound_to 10162
  156.8719  130.9786  151.3072 H   0  0  0  0  0  0  0  0  0  0  0  0  # atno 10718 bound_to 10713
  154.1405  135.6506  153.4941 H   0  0  0  0  0  0  0  0  0  0  0  0  # atno 10763 bound_to 10752
  153.0167  135.5314  154.6909 H   0  0  0  0  0  0  0  0  0  0  0  0  # atno 10764 bound_to 10752
  154.6170  135.2960  155.0340 H   0  0  0  0  0  0  0  0  0  0  0  0  # atno 10765 bound_to 10752
  140.5704  134.0108  155.8006 H   0  0  0  0  0  0  0  0  0  0  0  0  # atno 11005 bound_to 11000
  146.1338  140.7150  142.9399 LP  0  0  0  0  0  0  0  0  0  0  0  0  # atno 17320 bound_to 7965
  144.7184  140.4291  143.7026 LP  0  0  0  0  0  0  0  0  0  0  0  0  # atno 17321 bound_to 7965
  139.9030  143.6813  152.3128 LP  0  0  0  0  0  0  0  0  0  0  0  0  # atno 17342 bound_to 10162
  139.7169  144.7610  151.1019 LP  0  0  0  0  0  0  0  0  0  0  0  0  # atno 17343 bound_to 10162
  157.6191  130.8641  149.9078 LP  0  0  0  0  0  0  0  0  0  0  0  0  # atno 17370 bound_to 10713
  156.0722  130.3683  150.0752 LP  0  0  0  0  0  0  0  0  0  0  0  0  # atno 17371 bound_to 10713
  141.1060  133.9693  157.2996 LP  0  0  0  0  0  0  0  0  0  0  0  0  # atno 17394 bound_to 11000
  139.9365  135.0196  156.8571 LP  0  0  0  0  0  0  0  0  0  0  0  0  # atno 17395 bound_to 11000

$$$$
