#       Name:                AV-unprocessed.smi:3129
#       Creating user name   scv26
#       Creation time:       Fri Mar 27 17:30:43 2020


#       File generated by GOLD software.
#

@<TRIPOS>MOLECULE
AV-unprocessed.smi:3129
    43    43     1
SMALL
NO_CHARGES


@<TRIPOS>ATOM
      1 ****        -1.9592   2.9094   3.2550 C.3            1 S1                 0.0000
      2 ****        -2.4743   2.7933   1.8096 C.3            1 S1                 0.0000
      3 ****        -3.9808   3.0853   1.7472 C.3            1 S1                 0.0000
      4 ****        -2.1573   1.4226   1.1811 C.3            1 S1                 0.0000
      5 ****        -0.7221   1.1730   1.1339 N.am           1 S1                 0.0000
      6 ****        -0.1614   0.0578   0.6446 C.2            1 S1                 0.0000
      7 ****        -0.8147  -0.8782   0.1820 O.2            1 S1                 0.0000
      8 ****         1.3713  -0.0166   0.6989 C.3            1 S1                 0.0000
      9 ****         1.8194  -0.6203   2.0387 C.3            1 S1                 0.0000
     10 ****         1.9216  -0.8173  -0.4179 N.4            1 S1                 1.0000
     11 ****         1.9315  -0.1400  -1.7334 C.3            1 S1                 0.0000
     12 ****         2.4372  -1.0785  -2.8430 C.3            1 S1                 0.0000
     13 ****         1.6171  -2.2689  -2.9984 N.pl3          1 S1                 0.0000
     14 ****         2.0256  -3.5849  -3.0616 C.2            1 S1                 0.0000
     15 ****         0.9083  -4.3509  -3.2319 C.2            1 S1                 0.0000
     16 ****        -0.1496  -3.4008  -3.2774 C.2            1 S1                 0.0000
     17 ****         0.2788  -2.1558  -3.1466 N.2            1 S1                 0.0000
     18 ****        -2.4078   2.1502   3.8965 H              1 S1                 0.0000
     19 ****        -2.2001   3.8849   3.6786 H              1 S1                 0.0000
     20 ****        -0.8766   2.7935   3.3086 H              1 S1                 0.0000
     21 ****        -1.9714   3.5588   1.2172 H              1 S1                 0.0000
     22 ****        -4.5499   2.3554   2.3240 H              1 S1                 0.0000
     23 ****        -4.3459   3.0561   0.7201 H              1 S1                 0.0000
     24 ****        -4.2066   4.0744   2.1467 H              1 S1                 0.0000
     25 ****        -2.6443   0.6279   1.7489 H              1 S1                 0.0000
     26 ****        -2.5551   1.3782   0.1659 H              1 S1                 0.0000
     27 ****        -0.1200   1.8938   1.5048 H              1 S1                 0.0000
     28 ****         1.7798   0.9931   0.6279 H              1 S1                 0.0000
     29 ****         1.4541  -0.0327   2.8822 H              1 S1                 0.0000
     30 ****         2.9072  -0.6489   2.1104 H              1 S1                 0.0000
     31 ****         1.4530  -1.6407   2.1612 H              1 S1                 0.0000
     32 ****         2.8741  -1.0636  -0.1910 H              1 S1                 0.0000
     33 ****         0.9325   0.2228  -1.9782 H              1 S1                 0.0000
     34 ****         2.5761   0.7375  -1.6751 H              1 S1                 0.0000
     35 ****         2.4544  -0.5518  -3.7979 H              1 S1                 0.0000
     36 ****         3.4631  -1.3857  -2.6361 H              1 S1                 0.0000
     37 ****         3.0656  -3.8652  -2.9784 H              1 S1                 0.0000
     38 ****         0.8551  -5.4262  -3.3171 H              1 S1                 0.0000
     39 ****        -1.2077  -3.5768  -3.4047 H              1 S1                 0.0000
     40 ****         1.3773  -1.6653  -0.4937 H              1 S1                 0.0000
     41 ****        -1.8131  -0.8279   0.1591 LP             1 S1                 0.0000
     42 ****        -0.3466  -1.6884  -0.1707 LP             1 S1                 0.0000
     43 ****        -0.2665  -1.3176  -3.1555 LP             1 S1                 0.0000
@<TRIPOS>BOND
    1    1    2 1     
    2    1   18 1     
    3    1   19 1     
    4    1   20 1     
    5    2    3 1     
    6    2    4 1     
    7    2   21 1     
    8    3   22 1     
    9    3   23 1     
   10    3   24 1     
   11    4    5 1     
   12    4   25 1     
   13    4   26 1     
   14    5    6 am    
   15    5   27 1     
   16    6    7 2     
   17    6    8 1     
   18    8    9 1     
   19    8   10 1     
   20    8   28 1     
   21    9   29 1     
   22    9   30 1     
   23    9   31 1     
   24   10   11 1     
   25   10   32 1     
   26   10   40 1     
   27   11   12 1     
   28   11   33 1     
   29   11   34 1     
   30   12   13 1     
   31   12   35 1     
   32   12   36 1     
   33   13   17 1     
   34   13   14 1     
   35   14   15 2     
   36   14   37 1     
   37   15   16 1     
   38   15   38 1     
   39   16   17 2     
   40   16   39 1     
   41    7   41 1     
   42    7   42 1     
   43   17   43 1     
@<TRIPOS>SUBSTRUCTURE
      1 S1             1
@<TRIPOS>SET
LONE_PAIRS      STATIC     ATOMS    <user>   **** ""
3 41 42 43
DONOR_HYDROGENS      STATIC     ATOMS    <user>   **** ""
3 27 32 40
ATOM$BLUE        STATIC     ATOMS    COLORGROUP SYSTEM
3 41 42 43
ATOM$RED        STATIC     ATOMS    COLORGROUP SYSTEM
3 27 32 40
