AV-unprocessed.smi:649|AV-procd|sdf|3181|dock2
  -GOLD-   22720 0103D 1   1.00000     0.00000
 Structure written by MMmdl.
 34 35  0  0  0  0  0  0  0  0  2 V2000
  154.0823  140.9516  161.2917 C   0  0  0  0  0  0  0  0  0  0  0  0
  153.0960  142.0117  160.8480 C   0  0  0  0  0  0  0  0  0  0  0  0
  152.7992  143.1034  161.6836 C   0  0  0  0  0  0  0  0  0  0  0  0
  151.8946  144.0901  161.2530 C   0  0  0  0  0  0  0  0  0  0  0  0
  151.2787  144.0049  159.9854 C   0  0  0  0  0  0  0  0  0  0  0  0
  150.3248  145.1187  159.5843 C   0  0  0  0  0  0  0  0  0  0  0  0
  151.5715  142.8999  159.1366 C   0  0  0  0  0  0  0  0  0  0  0  0
  150.9861  142.7300  157.7297 C   0  0  1  0  0  0  0  0  0  0  0  0
  151.1069  143.8827  156.9220 O   0  0  0  0  0  0  0  0  0  0  0  0
  151.5294  141.4990  156.9638 C   0  0  0  0  0  0  0  0  0  0  0  0
  150.5503  140.9408  156.0175 N   0  0  0  0  0  0  0  0  0  0  0  0
  149.4123  141.7105  155.7186 C   0  0  0  0  0  0  0  0  0  0  0  0
  148.4841  141.3001  154.8334 C   0  0  0  0  0  0  0  0  0  0  0  0
  147.1048  142.2760  154.4734 Cl  0  0  0  0  0  0  0  0  0  0  0  0
  148.6832  140.0080  154.1803 C   0  0  0  0  0  0  0  0  0  0  0  0
  147.8540  139.6022  153.3671 O   0  0  0  0  0  0  0  0  0  0  0  0
  149.8016  139.2969  154.5088 N   0  5  0  0  0  0  0  0  0  0  0  0
  150.7383  139.7343  155.4058 C   0  0  0  0  0  0  0  0  0  0  0  0
  151.7473  139.0824  155.6751 O   0  0  0  0  0  0  0  0  0  0  0  0
  152.4801  141.9146  159.5862 C   0  0  0  0  0  0  0  0  0  0  0  0
  154.2136  140.9638  162.3740 H   0  0  0  0  0  0  0  0  0  0  0  0
  155.0525  141.1244  160.8253 H   0  0  0  0  0  0  0  0  0  0  0  0
  153.7347  139.9591  161.0039 H   0  0  0  0  0  0  0  0  0  0  0  0
  153.2663  143.1914  162.6535 H   0  0  0  0  0  0  0  0  0  0  0  0
  151.6800  144.9235  161.9055 H   0  0  0  0  0  0  0  0  0  0  0  0
  149.2961  144.7591  159.5799 H   0  0  0  0  0  0  0  0  0  0  0  0
  150.5640  145.5124  158.5987 H   0  0  0  0  0  0  0  0  0  0  0  0
  150.3776  145.9529  160.2843 H   0  0  0  0  0  0  0  0  0  0  0  0
  149.9109  142.5881  157.8453 H   0  0  0  0  0  0  0  0  0  0  0  0
  150.2453  144.1222  156.6172 H   0  0  0  0  0  0  0  0  0  0  0  0
  152.4507  141.7631  156.4416 H   0  0  0  0  0  0  0  0  0  0  0  0
  151.8295  140.7219  157.6654 H   0  0  0  0  0  0  0  0  0  0  0  0
  149.3491  142.6558  156.2373 H   0  0  0  0  0  0  0  0  0  0  0  0
  152.7251  141.0790  158.9464 H   0  0  0  0  0  0  0  0  0  0  0  0
  1  2  1  0  0  0  0
  1 21  1  0  0  0  0
  1 22  1  0  0  0  0
  1 23  1  0  0  0  0
  2 20  1  0  0  0  0
  2  3  2  0  0  0  0
  3  4  1  0  0  0  0
  3 24  1  0  0  0  0
  4  5  2  0  0  0  0
  4 25  1  0  0  0  0
  5  6  1  0  0  0  0
  5  7  1  0  0  0  0
  6 26  1  0  0  0  0
  6 27  1  0  0  0  0
  6 28  1  0  0  0  0
  7  8  1  0  0  0  0
  7 20  2  0  0  0  0
  8  9  1  0  0  0  0
  8 10  1  0  0  0  0
  8 29  1  0  0  0  0
  9 30  1  0  0  0  0
 10 11  1  0  0  0  0
 10 31  1  0  0  0  0
 10 32  1  0  0  0  0
 11 18  1  0  0  0  0
 11 12  1  0  0  0  0
 12 13  2  0  0  0  0
 12 33  1  0  0  0  0
 13 14  1  0  0  0  0
 13 15  1  0  0  0  0
 15 16  2  0  0  0  0
 15 17  1  0  0  0  0
 17 18  1  0  0  0  0
 18 19  2  0  0  0  0
 20 34  1  0  0  0  0
M  CHG  1  17  -1
M  END
> <s_m_source_file>
AV-unprocessed.smi

> <i_m_source_file_index>
649

> <i_lp_mmshare_version>
43012

> <i_f3d_flags>
0

> <s_epik_input>
W0NIM11jMVtjSF1bY0hdYyhbQ0gzXSljKFtjSF0xKVtDQEhdKFtPSF0pW0NIMl1uMltjSF1jKENsKWMoPU8pW25IXWMyPU8=

> <s_epik_cmdline>
J2VwaWtfcHl0aG9uJywgJy1waCcsICc3LjAnLCAnLXRuJywgJzgnLCAnLW1hJywgJzIwMCcsICctbWV0YWxfYmluZGluZycsICctaW1hZScsICc8aW5maWxlLm1hZT4nLCAnLW9tYWUnLCAnPG91dGZpbGUubWFlPic=

> <r_epik_Ionization_Penalty>
1.7979

> <r_epik_Ionization_Penalty_Charging>
3.23819e-08

> <r_epik_Ionization_Penalty_Neutral>
1.7979

> <r_epik_State_Penalty>
1.91135

> <r_epik_Charging_Adjusted_Penalty>
1.91135

> <i_epik_Tot_Q>
-1

> <i_epik_Tot_abs_Q>
1

> <r_epik_Metal_State_Penalty>
0.014155

> <b_epik_Metal_Only>
0

> <s_lp_Force_Field>
OPLS_2005

> <r_lp_Energy>
20.3663

> <b_lp_Chiralities_Consistent>
1

> <s_lp_Variant>
AV-unprocessed.smi:649-4

> <Gold.Version>
5.8.1

> <Gold.Id.Protein>
6NUR|6NUR_protein|mol2

> <Gold.PLP.Fitness>
49.9779

> <Gold.PLP.PLP>
-44.9587

> <Gold.PLP.part.hbond>
-1.0000

> <Gold.PLP.part.metal>
0.0000

> <Gold.PLP.part.buried>
-6.1449

> <Gold.PLP.part.nonpolar>
-40.0710

> <Gold.PLP.part.repulsive>
1.7108

> <Gold.PLP.ligand.clash>
0.0139

> <Gold.PLP.ligand.torsion>
0.5217

> <Gold.PLP.Chemscore.Hbond>
1.0000

> <Gold.PLP.Chemscore.CHOScore>
1.0000

> <Gold.PLP.Chemscore.Metal>
0.0000

> <Gold.Chemscore.Hbonds>
donor molecule, donor type, donor heavy atom, donor atom, acceptor molecule, acceptor atom, score
      L1  H     9    30       P1  8028  1.00
      L1  C    12    33       P1  8028  1.00

> <Gold.PLP.Chemscore.Internal.Correction>
0.0765

> <Gold.Rescore>
     Score         DG    S(hbond)    S(metal)    S(lipo)     H(rot)  DE(clash)    DE(int)     intcor
     15.98     -17.27       1.00        0.00     117.85       2.09       0.03       1.25       ----

> <Gold.Chemscore.Fitness>
15.9844

> <Gold.Chemscore.DG>
-17.2661

> <Gold.Chemscore.ZeroCoef>
-5.4800

> <Gold.Chemscore.Hbond>
0.9999

> <Gold.Chemscore.Metal>
0.0000

> <Gold.Chemscore.Lipo>
117.8511

> <Gold.Chemscore.Internal_Hbond>
0.0000

> <Gold.Chemscore.DEClash>
0.0291

> <Gold.Chemscore.DEInternal>
1.2526

> <Gold.Chemscore.Rot>
2.0868

> <Gold.Chemscore.Internal.Correction>
   9.000000E+99

> <Gold.Chemscore.Hbonds>
donor molecule, donor type, donor heavy atom, donor atom, acceptor molecule, acceptor atom, score
      L1  H     9    30       P1  8028  1.00

> <Gold.Chemscore.Hbond.Weighted>
-3.3398

> <Gold.Chemscore.Metal.Weighted>
-0.0000

> <Gold.Chemscore.Lipo.Weighted>
-13.7886

> <Gold.Chemscore.Internal_Hbond.Weighted>
0.0000

> <Gold.Chemscore.DEClash.Weighted>
0.0291

> <Gold.Chemscore.DEInternal.Weighted>
1.2526

> <Gold.Chemscore.Rot.Weighted>
5.3423

> <Gold.Chemscore.Internal.Correction.Weighted>
   9.000000E+99

> <Gold.Protein.RotatedTorsions>
[ 6907 6896 6895 6894 ] final   32.81 input  -60.11 | X-H torsion
[ 7974 7965 7964 7962 ] final   57.08 input  175.53 | X-H torsion
[ 8008 7997 7996 7995 ] final  145.78 input   59.86 | X-H torsion
[ 10167 10162 10161 10158 ] final  154.50 input  -65.29 | X-H torsion
[ 10718 10713 10712 10709 ] final   50.83 input   66.30 | X-H torsion
[ 10763 10752 10751 10750 ] final  106.51 input  -60.55 | X-H torsion
[ 11005 11000 10999 10996 ] final -172.99 input  -57.11 | X-H torsion

> <Gold.Protein.ActiveResidues>
 VAL166  LYS551  ARG553  GLY616  TRP617  ASP618  TYR619  PRO620  LYS621  CYS622 
 ASP623  PHE694  ASN695  SER759  ASP760  ASP761  ALA762  ILE779  LEU786  VAL792 
 PHE793  MET794  SER795  GLU796  ALA797  LYS798  CYS799  TRP800  GLU811  SER814 

> <Gold.Protein.RotatedAtoms>
  152.0797  134.9479  160.0573 H   0  0  0  0  0  0  0  0  0  0  0  0  # atno 6907 bound_to 6896
  152.0773  133.4130  159.4494 H   0  0  0  0  0  0  0  0  0  0  0  0  # atno 6908 bound_to 6896
  150.6836  134.2943  159.4723 H   0  0  0  0  0  0  0  0  0  0  0  0  # atno 6909 bound_to 6896
  145.9329  139.3823  143.0410 H   0  0  0  0  0  0  0  0  0  0  0  0  # atno 7974 bound_to 7965
  156.2874  140.2200  156.5271 H   0  0  0  0  0  0  0  0  0  0  0  0  # atno 8008 bound_to 7997
  154.7480  140.0482  157.0891 H   0  0  0  0  0  0  0  0  0  0  0  0  # atno 8009 bound_to 7997
  155.0146  140.3117  155.4820 H   0  0  0  0  0  0  0  0  0  0  0  0  # atno 8010 bound_to 7997
  139.4823  144.5181  151.7920 H   0  0  0  0  0  0  0  0  0  0  0  0  # atno 10167 bound_to 10162
  157.4923  130.8384  149.8217 H   0  0  0  0  0  0  0  0  0  0  0  0  # atno 10718 bound_to 10713
  153.3939  135.3875  155.1942 H   0  0  0  0  0  0  0  0  0  0  0  0  # atno 10763 bound_to 10752
  154.8722  135.3755  154.4703 H   0  0  0  0  0  0  0  0  0  0  0  0  # atno 10764 bound_to 10752
  153.5193  135.7087  153.5801 H   0  0  0  0  0  0  0  0  0  0  0  0  # atno 10765 bound_to 10752
  140.4907  134.5987  157.4953 H   0  0  0  0  0  0  0  0  0  0  0  0  # atno 11005 bound_to 11000
  145.8402  140.9585  143.0803 LP  0  0  0  0  0  0  0  0  0  0  0  0  # atno 17320 bound_to 7965
  144.6767  140.0274  143.7483 LP  0  0  0  0  0  0  0  0  0  0  0  0  # atno 17321 bound_to 7965
  140.4691  144.1612  150.5915 LP  0  0  0  0  0  0  0  0  0  0  0  0  # atno 17342 bound_to 10162
  140.4401  143.2530  151.9484 LP  0  0  0  0  0  0  0  0  0  0  0  0  # atno 17343 bound_to 10162
  156.0180  130.3806  150.2049 LP  0  0  0  0  0  0  0  0  0  0  0  0  # atno 17370 bound_to 10713
  157.0238  130.9987  151.3332 LP  0  0  0  0  0  0  0  0  0  0  0  0  # atno 17371 bound_to 10713
  139.9771  134.7198  155.9930 LP  0  0  0  0  0  0  0  0  0  0  0  0  # atno 17394 bound_to 11000
  141.1485  133.6552  156.3941 LP  0  0  0  0  0  0  0  0  0  0  0  0  # atno 17395 bound_to 11000

$$$$
