AV-unprocessed.smi:1545|AV-procd|sdf|6214|dock6
  -GOLD-   22720 6383D 1   1.00000     0.00000
 Structure written by MMmdl.
 42 44  0  0  0  0  0  0  0  0  2 V2000
  150.6850  139.8414  153.6690 O   0  0  0  0  0  0  0  0  0  0  0  0
  149.5599  140.6533  153.9270 C   0  0  0  0  0  0  0  0  0  0  0  0
  149.9240  141.7446  154.9417 C   0  0  0  0  0  0  0  0  0  0  0  0
  150.4536  141.1779  156.1716 N   0  0  0  0  0  0  0  0  0  0  0  0
  150.8251  142.0364  157.2115 C   0  0  0  0  0  0  0  0  0  0  0  0
  150.5662  143.3698  157.2792 N   0  3  0  0  0  0  0  0  0  0  0  0
  151.1098  143.8632  158.4689 C   0  0  0  0  0  0  0  0  0  0  0  0
  151.1164  145.1495  158.9996 C   0  0  0  0  0  0  0  0  0  0  0  0
  151.7643  145.3198  160.2408 C   0  0  0  0  0  0  0  0  0  0  0  0
  152.3751  144.2372  160.9065 C   0  0  0  0  0  0  0  0  0  0  0  0
  152.3630  142.9358  160.3624 C   0  0  0  0  0  0  0  0  0  0  0  0
  151.7184  142.7730  159.1366 C   0  0  0  0  0  0  0  0  0  0  0  0
  151.5110  141.6547  158.3200 N   0  0  0  0  0  0  0  0  0  0  0  0
  152.0248  140.3409  158.7352 C   0  0  0  0  0  0  0  0  0  0  0  0
  153.5629  140.2553  158.6828 C   0  0  2  0  0  0  0  0  0  0  0  0
  153.9683  139.6585  157.4658 O   0  0  0  0  0  0  0  0  0  0  0  0
  154.1139  139.5203  159.8938 C   0  0  0  0  0  0  0  0  0  0  0  0
  153.8864  138.1359  160.0592 C   0  0  0  0  0  0  0  0  0  0  0  0
  154.3908  137.4638  161.1895 C   0  0  0  0  0  0  0  0  0  0  0  0
  155.1246  138.1715  162.1610 C   0  0  0  0  0  0  0  0  0  0  0  0
  155.3521  139.5521  162.0023 C   0  0  0  0  0  0  0  0  0  0  0  0
  156.0558  140.2343  162.9366 F   0  0  0  0  0  0  0  0  0  0  0  0
  154.8471  140.2250  160.8726 C   0  0  0  0  0  0  0  0  0  0  0  0
  150.4163  139.1249  153.1145 H   0  0  0  0  0  0  0  0  0  0  0  0
  149.1687  141.0747  153.0001 H   0  0  0  0  0  0  0  0  0  0  0  0
  148.7812  140.0128  154.3414 H   0  0  0  0  0  0  0  0  0  0  0  0
  150.6981  142.3816  154.5118 H   0  0  0  0  0  0  0  0  0  0  0  0
  149.0650  142.3839  155.1501 H   0  0  0  0  0  0  0  0  0  0  0  0
  150.7542  140.2136  156.1827 H   0  0  0  0  0  0  0  0  0  0  0  0
  150.6510  145.9820  158.4924 H   0  0  0  0  0  0  0  0  0  0  0  0
  151.7939  146.3015  160.6911 H   0  0  0  0  0  0  0  0  0  0  0  0
  152.8632  144.4081  161.8552 H   0  0  0  0  0  0  0  0  0  0  0  0
  152.8346  142.1139  160.8808 H   0  0  0  0  0  0  0  0  0  0  0  0
  151.6576  140.1286  159.7399 H   0  0  0  0  0  0  0  0  0  0  0  0
  151.5779  139.5895  158.0828 H   0  0  0  0  0  0  0  0  0  0  0  0
  153.9714  141.2667  158.6824 H   0  0  0  0  0  0  0  0  0  0  0  0
  153.3536  138.9742  157.2484 H   0  0  0  0  0  0  0  0  0  0  0  0
  153.3215  137.5851  159.3210 H   0  0  0  0  0  0  0  0  0  0  0  0
  154.2134  136.4053  161.3120 H   0  0  0  0  0  0  0  0  0  0  0  0
  155.5111  137.6560  163.0278 H   0  0  0  0  0  0  0  0  0  0  0  0
  155.0245  141.2848  160.7626 H   0  0  0  0  0  0  0  0  0  0  0  0
  150.0644  143.8939  156.5743 H   0  0  0  0  0  0  0  0  0  0  0  0
  1  2  1  0  0  0  0
  1 24  1  0  0  0  0
  2  3  1  0  0  0  0
  2 25  1  0  0  0  0
  2 26  1  0  0  0  0
  3  4  1  0  0  0  0
  3 27  1  0  0  0  0
  3 28  1  0  0  0  0
  4  5  1  0  0  0  0
  4 29  1  0  0  0  0
  5 13  1  0  0  0  0
  5  6  2  0  0  0  0
  6  7  1  0  0  0  0
  6 42  1  0  0  0  0
  7 12  2  0  0  0  0
  7  8  1  0  0  0  0
  8  9  2  0  0  0  0
  8 30  1  0  0  0  0
  9 10  1  0  0  0  0
  9 31  1  0  0  0  0
 10 11  2  0  0  0  0
 10 32  1  0  0  0  0
 11 12  1  0  0  0  0
 11 33  1  0  0  0  0
 12 13  1  0  0  0  0
 13 14  1  0  0  0  0
 14 15  1  0  0  0  0
 14 34  1  0  0  0  0
 14 35  1  0  0  0  0
 15 16  1  0  0  0  0
 15 17  1  0  0  0  0
 15 36  1  0  0  0  0
 16 37  1  0  0  0  0
 17 23  1  0  0  0  0
 17 18  2  0  0  0  0
 18 19  1  0  0  0  0
 18 38  1  0  0  0  0
 19 20  2  0  0  0  0
 19 39  1  0  0  0  0
 20 21  1  0  0  0  0
 20 40  1  0  0  0  0
 21 22  1  0  0  0  0
 21 23  2  0  0  0  0
 23 41  1  0  0  0  0
M  CHG  1   6   1
M  END
> <s_m_source_file>
AV-unprocessed.smi

> <i_m_source_file_index>
1545

> <i_lp_mmshare_version>
43012

> <i_f3d_flags>
0

> <s_epik_input>
W09IXVtDSDJdW0NIMl1bTkhdYyhuMSluKGMoYzEyKVtjSF1bY0hdW2NIXVtjSF0yKVtDSDJdW0NASF0oW09IXSljM1tjSF1bY0hdW2NIXWMoRilbY0hdMw==

> <s_epik_cmdline>
J2VwaWtfcHl0aG9uJywgJy1waCcsICc3LjAnLCAnLXRuJywgJzgnLCAnLW1hJywgJzIwMCcsICctbWV0YWxfYmluZGluZycsICctaW1hZScsICc8aW5maWxlLm1hZT4nLCAnLW9tYWUnLCAnPG91dGZpbGUubWFlPic=

> <r_epik_Ionization_Penalty>
0.0688114

> <r_epik_Ionization_Penalty_Charging>
0.0688055

> <r_epik_Ionization_Penalty_Neutral>
5.85933e-06

> <r_epik_State_Penalty>
0.0602293

> <r_epik_Charging_Adjusted_Penalty>
0.129035

> <i_epik_Tot_Q>
1

> <i_epik_Tot_abs_Q>
1

> <r_epik_Metal_State_Penalty>
2.77411

> <b_epik_Metal_Only>
0

> <s_lp_Force_Field>
OPLS_2005

> <r_lp_Energy>
22.2772

> <b_lp_Chiralities_Consistent>
1

> <s_lp_Variant>
AV-unprocessed.smi:1545-1

> <Gold.Version>
5.8.1

> <Gold.Id.Protein>
6NUR|6NUR_protein|mol2

> <Gold.PLP.Fitness>
61.0814

> <Gold.PLP.PLP>
-50.6168

> <Gold.PLP.part.hbond>
-4.0000

> <Gold.PLP.part.metal>
0.0000

> <Gold.PLP.part.buried>
-4.7068

> <Gold.PLP.part.nonpolar>
-41.6440

> <Gold.PLP.part.repulsive>
0.0595

> <Gold.PLP.ligand.clash>
0.0000

> <Gold.PLP.ligand.torsion>
0.7463

> <Gold.PLP.Chemscore.Hbond>
3.9760

> <Gold.PLP.Chemscore.CHOScore>
0.0000

> <Gold.PLP.Chemscore.Metal>
0.0000

> <Gold.Chemscore.Hbonds>
donor molecule, donor type, donor heavy atom, donor atom, acceptor molecule, acceptor atom, score
      L1  H     1    24       P1  7957  0.06
      L1  H     6    42       P1  8028  2.00
      P1  H  7989  7998       L1     1  0.56

> <Gold.PLP.Chemscore.Internal.Correction>
0.0293

> <Gold.Rescore>
     Score         DG    S(hbond)    S(metal)    S(lipo)     H(rot)  DE(clash)    DE(int)     intcor
     22.12     -22.86       2.91        0.00     134.50       3.15       0.22       0.52       ----

> <Gold.Chemscore.Fitness>
22.1172

> <Gold.Chemscore.DG>
-22.8562

> <Gold.Chemscore.ZeroCoef>
-5.4800

> <Gold.Chemscore.Hbond>
2.9057

> <Gold.Chemscore.Metal>
0.0000

> <Gold.Chemscore.Lipo>
134.4973

> <Gold.Chemscore.Internal_Hbond>
0.0000

> <Gold.Chemscore.DEClash>
0.2221

> <Gold.Chemscore.DEInternal>
0.5168

> <Gold.Chemscore.Rot>
3.1505

> <Gold.Chemscore.Internal.Correction>
   9.000000E+99

> <Gold.Chemscore.Hbonds>
donor molecule, donor type, donor heavy atom, donor atom, acceptor molecule, acceptor atom, score
      L1  H     1    24       P1  7957  0.04
      L1  H     6    42       P1  8028  1.00
      P1  H  7989  7998       L1     1  0.11

> <Gold.Chemscore.Hbond.Weighted>
-9.7052

> <Gold.Chemscore.Metal.Weighted>
-0.0000

> <Gold.Chemscore.Lipo.Weighted>
-15.7362

> <Gold.Chemscore.Internal_Hbond.Weighted>
0.0000

> <Gold.Chemscore.DEClash.Weighted>
0.2221

> <Gold.Chemscore.DEInternal.Weighted>
0.5168

> <Gold.Chemscore.Rot.Weighted>
8.0652

> <Gold.Chemscore.Internal.Correction.Weighted>
   9.000000E+99

> <Gold.Protein.RotatedTorsions>
[ 6907 6896 6895 6894 ] final   74.22 input  -60.11 | X-H torsion
[ 7974 7965 7964 7962 ] final -129.06 input  175.53 | X-H torsion
[ 8008 7997 7996 7995 ] final   37.02 input   59.86 | X-H torsion
[ 10167 10162 10161 10158 ] final -152.67 input  -65.29 | X-H torsion
[ 10718 10713 10712 10709 ] final   31.89 input   66.30 | X-H torsion
[ 10763 10752 10751 10750 ] final  153.52 input  -60.55 | X-H torsion
[ 11005 11000 10999 10996 ] final  -20.62 input  -57.11 | X-H torsion

> <Gold.Protein.ActiveResidues>
 VAL166  LYS551  ARG553  GLY616  TRP617  ASP618  TYR619  PRO620  LYS621  CYS622 
 ASP623  PHE694  ASN695  SER759  ASP760  ASP761  ALA762  ILE779  LEU786  VAL792 
 PHE793  MET794  SER795  GLU796  ALA797  LYS798  CYS799  TRP800  GLU811  SER814 

> <Gold.Protein.RotatedAtoms>
  152.4964  134.4304  159.9509 H   0  0  0  0  0  0  0  0  0  0  0  0  # atno 6907 bound_to 6896
  151.4282  133.3672  159.2773 H   0  0  0  0  0  0  0  0  0  0  0  0  # atno 6908 bound_to 6896
  150.9174  134.8614  159.7525 H   0  0  0  0  0  0  0  0  0  0  0  0  # atno 6909 bound_to 6896
  144.9609  140.7445  143.4730 H   0  0  0  0  0  0  0  0  0  0  0  0  # atno 7974 bound_to 7965
  155.1969  140.3312  155.4349 H   0  0  0  0  0  0  0  0  0  0  0  0  # atno 8008 bound_to 7997
  156.2421  140.1900  156.7008 H   0  0  0  0  0  0  0  0  0  0  0  0  # atno 8009 bound_to 7997
  154.6168  140.0601  156.9550 H   0  0  0  0  0  0  0  0  0  0  0  0  # atno 8010 bound_to 7997
  139.7161  143.9031  152.2486 H   0  0  0  0  0  0  0  0  0  0  0  0  # atno 10167 bound_to 10162
  157.2782  130.7242  149.6542 H   0  0  0  0  0  0  0  0  0  0  0  0  # atno 10718 bound_to 10713
  154.1376  135.2823  155.3169 H   0  0  0  0  0  0  0  0  0  0  0  0  # atno 10763 bound_to 10752
  154.6310  135.5435  153.7684 H   0  0  0  0  0  0  0  0  0  0  0  0  # atno 10764 bound_to 10752
  153.0261  135.6462  154.1524 H   0  0  0  0  0  0  0  0  0  0  0  0  # atno 10765 bound_to 10752
  140.8482  133.7876  155.9936 H   0  0  0  0  0  0  0  0  0  0  0  0  # atno 11005 bound_to 11000
  145.2702  139.1957  143.4845 LP  0  0  0  0  0  0  0  0  0  0  0  0  # atno 17320 bound_to 7965
  146.3352  140.2647  142.8603 LP  0  0  0  0  0  0  0  0  0  0  0  0  # atno 17321 bound_to 7965
  139.8913  144.6963  150.8767 LP  0  0  0  0  0  0  0  0  0  0  0  0  # atno 17342 bound_to 10162
  140.7744  143.3584  151.1876 LP  0  0  0  0  0  0  0  0  0  0  0  0  # atno 17343 bound_to 10162
  155.9664  130.4346  150.5056 LP  0  0  0  0  0  0  0  0  0  0  0  0  # atno 17370 bound_to 10713
  157.2995  131.0642  151.2078 LP  0  0  0  0  0  0  0  0  0  0  0  0  # atno 17371 bound_to 10713
  140.8820  134.2600  157.5139 LP  0  0  0  0  0  0  0  0  0  0  0  0  # atno 17394 bound_to 11000
  139.8704  134.9619  156.4413 LP  0  0  0  0  0  0  0  0  0  0  0  0  # atno 17395 bound_to 11000

$$$$
