AV-unprocessed.smi:1688|AV-procd|sdf|6771|dock1
  -GOLD-   22720 7533D 1   1.00000     0.00000
 Structure written by MMmdl.
 36 38  0  0  0  0  0  0  0  0  2 V2000
  152.1536  137.9554  157.5174 O   0  0  0  0  0  0  0  0  0  0  0  0
  151.4886  139.1692  157.2181 C   0  0  0  0  0  0  0  0  0  0  0  0
  151.8138  140.1801  158.3489 C   0  0  0  0  0  0  0  0  0  0  0  0
  151.3174  141.5466  158.1132 N   0  0  0  0  0  0  0  0  0  0  0  0
  150.5891  142.0380  157.0734 C   0  0  0  0  0  0  0  0  0  0  0  0
  150.3777  143.3626  157.3062 N   0  3  0  0  0  0  0  0  0  0  0  0
  150.9869  143.7274  158.5081 C   0  0  0  0  0  0  0  0  0  0  0  0
  151.0479  144.9548  159.1609 C   0  0  0  0  0  0  0  0  0  0  0  0
  151.7570  144.9890  160.3793 C   0  0  0  0  0  0  0  0  0  0  0  0
  152.3745  143.8342  160.9019 C   0  0  0  0  0  0  0  0  0  0  0  0
  152.3081  142.5957  160.2303 C   0  0  0  0  0  0  0  0  0  0  0  0
  151.5993  142.5676  159.0293 C   0  0  0  0  0  0  0  0  0  0  0  0
  152.0350  139.6976  155.8706 C   0  0  0  0  0  0  0  0  0  0  0  0
  151.6681  138.8010  154.6746 C   0  0  0  0  0  0  0  0  0  0  0  0
  150.1524  138.5759  154.5924 C   0  0  0  0  0  0  0  0  0  0  0  0
  149.6159  137.9838  155.9026 C   0  0  0  0  0  0  0  0  0  0  0  0
  149.9717  138.8699  157.1103 C   0  0  0  0  0  0  0  0  0  0  0  0
  152.1237  137.8200  158.4520 H   0  0  0  0  0  0  0  0  0  0  0  0
  151.4396  139.8306  159.3120 H   0  0  0  0  0  0  0  0  0  0  0  0
  152.8956  140.2609  158.4637 H   0  0  0  0  0  0  0  0  0  0  0  0
  150.2369  141.4763  156.2203 H   0  0  0  0  0  0  0  0  0  0  0  0
  150.5781  145.8414  158.7612 H   0  0  0  0  0  0  0  0  0  0  0  0
  151.8294  145.9196  160.9235 H   0  0  0  0  0  0  0  0  0  0  0  0
  152.9090  143.8988  161.8386 H   0  0  0  0  0  0  0  0  0  0  0  0
  152.7831  141.7179  160.6421 H   0  0  0  0  0  0  0  0  0  0  0  0
  151.6331  140.6953  155.6883 H   0  0  0  0  0  0  0  0  0  0  0  0
  153.1183  139.8155  155.9216 H   0  0  0  0  0  0  0  0  0  0  0  0
  152.0248  139.2550  153.7496 H   0  0  0  0  0  0  0  0  0  0  0  0
  152.1777  137.8405  154.7603 H   0  0  0  0  0  0  0  0  0  0  0  0
  149.6508  139.5216  154.3834 H   0  0  0  0  0  0  0  0  0  0  0  0
  149.9197  137.9108  153.7604 H   0  0  0  0  0  0  0  0  0  0  0  0
  148.5340  137.8646  155.8385 H   0  0  0  0  0  0  0  0  0  0  0  0
  150.0255  136.9831  156.0456 H   0  0  0  0  0  0  0  0  0  0  0  0
  149.6081  138.3893  158.0189 H   0  0  0  0  0  0  0  0  0  0  0  0
  149.4273  139.8112  157.0252 H   0  0  0  0  0  0  0  0  0  0  0  0
  149.8568  143.9711  156.6877 H   0  0  0  0  0  0  0  0  0  0  0  0
  1  2  1  0  0  0  0
  1 18  1  0  0  0  0
  2 17  1  0  0  0  0
  2  3  1  0  0  0  0
  2 13  1  0  0  0  0
  3  4  1  0  0  0  0
  3 19  1  0  0  0  0
  3 20  1  0  0  0  0
  4 12  1  0  0  0  0
  4  5  1  0  0  0  0
  5  6  2  0  0  0  0
  5 21  1  0  0  0  0
  6  7  1  0  0  0  0
  6 36  1  0  0  0  0
  7 12  2  0  0  0  0
  7  8  1  0  0  0  0
  8  9  2  0  0  0  0
  8 22  1  0  0  0  0
  9 10  1  0  0  0  0
  9 23  1  0  0  0  0
 10 11  2  0  0  0  0
 10 24  1  0  0  0  0
 11 12  1  0  0  0  0
 11 25  1  0  0  0  0
 13 14  1  0  0  0  0
 13 26  1  0  0  0  0
 13 27  1  0  0  0  0
 14 15  1  0  0  0  0
 14 28  1  0  0  0  0
 14 29  1  0  0  0  0
 15 16  1  0  0  0  0
 15 30  1  0  0  0  0
 15 31  1  0  0  0  0
 16 17  1  0  0  0  0
 16 32  1  0  0  0  0
 16 33  1  0  0  0  0
 17 34  1  0  0  0  0
 17 35  1  0  0  0  0
M  CHG  1   6   1
M  END
> <s_m_source_file>
AV-unprocessed.smi

> <i_m_source_file_index>
1688

> <i_lp_mmshare_version>
43012

> <i_f3d_flags>
0

> <s_epik_input>
W0NIMl0xW0NIMl1bQ0gyXVtDSDJdW0NIMl1DMShbT0hdKVtDSDJdbihbY0hdbjIpYyhjMjMpW2NIXVtjSF1bY0hdW2NIXTM=

> <s_epik_cmdline>
J2VwaWtfcHl0aG9uJywgJy1waCcsICc3LjAnLCAnLXRuJywgJzgnLCAnLW1hJywgJzIwMCcsICctbWV0YWxfYmluZGluZycsICctaW1hZScsICc8aW5maWxlLm1hZT4nLCAnLW9tYWUnLCAnPG91dGZpbGUubWFlPic=

> <r_epik_Ionization_Penalty>
1.01013

> <r_epik_Ionization_Penalty_Charging>
1.01013

> <r_epik_Ionization_Penalty_Neutral>
4.42495e-08

> <r_epik_State_Penalty>
1.05948

> <r_epik_Charging_Adjusted_Penalty>
2.06961

> <i_epik_Tot_Q>
1

> <i_epik_Tot_abs_Q>
1

> <r_epik_Metal_State_Penalty>
5.0439

> <b_epik_Metal_Only>
0

> <s_lp_Force_Field>
OPLS_2005

> <r_lp_Energy>
19.8259

> <b_lp_Chiralities_Consistent>
1

> <s_lp_Variant>
AV-unprocessed.smi:1688-2

> <Gold.Version>
5.8.1

> <Gold.Id.Protein>
6NUR|6NUR_protein|mol2

> <Gold.PLP.Fitness>
45.3243

> <Gold.PLP.PLP>
-39.3916

> <Gold.PLP.part.hbond>
-1.0000

> <Gold.PLP.part.metal>
0.0000

> <Gold.PLP.part.buried>
-5.7220

> <Gold.PLP.part.nonpolar>
-33.4031

> <Gold.PLP.part.repulsive>
0.0056

> <Gold.PLP.ligand.clash>
0.0000

> <Gold.PLP.ligand.torsion>
0.0356

> <Gold.PLP.Chemscore.Hbond>
2.0000

> <Gold.PLP.Chemscore.CHOScore>
0.0000

> <Gold.PLP.Chemscore.Metal>
0.0000

> <Gold.Chemscore.Hbonds>
donor molecule, donor type, donor heavy atom, donor atom, acceptor molecule, acceptor atom, score
      L1  H     6    36       P1  8028  2.00

> <Gold.PLP.Chemscore.Internal.Correction>
0.0039

> <Gold.Rescore>
     Score         DG    S(hbond)    S(metal)    S(lipo)     H(rot)  DE(clash)    DE(int)     intcor
     16.92     -16.93       0.99        0.00     105.72       1.65       0.00       0.02       ----

> <Gold.Chemscore.Fitness>
16.9151

> <Gold.Chemscore.DG>
-16.9319

> <Gold.Chemscore.ZeroCoef>
-5.4800

> <Gold.Chemscore.Hbond>
0.9936

> <Gold.Chemscore.Metal>
0.0000

> <Gold.Chemscore.Lipo>
105.7224

> <Gold.Chemscore.Internal_Hbond>
0.0000

> <Gold.Chemscore.DEClash>
0.0000

> <Gold.Chemscore.DEInternal>
0.0168

> <Gold.Chemscore.Rot>
1.6548

> <Gold.Chemscore.Internal.Correction>
   9.000000E+99

> <Gold.Chemscore.Hbonds>
donor molecule, donor type, donor heavy atom, donor atom, acceptor molecule, acceptor atom, score
      L1  H     6    36       P1  8028  0.97

> <Gold.Chemscore.Hbond.Weighted>
-3.3188

> <Gold.Chemscore.Metal.Weighted>
-0.0000

> <Gold.Chemscore.Lipo.Weighted>
-12.3695

> <Gold.Chemscore.Internal_Hbond.Weighted>
0.0000

> <Gold.Chemscore.DEClash.Weighted>
0.0000

> <Gold.Chemscore.DEInternal.Weighted>
0.0168

> <Gold.Chemscore.Rot.Weighted>
4.2364

> <Gold.Chemscore.Internal.Correction.Weighted>
   9.000000E+99

> <Gold.Protein.RotatedTorsions>
[ 6907 6896 6895 6894 ] final   48.31 input  -60.11 | X-H torsion
[ 7974 7965 7964 7962 ] final  -81.09 input  175.53 | X-H torsion
[ 8008 7997 7996 7995 ] final -165.74 input   59.86 | X-H torsion
[ 10167 10162 10161 10158 ] final -106.35 input  -65.29 | X-H torsion
[ 10718 10713 10712 10709 ] final   63.53 input   66.30 | X-H torsion
[ 10763 10752 10751 10750 ] final  -53.15 input  -60.55 | X-H torsion
[ 11005 11000 10999 10996 ] final -120.51 input  -57.11 | X-H torsion

> <Gold.Protein.ActiveResidues>
 VAL166  LYS551  ARG553  GLY616  TRP617  ASP618  TYR619  PRO620  LYS621  CYS622 
 ASP623  PHE694  ASN695  SER759  ASP760  ASP761  ALA762  ILE779  LEU786  VAL792 
 PHE793  MET794  SER795  GLU796  ALA797  LYS798  CYS799  TRP800  GLU811  SER814 

> <Gold.Protein.RotatedAtoms>
  152.2780  134.7860  160.0401 H   0  0  0  0  0  0  0  0  0  0  0  0  # atno 6907 bound_to 6896
  151.8449  133.3424  159.3663 H   0  0  0  0  0  0  0  0  0  0  0  0  # atno 6908 bound_to 6896
  150.7178  134.5284  159.5732 H   0  0  0  0  0  0  0  0  0  0  0  0  # atno 6909 bound_to 6896
  145.5513  140.9496  143.1497 H   0  0  0  0  0  0  0  0  0  0  0  0  # atno 7974 bound_to 7965
  155.8541  140.0967  157.1656 H   0  0  0  0  0  0  0  0  0  0  0  0  # atno 8008 bound_to 7997
  154.3987  140.1377  156.3942 H   0  0  0  0  0  0  0  0  0  0  0  0  # atno 8009 bound_to 7997
  155.7929  140.3455  155.5361 H   0  0  0  0  0  0  0  0  0  0  0  0  # atno 8010 bound_to 7997
  140.1887  143.3909  152.1224 H   0  0  0  0  0  0  0  0  0  0  0  0  # atno 10167 bound_to 10162
  157.5977  130.9110  149.9727 H   0  0  0  0  0  0  0  0  0  0  0  0  # atno 10718 bound_to 10713
  154.1542  135.6485  153.4970 H   0  0  0  0  0  0  0  0  0  0  0  0  # atno 10763 bound_to 10752
  153.0129  135.5345  154.6777 H   0  0  0  0  0  0  0  0  0  0  0  0  # atno 10764 bound_to 10752
  154.6073  135.2950  155.0442 H   0  0  0  0  0  0  0  0  0  0  0  0  # atno 10765 bound_to 10752
  141.0138  134.0225  157.3377 H   0  0  0  0  0  0  0  0  0  0  0  0  # atno 11005 bound_to 11000
  144.7528  139.7151  143.7266 LP  0  0  0  0  0  0  0  0  0  0  0  0  # atno 17320 bound_to 7965
  146.1914  139.5157  142.9802 LP  0  0  0  0  0  0  0  0  0  0  0  0  # atno 17321 bound_to 7965
  139.5265  144.7108  151.5210 LP  0  0  0  0  0  0  0  0  0  0  0  0  # atno 17342 bound_to 10162
  140.6471  143.8773  150.6748 LP  0  0  0  0  0  0  0  0  0  0  0  0  # atno 17343 bound_to 10162
  156.1043  130.3653  150.0161 LP  0  0  0  0  0  0  0  0  0  0  0  0  # atno 17370 bound_to 10713
  156.8271  130.9379  151.3639 LP  0  0  0  0  0  0  0  0  0  0  0  0  # atno 17371 bound_to 10713
  139.9105  135.0189  156.7672 LP  0  0  0  0  0  0  0  0  0  0  0  0  # atno 17394 bound_to 11000
  140.6688  133.9578  155.7845 LP  0  0  0  0  0  0  0  0  0  0  0  0  # atno 17395 bound_to 11000

$$$$
