AV-unprocessed.smi:521|AV-procd|sdf|2799|dock5
  -GOLD-   2262023273D 1   1.00000     0.00000
 Structure written by MMmdl.
 40 42  0  0  0  0  0  0  0  0  1 V2000
  153.2131  141.5033  162.1296 C   0  0  0  0  0  0  0  0  0  0  0  0
  152.5932  141.2689  160.8745 O   0  0  0  0  0  0  0  0  0  0  0  0
  152.1989  142.3570  160.1231 C   0  0  0  0  0  0  0  0  0  0  0  0
  152.3965  143.7031  160.5223 C   0  0  0  0  0  0  0  0  0  0  0  0
  151.9670  144.7612  159.7005 C   0  0  0  0  0  0  0  0  0  0  0  0
  151.3384  144.4879  158.4737 C   0  0  0  0  0  0  0  0  0  0  0  0
  151.1373  143.1563  158.0678 C   0  0  0  0  0  0  0  0  0  0  0  0
  151.5648  142.0835  158.8895 C   0  0  0  0  0  0  0  0  0  0  0  0
  151.4003  140.7555  158.5612 O   0  0  0  0  0  0  0  0  0  0  0  0
  150.3912  140.3969  157.6282 C   0  0  0  0  0  0  0  0  0  0  0  0
  151.0617  139.9838  156.3103 C   0  0  0  0  0  0  0  0  0  0  0  0
  150.0910  139.5451  155.3170 N   0  0  0  0  0  0  0  0  0  0  0  0
  149.9725  138.3212  154.7437 C   0  0  0  0  0  0  0  0  0  0  0  0
  150.8939  137.1894  155.0806 C   0  0  0  0  0  0  0  0  0  0  0  0
  151.8791  136.9770  154.0926 O   0  0  0  0  0  0  0  0  0  0  0  0
  148.9829  138.1870  153.8599 N   0  0  0  0  0  0  0  0  0  0  0  0
  148.4006  139.4395  153.8635 C   0  0  0  0  0  0  0  0  0  0  0  0
  147.2943  139.9399  153.1402 C   0  0  0  0  0  0  0  0  0  0  0  0
  146.8697  141.2732  153.3169 C   0  0  0  0  0  0  0  0  0  0  0  0
  147.5447  142.1241  154.2157 C   0  0  0  0  0  0  0  0  0  0  0  0
  148.6526  141.6472  154.9418 C   0  0  0  0  0  0  0  0  0  0  0  0
  149.0710  140.3145  154.7645 C   0  0  0  0  0  0  0  0  0  0  0  0
  153.4734  140.5472  162.5836 H   0  0  0  0  0  0  0  0  0  0  0  0
  152.5422  142.0228  162.8149 H   0  0  0  0  0  0  0  0  0  0  0  0
  154.1339  142.0773  162.0188 H   0  0  0  0  0  0  0  0  0  0  0  0
  152.8755  143.9508  161.4571 H   0  0  0  0  0  0  0  0  0  0  0  0
  152.1203  145.7839  160.0125 H   0  0  0  0  0  0  0  0  0  0  0  0
  151.0088  145.3002  157.8427 H   0  0  0  0  0  0  0  0  0  0  0  0
  150.6502  142.9831  157.1205 H   0  0  0  0  0  0  0  0  0  0  0  0
  149.8002  139.5649  158.0133 H   0  0  0  0  0  0  0  0  0  0  0  0
  149.7193  141.2385  157.4529 H   0  0  0  0  0  0  0  0  0  0  0  0
  151.6213  140.8242  155.8982 H   0  0  0  0  0  0  0  0  0  0  0  0
  151.7892  139.1916  156.4858 H   0  0  0  0  0  0  0  0  0  0  0  0
  151.3755  137.3771  156.0402 H   0  0  0  0  0  0  0  0  0  0  0  0
  150.3128  136.2736  155.1953 H   0  0  0  0  0  0  0  0  0  0  0  0
  151.4474  136.7759  153.2768 H   0  0  0  0  0  0  0  0  0  0  0  0
  146.7698  139.2957  152.4500 H   0  0  0  0  0  0  0  0  0  0  0  0
  146.0211  141.6444  152.7611 H   0  0  0  0  0  0  0  0  0  0  0  0
  147.2114  143.1430  154.3483 H   0  0  0  0  0  0  0  0  0  0  0  0
  149.1692  142.2955  155.6341 H   0  0  0  0  0  0  0  0  0  0  0  0
  1  2  1  0  0  0  0
  1 23  1  0  0  0  0
  1 24  1  0  0  0  0
  1 25  1  0  0  0  0
  2  3  1  0  0  0  0
  3  8  1  0  0  0  0
  3  4  2  0  0  0  0
  4  5  1  0  0  0  0
  4 26  1  0  0  0  0
  5  6  2  0  0  0  0
  5 27  1  0  0  0  0
  6  7  1  0  0  0  0
  6 28  1  0  0  0  0
  7  8  2  0  0  0  0
  7 29  1  0  0  0  0
  8  9  1  0  0  0  0
  9 10  1  0  0  0  0
 10 11  1  0  0  0  0
 10 30  1  0  0  0  0
 10 31  1  0  0  0  0
 11 12  1  0  0  0  0
 11 32  1  0  0  0  0
 11 33  1  0  0  0  0
 12 22  1  0  0  0  0
 12 13  1  0  0  0  0
 13 14  1  0  0  0  0
 13 16  2  0  0  0  0
 14 15  1  0  0  0  0
 14 34  1  0  0  0  0
 14 35  1  0  0  0  0
 15 36  1  0  0  0  0
 16 17  1  0  0  0  0
 17 22  2  0  0  0  0
 17 18  1  0  0  0  0
 18 19  2  0  0  0  0
 18 37  1  0  0  0  0
 19 20  1  0  0  0  0
 19 38  1  0  0  0  0
 20 21  2  0  0  0  0
 20 39  1  0  0  0  0
 21 22  1  0  0  0  0
 21 40  1  0  0  0  0
M  END
> <s_m_source_file>
AV-unprocessed.smi

> <i_m_source_file_index>
521

> <i_lp_mmshare_version>
43012

> <i_f3d_flags>
0

> <s_epik_input>
W0NIM11PYzFbY0hdW2NIXVtjSF1bY0hdYzFPW0NIMl1bQ0gyXW4oYyhuMilbQ0gyXVtPSF0pYyhjMjMpW2NIXVtjSF1bY0hdW2NIXTM=

> <s_epik_cmdline>
J2VwaWtfcHl0aG9uJywgJy1waCcsICc3LjAnLCAnLXRuJywgJzgnLCAnLW1hJywgJzIwMCcsICctbWV0YWxfYmluZGluZycsICctaW1hZScsICc8aW5maWxlLm1hZT4nLCAnLW9tYWUnLCAnPG91dGZpbGUubWFlPic=

> <r_lp_tautomer_probability>
1

> <r_epik_Ionization_Penalty>
0.048627

> <r_epik_Ionization_Penalty_Charging>
0

> <r_epik_Ionization_Penalty_Neutral>
0.048627

> <r_epik_State_Penalty>
0.0414172

> <r_epik_Charging_Adjusted_Penalty>
0.0414172

> <i_epik_Tot_Q>
0

> <i_epik_Tot_abs_Q>
0

> <r_epik_Metal_State_Penalty>
4.28976e-05

> <b_epik_Metal_Only>
0

> <s_lp_Force_Field>
OPLS_2005

> <r_lp_Energy>
18.4761

> <b_lp_Chiralities_Consistent>
1

> <s_lp_Variant>
AV-unprocessed.smi:521-1

> <Gold.Version>
5.8.1

> <Gold.Id.Protein>
6NUR|6NUR_protein|mol2

> <Gold.PLP.Fitness>
53.4436

> <Gold.PLP.PLP>
-49.1626

> <Gold.PLP.part.hbond>
-2.0000

> <Gold.PLP.part.metal>
0.0000

> <Gold.PLP.part.buried>
-5.4400

> <Gold.PLP.part.nonpolar>
-45.5031

> <Gold.PLP.part.repulsive>
2.9877

> <Gold.PLP.ligand.clash>
0.0000

> <Gold.PLP.ligand.torsion>
0.9049

> <Gold.PLP.Chemscore.Hbond>
2.0000

> <Gold.PLP.Chemscore.CHOScore>
0.0000

> <Gold.PLP.Chemscore.Metal>
0.0000

> <Gold.Chemscore.Hbonds>
donor molecule, donor type, donor heavy atom, donor atom, acceptor molecule, acceptor atom, score
      L1  H    15    36       P1  7949  1.00
      P1  H 10752 10764       L1    15  0.85

> <Gold.PLP.Chemscore.Internal.Correction>
0.0907

> <Gold.Rescore>
     Score         DG    S(hbond)    S(metal)    S(lipo)     H(rot)  DE(clash)    DE(int)     intcor
     18.63     -20.90       1.62        0.00     139.41       2.46       1.42       0.85       ----

> <Gold.Chemscore.Fitness>
18.6288

> <Gold.Chemscore.DG>
-20.8993

> <Gold.Chemscore.ZeroCoef>
-5.4800

> <Gold.Chemscore.Hbond>
1.6158

> <Gold.Chemscore.Metal>
0.0000

> <Gold.Chemscore.Lipo>
139.4065

> <Gold.Chemscore.Internal_Hbond>
0.0000

> <Gold.Chemscore.DEClash>
1.4210

> <Gold.Chemscore.DEInternal>
0.8494

> <Gold.Chemscore.Rot>
2.4562

> <Gold.Chemscore.Internal.Correction>
   9.000000E+99

> <Gold.Chemscore.Hbonds>
donor molecule, donor type, donor heavy atom, donor atom, acceptor molecule, acceptor atom, score
      L1  H    15    36       P1  7949  0.83
      P1  H 10752 10764       L1    15  0.14

> <Gold.Chemscore.Hbond.Weighted>
-5.3967

> <Gold.Chemscore.Metal.Weighted>
-0.0000

> <Gold.Chemscore.Lipo.Weighted>
-16.3106

> <Gold.Chemscore.Internal_Hbond.Weighted>
0.0000

> <Gold.Chemscore.DEClash.Weighted>
1.4210

> <Gold.Chemscore.DEInternal.Weighted>
0.8494

> <Gold.Chemscore.Rot.Weighted>
6.2880

> <Gold.Chemscore.Internal.Correction.Weighted>
   9.000000E+99

> <Gold.Protein.RotatedTorsions>
[ 6907 6896 6895 6894 ] final   49.77 input  -60.11 | X-H torsion
[ 7974 7965 7964 7962 ] final -146.68 input  175.53 | X-H torsion
[ 8008 7997 7996 7995 ] final -178.12 input   59.86 | X-H torsion
[ 10167 10162 10161 10158 ] final -123.44 input  -65.29 | X-H torsion
[ 10718 10713 10712 10709 ] final   44.09 input   66.30 | X-H torsion
[ 10763 10752 10751 10750 ] final  -93.04 input  -60.55 | X-H torsion
[ 11005 11000 10999 10996 ] final  103.81 input  -57.11 | X-H torsion

> <Gold.Protein.ActiveResidues>
 VAL166  LYS551  ARG553  GLY616  TRP617  ASP618  TYR619  PRO620  LYS621  CYS622 
 ASP623  PHE694  ASN695  SER759  ASP760  ASP761  ALA762  ILE779  LEU786  VAL792 
 PHE793  MET794  SER795  GLU796  ALA797  LYS798  CYS799  TRP800  GLU811  SER814 

> <Gold.Protein.RotatedAtoms>
  152.2945  134.7683  160.0370 H   0  0  0  0  0  0  0  0  0  0  0  0  # atno 6907 bound_to 6896
  151.8218  133.3390  159.3594 H   0  0  0  0  0  0  0  0  0  0  0  0  # atno 6908 bound_to 6896
  150.7245  134.5496  159.5832 H   0  0  0  0  0  0  0  0  0  0  0  0  # atno 6909 bound_to 6896
  144.8143  140.5424  143.5621 H   0  0  0  0  0  0  0  0  0  0  0  0  # atno 7974 bound_to 7965
  156.0151  140.1249  157.0414 H   0  0  0  0  0  0  0  0  0  0  0  0  # atno 8008 bound_to 7997
  154.4290  140.1080  156.5954 H   0  0  0  0  0  0  0  0  0  0  0  0  # atno 8009 bound_to 7997
  155.6024  140.3470  155.4600 H   0  0  0  0  0  0  0  0  0  0  0  0  # atno 8010 bound_to 7997
  140.0035  143.5516  152.2293 H   0  0  0  0  0  0  0  0  0  0  0  0  # atno 10167 bound_to 10162
  157.4230  130.7980  149.7532 H   0  0  0  0  0  0  0  0  0  0  0  0  # atno 10718 bound_to 10713
  154.6920  135.5209  153.8406 H   0  0  0  0  0  0  0  0  0  0  0  0  # atno 10763 bound_to 10752
  153.0639  135.6578  154.0408 H   0  0  0  0  0  0  0  0  0  0  0  0  # atno 10764 bound_to 10752
  154.0281  135.2988  155.3352 H   0  0  0  0  0  0  0  0  0  0  0  0  # atno 10765 bound_to 10752
  139.8786  134.9277  156.5265 H   0  0  0  0  0  0  0  0  0  0  0  0  # atno 11005 bound_to 11000
  145.5251  139.1476  143.3531 LP  0  0  0  0  0  0  0  0  0  0  0  0  # atno 17320 bound_to 7965
  146.2445  140.5392  142.8920 LP  0  0  0  0  0  0  0  0  0  0  0  0  # atno 17321 bound_to 7965
  139.6255  144.7636  151.2648 LP  0  0  0  0  0  0  0  0  0  0  0  0  # atno 17342 bound_to 10162
  140.7410  143.6572  150.8196 LP  0  0  0  0  0  0  0  0  0  0  0  0  # atno 17343 bound_to 10162
  155.9887  130.3957  150.3107 LP  0  0  0  0  0  0  0  0  0  0  0  0  # atno 17370 bound_to 10713
  157.1257  131.0258  151.2991 LP  0  0  0  0  0  0  0  0  0  0  0  0  # atno 17371 bound_to 10713
  140.8412  133.8204  155.9077 LP  0  0  0  0  0  0  0  0  0  0  0  0  # atno 17394 bound_to 11000
  140.9236  134.2111  157.4911 LP  0  0  0  0  0  0  0  0  0  0  0  0  # atno 17395 bound_to 11000

$$$$
