AV-unprocessed.smi:1638|AV-procd|sdf|6546|dock3
  -GOLD-   22720 7233D 1   1.00000     0.00000
 Structure written by MMmdl.
 41 42  0  0  0  0  0  0  0  0  2 V2000
  150.5906  142.0548  155.9786 C   0  0  0  0  0  0  0  0  0  0  0  0
  150.1776  140.8490  155.2058 C   0  0  0  0  0  0  0  0  0  0  0  0
  151.0554  139.9563  154.7322 N   0  0  0  0  0  0  0  0  0  0  0  0
  150.4353  138.9234  154.0429 N   0  0  0  0  0  0  0  0  0  0  0  0
  149.1034  139.0697  154.0156 C   0  0  0  0  0  0  0  0  0  0  0  0
  148.2236  138.1602  153.3706 N   0  0  0  0  0  0  0  0  0  0  0  0
  146.8806  138.1196  153.4285 C   0  0  0  0  0  0  0  0  0  0  0  0
  146.1682  138.9122  154.0455 O   0  0  0  0  0  0  0  0  0  0  0  0
  146.3911  137.0950  152.7150 N   0  0  0  0  0  0  0  0  0  0  0  0
  144.9733  136.7772  152.5859 C   0  0  0  0  0  0  0  0  0  0  0  0
  144.6249  135.4570  153.3019 C   0  0  0  0  0  0  0  0  0  0  0  0
  144.7410  134.2670  152.4164 N   0  3  0  0  0  0  0  0  0  0  0  0
  146.1530  133.9437  152.0809 C   0  0  0  0  0  0  0  0  0  0  0  0
  146.3843  132.4227  152.0910 C   0  0  0  0  0  0  0  0  0  0  0  0
  145.8960  131.6942  150.8311 C   0  0  0  0  0  0  0  0  0  0  0  0
  144.4100  131.9139  150.5098 C   0  0  0  0  0  0  0  0  0  0  0  0
  144.1129  133.3609  150.0880 C   0  0  0  0  0  0  0  0  0  0  0  0
  143.8145  134.3317  151.2485 C   0  0  0  0  0  0  0  0  0  0  0  0
  148.4934  140.4944  154.8398 S   0  0  0  0  0  0  0  0  0  0  0  0
  151.6026  141.9340  156.3669 H   0  0  0  0  0  0  0  0  0  0  0  0
  149.9129  142.2130  156.8174 H   0  0  0  0  0  0  0  0  0  0  0  0
  150.5648  142.9347  155.3358 H   0  0  0  0  0  0  0  0  0  0  0  0
  148.6715  137.4511  152.8091 H   0  0  0  0  0  0  0  0  0  0  0  0
  147.0428  136.4882  152.2389 H   0  0  0  0  0  0  0  0  0  0  0  0
  144.3998  137.5976  153.0182 H   0  0  0  0  0  0  0  0  0  0  0  0
  144.7157  136.7408  151.5269 H   0  0  0  0  0  0  0  0  0  0  0  0
  145.2520  135.3124  154.1831 H   0  0  0  0  0  0  0  0  0  0  0  0
  143.5993  135.5437  153.6634 H   0  0  0  0  0  0  0  0  0  0  0  0
  146.4611  134.4048  151.1415 H   0  0  0  0  0  0  0  0  0  0  0  0
  146.8161  134.3633  152.8380 H   0  0  0  0  0  0  0  0  0  0  0  0
  147.4538  132.2345  152.1921 H   0  0  0  0  0  0  0  0  0  0  0  0
  145.9230  131.9844  152.9771 H   0  0  0  0  0  0  0  0  0  0  0  0
  146.5020  131.9987  149.9768 H   0  0  0  0  0  0  0  0  0  0  0  0
  146.0756  130.6258  150.9560 H   0  0  0  0  0  0  0  0  0  0  0  0
  144.1470  131.2540  149.6823 H   0  0  0  0  0  0  0  0  0  0  0  0
  143.7778  131.6141  151.3465 H   0  0  0  0  0  0  0  0  0  0  0  0
  144.9272  133.7438  149.4716 H   0  0  0  0  0  0  0  0  0  0  0  0
  143.2422  133.3589  149.4314 H   0  0  0  0  0  0  0  0  0  0  0  0
  142.8058  134.1311  151.6091 H   0  0  0  0  0  0  0  0  0  0  0  0
  143.8024  135.3470  150.8486 H   0  0  0  0  0  0  0  0  0  0  0  0
  144.4304  133.4859  152.9761 H   0  0  0  0  0  0  0  0  0  0  0  0
  1  2  1  0  0  0  0
  1 20  1  0  0  0  0
  1 21  1  0  0  0  0
  1 22  1  0  0  0  0
  2 19  1  0  0  0  0
  2  3  2  0  0  0  0
  3  4  1  0  0  0  0
  4  5  2  0  0  0  0
  5  6  1  0  0  0  0
  5 19  1  0  0  0  0
  6  7  1  0  0  0  0
  6 23  1  0  0  0  0
  7  8  2  0  0  0  0
  7  9  1  0  0  0  0
  9 10  1  0  0  0  0
  9 24  1  0  0  0  0
 10 11  1  0  0  0  0
 10 25  1  0  0  0  0
 10 26  1  0  0  0  0
 11 12  1  0  0  0  0
 11 27  1  0  0  0  0
 11 28  1  0  0  0  0
 12 18  1  0  0  0  0
 12 13  1  0  0  0  0
 12 41  1  0  0  0  0
 13 14  1  0  0  0  0
 13 29  1  0  0  0  0
 13 30  1  0  0  0  0
 14 15  1  0  0  0  0
 14 31  1  0  0  0  0
 14 32  1  0  0  0  0
 15 16  1  0  0  0  0
 15 33  1  0  0  0  0
 15 34  1  0  0  0  0
 16 17  1  0  0  0  0
 16 35  1  0  0  0  0
 16 36  1  0  0  0  0
 17 18  1  0  0  0  0
 17 37  1  0  0  0  0
 17 38  1  0  0  0  0
 18 39  1  0  0  0  0
 18 40  1  0  0  0  0
M  CHG  1  12   1
M  END
> <s_m_source_file>
AV-unprocessed.smi

> <i_m_source_file_index>
1638

> <i_lp_mmshare_version>
43012

> <i_f3d_flags>
0

> <s_epik_input>
W0NIM11jMW5uYyhzMSlbTkhdQyg9TylbTkhdW0NIMl1bQ0gyXU4yW0NIMl1bQ0gyXVtDSDJdW0NIMl1bQ0gyXVtDSDJdMg==

> <s_epik_cmdline>
J2VwaWtfcHl0aG9uJywgJy1waCcsICc3LjAnLCAnLXRuJywgJzgnLCAnLW1hJywgJzIwMCcsICctbWV0YWxfYmluZGluZycsICctaW1hZScsICc8aW5maWxlLm1hZT4nLCAnLW9tYWUnLCAnPG91dGZpbGUubWFlPic=

> <r_lp_tautomer_probability>
1

> <r_epik_Ionization_Penalty>
0.00683162

> <r_epik_Ionization_Penalty_Charging>
0.00256589

> <r_epik_Ionization_Penalty_Neutral>
0.00426573

> <r_epik_State_Penalty>
0.0020046

> <r_epik_Charging_Adjusted_Penalty>
0.00457048

> <i_epik_Tot_Q>
1

> <i_epik_Tot_abs_Q>
1

> <r_epik_Metal_State_Penalty>
0.375345

> <b_epik_Metal_Only>
0

> <s_lp_Force_Field>
OPLS_2005

> <r_lp_Energy>
20.2813

> <b_lp_Chiralities_Consistent>
1

> <s_lp_Variant>
AV-unprocessed.smi:1638-1

> <Gold.Version>
5.8.1

> <Gold.Id.Protein>
6NUR|6NUR_protein|mol2

> <Gold.PLP.Fitness>
37.7161

> <Gold.PLP.PLP>
-29.5207

> <Gold.PLP.part.hbond>
-3.1746

> <Gold.PLP.part.metal>
0.0000

> <Gold.PLP.part.buried>
-3.9802

> <Gold.PLP.part.nonpolar>
-22.5792

> <Gold.PLP.part.repulsive>
0.4500

> <Gold.PLP.ligand.clash>
0.0000

> <Gold.PLP.ligand.torsion>
0.2750

> <Gold.PLP.Chemscore.Hbond>
2.8960

> <Gold.PLP.Chemscore.CHOScore>
0.0000

> <Gold.PLP.Chemscore.Metal>
0.0000

> <Gold.Chemscore.Hbonds>
donor molecule, donor type, donor heavy atom, donor atom, acceptor molecule, acceptor atom, score
      L1  H     6    23       P1  7948  1.00
      L1  H     9    24       P1  7948  0.88
      P1  H  7989  7998       L1     3  0.85

> <Gold.PLP.Chemscore.Internal.Correction>
0.0575

> <Gold.Rescore>
     Score         DG    S(hbond)    S(metal)    S(lipo)     H(rot)  DE(clash)    DE(int)     intcor
     14.65     -16.27       1.94        0.00      71.67       1.60       0.10       1.52       ----

> <Gold.Chemscore.Fitness>
14.6530

> <Gold.Chemscore.DG>
-16.2651

> <Gold.Chemscore.ZeroCoef>
-5.4800

> <Gold.Chemscore.Hbond>
1.9430

> <Gold.Chemscore.Metal>
0.0000

> <Gold.Chemscore.Lipo>
71.6662

> <Gold.Chemscore.Internal_Hbond>
0.0000

> <Gold.Chemscore.DEClash>
0.0960

> <Gold.Chemscore.DEInternal>
1.5160

> <Gold.Chemscore.Rot>
1.5975

> <Gold.Chemscore.Internal.Correction>
   9.000000E+99

> <Gold.Chemscore.Hbonds>
donor molecule, donor type, donor heavy atom, donor atom, acceptor molecule, acceptor atom, score
      L1  H     6    23       P1  7948  0.95
      L1  H     9    24       P1  7948  0.86
      P1  H  7989  7998       L1     3  0.04

> <Gold.Chemscore.Hbond.Weighted>
-6.4897

> <Gold.Chemscore.Metal.Weighted>
-0.0000

> <Gold.Chemscore.Lipo.Weighted>
-8.3849

> <Gold.Chemscore.Internal_Hbond.Weighted>
0.0000

> <Gold.Chemscore.DEClash.Weighted>
0.0960

> <Gold.Chemscore.DEInternal.Weighted>
1.5160

> <Gold.Chemscore.Rot.Weighted>
4.0896

> <Gold.Chemscore.Internal.Correction.Weighted>
   9.000000E+99

> <Gold.Protein.RotatedTorsions>
[ 6907 6896 6895 6894 ] final  -12.01 input  -60.11 | X-H torsion
[ 7974 7965 7964 7962 ] final   52.76 input  175.53 | X-H torsion
[ 8008 7997 7996 7995 ] final  -89.48 input   59.86 | X-H torsion
[ 10167 10162 10161 10158 ] final -113.93 input  -65.29 | X-H torsion
[ 10718 10713 10712 10709 ] final  -80.14 input   66.30 | X-H torsion
[ 10763 10752 10751 10750 ] final  177.50 input  -60.55 | X-H torsion
[ 11005 11000 10999 10996 ] final  -97.42 input  -57.11 | X-H torsion

> <Gold.Protein.ActiveResidues>
 VAL166  LYS551  ARG553  GLY616  TRP617  ASP618  TYR619  PRO620  LYS621  CYS622 
 ASP623  PHE694  ASN695  SER759  ASP760  ASP761  ALA762  ILE779  LEU786  VAL792 
 PHE793  MET794  SER795  GLU796  ALA797  LYS798  CYS799  TRP800  GLU811  SER814 

> <Gold.Protein.RotatedAtoms>
  151.3772  135.0933  159.9484 H   0  0  0  0  0  0  0  0  0  0  0  0  # atno 6907 bound_to 6896
  152.5119  133.9107  159.7497 H   0  0  0  0  0  0  0  0  0  0  0  0  # atno 6908 bound_to 6896
  150.9533  133.6470  159.2797 H   0  0  0  0  0  0  0  0  0  0  0  0  # atno 6909 bound_to 6896
  145.9781  139.4215  143.0149 H   0  0  0  0  0  0  0  0  0  0  0  0  # atno 7974 bound_to 7965
  154.6871  140.0541  157.0325 H   0  0  0  0  0  0  0  0  0  0  0  0  # atno 8008 bound_to 7997
  155.0869  140.3215  155.4566 H   0  0  0  0  0  0  0  0  0  0  0  0  # atno 8009 bound_to 7997
  156.2715  140.2055  156.5997 H   0  0  0  0  0  0  0  0  0  0  0  0  # atno 8010 bound_to 7997
  140.1064  143.4566  152.1780 H   0  0  0  0  0  0  0  0  0  0  0  0  # atno 10167 bound_to 10162
  156.0076  130.4566  150.3755 H   0  0  0  0  0  0  0  0  0  0  0  0  # atno 10718 bound_to 10713
  154.4953  135.2781  155.1464 H   0  0  0  0  0  0  0  0  0  0  0  0  # atno 10763 bound_to 10752
  154.3119  135.6227  153.5473 H   0  0  0  0  0  0  0  0  0  0  0  0  # atno 10764 bound_to 10752
  152.9894  135.5722  154.5384 H   0  0  0  0  0  0  0  0  0  0  0  0  # atno 10765 bound_to 10752
  141.1379  133.8170  157.0704 H   0  0  0  0  0  0  0  0  0  0  0  0  # atno 11005 bound_to 11000
  145.7809  140.9856  143.1099 LP  0  0  0  0  0  0  0  0  0  0  0  0  # atno 17320 bound_to 7965
  144.6854  139.9564  143.7479 LP  0  0  0  0  0  0  0  0  0  0  0  0  # atno 17321 bound_to 7965
  139.5643  144.7425  151.4067 LP  0  0  0  0  0  0  0  0  0  0  0  0  # atno 17342 bound_to 10162
  140.6949  143.7772  150.7312 LP  0  0  0  0  0  0  0  0  0  0  0  0  # atno 17343 bound_to 10162
  157.1838  131.0398  151.2735 LP  0  0  0  0  0  0  0  0  0  0  0  0  # atno 17370 bound_to 10713
  157.4122  130.7391  149.6848 LP  0  0  0  0  0  0  0  0  0  0  0  0  # atno 17371 bound_to 10713
  140.0515  134.9803  157.1144 LP  0  0  0  0  0  0  0  0  0  0  0  0  # atno 17394 bound_to 11000
  140.3983  134.2110  155.7164 LP  0  0  0  0  0  0  0  0  0  0  0  0  # atno 17395 bound_to 11000

$$$$
