AV-unprocessed.smi:2781|AV-procd|sdf|10717|dock1
  -GOLD-   2272015153D 1   1.00000     0.00000
 Structure written by MMmdl.
 35 38  0  0  0  0  0  0  0  0  1 V2000
  144.9298  137.6673  152.5891 O   0  0  0  0  0  0  0  0  0  0  0  0
  146.0748  137.4418  152.1956 C   0  0  0  0  0  0  0  0  0  0  0  0
  146.4962  136.2851  151.6540 N   0  0  0  0  0  0  0  0  0  0  0  0
  145.7516  135.0963  151.4309 C   0  0  0  0  0  0  0  0  0  0  0  0
  146.5266  133.9519  151.1341 C   0  0  0  0  0  0  0  0  0  0  0  0
  145.8837  132.7210  150.8983 C   0  0  0  0  0  0  0  0  0  0  0  0
  144.4802  132.6678  150.9666 C   0  0  0  0  0  0  0  0  0  0  0  0
  143.8179  131.5072  150.7477 F   0  0  0  0  0  0  0  0  0  0  0  0
  143.7827  133.8518  151.2687 C   0  0  0  0  0  0  0  0  0  0  0  0
  144.3979  135.0323  151.4945 N   0  0  0  0  0  0  0  0  0  0  0  0
  147.0696  138.3380  152.2549 N   0  0  0  0  0  0  0  0  0  0  0  0
  146.9613  139.6642  152.7709 C   0  0  2  0  0  0  0  0  0  0  0  0
  147.9999  140.0950  153.7953 C   0  0  1  0  0  0  0  0  0  0  0  0
  148.2431  141.5237  154.2726 C   0  0  2  0  0  0  0  0  0  0  0  0
  148.3838  141.4916  155.8084 C   0  0  0  0  0  0  0  0  0  0  0  0
  146.9365  141.1923  156.2709 C   0  0  0  0  0  0  0  0  0  0  0  0
  146.1719  141.0991  154.9340 C   0  0  1  0  0  0  0  0  0  0  0  0
  146.8785  142.2027  154.1449 C   0  0  0  0  0  0  0  0  0  0  0  0
  146.5983  139.8080  154.2413 C   0  0  1  0  0  0  0  0  0  0  0  0
  147.4637  136.2504  151.3694 H   0  0  0  0  0  0  0  0  0  0  0  0
  147.6042  134.0115  151.0861 H   0  0  0  0  0  0  0  0  0  0  0  0
  146.4575  131.8352  150.6697 H   0  0  0  0  0  0  0  0  0  0  0  0
  142.7044  133.8528  151.3307 H   0  0  0  0  0  0  0  0  0  0  0  0
  147.9764  138.0624  151.9077 H   0  0  0  0  0  0  0  0  0  0  0  0
  146.5879  140.4214  152.0853 H   0  0  0  0  0  0  0  0  0  0  0  0
  148.7718  139.3730  154.0569 H   0  0  0  0  0  0  0  0  0  0  0  0
  149.0634  142.0121  153.7464 H   0  0  0  0  0  0  0  0  0  0  0  0
  149.0934  140.7341  156.1431 H   0  0  0  0  0  0  0  0  0  0  0  0
  148.7188  142.4568  156.1907 H   0  0  0  0  0  0  0  0  0  0  0  0
  146.8674  140.2713  156.8513 H   0  0  0  0  0  0  0  0  0  0  0  0
  146.5522  142.0066  156.8867 H   0  0  0  0  0  0  0  0  0  0  0  0
  145.0893  141.1986  155.0154 H   0  0  0  0  0  0  0  0  0  0  0  0
  146.8326  143.1809  154.6280 H   0  0  0  0  0  0  0  0  0  0  0  0
  146.5271  142.3172  153.1200 H   0  0  0  0  0  0  0  0  0  0  0  0
  146.4228  138.8919  154.8027 H   0  0  0  0  0  0  0  0  0  0  0  0
  1  2  2  0  0  0  0
  2  3  1  0  0  0  0
  2 11  1  0  0  0  0
  3  4  1  0  0  0  0
  3 20  1  0  0  0  0
  4 10  1  0  0  0  0
  4  5  2  0  0  0  0
  5  6  1  0  0  0  0
  5 21  1  0  0  0  0
  6  7  2  0  0  0  0
  6 22  1  0  0  0  0
  7  8  1  0  0  0  0
  7  9  1  0  0  0  0
  9 10  2  0  0  0  0
  9 23  1  0  0  0  0
 11 12  1  0  0  0  0
 11 24  1  0  0  0  0
 12 19  1  0  0  0  0
 12 13  1  0  0  0  0
 12 25  1  0  0  0  0
 13 19  1  0  0  0  0
 13 14  1  0  0  0  0
 13 26  1  0  0  0  0
 14 18  1  0  0  0  0
 14 15  1  0  0  0  0
 14 27  1  0  0  0  0
 15 16  1  0  0  0  0
 15 28  1  0  0  0  0
 15 29  1  0  0  0  0
 16 17  1  0  0  0  0
 16 30  1  0  0  0  0
 16 31  1  0  0  0  0
 17 18  1  0  0  0  0
 17 19  1  0  0  0  0
 17 32  1  0  0  0  0
 18 33  1  0  0  0  0
 18 34  1  0  0  0  0
 19 35  1  0  0  0  0
M  END
> <s_m_source_file>
AV-unprocessed.smi

> <i_m_source_file_index>
2781

> <i_lp_mmshare_version>
43012

> <i_f3d_flags>
0

> <s_epik_input>
bjFbY0hdYyhGKVtjSF1bY0hdYzFbTkhdQyg9TylbTkhdW0NASF0yW0NAQEhdM1tDQEhdKFtDSDJdNClbQ0gyXVtDSDJdW0NASF00W0NASF0yMw==

> <s_epik_cmdline>
J2VwaWtfcHl0aG9uJywgJy1waCcsICc3LjAnLCAnLXRuJywgJzgnLCAnLW1hJywgJzIwMCcsICctbWV0YWxfYmluZGluZycsICctaW1hZScsICc8aW5maWxlLm1hZT4nLCAnLW9tYWUnLCAnPG91dGZpbGUubWFlPic=

> <r_lp_tautomer_probability>
1

> <r_epik_Ionization_Penalty>
4.05776e-05

> <r_epik_Ionization_Penalty_Charging>
0

> <r_epik_Ionization_Penalty_Neutral>
4.05776e-05

> <r_epik_State_Penalty>
-0

> <r_epik_Charging_Adjusted_Penalty>
0

> <i_epik_Tot_Q>
0

> <i_epik_Tot_abs_Q>
0

> <r_epik_Metal_State_Penalty>
-0

> <b_epik_Metal_Only>
0

> <s_lp_Force_Field>
OPLS_2005

> <r_lp_Energy>
77.2999

> <b_lp_Chiralities_Consistent>
1

> <s_lp_Variant>
AV-unprocessed.smi:2781-1

> <Gold.Version>
5.8.1

> <Gold.Id.Protein>
6NUR|6NUR_protein|mol2

> <Gold.PLP.Fitness>
39.9283

> <Gold.PLP.PLP>
-32.2696

> <Gold.PLP.part.hbond>
-2.0775

> <Gold.PLP.part.metal>
0.0000

> <Gold.PLP.part.buried>
-3.8782

> <Gold.PLP.part.nonpolar>
-29.3915

> <Gold.PLP.part.repulsive>
1.1661

> <Gold.PLP.ligand.clash>
0.0000

> <Gold.PLP.ligand.torsion>
0.0881

> <Gold.PLP.Chemscore.Hbond>
1.6068

> <Gold.PLP.Chemscore.CHOScore>
0.9960

> <Gold.PLP.Chemscore.Metal>
0.0000

> <Gold.Chemscore.Hbonds>
donor molecule, donor type, donor heavy atom, donor atom, acceptor molecule, acceptor atom, score
      L1  H     3    20       P1  7948  0.95
      L1  H    11    24       P1  7948  0.66
      L1  C     9    23       P1 10186  1.00

> <Gold.PLP.Chemscore.Internal.Correction>
0.0266

> <Gold.Rescore>
     Score         DG    S(hbond)    S(metal)    S(lipo)     H(rot)  DE(clash)    DE(int)     intcor
     15.10     -16.95       1.72        0.00      70.93       1.00       0.45       1.40       ----

> <Gold.Chemscore.Fitness>
15.1007

> <Gold.Chemscore.DG>
-16.9525

> <Gold.Chemscore.ZeroCoef>
-5.4800

> <Gold.Chemscore.Hbond>
1.7167

> <Gold.Chemscore.Metal>
0.0000

> <Gold.Chemscore.Lipo>
70.9283

> <Gold.Chemscore.Internal_Hbond>
0.0000

> <Gold.Chemscore.DEClash>
0.4493

> <Gold.Chemscore.DEInternal>
1.4025

> <Gold.Chemscore.Rot>
1.0000

> <Gold.Chemscore.Internal.Correction>
   9.000000E+99

> <Gold.Chemscore.Hbonds>
donor molecule, donor type, donor heavy atom, donor atom, acceptor molecule, acceptor atom, score
      L1  H     3    20       P1  7948  0.85
      L1  H    11    24       P1  7948  0.62

> <Gold.Chemscore.Hbond.Weighted>
-5.7339

> <Gold.Chemscore.Metal.Weighted>
-0.0000

> <Gold.Chemscore.Lipo.Weighted>
-8.2986

> <Gold.Chemscore.Internal_Hbond.Weighted>
0.0000

> <Gold.Chemscore.DEClash.Weighted>
0.4493

> <Gold.Chemscore.DEInternal.Weighted>
1.4025

> <Gold.Chemscore.Rot.Weighted>
2.5600

> <Gold.Chemscore.Internal.Correction.Weighted>
   9.000000E+99

> <Gold.Protein.RotatedTorsions>
[ 6907 6896 6895 6894 ] final  -86.62 input  -60.11 | X-H torsion
[ 7974 7965 7964 7962 ] final   76.25 input  175.53 | X-H torsion
[ 8008 7997 7996 7995 ] final  -81.56 input   59.86 | X-H torsion
[ 10167 10162 10161 10158 ] final  160.34 input  -65.29 | X-H torsion
[ 10718 10713 10712 10709 ] final   22.18 input   66.30 | X-H torsion
[ 10763 10752 10751 10750 ] final   34.28 input  -60.55 | X-H torsion
[ 11005 11000 10999 10996 ] final  112.61 input  -57.11 | X-H torsion

> <Gold.Protein.ActiveResidues>
 VAL166  LYS551  ARG553  GLY616  TRP617  ASP618  TYR619  PRO620  LYS621  CYS622 
 ASP623  PHE694  ASN695  SER759  ASP760  ASP761  ALA762  ILE779  LEU786  VAL792 
 PHE793  MET794  SER795  GLU796  ALA797  LYS798  CYS799  TRP800  GLU811  SER814 

> <Gold.Protein.RotatedAtoms>
  150.6867  134.3022  159.4711 H   0  0  0  0  0  0  0  0  0  0  0  0  # atno 6907 bound_to 6896
  152.0917  134.9400  160.0581 H   0  0  0  0  0  0  0  0  0  0  0  0  # atno 6908 bound_to 6896
  152.0713  133.4073  159.4497 H   0  0  0  0  0  0  0  0  0  0  0  0  # atno 6909 bound_to 6896
  145.7053  139.2596  143.1682 H   0  0  0  0  0  0  0  0  0  0  0  0  # atno 7974 bound_to 7965
  154.5996  140.0646  156.9350 H   0  0  0  0  0  0  0  0  0  0  0  0  # atno 8008 bound_to 7997
  155.2155  140.3326  155.4304 H   0  0  0  0  0  0  0  0  0  0  0  0  # atno 8009 bound_to 7997
  156.2309  140.1840  156.7228 H   0  0  0  0  0  0  0  0  0  0  0  0  # atno 8010 bound_to 7997
  139.4839  144.4643  151.8663 H   0  0  0  0  0  0  0  0  0  0  0  0  # atno 10167 bound_to 10162
  157.1487  130.6665  149.6005 H   0  0  0  0  0  0  0  0  0  0  0  0  # atno 10718 bound_to 10713
  153.0172  135.6364  154.1643 H   0  0  0  0  0  0  0  0  0  0  0  0  # atno 10763 bound_to 10752
  154.1381  135.2836  155.3169 H   0  0  0  0  0  0  0  0  0  0  0  0  # atno 10764 bound_to 10752
  154.6144  135.5545  153.7569 H   0  0  0  0  0  0  0  0  0  0  0  0  # atno 10765 bound_to 10752
  139.8932  134.9533  156.6612 H   0  0  0  0  0  0  0  0  0  0  0  0  # atno 11005 bound_to 11000
  146.0761  140.7815  142.9664 LP  0  0  0  0  0  0  0  0  0  0  0  0  # atno 17320 bound_to 7965
  144.6957  140.3417  143.7198 LP  0  0  0  0  0  0  0  0  0  0  0  0  # atno 17321 bound_to 7965
  140.4107  144.2372  150.5889 LP  0  0  0  0  0  0  0  0  0  0  0  0  # atno 17342 bound_to 10162
  140.4969  143.2330  151.8737 LP  0  0  0  0  0  0  0  0  0  0  0  0  # atno 17343 bound_to 10162
  155.9774  130.4752  150.6594 LP  0  0  0  0  0  0  0  0  0  0  0  0  # atno 17370 bound_to 10713
  157.4240  131.0840  151.1103 LP  0  0  0  0  0  0  0  0  0  0  0  0  # atno 17371 bound_to 10713
  140.7445  133.8949  155.8302 LP  0  0  0  0  0  0  0  0  0  0  0  0  # atno 17394 bound_to 11000
  141.0050  134.1098  157.4279 LP  0  0  0  0  0  0  0  0  0  0  0  0  # atno 17395 bound_to 11000

$$$$
