AV-unprocessed.smi:1829|AV-procd|sdf|7429|dock7
  -GOLD-   22720 9113D 1   1.00000     0.00000
 Structure written by MMmdl.
 45 47  0  0  0  0  0  0  0  0  1 V2000
  154.7104  141.0650  161.8954 C   0  0  0  0  0  0  0  0  0  0  0  0
  153.8974  142.3316  161.5840 C   0  0  0  0  0  0  0  0  0  0  0  0
  153.0983  142.8068  162.8077 C   0  0  0  0  0  0  0  0  0  0  0  0
  152.9991  142.1410  160.3682 C   0  0  0  0  0  0  0  0  0  0  0  0
  152.1349  143.1787  159.9581 C   0  0  0  0  0  0  0  0  0  0  0  0
  151.2977  143.0078  158.8384 C   0  0  0  0  0  0  0  0  0  0  0  0
  151.3166  141.7981  158.1132 C   0  0  0  0  0  0  0  0  0  0  0  0
  150.4022  141.6166  156.9119 C   0  0  1  0  0  0  0  0  0  0  0  0
  150.2274  142.8189  156.1876 O   0  0  0  0  0  0  0  0  0  0  0  0
  150.9222  140.5071  155.9763 C   0  0  0  0  0  0  0  0  0  0  0  0
  149.8625  139.6201  155.5145 N   0  0  0  0  0  0  0  0  0  0  0  0
  149.9341  138.2953  155.2274 C   0  0  0  0  0  0  0  0  0  0  0  0
  151.2210  137.5318  155.3665 C   0  0  0  0  0  0  0  0  0  0  0  0
  151.7426  137.0540  154.1425 O   0  0  0  0  0  0  0  0  0  0  0  0
  148.7924  137.7314  154.8244 N   0  0  0  0  0  0  0  0  0  0  0  0
  147.9021  138.7864  154.8517 C   0  0  0  0  0  0  0  0  0  0  0  0
  146.5264  138.8372  154.5315 C   0  0  0  0  0  0  0  0  0  0  0  0
  145.8128  140.0491  154.6394 C   0  0  0  0  0  0  0  0  0  0  0  0
  146.4628  141.2247  155.0680 C   0  0  0  0  0  0  0  0  0  0  0  0
  147.8329  141.1956  155.3919 C   0  0  0  0  0  0  0  0  0  0  0  0
  148.5403  139.9835  155.2818 C   0  0  0  0  0  0  0  0  0  0  0  0
  152.1785  140.7582  158.5239 C   0  0  0  0  0  0  0  0  0  0  0  0
  153.0148  140.9292  159.6435 C   0  0  0  0  0  0  0  0  0  0  0  0
  155.3103  140.7632  161.0362 H   0  0  0  0  0  0  0  0  0  0  0  0
  154.0657  140.2274  162.1631 H   0  0  0  0  0  0  0  0  0  0  0  0
  155.3925  141.2341  162.7292 H   0  0  0  0  0  0  0  0  0  0  0  0
  154.6134  143.1192  161.3452 H   0  0  0  0  0  0  0  0  0  0  0  0
  152.5700  143.7364  162.5932 H   0  0  0  0  0  0  0  0  0  0  0  0
  153.7567  142.9914  163.6571 H   0  0  0  0  0  0  0  0  0  0  0  0
  152.3594  142.0678  163.1186 H   0  0  0  0  0  0  0  0  0  0  0  0
  152.1072  144.1117  160.5019 H   0  0  0  0  0  0  0  0  0  0  0  0
  150.6387  143.8104  158.5407 H   0  0  0  0  0  0  0  0  0  0  0  0
  149.4148  141.3319  157.2779 H   0  0  0  0  0  0  0  0  0  0  0  0
  149.3038  143.0155  156.1532 H   0  0  0  0  0  0  0  0  0  0  0  0
  151.4424  140.9372  155.1206 H   0  0  0  0  0  0  0  0  0  0  0  0
  151.6601  139.8987  156.5011 H   0  0  0  0  0  0  0  0  0  0  0  0
  151.9719  138.1710  155.8309 H   0  0  0  0  0  0  0  0  0  0  0  0
  151.0588  136.6815  156.0292 H   0  0  0  0  0  0  0  0  0  0  0  0
  151.0526  136.6084  153.6757 H   0  0  0  0  0  0  0  0  0  0  0  0
  146.0198  137.9421  154.2025 H   0  0  0  0  0  0  0  0  0  0  0  0
  144.7617  140.0765  154.3922 H   0  0  0  0  0  0  0  0  0  0  0  0
  145.9090  142.1487  155.1478 H   0  0  0  0  0  0  0  0  0  0  0  0
  148.3345  142.0938  155.7204 H   0  0  0  0  0  0  0  0  0  0  0  0
  152.1981  139.8234  157.9830 H   0  0  0  0  0  0  0  0  0  0  0  0
  153.6678  140.1231  159.9446 H   0  0  0  0  0  0  0  0  0  0  0  0
  1  2  1  0  0  0  0
  1 24  1  0  0  0  0
  1 25  1  0  0  0  0
  1 26  1  0  0  0  0
  2  3  1  0  0  0  0
  2  4  1  0  0  0  0
  2 27  1  0  0  0  0
  3 28  1  0  0  0  0
  3 29  1  0  0  0  0
  3 30  1  0  0  0  0
  4 23  1  0  0  0  0
  4  5  2  0  0  0  0
  5  6  1  0  0  0  0
  5 31  1  0  0  0  0
  6  7  2  0  0  0  0
  6 32  1  0  0  0  0
  7  8  1  0  0  0  0
  7 22  1  0  0  0  0
  8  9  1  0  0  0  0
  8 10  1  0  0  0  0
  8 33  1  0  0  0  0
  9 34  1  0  0  0  0
 10 11  1  0  0  0  0
 10 35  1  0  0  0  0
 10 36  1  0  0  0  0
 11 21  1  0  0  0  0
 11 12  1  0  0  0  0
 12 13  1  0  0  0  0
 12 15  2  0  0  0  0
 13 14  1  0  0  0  0
 13 37  1  0  0  0  0
 13 38  1  0  0  0  0
 14 39  1  0  0  0  0
 15 16  1  0  0  0  0
 16 21  2  0  0  0  0
 16 17  1  0  0  0  0
 17 18  2  0  0  0  0
 17 40  1  0  0  0  0
 18 19  1  0  0  0  0
 18 41  1  0  0  0  0
 19 20  2  0  0  0  0
 19 42  1  0  0  0  0
 20 21  1  0  0  0  0
 20 43  1  0  0  0  0
 22 23  2  0  0  0  0
 22 44  1  0  0  0  0
 23 45  1  0  0  0  0
M  END
> <s_m_source_file>
AV-unprocessed.smi

> <i_m_source_file_index>
1829

> <i_lp_mmshare_version>
43012

> <i_f3d_flags>
0

> <s_epik_input>
W0NIM11bQ0hdKFtDSDNdKWMxW2NIXVtjSF1jKFtjSF1bY0hdMSlbQ0BIXShbT0hdKVtDSDJdbihjKG4yKVtDSDJdW09IXSljKGMyMylbY0hdW2NIXVtjSF1bY0hdMw==

> <s_epik_cmdline>
J2VwaWtfcHl0aG9uJywgJy1waCcsICc3LjAnLCAnLXRuJywgJzgnLCAnLW1hJywgJzIwMCcsICctbWV0YWxfYmluZGluZycsICctaW1hZScsICc8aW5maWxlLm1hZT4nLCAnLW9tYWUnLCAnPG91dGZpbGUubWFlPic=

> <r_epik_Ionization_Penalty>
0.0634718

> <r_epik_Ionization_Penalty_Charging>
0

> <r_epik_Ionization_Penalty_Neutral>
0.0634718

> <r_epik_State_Penalty>
0.0551572

> <r_epik_Charging_Adjusted_Penalty>
0.0551572

> <i_epik_Tot_Q>
0

> <i_epik_Tot_abs_Q>
0

> <r_epik_Metal_State_Penalty>
5.78034e-05

> <b_epik_Metal_Only>
0

> <s_lp_Force_Field>
OPLS_2005

> <r_lp_Energy>
13.3672

> <b_lp_Chiralities_Consistent>
1

> <s_lp_Variant>
AV-unprocessed.smi:1829-2

> <Gold.Version>
5.8.1

> <Gold.Id.Protein>
6NUR|6NUR_protein|mol2

> <Gold.PLP.Fitness>
54.7113

> <Gold.PLP.PLP>
-49.7426

> <Gold.PLP.part.hbond>
-2.9996

> <Gold.PLP.part.metal>
0.0000

> <Gold.PLP.part.buried>
2.4660

> <Gold.PLP.part.nonpolar>
-49.8909

> <Gold.PLP.part.repulsive>
0.5181

> <Gold.PLP.ligand.clash>
0.0000

> <Gold.PLP.ligand.torsion>
1.7129

> <Gold.PLP.Chemscore.Hbond>
2.7680

> <Gold.PLP.Chemscore.CHOScore>
0.0000

> <Gold.PLP.Chemscore.Metal>
0.0000

> <Gold.Chemscore.Hbonds>
donor molecule, donor type, donor heavy atom, donor atom, acceptor molecule, acceptor atom, score
      L1  H     9    34       P1  8028  0.30
      L1  H    14    39       P1  7949  0.19
      P1  H 10752 10765       L1    14  0.90

> <Gold.PLP.Chemscore.Internal.Correction>
0.0904

> <Gold.Rescore>
     Score         DG    S(hbond)    S(metal)    S(lipo)     H(rot)  DE(clash)    DE(int)     intcor
     15.86     -19.67       1.12        0.00     147.89       2.68       1.56       2.26       ----

> <Gold.Chemscore.Fitness>
15.8561

> <Gold.Chemscore.DG>
-19.6708

> <Gold.Chemscore.ZeroCoef>
-5.4800

> <Gold.Chemscore.Hbond>
1.1194

> <Gold.Chemscore.Metal>
0.0000

> <Gold.Chemscore.Lipo>
147.8852

> <Gold.Chemscore.Internal_Hbond>
0.0000

> <Gold.Chemscore.DEClash>
1.5591

> <Gold.Chemscore.DEInternal>
2.2556

> <Gold.Chemscore.Rot>
2.6761

> <Gold.Chemscore.Internal.Correction>
   9.000000E+99

> <Gold.Chemscore.Hbonds>
donor molecule, donor type, donor heavy atom, donor atom, acceptor molecule, acceptor atom, score
      L1  H     9    34       P1  8028  0.32
      L1  H    14    39       P1  7949  0.07
      P1  H 10752 10765       L1    14  0.17

> <Gold.Chemscore.Hbond.Weighted>
-3.7389

> <Gold.Chemscore.Metal.Weighted>
-0.0000

> <Gold.Chemscore.Lipo.Weighted>
-17.3026

> <Gold.Chemscore.Internal_Hbond.Weighted>
0.0000

> <Gold.Chemscore.DEClash.Weighted>
1.5591

> <Gold.Chemscore.DEInternal.Weighted>
2.2556

> <Gold.Chemscore.Rot.Weighted>
6.8507

> <Gold.Chemscore.Internal.Correction.Weighted>
   9.000000E+99

> <Gold.Protein.RotatedTorsions>
[ 6907 6896 6895 6894 ] final   18.92 input  -60.11 | X-H torsion
[ 7974 7965 7964 7962 ] final  -15.03 input  175.53 | X-H torsion
[ 8008 7997 7996 7995 ] final    9.49 input   59.86 | X-H torsion
[ 10167 10162 10161 10158 ] final   53.64 input  -65.29 | X-H torsion
[ 10718 10713 10712 10709 ] final  176.85 input   66.30 | X-H torsion
[ 10763 10752 10751 10750 ] final  153.51 input  -60.55 | X-H torsion
[ 11005 11000 10999 10996 ] final  153.72 input  -57.11 | X-H torsion

> <Gold.Protein.ActiveResidues>
 VAL166  LYS551  ARG553  GLY616  TRP617  ASP618  TYR619  PRO620  LYS621  CYS622 
 ASP623  PHE694  ASN695  SER759  ASP760  ASP761  ALA762  ILE779  LEU786  VAL792 
 PHE793  MET794  SER795  GLU796  ALA797  LYS798  CYS799  TRP800  GLU811  SER814 

> <Gold.Protein.RotatedAtoms>
  151.8728  135.0483  160.0480 H   0  0  0  0  0  0  0  0  0  0  0  0  # atno 6907 bound_to 6896
  152.2574  133.5263  159.5370 H   0  0  0  0  0  0  0  0  0  0  0  0  # atno 6908 bound_to 6896
  150.7104  134.0792  159.3934 H   0  0  0  0  0  0  0  0  0  0  0  0  # atno 6909 bound_to 6896
  146.2049  140.3433  142.8410 H   0  0  0  0  0  0  0  0  0  0  0  0  # atno 7974 bound_to 7965
  154.7807  140.2818  155.6066 H   0  0  0  0  0  0  0  0  0  0  0  0  # atno 8008 bound_to 7997
  156.2949  140.2623  156.2560 H   0  0  0  0  0  0  0  0  0  0  0  0  # atno 8009 bound_to 7997
  154.9788  140.0375  157.2258 H   0  0  0  0  0  0  0  0  0  0  0  0  # atno 8010 bound_to 7997
  140.2386  144.3608  150.6388 H   0  0  0  0  0  0  0  0  0  0  0  0  # atno 10167 bound_to 10162
  156.9141  130.9919  151.3016 H   0  0  0  0  0  0  0  0  0  0  0  0  # atno 10718 bound_to 10713
  154.1374  135.2823  155.3169 H   0  0  0  0  0  0  0  0  0  0  0  0  # atno 10763 bound_to 10752
  154.6312  135.5434  153.7685 H   0  0  0  0  0  0  0  0  0  0  0  0  # atno 10764 bound_to 10752
  153.0261  135.6463  154.1522 H   0  0  0  0  0  0  0  0  0  0  0  0  # atno 10765 bound_to 10752
  140.1423  134.8730  157.2348 H   0  0  0  0  0  0  0  0  0  0  0  0  # atno 11005 bound_to 11000
  144.8770  140.7349  143.6011 LP  0  0  0  0  0  0  0  0  0  0  0  0  # atno 17320 bound_to 7965
  145.3353  139.1747  143.4515 LP  0  0  0  0  0  0  0  0  0  0  0  0  # atno 17321 bound_to 7965
  140.6131  143.2170  151.6847 LP  0  0  0  0  0  0  0  0  0  0  0  0  # atno 17342 bound_to 10162
  139.5085  144.3609  152.0563 LP  0  0  0  0  0  0  0  0  0  0  0  0  # atno 17343 bound_to 10162
  157.5949  130.8470  149.8714 LP  0  0  0  0  0  0  0  0  0  0  0  0  # atno 17370 bound_to 10713
  156.0522  130.3715  150.1174 LP  0  0  0  0  0  0  0  0  0  0  0  0  # atno 17371 bound_to 10713
  140.2706  134.3464  155.7375 LP  0  0  0  0  0  0  0  0  0  0  0  0  # atno 17394 bound_to 11000
  141.2188  133.7421  156.9217 LP  0  0  0  0  0  0  0  0  0  0  0  0  # atno 17395 bound_to 11000

$$$$
