AV-unprocessed.smi:2035|AV-procd|sdf|8271|dock10
  -GOLD-   2272010543D 1   1.00000     0.00000
 Structure written by MMmdl.
 35 36  0  0  0  0  0  0  0  0  2 V2000
  150.2628  139.6993  157.4198 O   0  0  0  0  0  0  0  0  0  0  0  0
  149.2072  140.2723  157.6895 C   0  0  0  0  0  0  0  0  0  0  0  0
  149.1073  141.5149  158.1925 N   0  0  0  0  0  0  0  0  0  0  0  0
  150.1557  142.4198  158.5103 C   0  0  0  0  0  0  0  0  0  0  0  0
  149.8129  143.6105  159.1884 C   0  0  0  0  0  0  0  0  0  0  0  0
  150.8245  144.5303  159.5326 C   0  0  0  0  0  0  0  0  0  0  0  0
  152.1112  144.2617  159.2231 N   0  3  0  0  0  0  0  0  0  0  0  0
  152.4894  143.1295  158.5917 C   0  0  0  0  0  0  0  0  0  0  0  0
  151.5219  142.1728  158.2218 C   0  0  0  0  0  0  0  0  0  0  0  0
  147.9973  139.7305  157.4889 N   0  0  0  0  0  0  0  0  0  0  0  0
  147.7388  138.4008  156.9361 C   0  0  2  0  0  0  0  0  0  0  0  0
  148.2588  137.3008  157.8975 C   0  0  0  0  0  0  0  0  0  0  0  0
  148.6065  135.9434  157.2515 C   0  0  0  0  0  0  0  0  0  0  0  0
  147.4876  135.3065  156.4026 C   0  0  0  0  0  0  0  0  0  0  0  0
  146.9058  136.1710  155.2586 C   0  0  0  0  0  0  0  0  0  0  0  0
  147.8079  137.2130  154.7695 N   0  0  0  0  0  0  0  0  0  0  0  0
  148.2159  138.2817  155.4757 C   0  0  0  0  0  0  0  0  0  0  0  0
  148.9619  139.1286  154.9859 O   0  0  0  0  0  0  0  0  0  0  0  0
  148.1715  141.8832  158.2809 H   0  0  0  0  0  0  0  0  0  0  0  0
  148.7832  143.8248  159.4366 H   0  0  0  0  0  0  0  0  0  0  0  0
  150.6442  145.4651  160.0431 H   0  0  0  0  0  0  0  0  0  0  0  0
  153.5481  143.0202  158.4073 H   0  0  0  0  0  0  0  0  0  0  0  0
  151.8457  141.2651  157.7352 H   0  0  0  0  0  0  0  0  0  0  0  0
  147.1834  140.2716  157.7429 H   0  0  0  0  0  0  0  0  0  0  0  0
  146.6536  138.3028  156.8857 H   0  0  0  0  0  0  0  0  0  0  0  0
  149.1560  137.6593  158.4043 H   0  0  0  0  0  0  0  0  0  0  0  0
  147.5212  137.1440  158.6855 H   0  0  0  0  0  0  0  0  0  0  0  0
  149.5039  136.0522  156.6413 H   0  0  0  0  0  0  0  0  0  0  0  0
  148.8862  135.2447  158.0404 H   0  0  0  0  0  0  0  0  0  0  0  0
  147.8871  134.3887  155.9698 H   0  0  0  0  0  0  0  0  0  0  0  0
  146.6724  134.9888  157.0535 H   0  0  0  0  0  0  0  0  0  0  0  0
  146.6352  135.5291  154.4200 H   0  0  0  0  0  0  0  0  0  0  0  0
  145.9705  136.6319  155.5781 H   0  0  0  0  0  0  0  0  0  0  0  0
  148.1327  137.1255  153.8173 H   0  0  0  0  0  0  0  0  0  0  0  0
  152.8286  144.9399  159.4817 H   0  0  0  0  0  0  0  0  0  0  0  0
  1  2  2  0  0  0  0
  2  3  1  0  0  0  0
  2 10  1  0  0  0  0
  3  4  1  0  0  0  0
  3 19  1  0  0  0  0
  4  9  1  0  0  0  0
  4  5  2  0  0  0  0
  5  6  1  0  0  0  0
  5 20  1  0  0  0  0
  6  7  2  0  0  0  0
  6 21  1  0  0  0  0
  7  8  1  0  0  0  0
  7 35  1  0  0  0  0
  8  9  2  0  0  0  0
  8 22  1  0  0  0  0
  9 23  1  0  0  0  0
 10 11  1  0  0  0  0
 10 24  1  0  0  0  0
 11 17  1  0  0  0  0
 11 12  1  0  0  0  0
 11 25  1  0  0  0  0
 12 13  1  0  0  0  0
 12 26  1  0  0  0  0
 12 27  1  0  0  0  0
 13 14  1  0  0  0  0
 13 28  1  0  0  0  0
 13 29  1  0  0  0  0
 14 15  1  0  0  0  0
 14 30  1  0  0  0  0
 14 31  1  0  0  0  0
 15 16  1  0  0  0  0
 15 32  1  0  0  0  0
 15 33  1  0  0  0  0
 16 17  1  0  0  0  0
 16 34  1  0  0  0  0
 17 18  2  0  0  0  0
M  CHG  1   7   1
M  END
> <s_m_source_file>
AV-unprocessed.smi

> <i_m_source_file_index>
2035

> <i_lp_mmshare_version>
43012

> <i_f3d_flags>
0

> <s_epik_input>
W2NIXTFbY0hdbltjSF1bY0hdYzFbTkhdQyg9TylbTkhdW0NAQEhdMltDSDJdW0NIMl1bQ0gyXVtDSDJdW05IXUMyPU8=

> <s_epik_cmdline>
J2VwaWtfcHl0aG9uJywgJy1waCcsICc3LjAnLCAnLXRuJywgJzgnLCAnLW1hJywgJzIwMCcsICctbWV0YWxfYmluZGluZycsICctaW1hZScsICc8aW5maWxlLm1hZT4nLCAnLW9tYWUnLCAnPG91dGZpbGUubWFlPic=

> <r_epik_Ionization_Penalty>
1.10339

> <r_epik_Ionization_Penalty_Charging>
1.10337

> <r_epik_Ionization_Penalty_Neutral>
1.85869e-05

> <r_epik_State_Penalty>
1.16071

> <r_epik_Charging_Adjusted_Penalty>
2.26408

> <i_epik_Tot_Q>
1

> <i_epik_Tot_abs_Q>
1

> <r_epik_Metal_State_Penalty>
1.24751

> <b_epik_Metal_Only>
0

> <s_lp_Force_Field>
OPLS_2005

> <r_lp_Energy>
25.3939

> <b_lp_Chiralities_Consistent>
1

> <s_lp_Variant>
AV-unprocessed.smi:2035-3

> <Gold.Version>
5.8.1

> <Gold.Id.Protein>
6NUR|6NUR_protein|mol2

> <Gold.PLP.Fitness>
42.5108

> <Gold.PLP.PLP>
-32.3956

> <Gold.PLP.part.hbond>
-4.8481

> <Gold.PLP.part.metal>
0.0000

> <Gold.PLP.part.buried>
-3.2076

> <Gold.PLP.part.nonpolar>
-25.3900

> <Gold.PLP.part.repulsive>
1.0408

> <Gold.PLP.ligand.clash>
0.0000

> <Gold.PLP.ligand.torsion>
0.0372

> <Gold.PLP.Chemscore.Hbond>
3.3791

> <Gold.PLP.Chemscore.CHOScore>
0.0000

> <Gold.PLP.Chemscore.Metal>
0.0000

> <Gold.Chemscore.Hbonds>
donor molecule, donor type, donor heavy atom, donor atom, acceptor molecule, acceptor atom, score
      L1  H    16    34       P1  7948  0.32

> <Gold.PLP.Chemscore.Internal.Correction>
0.0523

> <Gold.Rescore>
     Score         DG    S(hbond)    S(metal)    S(lipo)     H(rot)  DE(clash)    DE(int)     intcor
     18.17     -22.24       3.14        0.00      75.46       1.00       0.12       3.94       ----

> <Gold.Chemscore.Fitness>
18.1731

> <Gold.Chemscore.DG>
-22.2354

> <Gold.Chemscore.ZeroCoef>
-5.4800

> <Gold.Chemscore.Hbond>
3.1398

> <Gold.Chemscore.Metal>
0.0000

> <Gold.Chemscore.Lipo>
75.4577

> <Gold.Chemscore.Internal_Hbond>
0.0000

> <Gold.Chemscore.DEClash>
0.1214

> <Gold.Chemscore.DEInternal>
3.9408

> <Gold.Chemscore.Rot>
1.0000

> <Gold.Chemscore.Internal.Correction>
   9.000000E+99

> <Gold.Chemscore.Hbonds>
donor molecule, donor type, donor heavy atom, donor atom, acceptor molecule, acceptor atom, score
      L1  H    16    34       P1  7948  0.33

> <Gold.Chemscore.Hbond.Weighted>
-10.4868

> <Gold.Chemscore.Metal.Weighted>
-0.0000

> <Gold.Chemscore.Lipo.Weighted>
-8.8286

> <Gold.Chemscore.Internal_Hbond.Weighted>
0.0000

> <Gold.Chemscore.DEClash.Weighted>
0.1214

> <Gold.Chemscore.DEInternal.Weighted>
3.9408

> <Gold.Chemscore.Rot.Weighted>
2.5600

> <Gold.Chemscore.Internal.Correction.Weighted>
   9.000000E+99

> <Gold.Protein.RotatedTorsions>
[ 6907 6896 6895 6894 ] final  100.37 input  -60.11 | X-H torsion
[ 7974 7965 7964 7962 ] final  -11.50 input  175.53 | X-H torsion
[ 8008 7997 7996 7995 ] final   51.14 input   59.86 | X-H torsion
[ 10167 10162 10161 10158 ] final  -12.87 input  -65.29 | X-H torsion
[ 10718 10713 10712 10709 ] final -149.90 input   66.30 | X-H torsion
[ 10763 10752 10751 10750 ] final  -56.07 input  -60.55 | X-H torsion
[ 11005 11000 10999 10996 ] final   65.88 input  -57.11 | X-H torsion

> <Gold.Protein.ActiveResidues>
 VAL166  LYS551  ARG553  GLY616  TRP617  ASP618  TYR619  PRO620  LYS621  CYS622 
 ASP623  PHE694  ASN695  SER759  ASP760  ASP761  ALA762  ILE779  LEU786  VAL792 
 PHE793  MET794  SER795  GLU796  ALA797  LYS798  CYS799  TRP800  GLU811  SER814 

> <Gold.Protein.RotatedAtoms>
  152.5373  134.0287  159.8014 H   0  0  0  0  0  0  0  0  0  0  0  0  # atno 6907 bound_to 6896
  151.0461  133.5656  159.2654 H   0  0  0  0  0  0  0  0  0  0  0  0  # atno 6908 bound_to 6896
  151.2608  135.0661  159.9151 H   0  0  0  0  0  0  0  0  0  0  0  0  # atno 6909 bound_to 6896
  146.2185  140.2920  142.8369 H   0  0  0  0  0  0  0  0  0  0  0  0  # atno 7974 bound_to 7965
  155.4303  140.3450  155.4279 H   0  0  0  0  0  0  0  0  0  0  0  0  # atno 8008 bound_to 7997
  156.1340  140.1522  156.9053 H   0  0  0  0  0  0  0  0  0  0  0  0  # atno 8009 bound_to 7997
  154.4917  140.0839  156.7589 H   0  0  0  0  0  0  0  0  0  0  0  0  # atno 8010 bound_to 7997
  140.7170  143.5486  150.9327 H   0  0  0  0  0  0  0  0  0  0  0  0  # atno 10167 bound_to 10162
  156.4391  130.8113  151.2342 H   0  0  0  0  0  0  0  0  0  0  0  0  # atno 10718 bound_to 10713
  154.2008  135.6411  153.5086 H   0  0  0  0  0  0  0  0  0  0  0  0  # atno 10763 bound_to 10752
  153.0012  135.5451  154.6317 H   0  0  0  0  0  0  0  0  0  0  0  0  # atno 10764 bound_to 10752
  154.5729  135.2918  155.0782 H   0  0  0  0  0  0  0  0  0  0  0  0  # atno 10765 bound_to 10752
  139.9866  134.6657  156.0164 H   0  0  0  0  0  0  0  0  0  0  0  0  # atno 11005 bound_to 11000
  144.9120  140.7768  143.5802 LP  0  0  0  0  0  0  0  0  0  0  0  0  # atno 17320 bound_to 7965
  145.2851  139.1904  143.4770 LP  0  0  0  0  0  0  0  0  0  0  0  0  # atno 17321 bound_to 7965
  139.9210  143.6606  152.3097 LP  0  0  0  0  0  0  0  0  0  0  0  0  # atno 17342 bound_to 10162
  139.7023  144.7633  151.1252 LP  0  0  0  0  0  0  0  0  0  0  0  0  # atno 17343 bound_to 10162
  157.7506  131.0174  150.3583 LP  0  0  0  0  0  0  0  0  0  0  0  0  # atno 17370 bound_to 10713
  156.3936  130.3902  149.7011 LP  0  0  0  0  0  0  0  0  0  0  0  0  # atno 17371 bound_to 10713
  141.1530  133.6546  156.4073 LP  0  0  0  0  0  0  0  0  0  0  0  0  # atno 17394 bound_to 11000
  140.4989  134.6504  157.5241 LP  0  0  0  0  0  0  0  0  0  0  0  0  # atno 17395 bound_to 11000

$$$$
