AV-unprocessed.smi:246|AV-procd|sdf|1883|dock5
  -GOLD-   2262020533D 1   1.00000     0.00000
 Structure written by MMmdl.
 57 60  0  0  0  0  0  0  0  0  1 V2000
  147.2698  140.5119  153.3716 C   0  0  0  0  0  0  0  0  0  0  0  0
  148.1238  139.4887  154.1335 C   0  0  0  0  0  0  0  0  0  0  0  0
  148.1431  139.7487  155.5302 O   0  0  0  0  0  0  0  0  0  0  0  0
  148.5142  141.0756  155.8746 C   0  0  0  0  0  0  0  0  0  0  0  0
  149.8801  141.3817  155.2543 C   0  0  0  0  0  0  0  0  0  0  0  0
  150.8980  140.8933  156.1150 O   0  0  0  0  0  0  0  0  0  0  0  0
  150.7924  141.3723  157.4473 C   0  0  2  0  0  0  0  0  0  0  0  0
  151.0485  142.8792  157.5066 C   0  0  0  0  0  0  0  0  0  0  0  0
  151.5136  143.1125  158.9468 C   0  0  0  0  0  0  0  0  0  0  0  0
  152.0980  141.8456  159.3644 N   0  0  0  0  0  0  0  0  0  0  0  0
  152.9449  141.7267  160.4184 C   0  0  0  0  0  0  0  0  0  0  0  0
  153.7688  140.6464  160.4588 N   0  0  0  0  0  0  0  0  0  0  0  0
  154.6292  140.4854  161.4677 C   0  0  0  0  0  0  0  0  0  0  0  0
  154.8296  141.2719  162.5251 N   0  0  0  0  0  0  0  0  0  0  0  0
  154.0045  142.3570  162.4977 C   0  0  0  0  0  0  0  0  0  0  0  0
  153.0417  142.6618  161.4921 C   0  0  0  0  0  0  0  0  0  0  0  0
  152.3960  143.8513  161.8146 N   0  0  0  0  0  0  0  0  0  0  0  0
  152.9408  144.2232  162.9400 C   0  0  0  0  0  0  0  0  0  0  0  0
  153.9144  143.3813  163.4241 N   0  0  0  0  0  0  0  0  0  0  0  0
  154.6793  143.5528  164.6496 C   0  0  0  0  0  0  0  0  0  0  0  0
  155.2982  142.2423  165.1845 C   0  0  1  0  0  0  0  0  0  0  0  0
  156.3996  141.8856  164.3714 O   0  0  0  0  0  0  0  0  0  0  0  0
  155.7700  142.3270  166.6505 C   0  0  2  0  0  0  0  0  0  0  0  0
  156.1550  140.9854  167.2767 C   0  0  0  0  0  0  0  0  0  0  0  0
  155.9302  141.2055  168.7658 C   0  0  0  0  0  0  0  0  0  0  0  0
  155.1053  142.4933  168.8322 C   0  0  0  0  0  0  0  0  0  0  0  0
  154.7050  142.7391  167.4925 O   0  0  0  0  0  0  0  0  0  0  0  0
  151.8722  140.8049  158.3759 C   0  0  0  0  0  0  0  0  0  0  0  0
  149.8009  141.1706  157.8572 H   0  0  0  0  0  0  0  0  0  0  0  0
  147.3549  140.3582  152.2956 H   0  0  0  0  0  0  0  0  0  0  0  0
  147.5941  141.5300  153.5879 H   0  0  0  0  0  0  0  0  0  0  0  0
  146.2142  140.4331  153.6291 H   0  0  0  0  0  0  0  0  0  0  0  0
  147.7911  138.4697  153.9304 H   0  0  0  0  0  0  0  0  0  0  0  0
  149.1516  139.5545  153.7760 H   0  0  0  0  0  0  0  0  0  0  0  0
  147.7758  141.8031  155.5373 H   0  0  0  0  0  0  0  0  0  0  0  0
  148.5853  141.1581  156.9600 H   0  0  0  0  0  0  0  0  0  0  0  0
  149.9620  140.8831  154.2874 H   0  0  0  0  0  0  0  0  0  0  0  0
  149.9818  142.4535  155.0792 H   0  0  0  0  0  0  0  0  0  0  0  0
  151.8544  143.1421  156.8198 H   0  0  0  0  0  0  0  0  0  0  0  0
  150.1736  143.4726  157.2401 H   0  0  0  0  0  0  0  0  0  0  0  0
  152.2267  143.9360  159.0032 H   0  0  0  0  0  0  0  0  0  0  0  0
  150.6677  143.3426  159.5955 H   0  0  0  0  0  0  0  0  0  0  0  0
  155.2462  139.6003  161.4203 H   0  0  0  0  0  0  0  0  0  0  0  0
  152.6427  145.1255  163.4542 H   0  0  0  0  0  0  0  0  0  0  0  0
  155.4647  144.2861  164.4642 H   0  0  0  0  0  0  0  0  0  0  0  0
  154.0258  143.9940  165.4030 H   0  0  0  0  0  0  0  0  0  0  0  0
  154.5539  141.4503  165.0934 H   0  0  0  0  0  0  0  0  0  0  0  0
  156.0727  141.4498  163.5992 H   0  0  0  0  0  0  0  0  0  0  0  0
  156.5988  143.0299  166.7550 H   0  0  0  0  0  0  0  0  0  0  0  0
  155.4900  140.1971  166.9213 H   0  0  0  0  0  0  0  0  0  0  0  0
  157.1789  140.6920  167.0428 H   0  0  0  0  0  0  0  0  0  0  0  0
  155.3957  140.3625  169.2054 H   0  0  0  0  0  0  0  0  0  0  0  0
  156.8722  141.3237  169.3028 H   0  0  0  0  0  0  0  0  0  0  0  0
  154.2419  142.4063  169.4920 H   0  0  0  0  0  0  0  0  0  0  0  0
  155.7185  143.3258  169.1807 H   0  0  0  0  0  0  0  0  0  0  0  0
  151.5501  139.8702  158.8352 H   0  0  0  0  0  0  0  0  0  0  0  0
  152.7991  140.6265  157.8292 H   0  0  0  0  0  0  0  0  0  0  0  0
  1  2  1  0  0  0  0
  1 30  1  0  0  0  0
  1 31  1  0  0  0  0
  1 32  1  0  0  0  0
  2  3  1  0  0  0  0
  2 33  1  0  0  0  0
  2 34  1  0  0  0  0
  3  4  1  0  0  0  0
  4  5  1  0  0  0  0
  4 35  1  0  0  0  0
  4 36  1  0  0  0  0
  5  6  1  0  0  0  0
  5 37  1  0  0  0  0
  5 38  1  0  0  0  0
  6  7  1  0  0  0  0
  7 29  1  0  0  0  0
  7 28  1  0  0  0  0
  7  8  1  0  0  0  0
  8  9  1  0  0  0  0
  8 39  1  0  0  0  0
  8 40  1  0  0  0  0
  9 10  1  0  0  0  0
  9 41  1  0  0  0  0
  9 42  1  0  0  0  0
 10 11  1  0  0  0  0
 10 28  1  0  0  0  0
 11 16  1  0  0  0  0
 11 12  2  0  0  0  0
 12 13  1  0  0  0  0
 13 14  2  0  0  0  0
 13 43  1  0  0  0  0
 14 15  1  0  0  0  0
 15 19  1  0  0  0  0
 15 16  2  0  0  0  0
 16 17  1  0  0  0  0
 17 18  2  0  0  0  0
 18 19  1  0  0  0  0
 18 44  1  0  0  0  0
 19 20  1  0  0  0  0
 20 21  1  0  0  0  0
 20 45  1  0  0  0  0
 20 46  1  0  0  0  0
 21 22  1  0  0  0  0
 21 23  1  0  0  0  0
 21 47  1  0  0  0  0
 22 48  1  0  0  0  0
 23 27  1  0  0  0  0
 23 24  1  0  0  0  0
 23 49  1  0  0  0  0
 24 25  1  0  0  0  0
 24 50  1  0  0  0  0
 24 51  1  0  0  0  0
 25 26  1  0  0  0  0
 25 52  1  0  0  0  0
 25 53  1  0  0  0  0
 26 27  1  0  0  0  0
 26 54  1  0  0  0  0
 26 55  1  0  0  0  0
 28 56  1  0  0  0  0
 28 57  1  0  0  0  0
M  END
> <s_m_source_file>
AV-unprocessed.smi

> <i_m_source_file_index>
246

> <i_lp_mmshare_version>
43012

> <i_f3d_flags>
0

> <s_epik_input>
W0NIM11bQ0gyXU9bQ0gyXVtDSDJdT1tDQEhdMVtDSDJdW0NIMl1OKFtDSDJdMSljKG5bY0hdbjIpYyhjMjMpbltjSF1uM1tDSDJdW0NASF0oW09IXSlbQ0BASF00W0NIMl1bQ0gyXVtDSDJdTzQ=

> <s_epik_cmdline>
J2VwaWtfcHl0aG9uJywgJy1waCcsICc3LjAnLCAnLXRuJywgJzgnLCAnLW1hJywgJzIwMCcsICctbWV0YWxfYmluZGluZycsICctaW1hZScsICc8aW5maWxlLm1hZT4nLCAnLW9tYWUnLCAnPG91dGZpbGUubWFlPic=

> <r_lp_tautomer_probability>
1

> <r_epik_Ionization_Penalty>
0.0024631

> <r_epik_Ionization_Penalty_Charging>
0

> <r_epik_Ionization_Penalty_Neutral>
0.0024631

> <r_epik_State_Penalty>
0.00162428

> <r_epik_Charging_Adjusted_Penalty>
0.00162428

> <i_epik_Tot_Q>
0

> <i_epik_Tot_abs_Q>
0

> <r_epik_Metal_State_Penalty>
-0

> <b_epik_Metal_Only>
0

> <s_lp_Force_Field>
OPLS_2005

> <r_lp_Energy>
48.0332

> <b_lp_Chiralities_Consistent>
1

> <s_lp_Variant>
AV-unprocessed.smi:246-4

> <Gold.Version>
5.8.1

> <Gold.Id.Protein>
6NUR|6NUR_protein|mol2

> <Gold.PLP.Fitness>
55.5151

> <Gold.PLP.PLP>
-56.6464

> <Gold.PLP.part.hbond>
-2.8650

> <Gold.PLP.part.metal>
0.0000

> <Gold.PLP.part.buried>
-6.0343

> <Gold.PLP.part.nonpolar>
-46.1792

> <Gold.PLP.part.repulsive>
0.3809

> <Gold.PLP.ligand.clash>
0.0000

> <Gold.PLP.ligand.torsion>
0.7554

> <Gold.PLP.Chemscore.Hbond>
0.0000

> <Gold.PLP.Chemscore.CHOScore>
0.0000

> <Gold.PLP.Chemscore.Metal>
0.0000

> <Gold.PLP.Chemscore.Internal.Correction>
0.3795

> <Gold.Rescore>
     Score         DG    S(hbond)    S(metal)    S(lipo)     H(rot)  DE(clash)    DE(int)     intcor
      4.77      -9.16       0.00        0.00      99.38       3.10       2.30       2.10       ----

> <Gold.Chemscore.Fitness>
4.7726

> <Gold.Chemscore.DG>
-9.1646

> <Gold.Chemscore.ZeroCoef>
-5.4800

> <Gold.Chemscore.Hbond>
0.0000

> <Gold.Chemscore.Metal>
0.0000

> <Gold.Chemscore.Lipo>
99.3777

> <Gold.Chemscore.Internal_Hbond>
0.0000

> <Gold.Chemscore.DEClash>
2.2956

> <Gold.Chemscore.DEInternal>
2.0963

> <Gold.Chemscore.Rot>
3.1026

> <Gold.Chemscore.Internal.Correction>
   9.000000E+99

> <Gold.Chemscore.Hbond.Weighted>
-0.0000

> <Gold.Chemscore.Metal.Weighted>
-0.0000

> <Gold.Chemscore.Lipo.Weighted>
-11.6272

> <Gold.Chemscore.Internal_Hbond.Weighted>
0.0000

> <Gold.Chemscore.DEClash.Weighted>
2.2956

> <Gold.Chemscore.DEInternal.Weighted>
2.0963

> <Gold.Chemscore.Rot.Weighted>
7.9426

> <Gold.Chemscore.Internal.Correction.Weighted>
   9.000000E+99

> <Gold.Protein.RotatedTorsions>
[ 6907 6896 6895 6894 ] final  -47.33 input  -60.11 | X-H torsion
[ 7974 7965 7964 7962 ] final    2.73 input  175.53 | X-H torsion
[ 8008 7997 7996 7995 ] final   68.28 input   59.86 | X-H torsion
[ 10167 10162 10161 10158 ] final  -51.31 input  -65.29 | X-H torsion
[ 10718 10713 10712 10709 ] final  131.88 input   66.30 | X-H torsion
[ 10763 10752 10751 10750 ] final  -76.91 input  -60.55 | X-H torsion
[ 11005 11000 10999 10996 ] final  134.21 input  -57.11 | X-H torsion

> <Gold.Protein.ActiveResidues>
 VAL166  LYS551  ARG553  GLY616  TRP617  ASP618  TYR619  PRO620  LYS621  CYS622 
 ASP623  PHE694  ASN695  SER759  ASP760  ASP761  ALA762  ILE779  LEU786  VAL792 
 PHE793  MET794  SER795  GLU796  ALA797  LYS798  CYS799  TRP800  GLU811  SER814 

> <Gold.Protein.RotatedAtoms>
  150.9019  134.8432  159.7365 H   0  0  0  0  0  0  0  0  0  0  0  0  # atno 6907 bound_to 6896
  152.4897  134.4489  159.9578 H   0  0  0  0  0  0  0  0  0  0  0  0  # atno 6908 bound_to 6896
  151.4540  133.3571  159.2834 H   0  0  0  0  0  0  0  0  0  0  0  0  # atno 6909 bound_to 6896
  146.2444  140.0793  142.8358 H   0  0  0  0  0  0  0  0  0  0  0  0  # atno 7974 bound_to 7965
  155.7059  140.3495  155.4953 H   0  0  0  0  0  0  0  0  0  0  0  0  # atno 8008 bound_to 7997
  155.9399  140.1099  157.1086 H   0  0  0  0  0  0  0  0  0  0  0  0  # atno 8009 bound_to 7997
  154.4100  140.1215  156.4900 H   0  0  0  0  0  0  0  0  0  0  0  0  # atno 8010 bound_to 7997
  140.6595  143.2624  151.4485 H   0  0  0  0  0  0  0  0  0  0  0  0  # atno 10167 bound_to 10162
  157.4925  131.1091  150.9537 H   0  0  0  0  0  0  0  0  0  0  0  0  # atno 10718 bound_to 10713
  154.5061  135.5781  153.6568 H   0  0  0  0  0  0  0  0  0  0  0  0  # atno 10763 bound_to 10752
  152.9888  135.6147  154.2939 H   0  0  0  0  0  0  0  0  0  0  0  0  # atno 10764 bound_to 10752
  154.2851  135.2850  155.2659 H   0  0  0  0  0  0  0  0  0  0  0  0  # atno 10765 bound_to 10752
  139.9901  134.9518  156.9835 H   0  0  0  0  0  0  0  0  0  0  0  0  # atno 11005 bound_to 11000
  145.0747  140.9180  143.4861 LP  0  0  0  0  0  0  0  0  0  0  0  0  # atno 17320 bound_to 7965
  145.0934  139.2874  143.5723 LP  0  0  0  0  0  0  0  0  0  0  0  0  # atno 17321 bound_to 7965
  139.5825  144.1678  152.1986 LP  0  0  0  0  0  0  0  0  0  0  0  0  # atno 17342 bound_to 10162
  140.1008  144.5541  150.6990 LP  0  0  0  0  0  0  0  0  0  0  0  0  # atno 17343 bound_to 10162
  157.0234  130.5683  149.5334 LP  0  0  0  0  0  0  0  0  0  0  0  0  # atno 17370 bound_to 10713
  156.0182  130.5276  150.8197 LP  0  0  0  0  0  0  0  0  0  0  0  0  # atno 17371 bound_to 10713
  140.4926  134.1178  155.7235 LP  0  0  0  0  0  0  0  0  0  0  0  0  # atno 17394 bound_to 11000
  141.1558  133.8885  157.1980 LP  0  0  0  0  0  0  0  0  0  0  0  0  # atno 17395 bound_to 11000

$$$$
