AV-unprocessed.smi:696|AV-procd|sdf|3388|dock7
  -GOLD-   22720 0363D 1   1.00000     0.00000
 Structure written by MMmdl.
 37 38  0  0  0  0  0  0  0  0  2 V2000
  153.4213  139.5442  158.0074 O   0  0  0  0  0  0  0  0  0  0  0  0
  152.2629  139.9482  157.8987 C   0  0  0  0  0  0  0  0  0  0  0  0
  151.3351  139.3298  157.1516 N   0  0  0  0  0  0  0  0  0  0  0  0
  151.5540  138.1126  156.3785 C   0  0  0  0  0  0  0  0  0  0  0  0
  151.7756  138.4230  154.8869 C   0  0  0  0  0  0  0  0  0  0  0  0
  150.6984  139.3233  154.3467 C   0  0  0  0  0  0  0  0  0  0  0  0
  149.6475  138.9503  153.7167 N   0  0  0  0  0  0  0  0  0  0  0  0
  149.0268  140.1114  153.4509 N   0  0  0  0  0  0  0  0  0  0  0  0
  149.7088  141.1582  153.9217 C   0  0  0  0  0  0  0  0  0  0  0  0
  149.3370  142.3231  153.7975 O   0  0  0  0  0  0  0  0  0  0  0  0
  150.8111  140.6679  154.5163 N   0  5  0  0  0  0  0  0  0  0  0  0
  151.8169  141.2204  158.6352 C   0  0  0  0  0  0  0  0  0  0  0  0
  151.3366  142.2827  157.6188 C   0  0  0  0  0  0  0  0  0  0  0  0
  150.4843  143.3893  158.2635 C   0  0  0  0  0  0  0  0  0  0  0  0
  151.2704  144.5818  158.8374 C   0  0  0  0  0  0  0  0  0  0  0  0
  152.6034  144.2587  159.5359 C   0  0  0  0  0  0  0  0  0  0  0  0
  152.6134  142.9741  160.3801 C   0  0  0  0  0  0  0  0  0  0  0  0
  152.9508  141.7186  159.5561 C   0  0  0  0  0  0  0  0  0  0  0  0
  148.1515  140.1170  152.9484 H   0  0  0  0  0  0  0  0  0  0  0  0
  150.4081  139.7284  157.1181 H   0  0  0  0  0  0  0  0  0  0  0  0
  152.4301  137.6105  156.7911 H   0  0  0  0  0  0  0  0  0  0  0  0
  150.7137  137.4285  156.5112 H   0  0  0  0  0  0  0  0  0  0  0  0
  152.7475  138.8977  154.7458 H   0  0  0  0  0  0  0  0  0  0  0  0
  151.8057  137.4945  154.3148 H   0  0  0  0  0  0  0  0  0  0  0  0
  150.9693  140.9480  159.2666 H   0  0  0  0  0  0  0  0  0  0  0  0
  152.1760  142.7134  157.0711 H   0  0  0  0  0  0  0  0  0  0  0  0
  150.7163  141.7909  156.8674 H   0  0  0  0  0  0  0  0  0  0  0  0
  149.7883  143.7773  157.5190 H   0  0  0  0  0  0  0  0  0  0  0  0
  149.8544  142.9577  159.0422 H   0  0  0  0  0  0  0  0  0  0  0  0
  151.4737  145.2932  158.0361 H   0  0  0  0  0  0  0  0  0  0  0  0
  150.6203  145.1100  159.5360 H   0  0  0  0  0  0  0  0  0  0  0  0
  153.4020  144.2109  158.7945 H   0  0  0  0  0  0  0  0  0  0  0  0
  152.8590  145.1047  160.1751 H   0  0  0  0  0  0  0  0  0  0  0  0
  153.3849  143.0823  161.1433 H   0  0  0  0  0  0  0  0  0  0  0  0
  151.6748  142.8513  160.9217 H   0  0  0  0  0  0  0  0  0  0  0  0
  153.2051  140.9181  160.2529 H   0  0  0  0  0  0  0  0  0  0  0  0
  153.8578  141.8999  158.9772 H   0  0  0  0  0  0  0  0  0  0  0  0
  1  2  2  0  0  0  0
  2  3  1  0  0  0  0
  2 12  1  0  0  0  0
  3  4  1  0  0  0  0
  3 20  1  0  0  0  0
  4  5  1  0  0  0  0
  4 21  1  0  0  0  0
  4 22  1  0  0  0  0
  5  6  1  0  0  0  0
  5 23  1  0  0  0  0
  5 24  1  0  0  0  0
  6 11  1  0  0  0  0
  6  7  2  0  0  0  0
  7  8  1  0  0  0  0
  8 19  1  0  0  0  0
  8  9  1  0  0  0  0
  9 10  2  0  0  0  0
  9 11  1  0  0  0  0
 12 18  1  0  0  0  0
 12 13  1  0  0  0  0
 12 25  1  0  0  0  0
 13 14  1  0  0  0  0
 13 26  1  0  0  0  0
 13 27  1  0  0  0  0
 14 15  1  0  0  0  0
 14 28  1  0  0  0  0
 14 29  1  0  0  0  0
 15 16  1  0  0  0  0
 15 30  1  0  0  0  0
 15 31  1  0  0  0  0
 16 17  1  0  0  0  0
 16 32  1  0  0  0  0
 16 33  1  0  0  0  0
 17 18  1  0  0  0  0
 17 34  1  0  0  0  0
 17 35  1  0  0  0  0
 18 36  1  0  0  0  0
 18 37  1  0  0  0  0
M  CHG  1  11  -1
M  END
> <s_m_source_file>
AV-unprocessed.smi

> <i_m_source_file_index>
696

> <i_lp_mmshare_version>
43012

> <i_f3d_flags>
0

> <s_epik_input>
W0NIMl0xW0NIMl1bQ0gyXVtDSDJdW0NIMl1bQ0gyXVtDSF0xQyg9TylbTkhdW0NIMl1bQ0gyXWMybltuSF1jKD1PKVtuSF0y

> <s_epik_cmdline>
J2VwaWtfcHl0aG9uJywgJy1waCcsICc3LjAnLCAnLXRuJywgJzgnLCAnLW1hJywgJzIwMCcsICctbWV0YWxfYmluZGluZycsICctaW1hZScsICc8aW5maWxlLm1hZT4nLCAnLW9tYWUnLCAnPG91dGZpbGUubWFlPic=

> <r_lp_tautomer_probability>
1

> <r_epik_Ionization_Penalty>
13.715

> <r_epik_Ionization_Penalty_Charging>
13.715

> <r_epik_Ionization_Penalty_Neutral>
5.16152e-06

> <r_epik_State_Penalty>
4.03036

> <r_epik_Charging_Adjusted_Penalty>
17.7454

> <i_epik_Tot_Q>
-1

> <i_epik_Tot_abs_Q>
1

> <r_epik_Metal_State_Penalty>
0.449398

> <b_epik_Metal_Only>
1

> <s_lp_Force_Field>
OPLS_2005

> <r_lp_Energy>
29.0226

> <b_lp_Chiralities_Consistent>
1

> <s_lp_Variant>
AV-unprocessed.smi:696-3

> <Gold.Version>
5.8.1

> <Gold.Id.Protein>
6NUR|6NUR_protein|mol2

> <Gold.PLP.Fitness>
42.7883

> <Gold.PLP.PLP>
-36.4651

> <Gold.PLP.part.hbond>
-4.0000

> <Gold.PLP.part.metal>
0.0000

> <Gold.PLP.part.buried>
-4.4466

> <Gold.PLP.part.nonpolar>
-28.7018

> <Gold.PLP.part.repulsive>
0.6449

> <Gold.PLP.ligand.clash>
0.0000

> <Gold.PLP.ligand.torsion>
0.5295

> <Gold.PLP.Chemscore.Hbond>
2.4480

> <Gold.PLP.Chemscore.CHOScore>
0.0000

> <Gold.PLP.Chemscore.Metal>
0.0000

> <Gold.Chemscore.Hbonds>
donor molecule, donor type, donor heavy atom, donor atom, acceptor molecule, acceptor atom, score
      P1  H  7989  7998       L1    11  0.31
      P1  H  7997  8008       L1     1  1.00
      P1  H  8011  8017       L1    10  0.16

> <Gold.PLP.Chemscore.Internal.Correction>
0.0382

> <Gold.Rescore>
     Score         DG    S(hbond)    S(metal)    S(lipo)     H(rot)  DE(clash)    DE(int)     intcor
     16.86     -17.63       2.41        0.00      84.17       2.25       0.15       0.62       ----

> <Gold.Chemscore.Fitness>
16.8618

> <Gold.Chemscore.DG>
-17.6263

> <Gold.Chemscore.ZeroCoef>
-5.4800

> <Gold.Chemscore.Hbond>
2.4129

> <Gold.Chemscore.Metal>
0.0000

> <Gold.Chemscore.Lipo>
84.1672

> <Gold.Chemscore.Internal_Hbond>
0.0000

> <Gold.Chemscore.DEClash>
0.1490

> <Gold.Chemscore.DEInternal>
0.6155

> <Gold.Chemscore.Rot>
2.2501

> <Gold.Chemscore.Internal.Correction>
   9.000000E+99

> <Gold.Chemscore.Hbonds>
donor molecule, donor type, donor heavy atom, donor atom, acceptor molecule, acceptor atom, score
      P1  H  7989  7998       L1    11  0.01
      P1  H  7997  8008       L1     1  0.98
      P1  H  8011  8017       L1    10  0.02

> <Gold.Chemscore.Hbond.Weighted>
-8.0590

> <Gold.Chemscore.Metal.Weighted>
-0.0000

> <Gold.Chemscore.Lipo.Weighted>
-9.8476

> <Gold.Chemscore.Internal_Hbond.Weighted>
0.0000

> <Gold.Chemscore.DEClash.Weighted>
0.1490

> <Gold.Chemscore.DEInternal.Weighted>
0.6155

> <Gold.Chemscore.Rot.Weighted>
5.7603

> <Gold.Chemscore.Internal.Correction.Weighted>
   9.000000E+99

> <Gold.Protein.RotatedTorsions>
[ 6907 6896 6895 6894 ] final  -90.14 input  -60.11 | X-H torsion
[ 7974 7965 7964 7962 ] final -113.89 input  175.53 | X-H torsion
[ 8008 7997 7996 7995 ] final  -84.47 input   59.86 | X-H torsion
[ 10167 10162 10161 10158 ] final   45.63 input  -65.29 | X-H torsion
[ 10718 10713 10712 10709 ] final -150.87 input   66.30 | X-H torsion
[ 10763 10752 10751 10750 ] final   79.40 input  -60.55 | X-H torsion
[ 11005 11000 10999 10996 ] final  -17.08 input  -57.11 | X-H torsion

> <Gold.Protein.ActiveResidues>
 VAL166  LYS551  ARG553  GLY616  TRP617  ASP618  TYR619  PRO620  LYS621  CYS622 
 ASP623  PHE694  ASN695  SER759  ASP760  ASP761  ALA762  ILE779  LEU786  VAL792 
 PHE793  MET794  SER795  GLU796  ALA797  LYS798  CYS799  TRP800  GLU811  SER814 

> <Gold.Protein.RotatedAtoms>
  150.6879  134.2479  159.4498 H   0  0  0  0  0  0  0  0  0  0  0  0  # atno 6907 bound_to 6896
  152.0418  134.9704  160.0583 H   0  0  0  0  0  0  0  0  0  0  0  0  # atno 6908 bound_to 6896
  152.1203  133.4315  159.4709 H   0  0  0  0  0  0  0  0  0  0  0  0  # atno 6909 bound_to 6896
  145.1267  140.8701  143.3782 H   0  0  0  0  0  0  0  0  0  0  0  0  # atno 7974 bound_to 7965
  154.6301  140.0604  156.9722 H   0  0  0  0  0  0  0  0  0  0  0  0  # atno 8008 bound_to 7997
  155.1679  140.3288  155.4380 H   0  0  0  0  0  0  0  0  0  0  0  0  # atno 8009 bound_to 7997
  156.2478  140.1919  156.6782 H   0  0  0  0  0  0  0  0  0  0  0  0  # atno 8010 bound_to 7997
  140.3221  144.2692  150.6181 H   0  0  0  0  0  0  0  0  0  0  0  0  # atno 10167 bound_to 10162
  156.4518  130.8171  151.2402 H   0  0  0  0  0  0  0  0  0  0  0  0  # atno 10718 bound_to 10713
  153.0949  135.4841  154.8760 H   0  0  0  0  0  0  0  0  0  0  0  0  # atno 10763 bound_to 10752
  154.7313  135.3061  154.8889 H   0  0  0  0  0  0  0  0  0  0  0  0  # atno 10764 bound_to 10752
  153.9524  135.6822  153.4797 H   0  0  0  0  0  0  0  0  0  0  0  0  # atno 10765 bound_to 10752
  140.8133  133.8124  155.9585 H   0  0  0  0  0  0  0  0  0  0  0  0  # atno 11005 bound_to 11000
  145.0681  139.3053  143.5846 LP  0  0  0  0  0  0  0  0  0  0  0  0  # atno 17320 bound_to 7965
  146.3517  140.0146  142.8664 LP  0  0  0  0  0  0  0  0  0  0  0  0  # atno 17321 bound_to 7965
  140.5474  143.2212  151.7984 LP  0  0  0  0  0  0  0  0  0  0  0  0  # atno 17342 bound_to 10162
  139.4872  144.4522  151.9641 LP  0  0  0  0  0  0  0  0  0  0  0  0  # atno 17343 bound_to 10162
  157.7502  131.0135  150.3428 LP  0  0  0  0  0  0  0  0  0  0  0  0  # atno 17370 bound_to 10713
  156.3808  130.3880  149.7103 LP  0  0  0  0  0  0  0  0  0  0  0  0  # atno 17371 bound_to 10713
  140.9175  134.2183  157.4947 LP  0  0  0  0  0  0  0  0  0  0  0  0  # atno 17394 bound_to 11000
  139.8712  134.9778  156.4972 LP  0  0  0  0  0  0  0  0  0  0  0  0  # atno 17395 bound_to 11000

$$$$
