#       Name:                AV-unprocessed.smi:2445
#       Creating user name   scv26
#       Creation time:       Fri Mar 27 13:27:27 2020


#       File generated by GOLD software.
#

@<TRIPOS>MOLECULE
AV-unprocessed.smi:2445
    45    46     1
SMALL
NO_CHARGES


@<TRIPOS>ATOM
      1 ****        -4.2493  -0.7942  -2.4250 C.3            1 S1                 0.0000
      2 ****        -3.5022   0.2910  -1.7266 C.2            1 S1                 0.0000
      3 ****        -2.7791   1.3119  -2.2918 C.2            1 S1                 0.0000
      4 ****        -2.1956   2.1729  -1.3602 N.2            1 S1                 0.0000
      5 ****        -2.4634   1.8204  -0.0998 C.2            1 S1                 0.0000
      6 ****        -1.9499   2.5602   1.0985 C.3            1 S1                 0.0000
      7 ****        -2.5118   3.9867   1.1789 C.3            1 S1                 0.0000
      8 ****        -0.4145   2.5088   1.2213 C.3            1 S1                 0.0000
      9 ****         0.0770   1.1343   1.1831 N.am           1 S1                 0.0000
     10 ****         1.2377   0.7436   0.6414 C.2            1 S1                 0.0000
     11 ****         2.0580   1.5076   0.1326 O.2            1 S1                 0.0000
     12 ****         1.3964  -0.5842   0.7178 N.am           1 S1                 0.0000
     13 ****         2.5508  -1.3131   0.2041 C.3            1 S1                 0.0000
     14 ****         3.7462  -1.2533   1.1353 C.3            1 S1                 0.0000
     15 ****         4.5243  -2.5058   0.7415 C.3            1 S1                 0.0000
     16 ****         3.5641  -3.4348   0.2461 O.3            1 S1                 0.0000
     17 ****         2.2835  -2.8193   0.1522 C.3            1 S1                 0.0000
     18 ****         1.5575  -3.2822  -1.1162 C.3            1 S1                 0.0000
     19 ****        -3.4689   0.3802   0.0148 S.3            1 S1                 0.0000
     20 ****        -4.1734  -0.6900  -3.5078 H              1 S1                 0.0000
     21 ****        -5.3058  -0.7692  -2.1579 H              1 S1                 0.0000
     22 ****        -3.8543  -1.7729  -2.1522 H              1 S1                 0.0000
     23 ****        -2.6280   1.5018  -3.3443 H              1 S1                 0.0000
     24 ****        -2.3436   2.0330   1.9686 H              1 S1                 0.0000
     25 ****        -3.6022   3.9783   1.1859 H              1 S1                 0.0000
     26 ****        -2.1887   4.5891   0.3293 H              1 S1                 0.0000
     27 ****        -2.1797   4.4893   2.0876 H              1 S1                 0.0000
     28 ****         0.0284   3.0927   0.4124 H              1 S1                 0.0000
     29 ****        -0.0926   2.9714   2.1548 H              1 S1                 0.0000
     30 ****        -0.5245   0.4260   1.5775 H              1 S1                 0.0000
     31 ****         0.6669  -1.1304   1.1519 H              1 S1                 0.0000
     32 ****         2.8341  -0.9494  -0.7859 H              1 S1                 0.0000
     33 ****         4.3302  -0.3387   1.0274 H              1 S1                 0.0000
     34 ****         3.4247  -1.3311   2.1752 H              1 S1                 0.0000
     35 ****         5.2275  -2.2793  -0.0607 H              1 S1                 0.0000
     36 ****         5.0877  -2.9227   1.5766 H              1 S1                 0.0000
     37 ****         1.7161  -3.1236   1.0337 H              1 S1                 0.0000
     38 ****         0.5802  -2.8070  -1.2040 H              1 S1                 0.0000
     39 ****         1.4034  -4.3612  -1.1044 H              1 S1                 0.0000
     40 ****         2.1313  -3.0368  -2.0103 H              1 S1                 0.0000
     41 ****        -1.6389   2.9655  -1.6090 LP             1 S1                 0.0000
     42 ****         1.8763   2.4906   0.1058 LP             1 S1                 0.0000
     43 ****         2.9062   1.1452  -0.2539 LP             1 S1                 0.0000
     44 ****         3.5098  -4.2161   0.8678 LP             1 S1                 0.0000
     45 ****         3.8463  -3.7491  -0.6604 LP             1 S1                 0.0000
@<TRIPOS>BOND
    1    1    2 1     
    2    1   20 1     
    3    1   21 1     
    4    1   22 1     
    5    2   19 1     
    6    2    3 2     
    7    3    4 1     
    8    3   23 1     
    9    4    5 2     
   10    5    6 1     
   11    5   19 1     
   12    6    7 1     
   13    6    8 1     
   14    6   24 1     
   15    7   25 1     
   16    7   26 1     
   17    7   27 1     
   18    8    9 1     
   19    8   28 1     
   20    8   29 1     
   21    9   10 am    
   22    9   30 1     
   23   10   11 2     
   24   10   12 am    
   25   12   13 1     
   26   12   31 1     
   27   13   17 1     
   28   13   14 1     
   29   13   32 1     
   30   14   15 1     
   31   14   33 1     
   32   14   34 1     
   33   15   16 1     
   34   15   35 1     
   35   15   36 1     
   36   16   17 1     
   37   17   18 1     
   38   17   37 1     
   39   18   38 1     
   40   18   39 1     
   41   18   40 1     
   42    4   41 1     
   43   11   42 1     
   44   11   43 1     
   45   16   44 1     
   46   16   45 1     
@<TRIPOS>SUBSTRUCTURE
      1 S1             1
@<TRIPOS>SET
LONE_PAIRS      STATIC     ATOMS    <user>   **** ""
5 41 42 43 44 45
DONOR_HYDROGENS      STATIC     ATOMS    <user>   **** ""
2 30 31
ATOM$BLUE        STATIC     ATOMS    COLORGROUP SYSTEM
5 41 42 43 44 45
ATOM$RED        STATIC     ATOMS    COLORGROUP SYSTEM
2 30 31
