AV-unprocessed.smi:1278|AV-procd|sdf|5354|dock9
  -GOLD-   22720 4493D 1   1.00000     0.00000
 Structure written by MMmdl.
 38 39  0  0  0  0  0  0  0  0  3 V2000
  151.4356  144.7845  158.4769 C   0  0  0  0  0  0  0  0  0  0  0  0
  152.3840  144.3201  159.5912 C   0  0  1  0  0  0  0  0  0  0  0  0
  151.6952  144.3557  160.9655 C   0  0  0  0  0  0  0  0  0  0  0  0
  152.6565  143.8628  162.0539 C   0  0  0  0  0  0  0  0  0  0  0  0
  153.2038  142.4678  161.7134 C   0  0  0  0  0  0  0  0  0  0  0  0
  153.8652  142.4610  160.3829 N   0  3  1  0  0  0  0  0  0  0  0  0
  154.5133  141.1596  160.0867 C   0  0  0  0  0  0  0  0  0  0  0  0
  153.4936  140.0769  159.6851 C   0  0  0  0  0  0  0  0  0  0  0  0
  153.2286  140.1048  158.2518 N   0  0  0  0  0  0  0  0  0  0  0  0
  153.0237  139.0333  157.4726 C   0  0  0  0  0  0  0  0  0  0  0  0
  153.0712  137.9013  157.9597 O   0  0  0  0  0  0  0  0  0  0  0  0
  152.7682  139.3416  156.1818 N   0  5  0  0  0  0  0  0  0  0  0  0
  151.6170  139.9498  155.8521 C   0  0  0  0  0  0  0  0  0  0  0  0
  150.9300  139.6612  154.7408 N   0  0  0  0  0  0  0  0  0  0  0  0
  149.7664  140.4190  154.5955 C   0  0  0  0  0  0  0  0  0  0  0  0
  149.5663  141.3095  155.6166 C   0  0  0  0  0  0  0  0  0  0  0  0
  150.8430  141.2253  156.7965 S   0  0  0  0  0  0  0  0  0  0  0  0
  152.9387  142.9092  159.3086 C   0  0  0  0  0  0  0  0  0  0  0  0
  150.5678  144.1288  158.3946 H   0  0  0  0  0  0  0  0  0  0  0  0
  151.9392  144.7916  157.5097 H   0  0  0  0  0  0  0  0  0  0  0  0
  151.0726  145.7953  158.6658 H   0  0  0  0  0  0  0  0  0  0  0  0
  153.2254  145.0144  159.6159 H   0  0  0  0  0  0  0  0  0  0  0  0
  151.3605  145.3677  161.1967 H   0  0  0  0  0  0  0  0  0  0  0  0
  150.8033  143.7274  160.9523 H   0  0  0  0  0  0  0  0  0  0  0  0
  153.4843  144.5656  162.1584 H   0  0  0  0  0  0  0  0  0  0  0  0
  152.1473  143.8384  163.0178 H   0  0  0  0  0  0  0  0  0  0  0  0
  153.9173  142.1690  162.4826 H   0  0  0  0  0  0  0  0  0  0  0  0
  152.3976  141.7324  161.7244 H   0  0  0  0  0  0  0  0  0  0  0  0
  155.2144  141.2937  159.2620 H   0  0  0  0  0  0  0  0  0  0  0  0
  155.1081  140.8361  160.9425 H   0  0  0  0  0  0  0  0  0  0  0  0
  153.8663  139.0817  159.9247 H   0  0  0  0  0  0  0  0  0  0  0  0
  152.5611  140.2018  160.2385 H   0  0  0  0  0  0  0  0  0  0  0  0
  153.1884  141.0118  157.8099 H   0  0  0  0  0  0  0  0  0  0  0  0
  149.1380  140.2586  153.7323 H   0  0  0  0  0  0  0  0  0  0  0  0
  148.7530  142.0075  155.7455 H   0  0  0  0  0  0  0  0  0  0  0  0
  152.1196  142.1939  159.2156 H   0  0  0  0  0  0  0  0  0  0  0  0
  153.4565  142.9181  158.3500 H   0  0  0  0  0  0  0  0  0  0  0  0
  154.6099  143.1412  160.4369 H   0  0  0  0  0  0  0  0  0  0  0  0
  1  2  1  0  0  0  0
  1 19  1  0  0  0  0
  1 20  1  0  0  0  0
  1 21  1  0  0  0  0
  2 18  1  0  0  0  0
  2  3  1  0  0  0  0
  2 22  1  0  0  0  0
  3  4  1  0  0  0  0
  3 23  1  0  0  0  0
  3 24  1  0  0  0  0
  4  5  1  0  0  0  0
  4 25  1  0  0  0  0
  4 26  1  0  0  0  0
  5  6  1  0  0  0  0
  5 27  1  0  0  0  0
  5 28  1  0  0  0  0
  6  7  1  0  0  0  0
  6 18  1  0  0  0  0
  6 38  1  0  0  0  0
  7  8  1  0  0  0  0
  7 29  1  0  0  0  0
  7 30  1  0  0  0  0
  8  9  1  0  0  0  0
  8 31  1  0  0  0  0
  8 32  1  0  0  0  0
  9 10  1  0  0  0  0
  9 33  1  0  0  0  0
 10 11  2  0  0  0  0
 10 12  1  0  0  0  0
 12 13  1  0  0  0  0
 13 17  1  0  0  0  0
 13 14  2  0  0  0  0
 14 15  1  0  0  0  0
 15 16  2  0  0  0  0
 15 34  1  0  0  0  0
 16 17  1  0  0  0  0
 16 35  1  0  0  0  0
 18 36  1  0  0  0  0
 18 37  1  0  0  0  0
M  CHG  1   6   1
M  CHG  1  12  -1
M  END
> <s_m_source_file>
AV-unprocessed.smi

> <i_m_source_file_index>
1278

> <i_lp_mmshare_version>
43012

> <i_f3d_flags>
0

> <s_epik_input>
W0NIM11bQ0BASF0xW0NIMl1bQ0gyXVtDSDJdTihbQ0gyXTEpW0NIMl1bQ0gyXVtOSF1DKD1PKVtOSF1jMm5bY0hdW2NIXXMy

> <s_epik_cmdline>
J2VwaWtfcHl0aG9uJywgJy1waCcsICc3LjAnLCAnLXRuJywgJzgnLCAnLW1hJywgJzIwMCcsICctbWV0YWxfYmluZGluZycsICctaW1hZScsICc8aW5maWxlLm1hZT4nLCAnLW9tYWUnLCAnPG91dGZpbGUubWFlPic=

> <r_lp_tautomer_probability>
0.999

> <r_epik_Ionization_Penalty>
6.22019

> <r_epik_Ionization_Penalty_Charging>
5.38911

> <r_epik_Ionization_Penalty_Neutral>
0.831074

> <r_epik_State_Penalty>
5.38904

> <r_epik_Charging_Adjusted_Penalty>
10.7782

> <i_epik_Tot_Q>
0

> <i_epik_Tot_abs_Q>
2

> <r_epik_Metal_State_Penalty>
1.41502

> <b_epik_Metal_Only>
1

> <s_lp_Force_Field>
OPLS_2005

> <r_lp_Energy>
5.28715

> <b_lp_Chiralities_Consistent>
1

> <s_lp_Variant>
AV-unprocessed.smi:1278-8

> <Gold.Version>
5.8.1

> <Gold.Id.Protein>
6NUR|6NUR_protein|mol2

> <Gold.PLP.Fitness>
52.0819

> <Gold.PLP.PLP>
-42.7604

> <Gold.PLP.part.hbond>
-2.0000

> <Gold.PLP.part.metal>
0.0000

> <Gold.PLP.part.buried>
-2.7389

> <Gold.PLP.part.nonpolar>
-38.0411

> <Gold.PLP.part.repulsive>
0.6121

> <Gold.PLP.ligand.clash>
0.0000

> <Gold.PLP.ligand.torsion>
1.3605

> <Gold.PLP.Chemscore.Hbond>
2.0000

> <Gold.PLP.Chemscore.CHOScore>
2.0000

> <Gold.PLP.Chemscore.Metal>
0.0000

> <Gold.Chemscore.Hbonds>
donor molecule, donor type, donor heavy atom, donor atom, acceptor molecule, acceptor atom, score
      P1  H  7989  7998       L1    14  0.20
      P1  H  7997  8008       L1    12  0.90
      L1  C    15    34       P1  7957  0.77
      L1  C    16    35       P1  8028  0.52

> <Gold.PLP.Chemscore.Internal.Correction>
0.0425

> <Gold.Rescore>
     Score         DG    S(hbond)    S(metal)    S(lipo)     H(rot)  DE(clash)    DE(int)     intcor
     13.73     -16.09       0.46        0.00     111.92       1.57       0.15       2.21       ----

> <Gold.Chemscore.Fitness>
13.7275

> <Gold.Chemscore.DG>
-16.0893

> <Gold.Chemscore.ZeroCoef>
-5.4800

> <Gold.Chemscore.Hbond>
0.4576

> <Gold.Chemscore.Metal>
0.0000

> <Gold.Chemscore.Lipo>
111.9152

> <Gold.Chemscore.Internal_Hbond>
0.0000

> <Gold.Chemscore.DEClash>
0.1536

> <Gold.Chemscore.DEInternal>
2.2082

> <Gold.Chemscore.Rot>
1.5676

> <Gold.Chemscore.Internal.Correction>
   9.000000E+99

> <Gold.Chemscore.Hbonds>
donor molecule, donor type, donor heavy atom, donor atom, acceptor molecule, acceptor atom, score
      P1  H  7997  8008       L1    12  0.02

> <Gold.Chemscore.Hbond.Weighted>
-1.5282

> <Gold.Chemscore.Metal.Weighted>
-0.0000

> <Gold.Chemscore.Lipo.Weighted>
-13.0941

> <Gold.Chemscore.Internal_Hbond.Weighted>
0.0000

> <Gold.Chemscore.DEClash.Weighted>
0.1536

> <Gold.Chemscore.DEInternal.Weighted>
2.2082

> <Gold.Chemscore.Rot.Weighted>
4.0130

> <Gold.Chemscore.Internal.Correction.Weighted>
   9.000000E+99

> <Gold.Protein.RotatedTorsions>
[ 6907 6896 6895 6894 ] final  137.79 input  -60.11 | X-H torsion
[ 7974 7965 7964 7962 ] final  137.12 input  175.53 | X-H torsion
[ 8008 7997 7996 7995 ] final  -27.73 input   59.86 | X-H torsion
[ 10167 10162 10161 10158 ] final   61.21 input  -65.29 | X-H torsion
[ 10718 10713 10712 10709 ] final -132.01 input   66.30 | X-H torsion
[ 10763 10752 10751 10750 ] final  -84.76 input  -60.55 | X-H torsion
[ 11005 11000 10999 10996 ] final  118.58 input  -57.11 | X-H torsion

> <Gold.Protein.ActiveResidues>
 VAL166  LYS551  ARG553  GLY616  TRP617  ASP618  TYR619  PRO620  LYS621  CYS622 
 ASP623  PHE694  ASN695  SER759  ASP760  ASP761  ALA762  ILE779  LEU786  VAL792 
 PHE793  MET794  SER795  GLU796  ALA797  LYS798  CYS799  TRP800  GLU811  SER814 

> <Gold.Protein.RotatedAtoms>
  152.2740  133.5408  159.5456 H   0  0  0  0  0  0  0  0  0  0  0  0  # atno 6907 bound_to 6896
  150.7170  134.0657  159.3856 H   0  0  0  0  0  0  0  0  0  0  0  0  # atno 6908 bound_to 6896
  151.8571  135.0537  160.0516 H   0  0  0  0  0  0  0  0  0  0  0  0  # atno 6909 bound_to 6896
  144.9499  139.4831  143.5531 H   0  0  0  0  0  0  0  0  0  0  0  0  # atno 7974 bound_to 7965
  154.4364  140.1864  156.0978 H   0  0  0  0  0  0  0  0  0  0  0  0  # atno 8008 bound_to 7997
  156.0316  140.3330  155.7119 H   0  0  0  0  0  0  0  0  0  0  0  0  # atno 8009 bound_to 7997
  155.5831  140.0623  157.2769 H   0  0  0  0  0  0  0  0  0  0  0  0  # atno 8010 bound_to 7997
  140.1572  144.4406  150.6728 H   0  0  0  0  0  0  0  0  0  0  0  0  # atno 10167 bound_to 10162
  156.2303  130.7033  151.0850 H   0  0  0  0  0  0  0  0  0  0  0  0  # atno 10718 bound_to 10713
  154.6032  135.5509  153.7396 H   0  0  0  0  0  0  0  0  0  0  0  0  # atno 10763 bound_to 10752
  153.0163  135.6371  154.1684 H   0  0  0  0  0  0  0  0  0  0  0  0  # atno 10764 bound_to 10752
  154.1624  135.2896  155.3085 H   0  0  0  0  0  0  0  0  0  0  0  0  # atno 10765 bound_to 10752
  139.9114  134.9621  156.7524 H   0  0  0  0  0  0  0  0  0  0  0  0  # atno 11005 bound_to 11000
  146.3317  139.8577  142.8862 LP  0  0  0  0  0  0  0  0  0  0  0  0  # atno 17320 bound_to 7965
  145.2860  141.0153  143.3690 LP  0  0  0  0  0  0  0  0  0  0  0  0  # atno 17321 bound_to 7965
  140.6666  143.2270  151.5728 LP  0  0  0  0  0  0  0  0  0  0  0  0  # atno 17342 bound_to 10162
  139.5398  144.2679  152.1327 LP  0  0  0  0  0  0  0  0  0  0  0  0  # atno 17343 bound_to 10162
  157.7130  131.0725  150.6433 LP  0  0  0  0  0  0  0  0  0  0  0  0  # atno 17370 bound_to 10713
  156.6500  130.4482  149.5722 LP  0  0  0  0  0  0  0  0  0  0  0  0  # atno 17371 bound_to 10713
  140.6763  133.9515  155.7885 LP  0  0  0  0  0  0  0  0  0  0  0  0  # atno 17394 bound_to 11000
  141.0542  134.0440  157.3744 LP  0  0  0  0  0  0  0  0  0  0  0  0  # atno 17395 bound_to 11000

$$$$
