AV-unprocessed.smi:970|AV-procd|sdf|4294|dock9
  -GOLD-   22720 2203D 1   1.00000     0.00000
 Structure written by MMmdl.
 31 31  0  0  0  0  0  0  0  0  1 V2000
  146.4445  138.2518  152.3178 C   0  0  0  0  0  0  0  0  0  0  0  0
  147.4206  139.2318  152.7680 N   0  0  0  0  0  0  0  0  0  0  0  0
  147.7253  139.4582  154.0538 C   0  0  0  0  0  0  0  0  0  0  0  0
  147.1945  138.8542  154.9876 O   0  0  0  0  0  0  0  0  0  0  0  0
  148.7795  140.5450  154.3222 C   0  0  1  0  0  0  0  0  0  0  0  0
  148.1414  141.9130  154.0281 C   0  0  0  0  0  0  0  0  0  0  0  0
  149.1876  140.5328  155.7256 N   0  0  0  0  0  0  0  0  0  0  0  0
  150.4570  140.5208  156.1651 C   0  0  0  0  0  0  0  0  0  0  0  0
  151.4292  140.5238  155.4089 O   0  0  0  0  0  0  0  0  0  0  0  0
  150.6476  140.5042  157.6895 C   0  0  1  0  0  0  0  0  0  0  0  0
  151.3401  139.2188  158.1864 C   0  0  0  0  0  0  0  0  0  0  0  0
  151.3431  141.7110  158.1205 N   0  0  0  0  0  0  0  0  0  0  0  0
  151.0767  142.9930  157.8598 C   0  0  0  0  0  0  0  0  0  0  0  0
  151.9546  143.8418  158.3756 N   0  0  0  0  0  0  0  0  0  0  0  0
  152.8037  142.9553  158.9747 C   0  0  0  0  0  0  0  0  0  0  0  0
  152.4904  141.6667  158.8432 N   0  0  0  0  0  0  0  0  0  0  0  0
  146.4349  138.2094  151.2288 H   0  0  0  0  0  0  0  0  0  0  0  0
  145.4433  138.5196  152.6578 H   0  0  0  0  0  0  0  0  0  0  0  0
  146.6869  137.2575  152.6954 H   0  0  0  0  0  0  0  0  0  0  0  0
  147.8994  139.7676  152.0586 H   0  0  0  0  0  0  0  0  0  0  0  0
  149.6488  140.3993  153.6777 H   0  0  0  0  0  0  0  0  0  0  0  0
  147.8164  141.9841  152.9892 H   0  0  0  0  0  0  0  0  0  0  0  0
  148.8552  142.7194  154.1992 H   0  0  0  0  0  0  0  0  0  0  0  0
  147.2738  142.1023  154.6621 H   0  0  0  0  0  0  0  0  0  0  0  0
  148.4478  140.5197  156.4123 H   0  0  0  0  0  0  0  0  0  0  0  0
  149.6553  140.5289  158.1434 H   0  0  0  0  0  0  0  0  0  0  0  0
  150.7704  138.3328  157.9045 H   0  0  0  0  0  0  0  0  0  0  0  0
  151.4259  139.2189  159.2733 H   0  0  0  0  0  0  0  0  0  0  0  0
  152.3450  139.1083  157.7766 H   0  0  0  0  0  0  0  0  0  0  0  0
  150.2254  143.3118  157.2765 H   0  0  0  0  0  0  0  0  0  0  0  0
  153.6830  143.2685  159.5182 H   0  0  0  0  0  0  0  0  0  0  0  0
  1  2  1  0  0  0  0
  1 17  1  0  0  0  0
  1 18  1  0  0  0  0
  1 19  1  0  0  0  0
  2  3  1  0  0  0  0
  2 20  1  0  0  0  0
  3  4  2  0  0  0  0
  3  5  1  0  0  0  0
  5  6  1  0  0  0  0
  5  7  1  0  0  0  0
  5 21  1  0  0  0  0
  6 22  1  0  0  0  0
  6 23  1  0  0  0  0
  6 24  1  0  0  0  0
  7  8  1  0  0  0  0
  7 25  1  0  0  0  0
  8  9  2  0  0  0  0
  8 10  1  0  0  0  0
 10 11  1  0  0  0  0
 10 12  1  0  0  0  0
 10 26  1  0  0  0  0
 11 27  1  0  0  0  0
 11 28  1  0  0  0  0
 11 29  1  0  0  0  0
 12 16  1  0  0  0  0
 12 13  1  0  0  0  0
 13 14  2  0  0  0  0
 13 30  1  0  0  0  0
 14 15  1  0  0  0  0
 15 16  2  0  0  0  0
 15 31  1  0  0  0  0
M  END
> <s_m_source_file>
AV-unprocessed.smi

> <i_m_source_file_index>
970

> <i_lp_mmshare_version>
43012

> <i_f3d_flags>
0

> <s_epik_input>
W0NIM11bTkhdQyg9TylbQ0BIXShbQ0gzXSlbTkhdQyg9TylbQ0BIXShbQ0gzXSluMVtjSF1uW2NIXW4x

> <s_epik_cmdline>
J2VwaWtfcHl0aG9uJywgJy1waCcsICc3LjAnLCAnLXRuJywgJzgnLCAnLW1hJywgJzIwMCcsICctbWV0YWxfYmluZGluZycsICctaW1hZScsICc8aW5maWxlLm1hZT4nLCAnLW9tYWUnLCAnPG91dGZpbGUubWFlPic=

> <r_lp_tautomer_probability>
1

> <r_epik_Ionization_Penalty>
1.07271e-05

> <r_epik_Ionization_Penalty_Charging>
0

> <r_epik_Ionization_Penalty_Neutral>
1.07271e-05

> <r_epik_State_Penalty>
-0

> <r_epik_Charging_Adjusted_Penalty>
0

> <i_epik_Tot_Q>
0

> <i_epik_Tot_abs_Q>
0

> <r_epik_Metal_State_Penalty>
-0

> <b_epik_Metal_Only>
0

> <s_lp_Force_Field>
OPLS_2005

> <r_lp_Energy>
8.70478

> <b_lp_Chiralities_Consistent>
1

> <s_lp_Variant>
AV-unprocessed.smi:970-4

> <Gold.Version>
5.8.1

> <Gold.Id.Protein>
6NUR|6NUR_protein|mol2

> <Gold.PLP.Fitness>
33.6468

> <Gold.PLP.PLP>
-26.0371

> <Gold.PLP.part.hbond>
-2.0000

> <Gold.PLP.part.metal>
0.0000

> <Gold.PLP.part.buried>
-3.7609

> <Gold.PLP.part.nonpolar>
-21.2409

> <Gold.PLP.part.repulsive>
0.2356

> <Gold.PLP.ligand.clash>
0.0000

> <Gold.PLP.ligand.torsion>
0.3902

> <Gold.PLP.Chemscore.Hbond>
1.7600

> <Gold.PLP.Chemscore.CHOScore>
1.0000

> <Gold.PLP.Chemscore.Metal>
0.0000

> <Gold.Chemscore.Hbonds>
donor molecule, donor type, donor heavy atom, donor atom, acceptor molecule, acceptor atom, score
      L1  H     2    20       P1  7957  0.91
      P1  H  7989  7998       L1     9  0.85
      L1  C    13    30       P1  8028  1.00

> <Gold.PLP.Chemscore.Internal.Correction>
0.1101

> <Gold.Rescore>
     Score         DG    S(hbond)    S(metal)    S(lipo)     H(rot)  DE(clash)    DE(int)     intcor
      8.15      -8.63       1.83        0.00      31.25       2.59       0.04       0.44       ----

> <Gold.Chemscore.Fitness>
8.1505

> <Gold.Chemscore.DG>
-8.6325

> <Gold.Chemscore.ZeroCoef>
-5.4800

> <Gold.Chemscore.Hbond>
1.8308

> <Gold.Chemscore.Metal>
0.0000

> <Gold.Chemscore.Lipo>
31.2456

> <Gold.Chemscore.Internal_Hbond>
0.0000

> <Gold.Chemscore.DEClash>
0.0370

> <Gold.Chemscore.DEInternal>
0.4450

> <Gold.Chemscore.Rot>
2.5852

> <Gold.Chemscore.Internal.Correction>
   9.000000E+99

> <Gold.Chemscore.Hbonds>
donor molecule, donor type, donor heavy atom, donor atom, acceptor molecule, acceptor atom, score
      L1  H     2    20       P1  7957  0.88
      P1  H  7989  7998       L1     9  0.82

> <Gold.Chemscore.Hbond.Weighted>
-6.1149

> <Gold.Chemscore.Metal.Weighted>
-0.0000

> <Gold.Chemscore.Lipo.Weighted>
-3.6557

> <Gold.Chemscore.Internal_Hbond.Weighted>
0.0000

> <Gold.Chemscore.DEClash.Weighted>
0.0370

> <Gold.Chemscore.DEInternal.Weighted>
0.4450

> <Gold.Chemscore.Rot.Weighted>
6.6182

> <Gold.Chemscore.Internal.Correction.Weighted>
   9.000000E+99

> <Gold.Protein.RotatedTorsions>
[ 6907 6896 6895 6894 ] final   88.43 input  -60.11 | X-H torsion
[ 7974 7965 7964 7962 ] final   59.13 input  175.53 | X-H torsion
[ 8008 7997 7996 7995 ] final  -23.59 input   59.86 | X-H torsion
[ 10167 10162 10161 10158 ] final   87.02 input  -65.29 | X-H torsion
[ 10718 10713 10712 10709 ] final  106.17 input   66.30 | X-H torsion
[ 10763 10752 10751 10750 ] final  150.35 input  -60.55 | X-H torsion
[ 11005 11000 10999 10996 ] final   84.45 input  -57.11 | X-H torsion

> <Gold.Protein.ActiveResidues>
 VAL166  LYS551  ARG553  GLY616  TRP617  ASP618  TYR619  PRO620  LYS621  CYS622 
 ASP623  PHE694  ASN695  SER759  ASP760  ASP761  ALA762  ILE779  LEU786  VAL792 
 PHE793  MET794  SER795  GLU796  ALA797  LYS798  CYS799  TRP800  GLU811  SER814 

> <Gold.Protein.RotatedAtoms>
  152.5425  134.2122  159.8754 H   0  0  0  0  0  0  0  0  0  0  0  0  # atno 6907 bound_to 6896
  151.2104  133.4552  159.2605 H   0  0  0  0  0  0  0  0  0  0  0  0  # atno 6908 bound_to 6896
  151.0902  134.9924  159.8455 H   0  0  0  0  0  0  0  0  0  0  0  0  # atno 6909 bound_to 6896
  145.9105  139.3650  143.0538 H   0  0  0  0  0  0  0  0  0  0  0  0  # atno 7974 bound_to 7965
  154.4577  140.1976  156.0334 H   0  0  0  0  0  0  0  0  0  0  0  0  # atno 8008 bound_to 7997
  156.0778  140.3276  155.7627 H   0  0  0  0  0  0  0  0  0  0  0  0  # atno 8009 bound_to 7997
  155.5161  140.0566  157.2906 H   0  0  0  0  0  0  0  0  0  0  0  0  # atno 8010 bound_to 7997
  139.8816  144.6436  150.8836 H   0  0  0  0  0  0  0  0  0  0  0  0  # atno 10167 bound_to 10162
  157.6678  131.0844  150.5966 H   0  0  0  0  0  0  0  0  0  0  0  0  # atno 10718 bound_to 10713
  154.0861  135.2856  155.3281 H   0  0  0  0  0  0  0  0  0  0  0  0  # atno 10763 bound_to 10752
  154.6651  135.5320  153.8070 H   0  0  0  0  0  0  0  0  0  0  0  0  # atno 10764 bound_to 10752
  153.0430  135.6543  154.1033 H   0  0  0  0  0  0  0  0  0  0  0  0  # atno 10765 bound_to 10752
  139.9000  134.8217  156.2447 H   0  0  0  0  0  0  0  0  0  0  0  0  # atno 11005 bound_to 11000
  145.8677  140.9438  143.0667 LP  0  0  0  0  0  0  0  0  0  0  0  0  # atno 17320 bound_to 7965
  144.6743  140.0614  143.7476 LP  0  0  0  0  0  0  0  0  0  0  0  0  # atno 17321 bound_to 7965
  140.7743  143.3581  151.1882 LP  0  0  0  0  0  0  0  0  0  0  0  0  # atno 17342 bound_to 10162
  139.7190  143.9253  152.2978 LP  0  0  0  0  0  0  0  0  0  0  0  0  # atno 17343 bound_to 10162
  156.6267  130.4420  149.5802 LP  0  0  0  0  0  0  0  0  0  0  0  0  # atno 17370 bound_to 10713
  156.2314  130.6796  151.1467 LP  0  0  0  0  0  0  0  0  0  0  0  0  # atno 17371 bound_to 10713
  141.0262  133.7014  156.1352 LP  0  0  0  0  0  0  0  0  0  0  0  0  # atno 17394 bound_to 11000
  140.7162  134.4407  157.5578 LP  0  0  0  0  0  0  0  0  0  0  0  0  # atno 17395 bound_to 11000

$$$$
