AV-unprocessed.smi:3031|AV-procd|sdf|11546|dock6
  -GOLD-   2272016503D 1   1.00000     0.00000
 Structure written by MMmdl.
 47 48  0  0  0  0  0  0  0  0  2 V2000
  151.1565  141.7386  158.7061 C   0  0  0  0  0  0  0  0  0  0  0  0
  150.8143  141.3778  157.2894 C   0  0  0  0  0  0  0  0  0  0  0  0
  151.4513  140.4173  156.4534 C   0  0  0  0  0  0  0  0  0  0  0  0
  150.9039  140.3372  155.2516 N   0  0  0  0  0  0  0  0  0  0  0  0
  149.9032  141.2432  155.2762 N   0  0  0  0  0  0  0  0  0  0  0  0
  149.0662  141.4325  154.1047 C   0  0  0  0  0  0  0  0  0  0  0  0
  147.7516  140.6160  154.1612 C   0  0  1  0  0  0  0  0  0  0  0  0
  146.5708  141.4368  154.7085 C   0  0  0  0  0  0  0  0  0  0  0  0
  147.3873  140.0785  152.8463 N   0  0  0  0  0  0  0  0  0  0  0  0
  146.3092  139.0892  152.8432 C   0  0  0  0  0  0  0  0  0  0  0  0
  146.6426  137.9007  151.9260 C   0  0  2  0  0  0  0  0  0  0  0  0
  146.6992  138.3920  150.6020 O   0  0  0  0  0  0  0  0  0  0  0  0
  145.5766  136.7852  151.9802 C   0  0  0  0  0  0  0  0  0  0  0  0
  146.1762  135.4275  152.0345 N   0  3  0  0  0  0  0  0  0  0  0  0
  146.1806  134.8322  153.3942 C   0  0  0  0  0  0  0  0  0  0  0  0
  146.8546  133.4497  153.3725 C   0  0  0  0  0  0  0  0  0  0  0  0
  146.1860  132.6069  152.4424 O   0  0  0  0  0  0  0  0  0  0  0  0
  146.2494  133.1213  151.1184 C   0  0  0  0  0  0  0  0  0  0  0  0
  145.5570  134.4938  151.0639 C   0  0  0  0  0  0  0  0  0  0  0  0
  149.8239  141.8824  156.4952 C   0  0  0  0  0  0  0  0  0  0  0  0
  152.1830  141.4695  158.9558 H   0  0  0  0  0  0  0  0  0  0  0  0
  150.5076  141.2278  159.4176 H   0  0  0  0  0  0  0  0  0  0  0  0
  151.0526  142.8087  158.8864 H   0  0  0  0  0  0  0  0  0  0  0  0
  152.2911  139.7785  156.6839 H   0  0  0  0  0  0  0  0  0  0  0  0
  148.8449  142.4960  153.9984 H   0  0  0  0  0  0  0  0  0  0  0  0
  149.6622  141.1502  153.2370 H   0  0  0  0  0  0  0  0  0  0  0  0
  147.9058  139.7807  154.8460 H   0  0  0  0  0  0  0  0  0  0  0  0
  146.7419  141.7523  155.7380 H   0  0  0  0  0  0  0  0  0  0  0  0
  145.6508  140.8514  154.7047 H   0  0  0  0  0  0  0  0  0  0  0  0
  146.3982  142.3320  154.1103 H   0  0  0  0  0  0  0  0  0  0  0  0
  148.2119  139.6877  152.4018 H   0  0  0  0  0  0  0  0  0  0  0  0
  146.1173  138.7204  153.8507 H   0  0  0  0  0  0  0  0  0  0  0  0
  145.3877  139.5628  152.5010 H   0  0  0  0  0  0  0  0  0  0  0  0
  147.6291  137.5179  152.1870 H   0  0  0  0  0  0  0  0  0  0  0  0
  145.8917  138.1722  150.1627 H   0  0  0  0  0  0  0  0  0  0  0  0
  144.9202  136.9157  152.8418 H   0  0  0  0  0  0  0  0  0  0  0  0
  144.9379  136.8714  151.0996 H   0  0  0  0  0  0  0  0  0  0  0  0
  146.7086  135.4779  154.0946 H   0  0  0  0  0  0  0  0  0  0  0  0
  145.1558  134.7387  153.7572 H   0  0  0  0  0  0  0  0  0  0  0  0
  147.9109  133.5342  153.1122 H   0  0  0  0  0  0  0  0  0  0  0  0
  146.8061  132.9927  154.3610 H   0  0  0  0  0  0  0  0  0  0  0  0
  147.2881  133.1945  150.7922 H   0  0  0  0  0  0  0  0  0  0  0  0
  145.7527  132.4230  150.4445 H   0  0  0  0  0  0  0  0  0  0  0  0
  144.4941  134.3861  151.2861 H   0  0  0  0  0  0  0  0  0  0  0  0
  145.6349  134.9016  150.0553 H   0  0  0  0  0  0  0  0  0  0  0  0
  149.0775  142.6376  156.6931 H   0  0  0  0  0  0  0  0  0  0  0  0
  147.1407  135.5314  151.7520 H   0  0  0  0  0  0  0  0  0  0  0  0
  1  2  1  0  0  0  0
  1 21  1  0  0  0  0
  1 22  1  0  0  0  0
  1 23  1  0  0  0  0
  2 20  2  0  0  0  0
  2  3  1  0  0  0  0
  3  4  2  0  0  0  0
  3 24  1  0  0  0  0
  4  5  1  0  0  0  0
  5  6  1  0  0  0  0
  5 20  1  0  0  0  0
  6  7  1  0  0  0  0
  6 25  1  0  0  0  0
  6 26  1  0  0  0  0
  7  8  1  0  0  0  0
  7  9  1  0  0  0  0
  7 27  1  0  0  0  0
  8 28  1  0  0  0  0
  8 29  1  0  0  0  0
  8 30  1  0  0  0  0
  9 10  1  0  0  0  0
  9 31  1  0  0  0  0
 10 11  1  0  0  0  0
 10 32  1  0  0  0  0
 10 33  1  0  0  0  0
 11 12  1  0  0  0  0
 11 13  1  0  0  0  0
 11 34  1  0  0  0  0
 12 35  1  0  0  0  0
 13 14  1  0  0  0  0
 13 36  1  0  0  0  0
 13 37  1  0  0  0  0
 14 19  1  0  0  0  0
 14 15  1  0  0  0  0
 14 47  1  0  0  0  0
 15 16  1  0  0  0  0
 15 38  1  0  0  0  0
 15 39  1  0  0  0  0
 16 17  1  0  0  0  0
 16 40  1  0  0  0  0
 16 41  1  0  0  0  0
 17 18  1  0  0  0  0
 18 19  1  0  0  0  0
 18 42  1  0  0  0  0
 18 43  1  0  0  0  0
 19 44  1  0  0  0  0
 19 45  1  0  0  0  0
 20 46  1  0  0  0  0
M  CHG  1  14   1
M  END
> <s_m_source_file>
AV-unprocessed.smi

> <i_m_source_file_index>
3031

> <i_lp_mmshare_version>
43012

> <i_f3d_flags>
0

> <s_epik_input>
W0NIM11jMVtjSF1ubihbY0hdMSlbQ0gyXVtDQEhdKFtDSDNdKVtOSF1bQ0gyXVtDQEhdKFtPSF0pW0NIMl1OMltDSDJdW0NIMl1PW0NIMl1bQ0gyXTI=

> <s_epik_cmdline>
J2VwaWtfcHl0aG9uJywgJy1waCcsICc3LjAnLCAnLXRuJywgJzgnLCAnLW1hJywgJzIwMCcsICctbWV0YWxfYmluZGluZycsICctaW1hZScsICc8aW5maWxlLm1hZT4nLCAnLW9tYWUnLCAnPG91dGZpbGUubWFlPic=

> <r_epik_Ionization_Penalty>
0.467051

> <r_epik_Ionization_Penalty_Charging>
0.202493

> <r_epik_Ionization_Penalty_Neutral>
0.264558

> <r_epik_State_Penalty>
1.34287

> <r_epik_Charging_Adjusted_Penalty>
1.54537

> <i_epik_Tot_Q>
1

> <i_epik_Tot_abs_Q>
1

> <r_epik_Metal_State_Penalty>
1.34281

> <b_epik_Metal_Only>
0

> <s_lp_Force_Field>
OPLS_2005

> <r_lp_Energy>
23.2864

> <b_lp_Chiralities_Consistent>
1

> <s_lp_Variant>
AV-unprocessed.smi:3031-6

> <Gold.Version>
5.8.1

> <Gold.Id.Protein>
6NUR|6NUR_protein|mol2

> <Gold.PLP.Fitness>
51.0763

> <Gold.PLP.PLP>
-35.6082

> <Gold.PLP.part.hbond>
-5.0000

> <Gold.PLP.part.metal>
0.0000

> <Gold.PLP.part.buried>
1.8724

> <Gold.PLP.part.nonpolar>
-31.7507

> <Gold.PLP.part.repulsive>
0.2109

> <Gold.PLP.ligand.clash>
0.0000

> <Gold.PLP.ligand.torsion>
2.4497

> <Gold.PLP.Chemscore.Hbond>
5.8480

> <Gold.PLP.Chemscore.CHOScore>
0.8785

> <Gold.PLP.Chemscore.Metal>
0.0000

> <Gold.Chemscore.Hbonds>
donor molecule, donor type, donor heavy atom, donor atom, acceptor molecule, acceptor atom, score
      L1  H     9    31       P1  7957  0.88
      L1  H    12    35       P1 10171  0.87
      L1  H    14    47       P1  7948  2.00
      P1  H  7954  7966       L1    12  0.90
      P1  H  7989  7998       L1     4  0.80
      L1  C    20    46       P1  8028  0.95

> <Gold.PLP.Chemscore.Internal.Correction>
0.1880

> <Gold.Rescore>
     Score         DG    S(hbond)    S(metal)    S(lipo)     H(rot)  DE(clash)    DE(int)     intcor
     17.61     -21.83       3.99        0.00      84.04       2.65       1.68       2.54       ----

> <Gold.Chemscore.Fitness>
17.6121

> <Gold.Chemscore.DG>
-21.8343

> <Gold.Chemscore.ZeroCoef>
-5.4800

> <Gold.Chemscore.Hbond>
3.9852

> <Gold.Chemscore.Metal>
0.0000

> <Gold.Chemscore.Lipo>
84.0439

> <Gold.Chemscore.Internal_Hbond>
0.0000

> <Gold.Chemscore.DEClash>
1.6800

> <Gold.Chemscore.DEInternal>
2.5422

> <Gold.Chemscore.Rot>
2.6521

> <Gold.Chemscore.Internal.Correction>
   9.000000E+99

> <Gold.Chemscore.Hbonds>
donor molecule, donor type, donor heavy atom, donor atom, acceptor molecule, acceptor atom, score
      L1  H     9    31       P1  7957  0.86
      L1  H    12    35       P1 10171  0.81
      L1  H    14    47       P1  7948  0.98
      P1  H  7954  7966       L1    12  0.59
      P1  H  7989  7998       L1     4  0.11

> <Gold.Chemscore.Hbond.Weighted>
-13.3105

> <Gold.Chemscore.Metal.Weighted>
-0.0000

> <Gold.Chemscore.Lipo.Weighted>
-9.8331

> <Gold.Chemscore.Internal_Hbond.Weighted>
0.0000

> <Gold.Chemscore.DEClash.Weighted>
1.6800

> <Gold.Chemscore.DEInternal.Weighted>
2.5422

> <Gold.Chemscore.Rot.Weighted>
6.7894

> <Gold.Chemscore.Internal.Correction.Weighted>
   9.000000E+99

> <Gold.Protein.RotatedTorsions>
[ 6907 6896 6895 6894 ] final   88.46 input  -60.11 | X-H torsion
[ 7974 7965 7964 7962 ] final -177.40 input  175.53 | X-H torsion
[ 8008 7997 7996 7995 ] final -119.99 input   59.86 | X-H torsion
[ 10167 10162 10161 10158 ] final  118.88 input  -65.29 | X-H torsion
[ 10718 10713 10712 10709 ] final  101.59 input   66.30 | X-H torsion
[ 10763 10752 10751 10750 ] final   53.18 input  -60.55 | X-H torsion
[ 11005 11000 10999 10996 ] final   45.56 input  -57.11 | X-H torsion

> <Gold.Protein.ActiveResidues>
 VAL166  LYS551  ARG553  GLY616  TRP617  ASP618  TYR619  PRO620  LYS621  CYS622 
 ASP623  PHE694  ASN695  SER759  ASP760  ASP761  ALA762  ILE779  LEU786  VAL792 
 PHE793  MET794  SER795  GLU796  ALA797  LYS798  CYS799  TRP800  GLU811  SER814 

> <Gold.Protein.RotatedAtoms>
  152.5425  134.2118  159.8752 H   0  0  0  0  0  0  0  0  0  0  0  0  # atno 6907 bound_to 6896
  151.2100  133.4554  159.2605 H   0  0  0  0  0  0  0  0  0  0  0  0  # atno 6908 bound_to 6896
  151.0906  134.9926  159.8456 H   0  0  0  0  0  0  0  0  0  0  0  0  # atno 6909 bound_to 6896
  144.7127  140.1025  143.6415 H   0  0  0  0  0  0  0  0  0  0  0  0  # atno 7974 bound_to 7965
  155.1247  140.0399  157.2759 H   0  0  0  0  0  0  0  0  0  0  0  0  # atno 8008 bound_to 7997
  154.6587  140.2586  155.7106 H   0  0  0  0  0  0  0  0  0  0  0  0  # atno 8009 bound_to 7997
  156.2610  140.2821  156.1051 H   0  0  0  0  0  0  0  0  0  0  0  0  # atno 8010 bound_to 7997
  139.6082  144.7075  151.2904 H   0  0  0  0  0  0  0  0  0  0  0  0  # atno 10167 bound_to 10162
  157.6825  131.0730  150.5276 H   0  0  0  0  0  0  0  0  0  0  0  0  # atno 10718 bound_to 10713
  152.9793  135.5787  154.4699 H   0  0  0  0  0  0  0  0  0  0  0  0  # atno 10763 bound_to 10752
  154.4263  135.2772  155.1944 H   0  0  0  0  0  0  0  0  0  0  0  0  # atno 10764 bound_to 10752
  154.3672  135.6176  153.5775 H   0  0  0  0  0  0  0  0  0  0  0  0  # atno 10765 bound_to 10752
  140.1449  134.4536  155.8423 H   0  0  0  0  0  0  0  0  0  0  0  0  # atno 11005 bound_to 11000
  145.9525  139.2744  143.1203 LP  0  0  0  0  0  0  0  0  0  0  0  0  # atno 17320 bound_to 7965
  145.9307  140.9050  143.0357 LP  0  0  0  0  0  0  0  0  0  0  0  0  # atno 17321 bound_to 7965
  140.7300  143.6891  150.7937 LP  0  0  0  0  0  0  0  0  0  0  0  0  # atno 17342 bound_to 10162
  140.0481  143.5278  152.2687 LP  0  0  0  0  0  0  0  0  0  0  0  0  # atno 17343 bound_to 10162
  156.5587  130.4250  149.6073 LP  0  0  0  0  0  0  0  0  0  0  0  0  # atno 17370 bound_to 10713
  156.2840  130.7087  151.1918 LP  0  0  0  0  0  0  0  0  0  0  0  0  # atno 17371 bound_to 10713
  141.2191  133.6848  156.7314 LP  0  0  0  0  0  0  0  0  0  0  0  0  # atno 17394 bound_to 11000
  140.2676  134.8417  157.3818 LP  0  0  0  0  0  0  0  0  0  0  0  0  # atno 17395 bound_to 11000

$$$$
