AV-unprocessed.smi:1239|AV-procd|sdf|5192|dock9
  -GOLD-   22720 4273D 1   1.00000     0.00000
 Structure written by MMmdl.
 48 49  0  0  0  0  0  0  0  0  2 V2000
  149.3034  132.4940  154.1658 C   0  0  0  0  0  0  0  0  0  0  0  0
  148.9330  133.9178  154.6510 C   0  0  1  0  0  0  0  0  0  0  0  0
  150.2094  134.7933  154.7659 C   0  0  0  0  0  0  0  0  0  0  0  0
  149.9861  136.0076  155.5429 N   0  0  0  0  0  0  0  0  0  0  0  0
  150.9538  136.6982  156.1599 C   0  0  0  0  0  0  0  0  0  0  0  0
  152.1380  136.3661  156.1305 O   0  0  0  0  0  0  0  0  0  0  0  0
  150.4518  137.7740  156.7911 N   0  0  0  0  0  0  0  0  0  0  0  0
  151.1206  138.7761  157.5480 C   0  0  0  0  0  0  0  0  0  0  0  0
  150.5062  139.9196  158.1102 C   0  0  0  0  0  0  0  0  0  0  0  0
  151.2943  140.8325  158.8371 C   0  0  0  0  0  0  0  0  0  0  0  0
  152.6815  140.5884  158.9894 C   0  0  0  0  0  0  0  0  0  0  0  0
  153.5124  141.4755  159.7114 N   0  0  0  0  0  0  0  0  0  0  0  0
  152.9937  142.7710  160.1390 C   0  0  0  0  0  0  0  0  0  0  0  0
  154.8746  141.0876  160.0566 C   0  0  0  0  0  0  0  0  0  0  0  0
  153.2644  139.4920  158.4467 N   0  0  0  0  0  0  0  0  0  0  0  0
  152.5059  138.6203  157.7508 C   0  0  0  0  0  0  0  0  0  0  0  0
  147.8892  134.5501  153.7747 N   0  3  0  0  0  0  0  0  0  0  0  0
  146.9605  133.5659  153.1493 C   0  0  0  0  0  0  0  0  0  0  0  0
  145.9107  134.2565  152.2629 C   0  0  0  0  0  0  0  0  0  0  0  0
  145.1893  135.2080  153.0276 O   0  0  0  0  0  0  0  0  0  0  0  0
  146.0461  136.2288  153.5121 C   0  0  0  0  0  0  0  0  0  0  0  0
  147.1019  135.6207  154.4505 C   0  0  0  0  0  0  0  0  0  0  0  0
  150.1130  132.0552  154.7480 H   0  0  0  0  0  0  0  0  0  0  0  0
  149.6201  132.5017  153.1223 H   0  0  0  0  0  0  0  0  0  0  0  0
  148.4743  131.7947  154.2645 H   0  0  0  0  0  0  0  0  0  0  0  0
  148.5058  133.8246  155.6509 H   0  0  0  0  0  0  0  0  0  0  0  0
  151.0201  134.2174  155.2159 H   0  0  0  0  0  0  0  0  0  0  0  0
  150.5509  135.1264  153.7868 H   0  0  0  0  0  0  0  0  0  0  0  0
  149.0366  136.3435  155.6138 H   0  0  0  0  0  0  0  0  0  0  0  0
  149.4541  137.9033  156.7071 H   0  0  0  0  0  0  0  0  0  0  0  0
  149.4538  140.1265  158.0051 H   0  0  0  0  0  0  0  0  0  0  0  0
  150.8163  141.7011  159.2635 H   0  0  0  0  0  0  0  0  0  0  0  0
  152.6641  143.3553  159.2793 H   0  0  0  0  0  0  0  0  0  0  0  0
  153.7537  143.3510  160.6631 H   0  0  0  0  0  0  0  0  0  0  0  0
  152.1477  142.6406  160.8147 H   0  0  0  0  0  0  0  0  0  0  0  0
  154.8733  140.1811  160.6626 H   0  0  0  0  0  0  0  0  0  0  0  0
  155.3777  141.8678  160.6282 H   0  0  0  0  0  0  0  0  0  0  0  0
  155.4614  140.9053  159.1558 H   0  0  0  0  0  0  0  0  0  0  0  0
  153.0273  137.7667  157.3424 H   0  0  0  0  0  0  0  0  0  0  0  0
  147.5009  132.8658  152.5148 H   0  0  0  0  0  0  0  0  0  0  0  0
  146.4656  132.9841  153.9285 H   0  0  0  0  0  0  0  0  0  0  0  0
  146.3808  134.7381  151.4037 H   0  0  0  0  0  0  0  0  0  0  0  0
  145.2107  133.5195  151.8691 H   0  0  0  0  0  0  0  0  0  0  0  0
  146.5188  136.7533  152.6801 H   0  0  0  0  0  0  0  0  0  0  0  0
  145.4472  136.9642  154.0497 H   0  0  0  0  0  0  0  0  0  0  0  0
  146.6196  135.2141  155.3408 H   0  0  0  0  0  0  0  0  0  0  0  0
  147.7439  136.4382  154.7725 H   0  0  0  0  0  0  0  0  0  0  0  0
  148.3835  134.9972  153.0156 H   0  0  0  0  0  0  0  0  0  0  0  0
  1  2  1  0  0  0  0
  1 23  1  0  0  0  0
  1 24  1  0  0  0  0
  1 25  1  0  0  0  0
  2  3  1  0  0  0  0
  2 17  1  0  0  0  0
  2 26  1  0  0  0  0
  3  4  1  0  0  0  0
  3 27  1  0  0  0  0
  3 28  1  0  0  0  0
  4  5  1  0  0  0  0
  4 29  1  0  0  0  0
  5  6  2  0  0  0  0
  5  7  1  0  0  0  0
  7  8  1  0  0  0  0
  7 30  1  0  0  0  0
  8 16  1  0  0  0  0
  8  9  2  0  0  0  0
  9 10  1  0  0  0  0
  9 31  1  0  0  0  0
 10 11  2  0  0  0  0
 10 32  1  0  0  0  0
 11 12  1  0  0  0  0
 11 15  1  0  0  0  0
 12 13  1  0  0  0  0
 12 14  1  0  0  0  0
 13 33  1  0  0  0  0
 13 34  1  0  0  0  0
 13 35  1  0  0  0  0
 14 36  1  0  0  0  0
 14 37  1  0  0  0  0
 14 38  1  0  0  0  0
 15 16  2  0  0  0  0
 16 39  1  0  0  0  0
 17 22  1  0  0  0  0
 17 18  1  0  0  0  0
 17 48  1  0  0  0  0
 18 19  1  0  0  0  0
 18 40  1  0  0  0  0
 18 41  1  0  0  0  0
 19 20  1  0  0  0  0
 19 42  1  0  0  0  0
 19 43  1  0  0  0  0
 20 21  1  0  0  0  0
 21 22  1  0  0  0  0
 21 44  1  0  0  0  0
 21 45  1  0  0  0  0
 22 46  1  0  0  0  0
 22 47  1  0  0  0  0
M  CHG  1  17   1
M  END
> <s_m_source_file>
AV-unprocessed.smi

> <i_m_source_file_index>
1239

> <i_lp_mmshare_version>
43012

> <i_f3d_flags>
0

> <s_epik_input>
W0NIMl0xW0NIMl1PW0NIMl1bQ0gyXU4xW0NASF0oW0NIM10pW0NIMl1bTkhdQyg9TylbTkhdYzJbY0hdW2NIXWMoTihbQ0gzXSlbQ0gzXSluW2NIXTI=

> <s_epik_cmdline>
J2VwaWtfcHl0aG9uJywgJy1waCcsICc3LjAnLCAnLXRuJywgJzgnLCAnLW1hJywgJzIwMCcsICctbWV0YWxfYmluZGluZycsICctaW1hZScsICc8aW5maWxlLm1hZT4nLCAnLW9tYWUnLCAnPG91dGZpbGUubWFlPic=

> <r_epik_Ionization_Penalty>
1.1428

> <r_epik_Ionization_Penalty_Charging>
0.602531

> <r_epik_Ionization_Penalty_Neutral>
0.540271

> <r_epik_State_Penalty>
1.1888

> <r_epik_Charging_Adjusted_Penalty>
1.79133

> <i_epik_Tot_Q>
1

> <i_epik_Tot_abs_Q>
1

> <r_epik_Metal_State_Penalty>
0.936295

> <b_epik_Metal_Only>
0

> <s_lp_Force_Field>
OPLS_2005

> <r_lp_Energy>
25.9365

> <b_lp_Chiralities_Consistent>
1

> <s_lp_Variant>
AV-unprocessed.smi:1239-8

> <Gold.Version>
5.8.1

> <Gold.Id.Protein>
6NUR|6NUR_protein|mol2

> <Gold.PLP.Fitness>
43.2564

> <Gold.PLP.PLP>
-32.8758

> <Gold.PLP.part.hbond>
-3.0000

> <Gold.PLP.part.metal>
0.0000

> <Gold.PLP.part.buried>
-3.9427

> <Gold.PLP.part.nonpolar>
-25.9484

> <Gold.PLP.part.repulsive>
0.1376

> <Gold.PLP.ligand.clash>
0.0000

> <Gold.PLP.ligand.torsion>
0.8467

> <Gold.PLP.Chemscore.Hbond>
4.0000

> <Gold.PLP.Chemscore.CHOScore>
0.0000

> <Gold.PLP.Chemscore.Metal>
0.0000

> <Gold.Chemscore.Hbonds>
donor molecule, donor type, donor heavy atom, donor atom, acceptor molecule, acceptor atom, score
      L1  H    17    48       P1  7948  2.00
      P1  H  7997  8010       L1    15  0.99
      P1  H 10752 10764       L1     6  1.00

> <Gold.PLP.Chemscore.Internal.Correction>
0.0741

> <Gold.Rescore>
     Score         DG    S(hbond)    S(metal)    S(lipo)     H(rot)  DE(clash)    DE(int)     intcor
     16.26     -18.60       2.72        0.00      66.95       1.48       0.01       2.32       ----

> <Gold.Chemscore.Fitness>
16.2631

> <Gold.Chemscore.DG>
-18.6006

> <Gold.Chemscore.ZeroCoef>
-5.4800

> <Gold.Chemscore.Hbond>
2.7198

> <Gold.Chemscore.Metal>
0.0000

> <Gold.Chemscore.Lipo>
66.9465

> <Gold.Chemscore.Internal_Hbond>
0.0000

> <Gold.Chemscore.DEClash>
0.0137

> <Gold.Chemscore.DEInternal>
2.3238

> <Gold.Chemscore.Rot>
1.4830

> <Gold.Chemscore.Internal.Correction>
   9.000000E+99

> <Gold.Chemscore.Hbonds>
donor molecule, donor type, donor heavy atom, donor atom, acceptor molecule, acceptor atom, score
      L1  H    17    48       P1  7948  0.78
      P1  H  7997  8010       L1    15  0.36
      P1  H 10752 10764       L1     6  0.98

> <Gold.Chemscore.Hbond.Weighted>
-9.0842

> <Gold.Chemscore.Metal.Weighted>
-0.0000

> <Gold.Chemscore.Lipo.Weighted>
-7.8327

> <Gold.Chemscore.Internal_Hbond.Weighted>
0.0000

> <Gold.Chemscore.DEClash.Weighted>
0.0137

> <Gold.Chemscore.DEInternal.Weighted>
2.3238

> <Gold.Chemscore.Rot.Weighted>
3.7964

> <Gold.Chemscore.Internal.Correction.Weighted>
   9.000000E+99

> <Gold.Protein.RotatedTorsions>
[ 6907 6896 6895 6894 ] final -115.93 input  -60.11 | X-H torsion
[ 7974 7965 7964 7962 ] final   -8.83 input  175.53 | X-H torsion
[ 8008 7997 7996 7995 ] final   20.78 input   59.86 | X-H torsion
[ 10167 10162 10161 10158 ] final  -44.03 input  -65.29 | X-H torsion
[ 10718 10713 10712 10709 ] final  175.76 input   66.30 | X-H torsion
[ 10763 10752 10751 10750 ] final  -44.72 input  -60.55 | X-H torsion
[ 11005 11000 10999 10996 ] final    6.46 input  -57.11 | X-H torsion

> <Gold.Protein.ActiveResidues>
 VAL166  LYS551  ARG553  GLY616  TRP617  ASP618  TYR619  PRO620  LYS621  CYS622 
 ASP623  PHE694  ASN695  SER759  ASP760  ASP761  ALA762  ILE779  LEU786  VAL792 
 PHE793  MET794  SER795  GLU796  ALA797  LYS798  CYS799  TRP800  GLU811  SER814 

> <Gold.Protein.RotatedAtoms>
  150.8016  133.8589  159.3225 H   0  0  0  0  0  0  0  0  0  0  0  0  # atno 6907 bound_to 6896
  151.6399  135.1012  160.0149 H   0  0  0  0  0  0  0  0  0  0  0  0  # atno 6908 bound_to 6896
  152.4103  133.6914  159.6427 H   0  0  0  0  0  0  0  0  0  0  0  0  # atno 6909 bound_to 6896
  146.2269  140.2526  142.8348 H   0  0  0  0  0  0  0  0  0  0  0  0  # atno 7974 bound_to 7965
  154.9408  140.3053  155.5122 H   0  0  0  0  0  0  0  0  0  0  0  0  # atno 8008 bound_to 7997
  156.2996  140.2337  156.4414 H   0  0  0  0  0  0  0  0  0  0  0  0  # atno 8009 bound_to 7997
  154.8147  140.0426  157.1357 H   0  0  0  0  0  0  0  0  0  0  0  0  # atno 8010 bound_to 7997
  140.6912  143.2951  151.3437 H   0  0  0  0  0  0  0  0  0  0  0  0  # atno 10167 bound_to 10162
  156.9302  130.9968  151.2988 H   0  0  0  0  0  0  0  0  0  0  0  0  # atno 10718 bound_to 10713
  154.0167  135.6674  153.4769 H   0  0  0  0  0  0  0  0  0  0  0  0  # atno 10763 bound_to 10752
  153.0597  135.5035  154.8061 H   0  0  0  0  0  0  0  0  0  0  0  0  # atno 10764 bound_to 10752
  154.6962  135.3070  154.9372 H   0  0  0  0  0  0  0  0  0  0  0  0  # atno 10765 bound_to 10752
  140.5592  134.0208  155.7965 H   0  0  0  0  0  0  0  0  0  0  0  0  # atno 11005 bound_to 11000
  144.9400  140.8068  143.5636 LP  0  0  0  0  0  0  0  0  0  0  0  0  # atno 17320 bound_to 7965
  145.2477  139.2045  143.4959 LP  0  0  0  0  0  0  0  0  0  0  0  0  # atno 17321 bound_to 7965
  139.6317  144.0708  152.2482 LP  0  0  0  0  0  0  0  0  0  0  0  0  # atno 17342 bound_to 10162
  140.0185  144.6171  150.7587 LP  0  0  0  0  0  0  0  0  0  0  0  0  # atno 17343 bound_to 10162
  157.5852  130.8404  149.8579 LP  0  0  0  0  0  0  0  0  0  0  0  0  # atno 17370 bound_to 10713
  156.0451  130.3730  150.1338 LP  0  0  0  0  0  0  0  0  0  0  0  0  # atno 17371 bound_to 10713
  141.1125  133.9594  157.2884 LP  0  0  0  0  0  0  0  0  0  0  0  0  # atno 17394 bound_to 11000
  139.9416  135.0190  156.8726 LP  0  0  0  0  0  0  0  0  0  0  0  0  # atno 17395 bound_to 11000

$$$$
