AV-unprocessed.smi:1512|AV-procd|sdf|6101|dock9
  -GOLD-   22720 6233D 1   1.00000     0.00000
 Structure written by MMmdl.
 44 46  0  0  0  0  0  0  0  0  3 V2000
  150.9975  140.4547  158.1328 C   0  0  0  0  0  0  0  0  0  0  0  0
  151.0987  141.8351  157.4624 C   0  0  1  0  0  0  0  0  0  0  0  0
  149.9945  141.9684  156.5135 N   0  0  0  0  0  0  0  0  0  0  0  0
  149.8771  141.3216  155.3438 C   0  0  0  0  0  0  0  0  0  0  0  0
  150.6765  140.4709  154.9516 O   0  0  0  0  0  0  0  0  0  0  0  0
  148.6597  141.6944  154.4876 C   0  0  0  0  0  0  0  0  0  0  0  0
  147.7620  140.5503  154.2549 N   0  0  0  0  0  0  0  0  0  0  0  0
  147.5617  140.1564  152.9187 C   0  0  0  0  0  0  0  0  0  0  0  0
  146.7559  139.1352  152.5943 C   0  0  0  0  0  0  0  0  0  0  0  0
  146.0852  138.4298  153.6589 C   0  0  0  0  0  0  0  0  0  0  0  0
  146.2619  138.7899  154.9512 C   0  0  0  0  0  0  0  0  0  0  0  0
  145.5622  138.0389  155.9684 N   0  3  0  0  0  0  0  0  0  0  0  0
  145.6847  138.3737  157.1426 O   0  0  0  0  0  0  0  0  0  0  0  0
  144.8782  137.0802  155.6220 O   0  5  0  0  0  0  0  0  0  0  0  0
  147.1453  139.9208  155.3039 C   0  0  0  0  0  0  0  0  0  0  0  0
  147.3210  140.2955  156.4651 O   0  0  0  0  0  0  0  0  0  0  0  0
  151.0496  143.0054  158.4764 C   0  0  2  0  0  0  0  0  0  0  0  0
  151.2444  144.4031  157.8328 C   0  0  0  0  0  0  0  0  0  0  0  0
  152.3869  145.0191  158.6581 C   0  0  1  0  0  0  0  0  0  0  0  0
  151.8918  145.3212  160.0841 C   0  0  0  0  0  0  0  0  0  0  0  0
  151.7745  143.9171  160.7053 C   0  0  0  0  0  0  0  0  0  0  0  0
  152.1777  142.9940  159.5391 C   0  0  2  0  0  0  0  0  0  0  0  0
  153.2850  143.8103  158.8793 C   0  0  0  0  0  0  0  0  0  0  0  0
  151.8397  140.2625  158.7962 H   0  0  0  0  0  0  0  0  0  0  0  0
  150.9920  139.6589  157.3870 H   0  0  0  0  0  0  0  0  0  0  0  0
  150.0829  140.3644  158.7201 H   0  0  0  0  0  0  0  0  0  0  0  0
  152.0516  141.8792  156.9329 H   0  0  0  0  0  0  0  0  0  0  0  0
  149.2804  142.6424  156.7485 H   0  0  0  0  0  0  0  0  0  0  0  0
  148.1333  142.5096  154.9858 H   0  0  0  0  0  0  0  0  0  0  0  0
  148.9872  142.1081  153.5316 H   0  0  0  0  0  0  0  0  0  0  0  0
  148.0933  140.7390  152.1803 H   0  0  0  0  0  0  0  0  0  0  0  0
  146.6101  138.8503  151.5627 H   0  0  0  0  0  0  0  0  0  0  0  0
  145.4415  137.5995  153.4069 H   0  0  0  0  0  0  0  0  0  0  0  0
  150.0802  142.9724  158.9765 H   0  0  0  0  0  0  0  0  0  0  0  0
  151.5507  144.3278  156.7887 H   0  0  0  0  0  0  0  0  0  0  0  0
  150.3359  145.0055  157.8644 H   0  0  0  0  0  0  0  0  0  0  0  0
  152.8675  145.8685  158.1719 H   0  0  0  0  0  0  0  0  0  0  0  0
  152.6190  145.9231  160.6308 H   0  0  0  0  0  0  0  0  0  0  0  0
  150.9424  145.8577  160.0853 H   0  0  0  0  0  0  0  0  0  0  0  0
  152.4687  143.8101  161.5398 H   0  0  0  0  0  0  0  0  0  0  0  0
  150.7718  143.7071  161.0792 H   0  0  0  0  0  0  0  0  0  0  0  0
  152.4821  142.0031  159.8732 H   0  0  0  0  0  0  0  0  0  0  0  0
  153.6591  143.3725  157.9522 H   0  0  0  0  0  0  0  0  0  0  0  0
  154.1276  144.0140  159.5428 H   0  0  0  0  0  0  0  0  0  0  0  0
  1  2  1  0  0  0  0
  1 24  1  0  0  0  0
  1 25  1  0  0  0  0
  1 26  1  0  0  0  0
  2  3  1  0  0  0  0
  2 17  1  0  0  0  0
  2 27  1  0  0  0  0
  3  4  1  0  0  0  0
  3 28  1  0  0  0  0
  4  5  2  0  0  0  0
  4  6  1  0  0  0  0
  6  7  1  0  0  0  0
  6 29  1  0  0  0  0
  6 30  1  0  0  0  0
  7 15  1  0  0  0  0
  7  8  1  0  0  0  0
  8  9  2  0  0  0  0
  8 31  1  0  0  0  0
  9 10  1  0  0  0  0
  9 32  1  0  0  0  0
 10 11  2  0  0  0  0
 10 33  1  0  0  0  0
 11 12  1  0  0  0  0
 11 15  1  0  0  0  0
 12 13  2  0  0  0  0
 12 14  1  0  0  0  0
 15 16  2  0  0  0  0
 17 22  1  0  0  0  0
 17 18  1  0  0  0  0
 17 34  1  0  0  0  0
 18 19  1  0  0  0  0
 18 35  1  0  0  0  0
 18 36  1  0  0  0  0
 19 23  1  0  0  0  0
 19 20  1  0  0  0  0
 19 37  1  0  0  0  0
 20 21  1  0  0  0  0
 20 38  1  0  0  0  0
 20 39  1  0  0  0  0
 21 22  1  0  0  0  0
 21 40  1  0  0  0  0
 21 41  1  0  0  0  0
 22 23  1  0  0  0  0
 22 42  1  0  0  0  0
 23 43  1  0  0  0  0
 23 44  1  0  0  0  0
M  CHG  1  12   1
M  CHG  1  14  -1
M  END
> <s_m_source_file>
AV-unprocessed.smi

> <i_m_source_file_index>
1512

> <i_lp_mmshare_version>
43012

> <i_f3d_flags>
0

> <s_epik_input>
W0NIMl0xW0NIMl1bQ0BIXShbQ0gyXTIpW0NAQEhdKFtDSDJdW0NAQEhdMTIpW0NASF0oW0NIM10pW05IXUMoPU8pW0NIMl1uM1tjSF1bY0hdW2NIXWMoW04rXSg9TylbTy1dKWMzPU8=

> <s_epik_cmdline>
J2VwaWtfcHl0aG9uJywgJy1waCcsICc3LjAnLCAnLXRuJywgJzgnLCAnLW1hJywgJzIwMCcsICctbWV0YWxfYmluZGluZycsICctaW1hZScsICc8aW5maWxlLm1hZT4nLCAnLW9tYWUnLCAnPG91dGZpbGUubWFlPic=

> <r_lp_tautomer_probability>
1

> <r_epik_Ionization_Penalty>
2.17697e-08

> <r_epik_Ionization_Penalty_Charging>
1.42735e-10

> <r_epik_Ionization_Penalty_Neutral>
2.16269e-08

> <r_epik_State_Penalty>
-0

> <r_epik_Charging_Adjusted_Penalty>
1.42735e-10

> <i_epik_Tot_Q>
0

> <i_epik_Tot_abs_Q>
2

> <r_epik_Metal_State_Penalty>
-0

> <b_epik_Metal_Only>
0

> <s_lp_Force_Field>
OPLS_2005

> <r_lp_Energy>
64.6124

> <b_lp_Chiralities_Consistent>
1

> <s_lp_Variant>
AV-unprocessed.smi:1512-2

> <Gold.Version>
5.8.1

> <Gold.Id.Protein>
6NUR|6NUR_protein|mol2

> <Gold.PLP.Fitness>
48.0408

> <Gold.PLP.PLP>
-42.9097

> <Gold.PLP.part.hbond>
-1.7911

> <Gold.PLP.part.metal>
0.0000

> <Gold.PLP.part.buried>
-1.4136

> <Gold.PLP.part.nonpolar>
-39.7369

> <Gold.PLP.part.repulsive>
0.1444

> <Gold.PLP.ligand.clash>
0.0000

> <Gold.PLP.ligand.torsion>
0.1649

> <Gold.PLP.Chemscore.Hbond>
1.0416

> <Gold.PLP.Chemscore.CHOScore>
0.7599

> <Gold.PLP.Chemscore.Metal>
0.0000

> <Gold.Chemscore.Hbonds>
donor molecule, donor type, donor heavy atom, donor atom, acceptor molecule, acceptor atom, score
      L1  H     3    28       P1  8028  0.07
      P1  H  7989  7998       L1     5  1.00
      L1  C     8    31       P1  7957  0.67

> <Gold.PLP.Chemscore.Internal.Correction>
0.0565

> <Gold.Rescore>
     Score         DG    S(hbond)    S(metal)    S(lipo)     H(rot)  DE(clash)    DE(int)     intcor
     15.83     -19.17       0.97        0.00     127.69       1.75       1.45       1.89       ----

> <Gold.Chemscore.Fitness>
15.8309

> <Gold.Chemscore.DG>
-19.1725

> <Gold.Chemscore.ZeroCoef>
-5.4800

> <Gold.Chemscore.Hbond>
0.9658

> <Gold.Chemscore.Metal>
0.0000

> <Gold.Chemscore.Lipo>
127.6931

> <Gold.Chemscore.Internal_Hbond>
0.0000

> <Gold.Chemscore.DEClash>
1.4507

> <Gold.Chemscore.DEInternal>
1.8909

> <Gold.Chemscore.Rot>
1.7474

> <Gold.Chemscore.Internal.Correction>
   9.000000E+99

> <Gold.Chemscore.Hbonds>
donor molecule, donor type, donor heavy atom, donor atom, acceptor molecule, acceptor atom, score
      L1  H     3    28       P1  8028  0.09
      P1  H  7989  7998       L1     5  0.89

> <Gold.Chemscore.Hbond.Weighted>
-3.2257

> <Gold.Chemscore.Metal.Weighted>
-0.0000

> <Gold.Chemscore.Lipo.Weighted>
-14.9401

> <Gold.Chemscore.Internal_Hbond.Weighted>
0.0000

> <Gold.Chemscore.DEClash.Weighted>
1.4507

> <Gold.Chemscore.DEInternal.Weighted>
1.8909

> <Gold.Chemscore.Rot.Weighted>
4.4733

> <Gold.Chemscore.Internal.Correction.Weighted>
   9.000000E+99

> <Gold.Protein.RotatedTorsions>
[ 6907 6896 6895 6894 ] final   25.19 input  -60.11 | X-H torsion
[ 7974 7965 7964 7962 ] final  -26.54 input  175.53 | X-H torsion
[ 8008 7997 7996 7995 ] final  142.57 input   59.86 | X-H torsion
[ 10167 10162 10161 10158 ] final   14.80 input  -65.29 | X-H torsion
[ 10718 10713 10712 10709 ] final  -21.62 input   66.30 | X-H torsion
[ 10763 10752 10751 10750 ] final  -34.71 input  -60.55 | X-H torsion
[ 11005 11000 10999 10996 ] final  170.76 input  -57.11 | X-H torsion

> <Gold.Protein.ActiveResidues>
 VAL166  LYS551  ARG553  GLY616  TRP617  ASP618  TYR619  PRO620  LYS621  CYS622 
 ASP623  PHE694  ASN695  SER759  ASP760  ASP761  ALA762  ILE779  LEU786  VAL792 
 PHE793  MET794  SER795  GLU796  ALA797  LYS798  CYS799  TRP800  GLU811  SER814 

> <Gold.Protein.RotatedAtoms>
  151.9688  135.0087  160.0551 H   0  0  0  0  0  0  0  0  0  0  0  0  # atno 6907 bound_to 6896
  152.1802  133.4697  159.4962 H   0  0  0  0  0  0  0  0  0  0  0  0  # atno 6908 bound_to 6896
  150.6916  134.1760  159.4273 H   0  0  0  0  0  0  0  0  0  0  0  0  # atno 6909 bound_to 6896
  146.1418  140.5033  142.8648 H   0  0  0  0  0  0  0  0  0  0  0  0  # atno 7974 bound_to 7965
  156.2947  140.2285  156.4749 H   0  0  0  0  0  0  0  0  0  0  0  0  # atno 8008 bound_to 7997
  154.7903  140.0454  157.1217 H   0  0  0  0  0  0  0  0  0  0  0  0  # atno 8009 bound_to 7997
  154.9653  140.3059  155.5015 H   0  0  0  0  0  0  0  0  0  0  0  0  # atno 8010 bound_to 7997
  140.5911  143.8793  150.6874 H   0  0  0  0  0  0  0  0  0  0  0  0  # atno 10167 bound_to 10162
  156.5156  130.4620  149.6624 H   0  0  0  0  0  0  0  0  0  0  0  0  # atno 10718 bound_to 10713
  153.8513  135.6848  153.4792 H   0  0  0  0  0  0  0  0  0  0  0  0  # atno 10763 bound_to 10752
  153.1396  135.4663  154.9473 H   0  0  0  0  0  0  0  0  0  0  0  0  # atno 10764 bound_to 10752
  154.7801  135.3266  154.7956 H   0  0  0  0  0  0  0  0  0  0  0  0  # atno 10765 bound_to 10752
  140.3118  134.7510  157.3997 H   0  0  0  0  0  0  0  0  0  0  0  0  # atno 11005 bound_to 11000
  144.7801  140.5823  143.6611 LP  0  0  0  0  0  0  0  0  0  0  0  0  # atno 17320 bound_to 7965
  145.5028  139.1482  143.3647 LP  0  0  0  0  0  0  0  0  0  0  0  0  # atno 17321 bound_to 7965
  140.2316  143.3731  152.1560 LP  0  0  0  0  0  0  0  0  0  0  0  0  # atno 17342 bound_to 10162
  139.5228  144.7063  151.5343 LP  0  0  0  0  0  0  0  0  0  0  0  0  # atno 17343 bound_to 10162
  156.3198  130.7274  151.2184 LP  0  0  0  0  0  0  0  0  0  0  0  0  # atno 17370 bound_to 10713
  157.7444  131.0458  150.4864 LP  0  0  0  0  0  0  0  0  0  0  0  0  # atno 17371 bound_to 10713
  140.1018  134.5462  155.8346 LP  0  0  0  0  0  0  0  0  0  0  0  0  # atno 17394 bound_to 11000
  141.2106  133.6697  156.6524 LP  0  0  0  0  0  0  0  0  0  0  0  0  # atno 17395 bound_to 11000

$$$$
