AV-unprocessed.smi:1570|AV-procd|sdf|6313|dock5
  -GOLD-   22720 6513D 1   1.00000     0.00000
 Structure written by MMmdl.
 51 53  0  0  0  0  0  0  0  0  1 V2000
  145.6691  142.5140  158.5956 C   0  0  0  0  0  0  0  0  0  0  0  0
  144.6736  142.3529  157.4400 C   0  0  0  0  0  0  0  0  0  0  0  0
  145.3480  142.4269  156.1462 N   0  0  0  0  0  0  0  0  0  0  0  0
  146.2798  141.5668  155.6728 C   0  0  0  0  0  0  0  0  0  0  0  0
  146.7135  140.5764  156.2614 O   0  0  0  0  0  0  0  0  0  0  0  0
  146.6475  141.9805  154.4367 N   0  0  0  0  0  0  0  0  0  0  0  0
  147.6472  141.3484  153.5727 C   0  0  0  0  0  0  0  0  0  0  0  0
  148.7066  140.5517  154.3691 C   0  0  1  0  0  0  0  0  0  0  0  0
  149.3979  139.6703  153.5085 O   0  0  0  0  0  0  0  0  0  0  0  0
  149.7044  141.4027  155.1906 C   0  0  0  0  0  0  0  0  0  0  0  0
  150.4150  140.7175  156.2721 N   0  0  0  0  0  0  0  0  0  0  0  0
  151.0843  141.6359  157.1885 C   0  0  0  0  0  0  0  0  0  0  0  0
  151.8281  140.8882  158.3122 C   0  0  2  0  0  0  0  0  0  0  0  0
  152.6099  141.8411  159.2222 C   0  0  0  0  0  0  0  0  0  0  0  0
  152.7470  139.9647  157.7347 O   0  0  0  0  0  0  0  0  0  0  0  0
  152.1253  139.0187  156.8696 C   0  0  2  0  0  0  0  0  0  0  0  0
  153.2046  138.0761  156.3277 C   0  0  0  0  0  0  0  0  0  0  0  0
  151.3943  139.7755  155.7452 C   0  0  0  0  0  0  0  0  0  0  0  0
  145.9018  143.1214  154.0961 C   0  0  0  0  0  0  0  0  0  0  0  0
  145.8884  143.9118  152.9324 C   0  0  0  0  0  0  0  0  0  0  0  0
  145.0115  145.0210  152.9100 C   0  0  0  0  0  0  0  0  0  0  0  0
  144.1787  145.3107  154.0211 C   0  0  0  0  0  0  0  0  0  0  0  0
  144.2058  144.4974  155.1777 C   0  0  0  0  0  0  0  0  0  0  0  0
  145.0900  143.4042  155.1751 C   0  0  0  0  0  0  0  0  0  0  0  0
  145.1604  142.4467  159.5573 H   0  0  0  0  0  0  0  0  0  0  0  0
  146.1706  143.4815  158.5524 H   0  0  0  0  0  0  0  0  0  0  0  0
  146.4343  141.7376  158.5691 H   0  0  0  0  0  0  0  0  0  0  0  0
  144.1500  141.4004  157.5271 H   0  0  0  0  0  0  0  0  0  0  0  0
  143.9055  143.1251  157.5025 H   0  0  0  0  0  0  0  0  0  0  0  0
  147.1319  140.6821  152.8791 H   0  0  0  0  0  0  0  0  0  0  0  0
  148.1344  142.0984  152.9504 H   0  0  0  0  0  0  0  0  0  0  0  0
  148.1876  139.9018  155.0741 H   0  0  0  0  0  0  0  0  0  0  0  0
  149.1832  139.8946  152.6157 H   0  0  0  0  0  0  0  0  0  0  0  0
  150.4498  141.7661  154.4817 H   0  0  0  0  0  0  0  0  0  0  0  0
  149.2107  142.2985  155.5703 H   0  0  0  0  0  0  0  0  0  0  0  0
  151.7881  142.2600  156.6355 H   0  0  0  0  0  0  0  0  0  0  0  0
  150.3586  142.3086  157.6432 H   0  0  0  0  0  0  0  0  0  0  0  0
  151.1097  140.3357  158.9199 H   0  0  0  0  0  0  0  0  0  0  0  0
  151.9453  142.5627  159.6978 H   0  0  0  0  0  0  0  0  0  0  0  0
  153.3606  142.3969  158.6594 H   0  0  0  0  0  0  0  0  0  0  0  0
  153.1237  141.2920  160.0114 H   0  0  0  0  0  0  0  0  0  0  0  0
  151.4057  138.4328  157.4441 H   0  0  0  0  0  0  0  0  0  0  0  0
  152.7724  137.3236  155.6676 H   0  0  0  0  0  0  0  0  0  0  0  0
  153.7094  137.5541  157.1410 H   0  0  0  0  0  0  0  0  0  0  0  0
  153.9599  138.6237  155.7633 H   0  0  0  0  0  0  0  0  0  0  0  0
  150.8980  139.0552  155.0936 H   0  0  0  0  0  0  0  0  0  0  0  0
  152.1215  140.3060  155.1283 H   0  0  0  0  0  0  0  0  0  0  0  0
  146.5242  143.6940  152.0877 H   0  0  0  0  0  0  0  0  0  0  0  0
  144.9768  145.6551  152.0363 H   0  0  0  0  0  0  0  0  0  0  0  0
  143.5153  146.1622  153.9830 H   0  0  0  0  0  0  0  0  0  0  0  0
  143.5715  144.7116  156.0250 H   0  0  0  0  0  0  0  0  0  0  0  0
  1  2  1  0  0  0  0
  1 25  1  0  0  0  0
  1 26  1  0  0  0  0
  1 27  1  0  0  0  0
  2  3  1  0  0  0  0
  2 28  1  0  0  0  0
  2 29  1  0  0  0  0
  3 24  1  0  0  0  0
  3  4  1  0  0  0  0
  4  5  2  0  0  0  0
  4  6  1  0  0  0  0
  6  7  1  0  0  0  0
  6 19  1  0  0  0  0
  7  8  1  0  0  0  0
  7 30  1  0  0  0  0
  7 31  1  0  0  0  0
  8  9  1  0  0  0  0
  8 10  1  0  0  0  0
  8 32  1  0  0  0  0
  9 33  1  0  0  0  0
 10 11  1  0  0  0  0
 10 34  1  0  0  0  0
 10 35  1  0  0  0  0
 11 18  1  0  0  0  0
 11 12  1  0  0  0  0
 12 13  1  0  0  0  0
 12 36  1  0  0  0  0
 12 37  1  0  0  0  0
 13 14  1  0  0  0  0
 13 15  1  0  0  0  0
 13 38  1  0  0  0  0
 14 39  1  0  0  0  0
 14 40  1  0  0  0  0
 14 41  1  0  0  0  0
 15 16  1  0  0  0  0
 16 17  1  0  0  0  0
 16 18  1  0  0  0  0
 16 42  1  0  0  0  0
 17 43  1  0  0  0  0
 17 44  1  0  0  0  0
 17 45  1  0  0  0  0
 18 46  1  0  0  0  0
 18 47  1  0  0  0  0
 19 24  2  0  0  0  0
 19 20  1  0  0  0  0
 20 21  2  0  0  0  0
 20 48  1  0  0  0  0
 21 22  1  0  0  0  0
 21 49  1  0  0  0  0
 22 23  2  0  0  0  0
 22 50  1  0  0  0  0
 23 24  1  0  0  0  0
 23 51  1  0  0  0  0
M  END
> <s_m_source_file>
AV-unprocessed.smi

> <i_m_source_file_index>
1570

> <i_lp_mmshare_version>
43012

> <i_f3d_flags>
0

> <s_epik_input>
W2NIXTFbY0hdW2NIXVtjSF1jKGMxMiluKFtDSDJdW0NIM10pYyg9TyluMltDSDJdW0NASF0oW09IXSlbQ0gyXU4zW0NIMl1bQ0BASF0oW0NIM10pT1tDQEBIXShbQ0gzXSlbQ0gyXTM=

> <s_epik_cmdline>
J2VwaWtfcHl0aG9uJywgJy1waCcsICc3LjAnLCAnLXRuJywgJzgnLCAnLW1hJywgJzIwMCcsICctbWV0YWxfYmluZGluZycsICctaW1hZScsICc8aW5maWxlLm1hZT4nLCAnLW9tYWUnLCAnPG91dGZpbGUubWFlPic=

> <r_epik_Ionization_Penalty>
0.214359

> <r_epik_Ionization_Penalty_Charging>
2.30976e-09

> <r_epik_Ionization_Penalty_Neutral>
0.214359

> <r_epik_State_Penalty>
0.204533

> <r_epik_Charging_Adjusted_Penalty>
0.204533

> <i_epik_Tot_Q>
0

> <i_epik_Tot_abs_Q>
0

> <r_epik_Metal_State_Penalty>
0.204533

> <b_epik_Metal_Only>
0

> <s_lp_Force_Field>
OPLS_2005

> <r_lp_Energy>
59.6928

> <b_lp_Chiralities_Consistent>
1

> <s_lp_Variant>
AV-unprocessed.smi:1570-2

> <Gold.Version>
5.8.1

> <Gold.Id.Protein>
6NUR|6NUR_protein|mol2

> <Gold.PLP.Fitness>
50.0030

> <Gold.PLP.PLP>
-45.3332

> <Gold.PLP.part.hbond>
-1.6793

> <Gold.PLP.part.metal>
0.0000

> <Gold.PLP.part.buried>
-6.2523

> <Gold.PLP.part.nonpolar>
-37.5800

> <Gold.PLP.part.repulsive>
0.0522

> <Gold.PLP.ligand.clash>
0.0597

> <Gold.PLP.ligand.torsion>
0.6646

> <Gold.PLP.Chemscore.Hbond>
1.9833

> <Gold.PLP.Chemscore.CHOScore>
0.0000

> <Gold.PLP.Chemscore.Metal>
0.0000

> <Gold.Chemscore.Hbonds>
donor molecule, donor type, donor heavy atom, donor atom, acceptor molecule, acceptor atom, score
      L1  H     9    33       P1  7957  0.97
      P1  H  7997  8010       L1    15  1.00

> <Gold.PLP.Chemscore.Internal.Correction>
0.1088

> <Gold.Rescore>
     Score         DG    S(hbond)    S(metal)    S(lipo)     H(rot)  DE(clash)    DE(int)     intcor
     14.30     -18.38       1.75        0.00     105.19       2.06       0.03       4.04       ----

> <Gold.Chemscore.Fitness>
14.3038

> <Gold.Chemscore.DG>
-18.3781

> <Gold.Chemscore.ZeroCoef>
-5.4800

> <Gold.Chemscore.Hbond>
1.7538

> <Gold.Chemscore.Metal>
0.0000

> <Gold.Chemscore.Lipo>
105.1900

> <Gold.Chemscore.Internal_Hbond>
0.0000

> <Gold.Chemscore.DEClash>
0.0305

> <Gold.Chemscore.DEInternal>
4.0438

> <Gold.Chemscore.Rot>
2.0574

> <Gold.Chemscore.Internal.Correction>
   9.000000E+99

> <Gold.Chemscore.Hbonds>
donor molecule, donor type, donor heavy atom, donor atom, acceptor molecule, acceptor atom, score
      L1  H     9    33       P1  7957  0.87
      P1  H  7997  8010       L1    15  0.28

> <Gold.Chemscore.Hbond.Weighted>
-5.8578

> <Gold.Chemscore.Metal.Weighted>
-0.0000

> <Gold.Chemscore.Lipo.Weighted>
-12.3072

> <Gold.Chemscore.Internal_Hbond.Weighted>
0.0000

> <Gold.Chemscore.DEClash.Weighted>
0.0305

> <Gold.Chemscore.DEInternal.Weighted>
4.0438

> <Gold.Chemscore.Rot.Weighted>
5.2669

> <Gold.Chemscore.Internal.Correction.Weighted>
   9.000000E+99

> <Gold.Protein.RotatedTorsions>
[ 6907 6896 6895 6894 ] final  -34.59 input  -60.11 | X-H torsion
[ 7974 7965 7964 7962 ] final -173.66 input  175.53 | X-H torsion
[ 8008 7997 7996 7995 ] final   37.57 input   59.86 | X-H torsion
[ 10167 10162 10161 10158 ] final   85.04 input  -65.29 | X-H torsion
[ 10718 10713 10712 10709 ] final  121.78 input   66.30 | X-H torsion
[ 10763 10752 10751 10750 ] final   48.44 input  -60.55 | X-H torsion
[ 11005 11000 10999 10996 ] final -101.40 input  -57.11 | X-H torsion

> <Gold.Protein.ActiveResidues>
 VAL166  LYS551  ARG553  GLY616  TRP617  ASP618  TYR619  PRO620  LYS621  CYS622 
 ASP623  PHE694  ASN695  SER759  ASP760  ASP761  ALA762  ILE779  LEU786  VAL792 
 PHE793  MET794  SER795  GLU796  ALA797  LYS798  CYS799  TRP800  GLU811  SER814 

> <Gold.Protein.RotatedAtoms>
  151.0506  134.9670  159.8209 H   0  0  0  0  0  0  0  0  0  0  0  0  # atno 6907 bound_to 6896
  152.5380  134.2542  159.8920 H   0  0  0  0  0  0  0  0  0  0  0  0  # atno 6908 bound_to 6896
  151.2557  133.4284  159.2647 H   0  0  0  0  0  0  0  0  0  0  0  0  # atno 6909 bound_to 6896
  144.7136  140.1588  143.6378 H   0  0  0  0  0  0  0  0  0  0  0  0  # atno 7974 bound_to 7965
  155.2060  140.3319  155.4336 H   0  0  0  0  0  0  0  0  0  0  0  0  # atno 8008 bound_to 7997
  156.2389  140.1885  156.7093 H   0  0  0  0  0  0  0  0  0  0  0  0  # atno 8009 bound_to 7997
  154.6110  140.0609  156.9479 H   0  0  0  0  0  0  0  0  0  0  0  0  # atno 8010 bound_to 7997
  139.9018  144.6325  150.8629 H   0  0  0  0  0  0  0  0  0  0  0  0  # atno 10167 bound_to 10162
  157.5792  131.1076  150.8220 H   0  0  0  0  0  0  0  0  0  0  0  0  # atno 10718 bound_to 10713
  152.9792  135.5944  154.3926 H   0  0  0  0  0  0  0  0  0  0  0  0  # atno 10763 bound_to 10752
  154.3580  135.2767  155.2337 H   0  0  0  0  0  0  0  0  0  0  0  0  # atno 10764 bound_to 10752
  154.4347  135.6027  153.6146 H   0  0  0  0  0  0  0  0  0  0  0  0  # atno 10765 bound_to 10752
  141.1232  133.8475  157.1227 H   0  0  0  0  0  0  0  0  0  0  0  0  # atno 11005 bound_to 11000
  145.9049  139.2452  143.1472 LP  0  0  0  0  0  0  0  0  0  0  0  0  # atno 17320 bound_to 7965
  145.9774  140.8711  143.0132 LP  0  0  0  0  0  0  0  0  0  0  0  0  # atno 17321 bound_to 7965
  140.7705  143.3431  151.2167 LP  0  0  0  0  0  0  0  0  0  0  0  0  # atno 17342 bound_to 10162
  139.7018  143.9520  152.2909 LP  0  0  0  0  0  0  0  0  0  0  0  0  # atno 17343 bound_to 10162
  156.8671  130.5133  149.5299 LP  0  0  0  0  0  0  0  0  0  0  0  0  # atno 17370 bound_to 10713
  156.0837  130.5841  150.9610 LP  0  0  0  0  0  0  0  0  0  0  0  0  # atno 17371 bound_to 10713
  140.0207  134.9947  157.0586 LP  0  0  0  0  0  0  0  0  0  0  0  0  # atno 17394 bound_to 11000
  140.4444  134.1647  155.7176 LP  0  0  0  0  0  0  0  0  0  0  0  0  # atno 17395 bound_to 11000

$$$$
