AV-unprocessed.smi:2949|AV-procd|sdf|11285|dock5
  -GOLD-   2272016173D 1   1.00000     0.00000
 Structure written by MMmdl.
 35 36  0  0  0  0  0  0  0  0  2 V2000
  142.7534  134.1282  154.1616 N   0  0  0  0  0  0  0  0  0  0  0  0
  143.3448  134.3050  152.9776 C   0  0  0  0  0  0  0  0  0  0  0  0
  143.7343  133.0251  151.8679 S   0  0  0  0  0  0  0  0  0  0  0  0
  144.3929  134.1816  150.7504 C   0  0  0  0  0  0  0  0  0  0  0  0
  144.2987  135.4588  151.2368 C   0  0  0  0  0  0  0  0  0  0  0  0
  143.7058  135.5134  152.4968 N   0  3  0  0  0  0  0  0  0  0  0  0
  143.4846  136.7803  153.2233 C   0  0  0  0  0  0  0  0  0  0  0  0
  144.7826  137.5466  153.5161 C   0  0  0  0  0  0  0  0  0  0  0  0
  145.1860  137.6549  154.6773 O   0  0  0  0  0  0  0  0  0  0  0  0
  145.3933  138.0522  152.4201 N   0  0  0  0  0  0  0  0  0  0  0  0
  146.5298  138.7774  152.2884 C   0  0  0  0  0  0  0  0  0  0  0  0
  147.0634  138.9088  151.1882 O   0  0  0  0  0  0  0  0  0  0  0  0
  147.0350  139.3366  153.4041 N   0  0  0  0  0  0  0  0  0  0  0  0
  147.9704  140.4568  153.4407 C   0  0  0  0  0  0  0  0  0  0  0  0
  149.2461  140.1126  154.2381 C   0  0  0  0  0  0  0  0  0  0  0  0
  149.4385  141.2494  155.2439 C   0  0  0  0  0  0  0  0  0  0  0  0
  148.0262  141.7587  155.5129 C   0  0  0  0  0  0  0  0  0  0  0  0
  147.3335  141.6631  154.1538 C   0  0  0  0  0  0  0  0  0  0  0  0
  142.5369  134.8977  154.7786 H   0  0  0  0  0  0  0  0  0  0  0  0
  144.8043  133.8531  149.8072 H   0  0  0  0  0  0  0  0  0  0  0  0
  144.6136  136.3823  150.7723 H   0  0  0  0  0  0  0  0  0  0  0  0
  142.7960  137.4048  152.6524 H   0  0  0  0  0  0  0  0  0  0  0  0
  142.9867  136.5460  154.1653 H   0  0  0  0  0  0  0  0  0  0  0  0
  144.9222  137.8599  151.5479 H   0  0  0  0  0  0  0  0  0  0  0  0
  146.7405  138.9614  154.2948 H   0  0  0  0  0  0  0  0  0  0  0  0
  148.2275  140.7456  152.4198 H   0  0  0  0  0  0  0  0  0  0  0  0
  149.1205  139.1751  154.7824 H   0  0  0  0  0  0  0  0  0  0  0  0
  150.1148  139.9932  153.5899 H   0  0  0  0  0  0  0  0  0  0  0  0
  149.9495  140.9259  156.1511 H   0  0  0  0  0  0  0  0  0  0  0  0
  150.0336  142.0437  154.7914 H   0  0  0  0  0  0  0  0  0  0  0  0
  147.5283  141.1015  156.2271 H   0  0  0  0  0  0  0  0  0  0  0  0
  148.0129  142.7692  155.9220 H   0  0  0  0  0  0  0  0  0  0  0  0
  147.5430  142.5684  153.5822 H   0  0  0  0  0  0  0  0  0  0  0  0
  146.2491  141.5893  154.2489 H   0  0  0  0  0  0  0  0  0  0  0  0
  142.4693  133.2174  154.4930 H   0  0  0  0  0  0  0  0  0  0  0  0
  1  2  1  0  0  0  0
  1 19  1  0  0  0  0
  1 35  1  0  0  0  0
  2  6  2  0  0  0  0
  2  3  1  0  0  0  0
  3  4  1  0  0  0  0
  4  5  2  0  0  0  0
  4 20  1  0  0  0  0
  5  6  1  0  0  0  0
  5 21  1  0  0  0  0
  6  7  1  0  0  0  0
  7  8  1  0  0  0  0
  7 22  1  0  0  0  0
  7 23  1  0  0  0  0
  8  9  2  0  0  0  0
  8 10  1  0  0  0  0
 10 11  1  0  0  0  0
 10 24  1  0  0  0  0
 11 12  2  0  0  0  0
 11 13  1  0  0  0  0
 13 14  1  0  0  0  0
 13 25  1  0  0  0  0
 14 18  1  0  0  0  0
 14 15  1  0  0  0  0
 14 26  1  0  0  0  0
 15 16  1  0  0  0  0
 15 27  1  0  0  0  0
 15 28  1  0  0  0  0
 16 17  1  0  0  0  0
 16 29  1  0  0  0  0
 16 30  1  0  0  0  0
 17 18  1  0  0  0  0
 17 31  1  0  0  0  0
 17 32  1  0  0  0  0
 18 33  1  0  0  0  0
 18 34  1  0  0  0  0
M  CHG  1   6   1
M  END
> <s_m_source_file>
AV-unprocessed.smi

> <i_m_source_file_index>
2949

> <i_lp_mmshare_version>
43012

> <i_f3d_flags>
0

> <s_epik_input>
W0hdL049YzFcc1tjSF1bY0hdbjFbQ0gyXUMoPU8pW05IXUMoPU8pW05IXVtDSF0yW0NIMl1bQ0gyXVtDSDJdW0NIMl0y

> <s_epik_cmdline>
J2VwaWtfcHl0aG9uJywgJy1waCcsICc3LjAnLCAnLXRuJywgJzgnLCAnLW1hJywgJzIwMCcsICctbWV0YWxfYmluZGluZycsICctaW1hZScsICc8aW5maWxlLm1hZT4nLCAnLW9tYWUnLCAnPG91dGZpbGUubWFlPic=

> <r_lp_tautomer_probability>
1

> <r_epik_Ionization_Penalty>
0.019454

> <r_epik_Ionization_Penalty_Charging>
0

> <r_epik_Ionization_Penalty_Neutral>
0.019454

> <r_epik_State_Penalty>
0.0306361

> <r_epik_Charging_Adjusted_Penalty>
0.0306361

> <i_epik_Tot_Q>
1

> <i_epik_Tot_abs_Q>
1

> <r_epik_Metal_State_Penalty>
0.0306361

> <b_epik_Metal_Only>
0

> <s_lp_Force_Field>
OPLS_2005

> <r_lp_Energy>
26.5716

> <b_lp_Chiralities_Consistent>
1

> <s_lp_Variant>
AV-unprocessed.smi:2949-1

> <Gold.Version>
5.8.1

> <Gold.Id.Protein>
6NUR|6NUR_protein|mol2

> <Gold.PLP.Fitness>
44.6195

> <Gold.PLP.PLP>
-30.6145

> <Gold.PLP.part.hbond>
-4.0000

> <Gold.PLP.part.metal>
0.0000

> <Gold.PLP.part.buried>
0.9461

> <Gold.PLP.part.nonpolar>
-29.4643

> <Gold.PLP.part.repulsive>
3.2207

> <Gold.PLP.ligand.clash>
0.0000

> <Gold.PLP.ligand.torsion>
0.2205

> <Gold.PLP.Chemscore.Hbond>
3.8080

> <Gold.PLP.Chemscore.CHOScore>
1.0000

> <Gold.PLP.Chemscore.Metal>
0.0000

> <Gold.Chemscore.Hbonds>
donor molecule, donor type, donor heavy atom, donor atom, acceptor molecule, acceptor atom, score
      L1  H     1    35       P1 10957  1.76
      L1  H    10    24       P1 10171  0.67
      P1  H  7954  7966       L1    12  0.88
      L1  C     4    20       P1  7921  0.52

> <Gold.PLP.Chemscore.Internal.Correction>
0.0219

> <Gold.Rescore>
     Score         DG    S(hbond)    S(metal)    S(lipo)     H(rot)  DE(clash)    DE(int)     intcor
     13.41     -15.90       2.56        0.00      53.87       1.73       2.24       0.25       ----

> <Gold.Chemscore.Fitness>
13.4073

> <Gold.Chemscore.DG>
-15.8988

> <Gold.Chemscore.ZeroCoef>
-5.4800

> <Gold.Chemscore.Hbond>
2.5578

> <Gold.Chemscore.Metal>
0.0000

> <Gold.Chemscore.Lipo>
53.8654

> <Gold.Chemscore.Internal_Hbond>
0.0000

> <Gold.Chemscore.DEClash>
2.2375

> <Gold.Chemscore.DEInternal>
0.2541

> <Gold.Chemscore.Rot>
1.7291

> <Gold.Chemscore.Internal.Correction>
   9.000000E+99

> <Gold.Chemscore.Hbonds>
donor molecule, donor type, donor heavy atom, donor atom, acceptor molecule, acceptor atom, score
      L1  H     1    35       P1 10957  0.84
      L1  H    10    24       P1 10171  0.64
      P1  H  7954  7966       L1    12  0.84

> <Gold.Chemscore.Hbond.Weighted>
-8.5431

> <Gold.Chemscore.Metal.Weighted>
-0.0000

> <Gold.Chemscore.Lipo.Weighted>
-6.3022

> <Gold.Chemscore.Internal_Hbond.Weighted>
0.0000

> <Gold.Chemscore.DEClash.Weighted>
2.2375

> <Gold.Chemscore.DEInternal.Weighted>
0.2541

> <Gold.Chemscore.Rot.Weighted>
4.4265

> <Gold.Chemscore.Internal.Correction.Weighted>
   9.000000E+99

> <Gold.Protein.RotatedTorsions>
[ 6907 6896 6895 6894 ] final  -31.57 input  -60.11 | X-H torsion
[ 7974 7965 7964 7962 ] final  -99.46 input  175.53 | X-H torsion
[ 8008 7997 7996 7995 ] final    7.05 input   59.86 | X-H torsion
[ 10167 10162 10161 10158 ] final   71.23 input  -65.29 | X-H torsion
[ 10718 10713 10712 10709 ] final   65.34 input   66.30 | X-H torsion
[ 10763 10752 10751 10750 ] final  -41.49 input  -60.55 | X-H torsion
[ 11005 11000 10999 10996 ] final -141.21 input  -57.11 | X-H torsion

> <Gold.Protein.ActiveResidues>
 VAL166  LYS551  ARG553  GLY616  TRP617  ASP618  TYR619  PRO620  LYS621  CYS622 
 ASP623  PHE694  ASN695  SER759  ASP760  ASP761  ALA762  ILE779  LEU786  VAL792 
 PHE793  MET794  SER795  GLU796  ALA797  LYS798  CYS799  TRP800  GLU811  SER814 

> <Gold.Protein.RotatedAtoms>
  151.0903  134.9912  159.8399 H   0  0  0  0  0  0  0  0  0  0  0  0  # atno 6907 bound_to 6896
  152.5428  134.2074  159.8746 H   0  0  0  0  0  0  0  0  0  0  0  0  # atno 6908 bound_to 6896
  151.2110  133.4512  159.2631 H   0  0  0  0  0  0  0  0  0  0  0  0  # atno 6909 bound_to 6896
  145.3073  140.9392  143.2789 H   0  0  0  0  0  0  0  0  0  0  0  0  # atno 7974 bound_to 7965
  154.7489  140.2763  155.6309 H   0  0  0  0  0  0  0  0  0  0  0  0  # atno 8008 bound_to 7997
  156.2891  140.2682  156.2163 H   0  0  0  0  0  0  0  0  0  0  0  0  # atno 8009 bound_to 7997
  155.0162  140.0372  157.2409 H   0  0  0  0  0  0  0  0  0  0  0  0  # atno 8010 bound_to 7997
  140.0483  144.5332  150.7382 H   0  0  0  0  0  0  0  0  0  0  0  0  # atno 10167 bound_to 10162
  157.6099  130.9209  149.9963 H   0  0  0  0  0  0  0  0  0  0  0  0  # atno 10718 bound_to 10713
  153.9633  135.6737  153.4745 H   0  0  0  0  0  0  0  0  0  0  0  0  # atno 10763 bound_to 10752
  153.0828  135.4914  154.8533 H   0  0  0  0  0  0  0  0  0  0  0  0  # atno 10764 bound_to 10752
  154.7260  135.3127  154.8930 H   0  0  0  0  0  0  0  0  0  0  0  0  # atno 10765 bound_to 10752
  140.8347  134.2474  157.4840 H   0  0  0  0  0  0  0  0  0  0  0  0  # atno 11005 bound_to 11000
  144.9044  139.4607  143.6617 LP  0  0  0  0  0  0  0  0  0  0  0  0  # atno 17320 bound_to 7965
  146.3130  139.7817  142.9005 LP  0  0  0  0  0  0  0  0  0  0  0  0  # atno 17321 bound_to 7965
  140.7228  143.2606  151.4221 LP  0  0  0  0  0  0  0  0  0  0  0  0  # atno 17342 bound_to 10162
  139.5969  144.1378  152.2154 LP  0  0  0  0  0  0  0  0  0  0  0  0  # atno 17343 bound_to 10162
  156.1198  130.3646  149.9907 LP  0  0  0  0  0  0  0  0  0  0  0  0  # atno 17370 bound_to 10713
  156.7989  130.9283  151.3646 LP  0  0  0  0  0  0  0  0  0  0  0  0  # atno 17371 bound_to 10713
  139.8704  134.9604  156.4364 LP  0  0  0  0  0  0  0  0  0  0  0  0  # atno 17394 bound_to 11000
  140.8960  133.7814  155.9626 LP  0  0  0  0  0  0  0  0  0  0  0  0  # atno 17395 bound_to 11000

$$$$
