#       Name:                AV-unprocessed.smi:644
#       Creating user name   scv26
#       Creation time:       Fri Mar 27 00:08:03 2020


#       File generated by GOLD software.
#

@<TRIPOS>MOLECULE
AV-unprocessed.smi:644
    42    44     1
SMALL
NO_CHARGES


@<TRIPOS>ATOM
      1 ****        -2.2928   4.4976  -2.4035 C.3            1 S1                 0.0000
      2 ****        -1.9052   3.3844  -1.4462 C.ar           1 S1                 0.0000
      3 ****        -1.9676   3.6220  -0.0543 C.ar           1 S1                 0.0000
      4 ****        -1.6174   2.6128   0.8691 C.ar           1 S1                 0.0000
      5 ****        -1.6041   2.6254   2.2534 N.2            1 S1                 0.0000
      6 ****        -1.1900   1.3919   2.5290 C.2            1 S1                 0.0000
      7 ****        -0.9291   0.5820   1.4848 N.pl3          1 S1                 0.0000
      8 ****        -0.4742  -0.7958   1.5342 C.3            1 S1                 0.0000
      9 ****         1.0182  -0.9383   1.1805 C.3            1 S1                 0.0000
     10 ****         1.7943  -0.1886   2.0960 O.3            1 S1                 0.0000
     11 ****         1.4744  -2.4059   1.2072 C.3            1 S1                 0.0000
     12 ****         3.1744  -2.6068   0.5899 S.3            1 S1                 0.0000
     13 ****         3.3503  -4.3569   0.7275 C.2            1 S1                 0.0000
     14 ****         2.4110  -5.1953   1.1892 N.2            1 S1                 0.0000
     15 ****         2.8321  -6.5183   1.1793 N.2            1 S1                 0.0000
     16 ****         4.0766  -6.6310   0.7096 C.2            1 S1                 0.0000
     17 ****         4.8517  -5.1313   0.2343 S.3            1 S1                 0.0000
     18 ****        -1.2006   1.3492   0.3577 C.ar           1 S1                 0.0000
     19 ****        -1.1341   1.1005  -1.0245 C.ar           1 S1                 0.0000
     20 ****        -1.4861   2.1202  -1.9333 C.ar           1 S1                 0.0000
     21 ****        -1.4090   1.8425  -3.4241 C.3            1 S1                 0.0000
     22 ****        -2.5855   5.4006  -1.8670 H              1 S1                 0.0000
     23 ****        -3.1341   4.1902  -3.0248 H              1 S1                 0.0000
     24 ****        -1.4561   4.7523  -3.0542 H              1 S1                 0.0000
     25 ****        -2.2869   4.5846   0.3170 H              1 S1                 0.0000
     26 ****        -1.0664   1.0580   3.5491 H              1 S1                 0.0000
     27 ****        -0.6706  -1.1946   2.5306 H              1 S1                 0.0000
     28 ****        -1.0833  -1.3771   0.8407 H              1 S1                 0.0000
     29 ****         1.1893  -0.5331   0.1824 H              1 S1                 0.0000
     30 ****         1.5451   0.7204   2.0259 H              1 S1                 0.0000
     31 ****         1.4053  -2.8046   2.2202 H              1 S1                 0.0000
     32 ****         0.8123  -3.0032   0.5792 H              1 S1                 0.0000
     33 ****         4.5407  -7.6038   0.6409 H              1 S1                 0.0000
     34 ****        -0.8136   0.1330  -1.3817 H              1 S1                 0.0000
     35 ****        -1.0533   0.8310  -3.6230 H              1 S1                 0.0000
     36 ****        -0.7226   2.5382  -3.9070 H              1 S1                 0.0000
     37 ****        -2.3917   1.9486  -3.8839 H              1 S1                 0.0000
     38 ****        -1.8429   3.3666   2.8808 LP             1 S1                 0.0000
     39 ****         2.7649  -0.2902   1.8779 LP             1 S1                 0.0000
     40 ****         1.6259  -0.5138   3.0265 LP             1 S1                 0.0000
     41 ****         1.5090  -4.9009   1.5050 LP             1 S1                 0.0000
     42 ****         2.2737  -7.2894   1.4853 LP             1 S1                 0.0000
@<TRIPOS>BOND
    1    1    2 1     
    2    1   22 1     
    3    1   23 1     
    4    1   24 1     
    5    2   20 ar    
    6    2    3 ar    
    7    3    4 ar    
    8    3   25 1     
    9    4   18 ar    
   10    4    5 1     
   11    5    6 2     
   12    6    7 1     
   13    6   26 1     
   14    7    8 1     
   15    7   18 1     
   16    8    9 1     
   17    8   27 1     
   18    8   28 1     
   19    9   10 1     
   20    9   11 1     
   21    9   29 1     
   22   10   30 1     
   23   11   12 1     
   24   11   31 1     
   25   11   32 1     
   26   12   13 1     
   27   13   17 1     
   28   13   14 2     
   29   14   15 1     
   30   15   16 2     
   31   16   17 1     
   32   16   33 1     
   33   18   19 ar    
   34   19   20 ar    
   35   19   34 1     
   36   20   21 1     
   37   21   35 1     
   38   21   36 1     
   39   21   37 1     
   40    5   38 1     
   41   10   39 1     
   42   10   40 1     
   43   14   41 1     
   44   15   42 1     
@<TRIPOS>SUBSTRUCTURE
      1 S1             1
@<TRIPOS>SET
LONE_PAIRS      STATIC     ATOMS    <user>   **** ""
5 38 39 40 41 42
DONOR_HYDROGENS      STATIC     ATOMS    <user>   **** ""
1 30
ATOM$BLUE        STATIC     ATOMS    COLORGROUP SYSTEM
5 38 39 40 41 42
ATOM$RED        STATIC     ATOMS    COLORGROUP SYSTEM
1 30
