AV-unprocessed.smi:526|AV-procd|sdf|2811|dock2
  -GOLD-   2262023293D 1   1.00000     0.00000
 Structure written by MMmdl.
 30 30  0  0  0  0  0  0  0  0  2 V2000
  151.7227  145.0617  159.7384 C   0  0  0  0  0  0  0  0  0  0  0  0
  152.1862  143.8475  160.0783 C   0  0  0  0  0  0  0  0  0  0  0  0
  152.5302  143.4911  161.5122 C   0  0  0  0  0  0  0  0  0  0  0  0
  152.3965  142.7500  159.0517 C   0  0  0  0  0  0  0  0  0  0  0  0
  153.1366  141.2564  159.7714 S   0  0  0  0  0  0  0  0  0  0  0  0
  152.5051  139.9731  158.6524 C   0  0  0  0  0  0  0  0  0  0  0  0
  152.5355  139.9275  157.3591 N   0  0  0  0  0  0  0  0  0  0  0  0
  151.9889  138.8297  156.6828 C   0  0  0  0  0  0  0  0  0  0  0  0
  152.0846  138.8760  155.1679 C   0  0  0  0  0  0  0  0  0  0  0  0
  151.4134  137.7940  157.3565 C   0  0  0  0  0  0  0  0  0  0  0  0
  150.8102  136.5760  156.6541 C   0  0  0  0  0  0  0  0  0  0  0  0
  151.4191  135.2302  157.0660 C   0  0  0  0  0  0  0  0  0  0  0  0
  152.6650  135.1427  157.0108 O   0  0  0  0  0  0  0  0  0  0  0  0
  150.6473  134.3124  157.4237 O   0  5  0  0  0  0  0  0  0  0  0  0
  151.3672  137.8382  158.8279 C   0  0  0  0  0  0  0  0  0  0  0  0
  150.8713  136.9660  159.5399 O   0  0  0  0  0  0  0  0  0  0  0  0
  151.9242  138.9367  159.3842 N   0  0  0  0  0  0  0  0  0  0  0  0
  151.9164  139.0037  160.3913 H   0  0  0  0  0  0  0  0  0  0  0  0
  151.5773  145.8341  160.4793 H   0  0  0  0  0  0  0  0  0  0  0  0
  151.4803  145.3025  158.7137 H   0  0  0  0  0  0  0  0  0  0  0  0
  153.5775  143.1977  161.5879 H   0  0  0  0  0  0  0  0  0  0  0  0
  151.9151  142.6614  161.8606 H   0  0  0  0  0  0  0  0  0  0  0  0
  152.3665  144.3362  162.1819 H   0  0  0  0  0  0  0  0  0  0  0  0
  151.4422  142.4796  158.5978 H   0  0  0  0  0  0  0  0  0  0  0  0
  153.0355  143.1244  158.2512 H   0  0  0  0  0  0  0  0  0  0  0  0
  151.0899  138.9075  154.7230 H   0  0  0  0  0  0  0  0  0  0  0  0
  152.6073  137.9973  154.7892 H   0  0  0  0  0  0  0  0  0  0  0  0
  152.6300  139.7586  154.8316 H   0  0  0  0  0  0  0  0  0  0  0  0
  149.7326  136.5323  156.8145 H   0  0  0  0  0  0  0  0  0  0  0  0
  150.9323  136.6900  155.5771 H   0  0  0  0  0  0  0  0  0  0  0  0
  1  2  2  0  0  0  0
  1 19  1  0  0  0  0
  1 20  1  0  0  0  0
  2  3  1  0  0  0  0
  2  4  1  0  0  0  0
  3 21  1  0  0  0  0
  3 22  1  0  0  0  0
  3 23  1  0  0  0  0
  4  5  1  0  0  0  0
  4 24  1  0  0  0  0
  4 25  1  0  0  0  0
  5  6  1  0  0  0  0
  6 17  1  0  0  0  0
  6  7  2  0  0  0  0
  7  8  1  0  0  0  0
  8  9  1  0  0  0  0
  8 10  2  0  0  0  0
  9 26  1  0  0  0  0
  9 27  1  0  0  0  0
  9 28  1  0  0  0  0
 10 11  1  0  0  0  0
 10 15  1  0  0  0  0
 11 12  1  0  0  0  0
 11 29  1  0  0  0  0
 11 30  1  0  0  0  0
 12 13  2  0  0  0  0
 12 14  1  0  0  0  0
 15 16  2  0  0  0  0
 15 17  1  0  0  0  0
 17 18  1  0  0  0  0
M  CHG  1  14  -1
M  END
> <s_m_source_file>
AV-unprocessed.smi

> <i_m_source_file_index>
526

> <i_lp_mmshare_version>
43012

> <i_f3d_flags>
0

> <s_epik_input>
W0NIMl09QyhbQ0gzXSlbQ0gyXVNjMW5jKFtDSDNdKWMoYyg9TylbbkhdMSlbQ0gyXUMoPU8pW09IXQ==

> <s_epik_cmdline>
J2VwaWtfcHl0aG9uJywgJy1waCcsICc3LjAnLCAnLXRuJywgJzgnLCAnLW1hJywgJzIwMCcsICctbWV0YWxfYmluZGluZycsICctaW1hZScsICc8aW5maWxlLm1hZT4nLCAnLW9tYWUnLCAnPG91dGZpbGUubWFlPic=

> <r_lp_tautomer_probability>
0.660323

> <r_epik_Ionization_Penalty>
0.000759783

> <r_epik_Ionization_Penalty_Charging>
0.000714454

> <r_epik_Ionization_Penalty_Neutral>
4.53284e-05

> <r_epik_State_Penalty>
0.230805

> <r_epik_Charging_Adjusted_Penalty>
0.231519

> <i_epik_Tot_Q>
-1

> <i_epik_Tot_abs_Q>
1

> <r_epik_Metal_State_Penalty>
0.34438

> <b_epik_Metal_Only>
0

> <s_lp_Force_Field>
OPLS_2005

> <r_lp_Energy>
1.72321

> <b_lp_Chiralities_Consistent>
1

> <s_lp_Variant>
AV-unprocessed.smi:526-1

> <Gold.Version>
5.8.1

> <Gold.Id.Protein>
6NUR|6NUR_protein|mol2

> <Gold.PLP.Fitness>
45.8770

> <Gold.PLP.PLP>
-32.3376

> <Gold.PLP.part.hbond>
-4.3317

> <Gold.PLP.part.metal>
0.0000

> <Gold.PLP.part.buried>
-3.6061

> <Gold.PLP.part.nonpolar>
-25.8356

> <Gold.PLP.part.repulsive>
0.1239

> <Gold.PLP.ligand.clash>
0.0000

> <Gold.PLP.ligand.torsion>
0.3264

> <Gold.PLP.Chemscore.Hbond>
4.7226

> <Gold.PLP.Chemscore.CHOScore>
0.0000

> <Gold.PLP.Chemscore.Metal>
0.0000

> <Gold.Chemscore.Hbonds>
donor molecule, donor type, donor heavy atom, donor atom, acceptor molecule, acceptor atom, score
      P1  H  6896  6908       L1    14  0.83
      P1  H  6896  6909       L1    16  1.00
      P1  H  7997  8009       L1     7  1.00
      P1  H 10752 10765       L1    13  2.00

> <Gold.PLP.Chemscore.Internal.Correction>
0.0243

> <Gold.Rescore>
     Score         DG    S(hbond)    S(metal)    S(lipo)     H(rot)  DE(clash)    DE(int)     intcor
     17.30     -17.72       2.79        0.00      76.21       2.34       0.19       0.24       ----

> <Gold.Chemscore.Fitness>
17.2955

> <Gold.Chemscore.DG>
-17.7205

> <Gold.Chemscore.ZeroCoef>
-5.4800

> <Gold.Chemscore.Hbond>
2.7904

> <Gold.Chemscore.Metal>
0.0000

> <Gold.Chemscore.Lipo>
76.2050

> <Gold.Chemscore.Internal_Hbond>
0.0000

> <Gold.Chemscore.DEClash>
0.1887

> <Gold.Chemscore.DEInternal>
0.2363

> <Gold.Chemscore.Rot>
2.3420

> <Gold.Chemscore.Internal.Correction>
   9.000000E+99

> <Gold.Chemscore.Hbonds>
donor molecule, donor type, donor heavy atom, donor atom, acceptor molecule, acceptor atom, score
      P1  H  6896  6908       L1    14  0.35
      P1  H  6896  6909       L1    16  1.00
      P1  H  7997  8009       L1     7  0.38
      P1  H 10752 10765       L1    13  0.70

> <Gold.Chemscore.Hbond.Weighted>
-9.3200

> <Gold.Chemscore.Metal.Weighted>
-0.0000

> <Gold.Chemscore.Lipo.Weighted>
-8.9160

> <Gold.Chemscore.Internal_Hbond.Weighted>
0.0000

> <Gold.Chemscore.DEClash.Weighted>
0.1887

> <Gold.Chemscore.DEInternal.Weighted>
0.2363

> <Gold.Chemscore.Rot.Weighted>
5.9955

> <Gold.Chemscore.Internal.Correction.Weighted>
   9.000000E+99

> <Gold.Protein.RotatedTorsions>
[ 6907 6896 6895 6894 ] final   96.60 input  -60.11 | X-H torsion
[ 7974 7965 7964 7962 ] final -120.31 input  175.53 | X-H torsion
[ 8008 7997 7996 7995 ] final -176.74 input   59.86 | X-H torsion
[ 10167 10162 10161 10158 ] final   38.40 input  -65.29 | X-H torsion
[ 10718 10713 10712 10709 ] final  128.56 input   66.30 | X-H torsion
[ 10763 10752 10751 10750 ] final -141.18 input  -60.55 | X-H torsion
[ 11005 11000 10999 10996 ] final  -80.55 input  -57.11 | X-H torsion

> <Gold.Protein.ActiveResidues>
 VAL166  LYS551  ARG553  GLY616  TRP617  ASP618  TYR619  PRO620  LYS621  CYS622 
 ASP623  PHE694  ASN695  SER759  ASP760  ASP761  ALA762  ILE779  LEU786  VAL792 
 PHE793  MET794  SER795  GLU796  ALA797  LYS798  CYS799  TRP800  GLU811  SER814 

> <Gold.Protein.RotatedAtoms>
  152.5433  134.0861  159.8256 H   0  0  0  0  0  0  0  0  0  0  0  0  # atno 6907 bound_to 6896
  151.0956  133.5275  159.2620 H   0  0  0  0  0  0  0  0  0  0  0  0  # atno 6908 bound_to 6896
  151.2049  135.0466  159.8941 H   0  0  0  0  0  0  0  0  0  0  0  0  # atno 6909 bound_to 6896
  145.0528  140.8232  143.4199 H   0  0  0  0  0  0  0  0  0  0  0  0  # atno 7974 bound_to 7965
  155.9985  140.1216  157.0570 H   0  0  0  0  0  0  0  0  0  0  0  0  # atno 8008 bound_to 7997
  154.4235  140.1111  156.5733 H   0  0  0  0  0  0  0  0  0  0  0  0  # atno 8009 bound_to 7997
  155.6244  140.3472  155.4665 H   0  0  0  0  0  0  0  0  0  0  0  0  # atno 8010 bound_to 7997
  140.3940  144.1814  150.6131 H   0  0  0  0  0  0  0  0  0  0  0  0  # atno 10167 bound_to 10162
  157.5233  131.1098  150.9120 H   0  0  0  0  0  0  0  0  0  0  0  0  # atno 10718 bound_to 10713
  154.8554  135.3532  154.5827 H   0  0  0  0  0  0  0  0  0  0  0  0  # atno 10763 bound_to 10752
  153.6437  135.6997  153.5237 H   0  0  0  0  0  0  0  0  0  0  0  0  # atno 10764 bound_to 10752
  153.2950  135.4223  155.1160 H   0  0  0  0  0  0  0  0  0  0  0  0  # atno 10765 bound_to 10752
  141.1668  133.7155  156.8290 H   0  0  0  0  0  0  0  0  0  0  0  0  # atno 11005 bound_to 11000
  145.1505  139.2517  143.5443 LP  0  0  0  0  0  0  0  0  0  0  0  0  # atno 17320 bound_to 7965
  146.3519  140.1207  142.8600 LP  0  0  0  0  0  0  0  0  0  0  0  0  # atno 17321 bound_to 7965
  140.4810  143.2379  151.8956 LP  0  0  0  0  0  0  0  0  0  0  0  0  # atno 17342 bound_to 10162
  139.4787  144.5270  151.8721 LP  0  0  0  0  0  0  0  0  0  0  0  0  # atno 17343 bound_to 10162
  156.9724  130.5496  149.5291 LP  0  0  0  0  0  0  0  0  0  0  0  0  # atno 17370 bound_to 10713
  156.0369  130.5456  150.8676 LP  0  0  0  0  0  0  0  0  0  0  0  0  # atno 17371 bound_to 10713
  140.2065  134.8859  157.3227 LP  0  0  0  0  0  0  0  0  0  0  0  0  # atno 17394 bound_to 11000
  140.2132  134.4113  155.7602 LP  0  0  0  0  0  0  0  0  0  0  0  0  # atno 17395 bound_to 11000

$$$$
