AV-unprocessed.smi:528|AV-procd|sdf|2836|dock5
  -GOLD-   2262023323D 1   1.00000     0.00000
 Structure written by MMmdl.
 45 47  0  0  0  0  0  0  0  0  1 V2000
  144.9130  130.7530  160.5936 C   0  0  0  0  0  0  0  0  0  0  0  0
  146.4162  130.9229  160.8701 C   0  0  1  0  0  0  0  0  0  0  0  0
  146.5958  132.1106  161.7040 N   0  0  0  0  0  0  0  0  0  0  0  0
  147.0869  133.2929  161.3012 C   0  0  0  0  0  0  0  0  0  0  0  0
  147.4023  133.5389  160.1364 O   0  0  0  0  0  0  0  0  0  0  0  0
  147.2384  134.3638  162.3892 C   0  0  0  0  0  0  0  0  0  0  0  0
  146.2200  135.4223  162.2880 N   0  0  0  0  0  0  0  0  0  0  0  0
  144.8700  135.0305  162.3852 C   0  0  0  0  0  0  0  0  0  0  0  0
  143.8459  135.9007  162.2925 C   0  0  0  0  0  0  0  0  0  0  0  0
  142.4002  135.4571  162.4552 C   0  0  0  0  0  0  0  0  0  0  0  0
  142.0249  134.6686  161.4479 F   0  0  0  0  0  0  0  0  0  0  0  0
  142.2614  134.7738  163.5905 F   0  0  0  0  0  0  0  0  0  0  0  0
  141.5756  136.5043  162.4969 F   0  0  0  0  0  0  0  0  0  0  0  0
  144.1985  137.2959  162.1168 C   0  0  0  0  0  0  0  0  0  0  0  0
  145.4844  137.6884  162.0285 C   0  0  0  0  0  0  0  0  0  0  0  0
  146.5867  136.7273  162.1086 C   0  0  0  0  0  0  0  0  0  0  0  0
  147.7655  137.0731  162.0212 O   0  0  0  0  0  0  0  0  0  0  0  0
  147.0434  129.6940  161.5764 C   0  0  2  0  0  0  0  0  0  0  0  0
  147.2082  128.4562  160.6566 C   0  0  0  0  0  0  0  0  0  0  0  0
  146.5122  127.3325  161.4430 C   0  0  1  0  0  0  0  0  0  0  0  0
  147.3399  126.9867  162.6939 C   0  0  0  0  0  0  0  0  0  0  0  0
  147.0997  128.2054  163.6042 C   0  0  0  0  0  0  0  0  0  0  0  0
  146.1998  129.1070  162.7367 C   0  0  2  0  0  0  0  0  0  0  0  0
  145.3225  128.0725  162.0384 C   0  0  0  0  0  0  0  0  0  0  0  0
  144.7169  129.9341  159.9026 H   0  0  0  0  0  0  0  0  0  0  0  0
  144.4957  131.6548  160.1439 H   0  0  0  0  0  0  0  0  0  0  0  0
  144.3593  130.5544  161.5118 H   0  0  0  0  0  0  0  0  0  0  0  0
  146.9146  131.0623  159.9095 H   0  0  0  0  0  0  0  0  0  0  0  0
  146.3597  132.0121  162.6806 H   0  0  0  0  0  0  0  0  0  0  0  0
  147.1928  133.8682  163.3596 H   0  0  0  0  0  0  0  0  0  0  0  0
  148.2356  134.8059  162.3403 H   0  0  0  0  0  0  0  0  0  0  0  0
  144.7181  133.9718  162.5373 H   0  0  0  0  0  0  0  0  0  0  0  0
  143.4179  138.0392  162.0482 H   0  0  0  0  0  0  0  0  0  0  0  0
  145.7101  138.7362  161.8937 H   0  0  0  0  0  0  0  0  0  0  0  0
  148.0222  129.9926  161.9557 H   0  0  0  0  0  0  0  0  0  0  0  0
  146.7034  128.5933  159.6995 H   0  0  0  0  0  0  0  0  0  0  0  0
  148.2546  128.2320  160.4460 H   0  0  0  0  0  0  0  0  0  0  0  0
  146.2580  126.4656  160.8325 H   0  0  0  0  0  0  0  0  0  0  0  0
  146.9708  126.0755  163.1664 H   0  0  0  0  0  0  0  0  0  0  0  0
  148.3957  126.8414  162.4620 H   0  0  0  0  0  0  0  0  0  0  0  0
  146.5808  127.9048  164.5153 H   0  0  0  0  0  0  0  0  0  0  0  0
  148.0278  128.6970  163.8983 H   0  0  0  0  0  0  0  0  0  0  0  0
  145.6531  129.8435  163.3238 H   0  0  0  0  0  0  0  0  0  0  0  0
  144.6564  128.4993  161.2868 H   0  0  0  0  0  0  0  0  0  0  0  0
  144.7369  127.4638  162.7297 H   0  0  0  0  0  0  0  0  0  0  0  0
  1  2  1  0  0  0  0
  1 25  1  0  0  0  0
  1 26  1  0  0  0  0
  1 27  1  0  0  0  0
  2  3  1  0  0  0  0
  2 18  1  0  0  0  0
  2 28  1  0  0  0  0
  3  4  1  0  0  0  0
  3 29  1  0  0  0  0
  4  5  2  0  0  0  0
  4  6  1  0  0  0  0
  6  7  1  0  0  0  0
  6 30  1  0  0  0  0
  6 31  1  0  0  0  0
  7 16  1  0  0  0  0
  7  8  1  0  0  0  0
  8  9  2  0  0  0  0
  8 32  1  0  0  0  0
  9 10  1  0  0  0  0
  9 14  1  0  0  0  0
 10 11  1  0  0  0  0
 10 12  1  0  0  0  0
 10 13  1  0  0  0  0
 14 15  2  0  0  0  0
 14 33  1  0  0  0  0
 15 16  1  0  0  0  0
 15 34  1  0  0  0  0
 16 17  2  0  0  0  0
 18 23  1  0  0  0  0
 18 19  1  0  0  0  0
 18 35  1  0  0  0  0
 19 20  1  0  0  0  0
 19 36  1  0  0  0  0
 19 37  1  0  0  0  0
 20 24  1  0  0  0  0
 20 21  1  0  0  0  0
 20 38  1  0  0  0  0
 21 22  1  0  0  0  0
 21 39  1  0  0  0  0
 21 40  1  0  0  0  0
 22 23  1  0  0  0  0
 22 41  1  0  0  0  0
 22 42  1  0  0  0  0
 23 24  1  0  0  0  0
 23 43  1  0  0  0  0
 24 44  1  0  0  0  0
 24 45  1  0  0  0  0
M  END
> <s_m_source_file>
AV-unprocessed.smi

> <i_m_source_file_index>
528

> <i_lp_mmshare_version>
43012

> <i_f3d_flags>
0

> <s_epik_input>
W0NIMl0xW0NIMl1bQ0BASF0oW0NIMl0yKVtDQEBIXShbQ0gyXVtDQEhdMTIpW0NASF0oW0NIM10pW05IXUMoPU8pW0NIMl1uM1tjSF1jKEMoRikoRilGKVtjSF1bY0hdYzM9Tw==

> <s_epik_cmdline>
J2VwaWtfcHl0aG9uJywgJy1waCcsICc3LjAnLCAnLXRuJywgJzgnLCAnLW1hJywgJzIwMCcsICctbWV0YWxfYmluZGluZycsICctaW1hZScsICc8aW5maWxlLm1hZT4nLCAnLW9tYWUnLCAnPG91dGZpbGUubWFlPic=

> <r_lp_tautomer_probability>
1

> <r_epik_Ionization_Penalty>
4.09479e-08

> <r_epik_Ionization_Penalty_Charging>
1.9321e-08

> <r_epik_Ionization_Penalty_Neutral>
2.16269e-08

> <r_epik_State_Penalty>
-0

> <r_epik_Charging_Adjusted_Penalty>
1.9321e-08

> <i_epik_Tot_Q>
0

> <i_epik_Tot_abs_Q>
0

> <r_epik_Metal_State_Penalty>
-0

> <b_epik_Metal_Only>
0

> <s_lp_Force_Field>
OPLS_2005

> <r_lp_Energy>
62.8614

> <b_lp_Chiralities_Consistent>
1

> <s_lp_Variant>
AV-unprocessed.smi:528-6

> <Gold.Version>
5.8.1

> <Gold.Id.Protein>
6NUR|6NUR_protein|mol2

> <Gold.PLP.Fitness>
43.5419

> <Gold.PLP.PLP>
-40.7255

> <Gold.PLP.part.hbond>
-2.0000

> <Gold.PLP.part.metal>
0.0000

> <Gold.PLP.part.buried>
-5.3441

> <Gold.PLP.part.nonpolar>
-32.8328

> <Gold.PLP.part.repulsive>
0.0297

> <Gold.PLP.ligand.clash>
0.0000

> <Gold.PLP.ligand.torsion>
0.6123

> <Gold.PLP.Chemscore.Hbond>
1.3198

> <Gold.PLP.Chemscore.CHOScore>
0.0000

> <Gold.PLP.Chemscore.Metal>
0.0000

> <Gold.Chemscore.Hbonds>
donor molecule, donor type, donor heavy atom, donor atom, acceptor molecule, acceptor atom, score
      P1  H  6931  6943       L1    17  1.00
      P1  H  6934  6947       L1    17  0.13

> <Gold.PLP.Chemscore.Internal.Correction>
0.0816

> <Gold.Rescore>
     Score         DG    S(hbond)    S(metal)    S(lipo)     H(rot)  DE(clash)    DE(int)     intcor
     13.10     -14.54       1.49        0.00      72.39       1.71       0.14       1.30       ----

> <Gold.Chemscore.Fitness>
13.0960

> <Gold.Chemscore.DG>
-14.5359

> <Gold.Chemscore.ZeroCoef>
-5.4800

> <Gold.Chemscore.Hbond>
1.4880

> <Gold.Chemscore.Metal>
0.0000

> <Gold.Chemscore.Lipo>
72.3940

> <Gold.Chemscore.Internal_Hbond>
0.0000

> <Gold.Chemscore.DEClash>
0.1359

> <Gold.Chemscore.DEInternal>
1.3040

> <Gold.Chemscore.Rot>
1.7125

> <Gold.Chemscore.Internal.Correction>
   9.000000E+99

> <Gold.Chemscore.Hbonds>
donor molecule, donor type, donor heavy atom, donor atom, acceptor molecule, acceptor atom, score
      P1  H  6931  6943       L1    17  0.98
      P1  H  6934  6947       L1    17  0.01

> <Gold.Chemscore.Hbond.Weighted>
-4.9698

> <Gold.Chemscore.Metal.Weighted>
-0.0000

> <Gold.Chemscore.Lipo.Weighted>
-8.4701

> <Gold.Chemscore.Internal_Hbond.Weighted>
0.0000

> <Gold.Chemscore.DEClash.Weighted>
0.1359

> <Gold.Chemscore.DEInternal.Weighted>
1.3040

> <Gold.Chemscore.Rot.Weighted>
4.3840

> <Gold.Chemscore.Internal.Correction.Weighted>
   9.000000E+99

> <Gold.Protein.RotatedTorsions>
[ 6907 6896 6895 6894 ] final  140.57 input  -60.11 | X-H torsion
[ 7974 7965 7964 7962 ] final   -7.71 input  175.53 | X-H torsion
[ 8008 7997 7996 7995 ] final -136.59 input   59.86 | X-H torsion
[ 10167 10162 10161 10158 ] final -162.37 input  -65.29 | X-H torsion
[ 10718 10713 10712 10709 ] final   -5.82 input   66.30 | X-H torsion
[ 10763 10752 10751 10750 ] final  178.22 input  -60.55 | X-H torsion
[ 11005 11000 10999 10996 ] final -100.41 input  -57.11 | X-H torsion

> <Gold.Protein.ActiveResidues>
 VAL166  LYS551  ARG553  GLY616  TRP617  ASP618  TYR619  PRO620  LYS621  CYS622 
 ASP623  PHE694  ASN695  SER759  ASP760  ASP761  ALA762  ILE779  LEU786  VAL792 
 PHE793  MET794  SER795  GLU796  ALA797  LYS798  CYS799  TRP800  GLU811  SER814 

> <Gold.Protein.RotatedAtoms>
  152.2414  133.5138  159.5271 H   0  0  0  0  0  0  0  0  0  0  0  0  # atno 6907 bound_to 6896
  150.7065  134.1084  159.4000 H   0  0  0  0  0  0  0  0  0  0  0  0  # atno 6908 bound_to 6896
  151.9005  135.0380  160.0556 H   0  0  0  0  0  0  0  0  0  0  0  0  # atno 6909 bound_to 6896
  146.2300  140.2360  142.8342 H   0  0  0  0  0  0  0  0  0  0  0  0  # atno 7974 bound_to 7965
  155.3978  140.0504  157.3038 H   0  0  0  0  0  0  0  0  0  0  0  0  # atno 8008 bound_to 7997
  154.5005  140.2155  155.9317 H   0  0  0  0  0  0  0  0  0  0  0  0  # atno 8009 bound_to 7997
  156.1461  140.3145  155.8578 H   0  0  0  0  0  0  0  0  0  0  0  0  # atno 8010 bound_to 7997
  139.6397  144.0282  152.2082 H   0  0  0  0  0  0  0  0  0  0  0  0  # atno 10167 bound_to 10162
  156.7410  130.5209  149.5824 H   0  0  0  0  0  0  0  0  0  0  0  0  # atno 10718 bound_to 10713
  154.5048  135.2785  155.1391 H   0  0  0  0  0  0  0  0  0  0  0  0  # atno 10763 bound_to 10752
  154.3010  135.6248  153.5428 H   0  0  0  0  0  0  0  0  0  0  0  0  # atno 10764 bound_to 10752
  152.9908  135.5697  154.5499 H   0  0  0  0  0  0  0  0  0  0  0  0  # atno 10765 bound_to 10752
  141.1271  133.8397  157.1099 H   0  0  0  0  0  0  0  0  0  0  0  0  # atno 11005 bound_to 11000
  144.9521  140.8189  143.5565 LP  0  0  0  0  0  0  0  0  0  0  0  0  # atno 17320 bound_to 7965
  145.2321  139.2110  143.5037 LP  0  0  0  0  0  0  0  0  0  0  0  0  # atno 17321 bound_to 7965
  139.9969  144.6321  150.7764 LP  0  0  0  0  0  0  0  0  0  0  0  0  # atno 17342 bound_to 10162
  140.7484  143.2922  151.3300 LP  0  0  0  0  0  0  0  0  0  0  0  0  # atno 17343 bound_to 10162
  156.1464  130.6280  151.0537 LP  0  0  0  0  0  0  0  0  0  0  0  0  # atno 17370 bound_to 10713
  157.6818  131.0836  150.7348 LP  0  0  0  0  0  0  0  0  0  0  0  0  # atno 17371 bound_to 10713
  140.0281  134.9914  157.0727 LP  0  0  0  0  0  0  0  0  0  0  0  0  # atno 17394 bound_to 11000
  140.4329  134.1762  155.7169 LP  0  0  0  0  0  0  0  0  0  0  0  0  # atno 17395 bound_to 11000

$$$$
