AV-unprocessed.smi:1999|AV-procd|sdf|8096|dock5
  -GOLD-   2272010313D 1   1.00000     0.00000
 Structure written by MMmdl.
 37 38  0  0  0  0  0  0  0  0  2 V2000
  143.7736  133.3180  151.2117 C   0  0  0  0  0  0  0  0  0  0  0  0
  144.2895  134.6481  151.6425 C   0  0  0  0  0  0  0  0  0  0  0  0
  143.8047  135.3037  152.6998 N   0  0  0  0  0  0  0  0  0  0  0  0
  144.4477  136.5163  152.9025 N   0  0  0  0  0  0  0  0  0  0  0  0
  145.4148  136.7554  152.0054 C   0  0  0  0  0  0  0  0  0  0  0  0
  146.1563  137.8752  152.0274 N   0  5  0  0  0  0  0  0  0  0  0  0
  146.5332  138.4127  153.2100 C   0  0  0  0  0  0  0  0  0  0  0  0
  145.9401  138.2990  154.2853 O   0  0  0  0  0  0  0  0  0  0  0  0
  147.6669  139.1256  153.1423 N   0  0  0  0  0  0  0  0  0  0  0  0
  148.3282  139.8053  154.2552 C   0  0  2  0  0  0  0  0  0  0  0  0
  148.3438  141.3223  154.0120 C   0  0  0  0  0  0  0  0  0  0  0  0
  149.7584  139.2551  154.4330 C   0  0  0  0  0  0  0  0  0  0  0  0
  150.3786  139.5014  155.7366 N   0  0  0  0  0  0  0  0  0  0  0  0
  150.7874  140.8926  155.9169 C   0  0  0  0  0  0  0  0  0  0  0  0
  151.4584  141.1206  157.2824 C   0  0  0  0  0  0  0  0  0  0  0  0
  152.5684  140.2402  157.4253 O   0  0  0  0  0  0  0  0  0  0  0  0
  152.1990  138.8704  157.3052 C   0  0  0  0  0  0  0  0  0  0  0  0
  151.5346  138.6351  155.9378 C   0  0  0  0  0  0  0  0  0  0  0  0
  145.5890  135.4775  150.8027 S   0  0  0  0  0  0  0  0  0  0  0  0
  144.2644  132.5277  151.7795 H   0  0  0  0  0  0  0  0  0  0  0  0
  143.9704  133.1624  150.1509 H   0  0  0  0  0  0  0  0  0  0  0  0
  142.6980  133.2557  151.3788 H   0  0  0  0  0  0  0  0  0  0  0  0
  148.1196  139.1864  152.2421 H   0  0  0  0  0  0  0  0  0  0  0  0
  147.7685  139.6264  155.1739 H   0  0  0  0  0  0  0  0  0  0  0  0
  148.8282  141.8458  154.8365 H   0  0  0  0  0  0  0  0  0  0  0  0
  147.3321  141.7188  153.9223 H   0  0  0  0  0  0  0  0  0  0  0  0
  148.8814  141.5721  153.0966 H   0  0  0  0  0  0  0  0  0  0  0  0
  149.7223  138.1779  154.2628 H   0  0  0  0  0  0  0  0  0  0  0  0
  150.3975  139.6574  153.6456 H   0  0  0  0  0  0  0  0  0  0  0  0
  151.4759  141.1827  155.1220 H   0  0  0  0  0  0  0  0  0  0  0  0
  149.9246  141.5537  155.8424 H   0  0  0  0  0  0  0  0  0  0  0  0
  151.8066  142.1500  157.3665 H   0  0  0  0  0  0  0  0  0  0  0  0
  150.7476  140.9551  158.0936 H   0  0  0  0  0  0  0  0  0  0  0  0
  153.0902  138.2509  157.4053 H   0  0  0  0  0  0  0  0  0  0  0  0
  151.5231  138.5948  158.1160 H   0  0  0  0  0  0  0  0  0  0  0  0
  151.2318  137.5904  155.8608 H   0  0  0  0  0  0  0  0  0  0  0  0
  152.2671  138.8065  155.1475 H   0  0  0  0  0  0  0  0  0  0  0  0
  1  2  1  0  0  0  0
  1 20  1  0  0  0  0
  1 21  1  0  0  0  0
  1 22  1  0  0  0  0
  2 19  1  0  0  0  0
  2  3  2  0  0  0  0
  3  4  1  0  0  0  0
  4  5  2  0  0  0  0
  5  6  1  0  0  0  0
  5 19  1  0  0  0  0
  6  7  1  0  0  0  0
  7  8  2  0  0  0  0
  7  9  1  0  0  0  0
  9 10  1  0  0  0  0
  9 23  1  0  0  0  0
 10 11  1  0  0  0  0
 10 12  1  0  0  0  0
 10 24  1  0  0  0  0
 11 25  1  0  0  0  0
 11 26  1  0  0  0  0
 11 27  1  0  0  0  0
 12 13  1  0  0  0  0
 12 28  1  0  0  0  0
 12 29  1  0  0  0  0
 13 18  1  0  0  0  0
 13 14  1  0  0  0  0
 14 15  1  0  0  0  0
 14 30  1  0  0  0  0
 14 31  1  0  0  0  0
 15 16  1  0  0  0  0
 15 32  1  0  0  0  0
 15 33  1  0  0  0  0
 16 17  1  0  0  0  0
 17 18  1  0  0  0  0
 17 34  1  0  0  0  0
 17 35  1  0  0  0  0
 18 36  1  0  0  0  0
 18 37  1  0  0  0  0
M  CHG  1   6  -1
M  END
> <s_m_source_file>
AV-unprocessed.smi

> <i_m_source_file_index>
1999

> <i_lp_mmshare_version>
43012

> <i_f3d_flags>
0

> <s_epik_input>
W0NIM11jMW5uYyhzMSlbTkhdQyg9TylbTkhdW0NASF0oW0NIM10pW0NIMl1OMltDSDJdW0NIMl1PW0NIMl1bQ0gyXTI=

> <s_epik_cmdline>
J2VwaWtfcHl0aG9uJywgJy1waCcsICc3LjAnLCAnLXRuJywgJzgnLCAnLW1hJywgJzIwMCcsICctbWV0YWxfYmluZGluZycsICctaW1hZScsICc8aW5maWxlLm1hZT4nLCAnLW9tYWUnLCAnPG91dGZpbGUubWFlPic=

> <r_lp_tautomer_probability>
1

> <r_epik_Ionization_Penalty>
3.74165

> <r_epik_Ionization_Penalty_Charging>
3.28066

> <r_epik_Ionization_Penalty_Neutral>
0.460988

> <r_epik_State_Penalty>
3.48767

> <r_epik_Charging_Adjusted_Penalty>
6.76834

> <i_epik_Tot_Q>
-1

> <i_epik_Tot_abs_Q>
1

> <r_epik_Metal_State_Penalty>
0.700129

> <b_epik_Metal_Only>
1

> <s_lp_Force_Field>
OPLS_2005

> <r_lp_Energy>
23.1925

> <b_lp_Chiralities_Consistent>
1

> <s_lp_Variant>
AV-unprocessed.smi:1999-5

> <Gold.Version>
5.8.1

> <Gold.Id.Protein>
6NUR|6NUR_protein|mol2

> <Gold.PLP.Fitness>
33.1319

> <Gold.PLP.PLP>
-28.7131

> <Gold.PLP.part.hbond>
-2.0211

> <Gold.PLP.part.metal>
0.0000

> <Gold.PLP.part.buried>
-4.1109

> <Gold.PLP.part.nonpolar>
-23.6069

> <Gold.PLP.part.repulsive>
0.7040

> <Gold.PLP.ligand.clash>
0.0000

> <Gold.PLP.ligand.torsion>
0.6984

> <Gold.PLP.Chemscore.Hbond>
1.9120

> <Gold.PLP.Chemscore.CHOScore>
0.0000

> <Gold.PLP.Chemscore.Metal>
0.0000

> <Gold.Chemscore.Hbonds>
donor molecule, donor type, donor heavy atom, donor atom, acceptor molecule, acceptor atom, score
      L1  H     9    23       P1  7957  0.94
      P1  H  7997  8009       L1    16  0.90

> <Gold.PLP.Chemscore.Internal.Correction>
0.0796

> <Gold.Rescore>
     Score         DG    S(hbond)    S(metal)    S(lipo)     H(rot)  DE(clash)    DE(int)     intcor
     13.04     -15.41       1.87        0.00      65.50       1.56       0.07       2.31       ----

> <Gold.Chemscore.Fitness>
13.0403

> <Gold.Chemscore.DG>
-15.4125

> <Gold.Chemscore.ZeroCoef>
-5.4800

> <Gold.Chemscore.Hbond>
1.8718

> <Gold.Chemscore.Metal>
0.0000

> <Gold.Chemscore.Lipo>
65.4955

> <Gold.Chemscore.Internal_Hbond>
0.0000

> <Gold.Chemscore.DEClash>
0.0666

> <Gold.Chemscore.DEInternal>
2.3056

> <Gold.Chemscore.Rot>
1.5556

> <Gold.Chemscore.Internal.Correction>
   9.000000E+99

> <Gold.Chemscore.Hbonds>
donor molecule, donor type, donor heavy atom, donor atom, acceptor molecule, acceptor atom, score
      L1  H     9    23       P1  7957  0.87
      P1  H  7997  8009       L1    16  0.17

> <Gold.Chemscore.Hbond.Weighted>
-6.2518

> <Gold.Chemscore.Metal.Weighted>
-0.0000

> <Gold.Chemscore.Lipo.Weighted>
-7.6630

> <Gold.Chemscore.Internal_Hbond.Weighted>
0.0000

> <Gold.Chemscore.DEClash.Weighted>
0.0666

> <Gold.Chemscore.DEInternal.Weighted>
2.3056

> <Gold.Chemscore.Rot.Weighted>
3.9823

> <Gold.Chemscore.Internal.Correction.Weighted>
   9.000000E+99

> <Gold.Protein.RotatedTorsions>
[ 6907 6896 6895 6894 ] final -135.45 input  -60.11 | X-H torsion
[ 7974 7965 7964 7962 ] final  152.00 input  175.53 | X-H torsion
[ 8008 7997 7996 7995 ] final  174.54 input   59.86 | X-H torsion
[ 10167 10162 10161 10158 ] final   27.39 input  -65.29 | X-H torsion
[ 10718 10713 10712 10709 ] final  -52.05 input   66.30 | X-H torsion
[ 10763 10752 10751 10750 ] final    1.43 input  -60.55 | X-H torsion
[ 11005 11000 10999 10996 ] final  159.48 input  -57.11 | X-H torsion

> <Gold.Protein.ActiveResidues>
 VAL166  LYS551  ARG553  GLY616  TRP617  ASP618  TYR619  PRO620  LYS621  CYS622 
 ASP623  PHE694  ASN695  SER759  ASP760  ASP761  ALA762  ILE779  LEU786  VAL792 
 PHE793  MET794  SER795  GLU796  ALA797  LYS798  CYS799  TRP800  GLU811  SER814 

> <Gold.Protein.RotatedAtoms>
  150.9980  133.6084  159.2698 H   0  0  0  0  0  0  0  0  0  0  0  0  # atno 6907 bound_to 6896
  151.3280  135.0834  159.9338 H   0  0  0  0  0  0  0  0  0  0  0  0  # atno 6908 bound_to 6896
  152.5265  133.9615  159.7774 H   0  0  0  0  0  0  0  0  0  0  0  0  # atno 6909 bound_to 6896
  144.8253  139.6611  143.6082 H   0  0  0  0  0  0  0  0  0  0  0  0  # atno 7974 bound_to 7965
  156.0963  140.1432  156.9526 H   0  0  0  0  0  0  0  0  0  0  0  0  # atno 8008 bound_to 7997
  154.4674  140.0921  156.7101 H   0  0  0  0  0  0  0  0  0  0  0  0  # atno 8009 bound_to 7997
  155.4835  140.3446  155.4345 H   0  0  0  0  0  0  0  0  0  0  0  0  # atno 8010 bound_to 7997
  140.4942  144.0418  150.6308 H   0  0  0  0  0  0  0  0  0  0  0  0  # atno 10167 bound_to 10162
  156.1655  130.4149  149.9726 H   0  0  0  0  0  0  0  0  0  0  0  0  # atno 10718 bound_to 10713
  153.3081  135.6961  153.7140 H   0  0  0  0  0  0  0  0  0  0  0  0  # atno 10763 bound_to 10752
  153.6028  135.3459  155.2952 H   0  0  0  0  0  0  0  0  0  0  0  0  # atno 10764 bound_to 10752
  154.8568  135.4345  154.2212 H   0  0  0  0  0  0  0  0  0  0  0  0  # atno 10765 bound_to 10752
  140.1966  134.8368  157.2971 H   0  0  0  0  0  0  0  0  0  0  0  0  # atno 11005 bound_to 11000
  146.2558  139.6299  142.9396 LP  0  0  0  0  0  0  0  0  0  0  0  0  # atno 17320 bound_to 7965
  145.5014  141.0437  143.2538 LP  0  0  0  0  0  0  0  0  0  0  0  0  # atno 17321 bound_to 7965
  140.3696  143.2862  152.0293 LP  0  0  0  0  0  0  0  0  0  0  0  0  # atno 17342 bound_to 10162
  139.4857  144.6240  151.7200 LP  0  0  0  0  0  0  0  0  0  0  0  0  # atno 17343 bound_to 10162
  156.7542  130.9127  151.3639 LP  0  0  0  0  0  0  0  0  0  0  0  0  # atno 17370 bound_to 10713
  157.6765  130.9099  150.0162 LP  0  0  0  0  0  0  0  0  0  0  0  0  # atno 17371 bound_to 10713
  140.2100  134.4150  155.7617 LP  0  0  0  0  0  0  0  0  0  0  0  0  # atno 17394 bound_to 11000
  141.2227  133.7114  156.8323 LP  0  0  0  0  0  0  0  0  0  0  0  0  # atno 17395 bound_to 11000

$$$$
