AV-unprocessed.smi:1778|AV-procd|sdf|7179|dock8
  -GOLD-   22720 8413D 1   1.00000     0.00000
 Structure written by MMmdl.
 34 35  0  0  0  0  0  0  0  0  1 V2000
  146.8069  141.3454  154.2819 C   0  0  0  0  0  0  0  0  0  0  0  0
  148.1879  140.7555  154.3142 C   0  0  0  0  0  0  0  0  0  0  0  0
  149.2347  141.5615  154.2596 N   0  0  0  0  0  0  0  0  0  0  0  0
  150.3601  140.7345  154.3214 O   0  0  0  0  0  0  0  0  0  0  0  0
  149.9414  139.4468  154.4143 C   0  0  0  0  0  0  0  0  0  0  0  0
  150.9999  138.3997  154.5011 C   0  0  0  0  0  0  0  0  0  0  0  0
  148.5751  139.3871  154.4144 C   0  0  0  0  0  0  0  0  0  0  0  0
  147.6941  138.1675  154.5071 C   0  0  0  0  0  0  0  0  0  0  0  0
  148.3848  137.0962  155.3504 C   0  0  0  0  0  0  0  0  0  0  0  0
  148.5880  137.2904  156.5484 O   0  0  0  0  0  0  0  0  0  0  0  0
  148.7368  135.9697  154.7122 N   0  0  0  0  0  0  0  0  0  0  0  0
  149.3820  134.8186  155.3332 C   0  0  2  0  0  0  0  0  0  0  0  0
  149.4014  133.5907  154.4004 C   0  0  0  0  0  0  0  0  0  0  0  0
  149.7337  132.3466  155.2331 C   0  0  0  0  0  0  0  0  0  0  0  0
  149.0607  132.6605  156.9093 S   0  0  0  0  0  0  0  0  0  0  0  0
  147.8133  131.9028  157.0905 O   0  0  0  0  0  0  0  0  0  0  0  0
  150.1546  132.5638  157.8876 O   0  0  0  0  0  0  0  0  0  0  0  0
  148.6518  134.4234  156.6241 C   0  0  0  0  0  0  0  0  0  0  0  0
  146.5262  141.7307  155.2623 H   0  0  0  0  0  0  0  0  0  0  0  0
  146.0626  140.6043  153.9924 H   0  0  0  0  0  0  0  0  0  0  0  0
  146.7437  142.1683  153.5694 H   0  0  0  0  0  0  0  0  0  0  0  0
  150.9322  137.8633  155.4477 H   0  0  0  0  0  0  0  0  0  0  0  0
  151.9955  138.8382  154.4311 H   0  0  0  0  0  0  0  0  0  0  0  0
  150.8930  137.6750  153.6941 H   0  0  0  0  0  0  0  0  0  0  0  0
  146.7249  138.4022  154.9481 H   0  0  0  0  0  0  0  0  0  0  0  0
  147.4812  137.7574  153.5190 H   0  0  0  0  0  0  0  0  0  0  0  0
  148.5287  135.9004  153.7268 H   0  0  0  0  0  0  0  0  0  0  0  0
  150.4116  135.0716  155.5940 H   0  0  0  0  0  0  0  0  0  0  0  0
  148.4123  133.4598  153.9589 H   0  0  0  0  0  0  0  0  0  0  0  0
  150.1034  133.7171  153.5754 H   0  0  0  0  0  0  0  0  0  0  0  0
  149.3091  131.4315  154.8199 H   0  0  0  0  0  0  0  0  0  0  0  0
  150.8130  132.2200  155.3234 H   0  0  0  0  0  0  0  0  0  0  0  0
  148.9507  135.0231  157.4842 H   0  0  0  0  0  0  0  0  0  0  0  0
  147.5698  134.4968  156.5074 H   0  0  0  0  0  0  0  0  0  0  0  0
  1  2  1  0  0  0  0
  1 19  1  0  0  0  0
  1 20  1  0  0  0  0
  1 21  1  0  0  0  0
  2  7  1  0  0  0  0
  2  3  2  0  0  0  0
  3  4  1  0  0  0  0
  4  5  1  0  0  0  0
  5  6  1  0  0  0  0
  5  7  2  0  0  0  0
  6 22  1  0  0  0  0
  6 23  1  0  0  0  0
  6 24  1  0  0  0  0
  7  8  1  0  0  0  0
  8  9  1  0  0  0  0
  8 25  1  0  0  0  0
  8 26  1  0  0  0  0
  9 10  2  0  0  0  0
  9 11  1  0  0  0  0
 11 12  1  0  0  0  0
 11 27  1  0  0  0  0
 12 18  1  0  0  0  0
 12 13  1  0  0  0  0
 12 28  1  0  0  0  0
 13 14  1  0  0  0  0
 13 29  1  0  0  0  0
 13 30  1  0  0  0  0
 14 15  1  0  0  0  0
 14 31  1  0  0  0  0
 14 32  1  0  0  0  0
 15 16  2  0  0  0  0
 15 17  2  0  0  0  0
 15 18  1  0  0  0  0
 18 33  1  0  0  0  0
 18 34  1  0  0  0  0
M  END
> <s_m_source_file>
AV-unprocessed.smi

> <i_m_source_file_index>
1778

> <i_lp_mmshare_version>
43012

> <i_f3d_flags>
0

> <s_epik_input>
W0NIM11jMW5vYyhbQ0gzXSljMVtDSDJdQyg9TylbTkhdW0NAQEhdKFtDSDJdMilbQ0gyXVtDSDJdUzIoPU8pPU8=

> <s_epik_cmdline>
J2VwaWtfcHl0aG9uJywgJy1waCcsICc3LjAnLCAnLXRuJywgJzgnLCAnLW1hJywgJzIwMCcsICctbWV0YWxfYmluZGluZycsICctaW1hZScsICc8aW5maWxlLm1hZT4nLCAnLW9tYWUnLCAnPG91dGZpbGUubWFlPic=

> <r_lp_tautomer_probability>
1

> <r_epik_Ionization_Penalty>
1.26334e-07

> <r_epik_Ionization_Penalty_Charging>
0

> <r_epik_Ionization_Penalty_Neutral>
1.26334e-07

> <r_epik_State_Penalty>
-0

> <r_epik_Charging_Adjusted_Penalty>
0

> <i_epik_Tot_Q>
0

> <i_epik_Tot_abs_Q>
0

> <r_epik_Metal_State_Penalty>
-0

> <b_epik_Metal_Only>
0

> <s_lp_Force_Field>
OPLS_2005

> <r_lp_Energy>
-2.84912

> <b_lp_Chiralities_Consistent>
1

> <s_lp_Variant>
AV-unprocessed.smi:1778-1

> <Gold.Version>
5.8.1

> <Gold.Id.Protein>
6NUR|6NUR_protein|mol2

> <Gold.PLP.Fitness>
33.3988

> <Gold.PLP.PLP>
-24.4501

> <Gold.PLP.part.hbond>
-4.3910

> <Gold.PLP.part.metal>
0.0000

> <Gold.PLP.part.buried>
-1.3746

> <Gold.PLP.part.nonpolar>
-19.0935

> <Gold.PLP.part.repulsive>
0.3522

> <Gold.PLP.ligand.clash>
0.0000

> <Gold.PLP.ligand.torsion>
0.5282

> <Gold.PLP.Chemscore.Hbond>
3.3343

> <Gold.PLP.Chemscore.CHOScore>
0.0000

> <Gold.PLP.Chemscore.Metal>
0.0000

> <Gold.Chemscore.Hbonds>
donor molecule, donor type, donor heavy atom, donor atom, acceptor molecule, acceptor atom, score
      L1  H    11    27       P1  7948  1.00
      P1  H  6896  6907       L1    17  1.00
      P1  H  7989  7998       L1     4  0.74
      P1  H  8011  8017       L1     3  0.26

> <Gold.PLP.Chemscore.Internal.Correction>
0.0021

> <Gold.Rescore>
     Score         DG    S(hbond)    S(metal)    S(lipo)     H(rot)  DE(clash)    DE(int)     intcor
     15.03     -16.81       2.71        0.00      52.42       1.51       0.01       1.77       ----

> <Gold.Chemscore.Fitness>
15.0282

> <Gold.Chemscore.DG>
-16.8083

> <Gold.Chemscore.ZeroCoef>
-5.4800

> <Gold.Chemscore.Hbond>
2.7091

> <Gold.Chemscore.Metal>
0.0000

> <Gold.Chemscore.Lipo>
52.4185

> <Gold.Chemscore.Internal_Hbond>
0.0000

> <Gold.Chemscore.DEClash>
0.0106

> <Gold.Chemscore.DEInternal>
1.7695

> <Gold.Chemscore.Rot>
1.5051

> <Gold.Chemscore.Internal.Correction>
   9.000000E+99

> <Gold.Chemscore.Hbonds>
donor molecule, donor type, donor heavy atom, donor atom, acceptor molecule, acceptor atom, score
      L1  H    11    27       P1  7948  0.95
      P1  H  6896  6907       L1    17  1.00
      P1  H  7989  7998       L1     4  0.59
      P1  H  8011  8017       L1     3  0.03

> <Gold.Chemscore.Hbond.Weighted>
-9.0485

> <Gold.Chemscore.Metal.Weighted>
-0.0000

> <Gold.Chemscore.Lipo.Weighted>
-6.1330

> <Gold.Chemscore.Internal_Hbond.Weighted>
0.0000

> <Gold.Chemscore.DEClash.Weighted>
0.0106

> <Gold.Chemscore.DEInternal.Weighted>
1.7695

> <Gold.Chemscore.Rot.Weighted>
3.8531

> <Gold.Chemscore.Internal.Correction.Weighted>
   9.000000E+99

> <Gold.Protein.RotatedTorsions>
[ 6907 6896 6895 6894 ] final -141.96 input  -60.11 | X-H torsion
[ 7974 7965 7964 7962 ] final  137.75 input  175.53 | X-H torsion
[ 8008 7997 7996 7995 ] final   86.04 input   59.86 | X-H torsion
[ 10167 10162 10161 10158 ] final  155.03 input  -65.29 | X-H torsion
[ 10718 10713 10712 10709 ] final -144.79 input   66.30 | X-H torsion
[ 10763 10752 10751 10750 ] final   79.58 input  -60.55 | X-H torsion
[ 11005 11000 10999 10996 ] final -130.83 input  -57.11 | X-H torsion

> <Gold.Protein.ActiveResidues>
 VAL166  LYS551  ARG553  GLY616  TRP617  ASP618  TYR619  PRO620  LYS621  CYS622 
 ASP623  PHE694  ASN695  SER759  ASP760  ASP761  ALA762  ILE779  LEU786  VAL792 
 PHE793  MET794  SER795  GLU796  ALA797  LYS798  CYS799  TRP800  GLU811  SER814 

> <Gold.Protein.RotatedAtoms>
  151.0807  133.5392  159.2620 H   0  0  0  0  0  0  0  0  0  0  0  0  # atno 6907 bound_to 6896
  151.2296  135.0549  159.8992 H   0  0  0  0  0  0  0  0  0  0  0  0  # atno 6908 bound_to 6896
  152.5423  134.0598  159.8201 H   0  0  0  0  0  0  0  0  0  0  0  0  # atno 6909 bound_to 6896
  144.9438  139.4899  143.5559 H   0  0  0  0  0  0  0  0  0  0  0  0  # atno 7974 bound_to 7965
  155.9577  140.3396  155.6463 H   0  0  0  0  0  0  0  0  0  0  0  0  # atno 8008 bound_to 7997
  155.6839  140.0741  157.2492 H   0  0  0  0  0  0  0  0  0  0  0  0  # atno 8009 bound_to 7997
  154.4136  140.1669  156.2000 H   0  0  0  0  0  0  0  0  0  0  0  0  # atno 8010 bound_to 7997
  139.4822  144.5134  151.7989 H   0  0  0  0  0  0  0  0  0  0  0  0  # atno 10167 bound_to 10162
  156.3745  130.7805  151.1990 H   0  0  0  0  0  0  0  0  0  0  0  0  # atno 10718 bound_to 10713
  153.0964  135.4834  154.8786 H   0  0  0  0  0  0  0  0  0  0  0  0  # atno 10763 bound_to 10752
  154.7329  135.3064  154.8863 H   0  0  0  0  0  0  0  0  0  0  0  0  # atno 10764 bound_to 10752
  153.9493  135.6825  153.4797 H   0  0  0  0  0  0  0  0  0  0  0  0  # atno 10765 bound_to 10752
  140.9311  134.1318  157.4233 H   0  0  0  0  0  0  0  0  0  0  0  0  # atno 11005 bound_to 11000
  146.3296  139.8476  142.8879 LP  0  0  0  0  0  0  0  0  0  0  0  0  # atno 17320 bound_to 7965
  145.2950  141.0178  143.3641 LP  0  0  0  0  0  0  0  0  0  0  0  0  # atno 17321 bound_to 7965
  140.4640  144.1682  150.5909 LP  0  0  0  0  0  0  0  0  0  0  0  0  # atno 17342 bound_to 10162
  140.4454  143.2509  151.9418 LP  0  0  0  0  0  0  0  0  0  0  0  0  # atno 17343 bound_to 10162
  157.7487  131.0362  150.4400 LP  0  0  0  0  0  0  0  0  0  0  0  0  # atno 17370 bound_to 10713
  156.4633  130.4036  149.6563 LP  0  0  0  0  0  0  0  0  0  0  0  0  # atno 17371 bound_to 10713
  139.8796  135.0005  156.6015 LP  0  0  0  0  0  0  0  0  0  0  0  0  # atno 17394 bound_to 11000
  140.7861  133.8620  155.8607 LP  0  0  0  0  0  0  0  0  0  0  0  0  # atno 17395 bound_to 11000

$$$$
