AV-unprocessed.smi:1966|AV-procd|sdf|7948|dock3
  -GOLD-   2272010113D 1   1.00000     0.00000
 Structure written by MMmdl.
 53 54  0  0  0  0  0  0  0  0  1 V2000
  145.2434  135.9278  151.3163 C   0  0  0  0  0  0  0  0  0  0  0  0
  145.5847  135.0956  152.5472 C   0  0  0  0  0  0  0  0  0  0  0  0
  144.7753  134.2793  152.9866 O   0  0  0  0  0  0  0  0  0  0  0  0
  146.7911  135.3134  153.0940 N   0  0  0  0  0  0  0  0  0  0  0  0
  147.3194  134.6411  154.2834 C   0  0  2  0  0  0  0  0  0  0  0  0
  147.8097  135.7096  155.2803 C   0  0  0  0  0  0  0  0  0  0  0  0
  147.3842  135.7137  156.4365 O   0  0  0  0  0  0  0  0  0  0  0  0
  148.7016  136.5922  154.7941 N   0  0  0  0  0  0  0  0  0  0  0  0
  149.3082  137.6916  155.4586 C   0  0  0  0  0  0  0  0  0  0  0  0
  149.8244  138.8316  154.8007 C   0  0  0  0  0  0  0  0  0  0  0  0
  150.4211  139.8501  155.5684 C   0  0  0  0  0  0  0  0  0  0  0  0
  150.4972  139.7048  156.9739 C   0  0  0  0  0  0  0  0  0  0  0  0
  151.0818  140.7191  157.7630 N   0  0  0  0  0  0  0  0  0  0  0  0
  151.2707  142.0109  157.1089 C   0  0  0  0  0  0  0  0  0  0  0  0
  151.5848  143.0991  158.1533 C   0  0  2  0  0  0  0  0  0  0  0  0
  151.9089  144.4476  157.5017 C   0  0  0  0  0  0  0  0  0  0  0  0
  152.7104  142.6951  158.9286 O   0  0  0  0  0  0  0  0  0  0  0  0
  152.4711  141.4886  159.6482 C   0  0  2  0  0  0  0  0  0  0  0  0
  153.6975  141.1940  160.5181 C   0  0  0  0  0  0  0  0  0  0  0  0
  152.1845  140.3525  158.6487 C   0  0  0  0  0  0  0  0  0  0  0  0
  150.0114  138.6043  157.5990 N   0  0  0  0  0  0  0  0  0  0  0  0
  149.4430  137.6292  156.8595 C   0  0  0  0  0  0  0  0  0  0  0  0
  148.5061  133.7264  153.8577 C   0  0  0  0  0  0  0  0  0  0  0  0
  148.0177  132.4378  153.1672 C   0  0  0  0  0  0  0  0  0  0  0  0
  149.4309  133.3475  155.0337 C   0  0  0  0  0  0  0  0  0  0  0  0
  145.2536  136.9904  151.5610 H   0  0  0  0  0  0  0  0  0  0  0  0
  144.2525  135.6736  150.9382 H   0  0  0  0  0  0  0  0  0  0  0  0
  145.9689  135.7484  150.5224 H   0  0  0  0  0  0  0  0  0  0  0  0
  147.3845  136.0101  152.6675 H   0  0  0  0  0  0  0  0  0  0  0  0
  146.5370  134.0315  154.7409 H   0  0  0  0  0  0  0  0  0  0  0  0
  149.0323  136.4150  153.8566 H   0  0  0  0  0  0  0  0  0  0  0  0
  149.7849  138.9405  153.7280 H   0  0  0  0  0  0  0  0  0  0  0  0
  150.7985  140.7320  155.0729 H   0  0  0  0  0  0  0  0  0  0  0  0
  152.0933  141.9243  156.3977 H   0  0  0  0  0  0  0  0  0  0  0  0
  150.3907  142.3069  156.5397 H   0  0  0  0  0  0  0  0  0  0  0  0
  150.7252  143.2316  158.8129 H   0  0  0  0  0  0  0  0  0  0  0  0
  151.0704  144.8061  156.9039 H   0  0  0  0  0  0  0  0  0  0  0  0
  152.7782  144.3720  156.8480 H   0  0  0  0  0  0  0  0  0  0  0  0
  152.1250  145.2032  158.2574 H   0  0  0  0  0  0  0  0  0  0  0  0
  151.6086  141.6276  160.3028 H   0  0  0  0  0  0  0  0  0  0  0  0
  153.5561  140.2829  161.1000 H   0  0  0  0  0  0  0  0  0  0  0  0
  153.8837  142.0093  161.2174 H   0  0  0  0  0  0  0  0  0  0  0  0
  154.5926  141.0670  159.9084 H   0  0  0  0  0  0  0  0  0  0  0  0
  151.9385  139.4424  159.1977 H   0  0  0  0  0  0  0  0  0  0  0  0
  153.0720  140.1434  158.0495 H   0  0  0  0  0  0  0  0  0  0  0  0
  149.0774  136.7735  157.4084 H   0  0  0  0  0  0  0  0  0  0  0  0
  149.1153  134.2657  153.1301 H   0  0  0  0  0  0  0  0  0  0  0  0
  147.3687  131.8597  153.8259 H   0  0  0  0  0  0  0  0  0  0  0  0
  148.8564  131.7999  152.8866 H   0  0  0  0  0  0  0  0  0  0  0  0
  147.4618  132.6484  152.2535 H   0  0  0  0  0  0  0  0  0  0  0  0
  148.8745  132.8491  155.8280 H   0  0  0  0  0  0  0  0  0  0  0  0
  149.9246  134.2173  155.4671 H   0  0  0  0  0  0  0  0  0  0  0  0
  150.2206  132.6699  154.7083 H   0  0  0  0  0  0  0  0  0  0  0  0
  1  2  1  0  0  0  0
  1 26  1  0  0  0  0
  1 27  1  0  0  0  0
  1 28  1  0  0  0  0
  2  3  2  0  0  0  0
  2  4  1  0  0  0  0
  4  5  1  0  0  0  0
  4 29  1  0  0  0  0
  5  6  1  0  0  0  0
  5 23  1  0  0  0  0
  5 30  1  0  0  0  0
  6  7  2  0  0  0  0
  6  8  1  0  0  0  0
  8  9  1  0  0  0  0
  8 31  1  0  0  0  0
  9 22  1  0  0  0  0
  9 10  2  0  0  0  0
 10 11  1  0  0  0  0
 10 32  1  0  0  0  0
 11 12  2  0  0  0  0
 11 33  1  0  0  0  0
 12 13  1  0  0  0  0
 12 21  1  0  0  0  0
 13 20  1  0  0  0  0
 13 14  1  0  0  0  0
 14 15  1  0  0  0  0
 14 34  1  0  0  0  0
 14 35  1  0  0  0  0
 15 16  1  0  0  0  0
 15 17  1  0  0  0  0
 15 36  1  0  0  0  0
 16 37  1  0  0  0  0
 16 38  1  0  0  0  0
 16 39  1  0  0  0  0
 17 18  1  0  0  0  0
 18 19  1  0  0  0  0
 18 20  1  0  0  0  0
 18 40  1  0  0  0  0
 19 41  1  0  0  0  0
 19 42  1  0  0  0  0
 19 43  1  0  0  0  0
 20 44  1  0  0  0  0
 20 45  1  0  0  0  0
 21 22  2  0  0  0  0
 22 46  1  0  0  0  0
 23 24  1  0  0  0  0
 23 25  1  0  0  0  0
 23 47  1  0  0  0  0
 24 48  1  0  0  0  0
 24 49  1  0  0  0  0
 24 50  1  0  0  0  0
 25 51  1  0  0  0  0
 25 52  1  0  0  0  0
 25 53  1  0  0  0  0
M  END
> <s_m_source_file>
AV-unprocessed.smi

> <i_m_source_file_index>
1966

> <i_lp_mmshare_version>
43012

> <i_f3d_flags>
0

> <s_epik_input>
W0NIM11DKD1PKVtOSF1bQ0BASF0oW0NIXShbQ0gzXSlbQ0gzXSlDKD1PKVtOSF1jMVtjSF1bY0hdYyhuW2NIXTEpTjJbQ0gyXVtDQEBIXShbQ0gzXSlPW0NAQEhdKFtDSDNdKVtDSDJdMg==

> <s_epik_cmdline>
J2VwaWtfcHl0aG9uJywgJy1waCcsICc3LjAnLCAnLXRuJywgJzgnLCAnLW1hJywgJzIwMCcsICctbWV0YWxfYmluZGluZycsICctaW1hZScsICc8aW5maWxlLm1hZT4nLCAnLW9tYWUnLCAnPG91dGZpbGUubWFlPic=

> <r_lp_tautomer_probability>
1

> <r_epik_Ionization_Penalty>
0.000679699

> <r_epik_Ionization_Penalty_Charging>
0

> <r_epik_Ionization_Penalty_Neutral>
0.000679699

> <r_epik_State_Penalty>
0.000430485

> <r_epik_Charging_Adjusted_Penalty>
0.000430485

> <i_epik_Tot_Q>
0

> <i_epik_Tot_abs_Q>
0

> <r_epik_Metal_State_Penalty>
-0

> <b_epik_Metal_Only>
0

> <s_lp_Force_Field>
OPLS_2005

> <r_lp_Energy>
25.1321

> <b_lp_Chiralities_Consistent>
1

> <s_lp_Variant>
AV-unprocessed.smi:1966-1

> <Gold.Version>
5.8.1

> <Gold.Id.Protein>
6NUR|6NUR_protein|mol2

> <Gold.PLP.Fitness>
44.0829

> <Gold.PLP.PLP>
-39.2036

> <Gold.PLP.part.hbond>
-1.7463

> <Gold.PLP.part.metal>
0.0000

> <Gold.PLP.part.buried>
-5.3612

> <Gold.PLP.part.nonpolar>
-31.7793

> <Gold.PLP.part.repulsive>
0.0936

> <Gold.PLP.ligand.clash>
0.0000

> <Gold.PLP.ligand.torsion>
0.7468

> <Gold.PLP.Chemscore.Hbond>
1.9920

> <Gold.PLP.Chemscore.CHOScore>
0.0000

> <Gold.PLP.Chemscore.Metal>
0.0000

> <Gold.Chemscore.Hbonds>
donor molecule, donor type, donor heavy atom, donor atom, acceptor molecule, acceptor atom, score
      L1  H     4    29       P1  7948  0.85
      L1  H     8    31       P1  7948  1.00

> <Gold.PLP.Chemscore.Internal.Correction>
0.3968

> <Gold.Rescore>
     Score         DG    S(hbond)    S(metal)    S(lipo)     H(rot)  DE(clash)    DE(int)     intcor
     17.27     -19.37       1.93        0.00     100.33       1.68       0.01       2.08       ----

> <Gold.Chemscore.Fitness>
17.2716

> <Gold.Chemscore.DG>
-19.3669

> <Gold.Chemscore.ZeroCoef>
-5.4800

> <Gold.Chemscore.Hbond>
1.9277

> <Gold.Chemscore.Metal>
0.0000

> <Gold.Chemscore.Lipo>
100.3304

> <Gold.Chemscore.Internal_Hbond>
0.0000

> <Gold.Chemscore.DEClash>
0.0149

> <Gold.Chemscore.DEInternal>
2.0804

> <Gold.Chemscore.Rot>
1.6759

> <Gold.Chemscore.Internal.Correction>
   9.000000E+99

> <Gold.Chemscore.Hbonds>
donor molecule, donor type, donor heavy atom, donor atom, acceptor molecule, acceptor atom, score
      L1  H     4    29       P1  7948  0.83
      L1  H     8    31       P1  7948  0.96

> <Gold.Chemscore.Hbond.Weighted>
-6.4385

> <Gold.Chemscore.Metal.Weighted>
-0.0000

> <Gold.Chemscore.Lipo.Weighted>
-11.7387

> <Gold.Chemscore.Internal_Hbond.Weighted>
0.0000

> <Gold.Chemscore.DEClash.Weighted>
0.0149

> <Gold.Chemscore.DEInternal.Weighted>
2.0804

> <Gold.Chemscore.Rot.Weighted>
4.2902

> <Gold.Chemscore.Internal.Correction.Weighted>
   9.000000E+99

> <Gold.Protein.RotatedTorsions>
[ 6907 6896 6895 6894 ] final  118.93 input  -60.11 | X-H torsion
[ 7974 7965 7964 7962 ] final  -59.91 input  175.53 | X-H torsion
[ 8008 7997 7996 7995 ] final    8.42 input   59.86 | X-H torsion
[ 10167 10162 10161 10158 ] final -156.27 input  -65.29 | X-H torsion
[ 10718 10713 10712 10709 ] final   45.08 input   66.30 | X-H torsion
[ 10763 10752 10751 10750 ] final   70.33 input  -60.55 | X-H torsion
[ 11005 11000 10999 10996 ] final  -19.59 input  -57.11 | X-H torsion

> <Gold.Protein.ActiveResidues>
 VAL166  LYS551  ARG553  GLY616  TRP617  ASP618  TYR619  PRO620  LYS621  CYS622 
 ASP623  PHE694  ASN695  SER759  ASP760  ASP761  ALA762  ILE779  LEU786  VAL792 
 PHE793  MET794  SER795  GLU796  ALA797  LYS798  CYS799  TRP800  GLU811  SER814 

> <Gold.Protein.RotatedAtoms>
  152.4508  133.7625  159.6754 H   0  0  0  0  0  0  0  0  0  0  0  0  # atno 6907 bound_to 6896
  150.8419  133.7912  159.3064 H   0  0  0  0  0  0  0  0  0  0  0  0  # atno 6908 bound_to 6896
  151.5534  135.1069  160.0007 H   0  0  0  0  0  0  0  0  0  0  0  0  # atno 6909 bound_to 6896
  145.8219  140.8535  143.0128 H   0  0  0  0  0  0  0  0  0  0  0  0  # atno 7974 bound_to 7965
  154.7666  140.2794  155.6171 H   0  0  0  0  0  0  0  0  0  0  0  0  # atno 8008 bound_to 7997
  156.2926  140.2649  156.2386 H   0  0  0  0  0  0  0  0  0  0  0  0  # atno 8009 bound_to 7997
  154.9951  140.0373  157.2326 H   0  0  0  0  0  0  0  0  0  0  0  0  # atno 8010 bound_to 7997
  139.6863  143.9495  152.2363 H   0  0  0  0  0  0  0  0  0  0  0  0  # atno 10167 bound_to 10162
  157.4338  130.8040  149.7628 H   0  0  0  0  0  0  0  0  0  0  0  0  # atno 10718 bound_to 10713
  153.0336  135.5178  154.7425 H   0  0  0  0  0  0  0  0  0  0  0  0  # atno 10763 bound_to 10752
  154.6420  135.2913  155.0094 H   0  0  0  0  0  0  0  0  0  0  0  0  # atno 10764 bound_to 10752
  154.1009  135.6636  153.4920 H   0  0  0  0  0  0  0  0  0  0  0  0  # atno 10765 bound_to 10752
  140.8382  133.7946  155.9831 H   0  0  0  0  0  0  0  0  0  0  0  0  # atno 11005 bound_to 11000
  144.6747  140.0545  143.7478 LP  0  0  0  0  0  0  0  0  0  0  0  0  # atno 17320 bound_to 7965
  145.9666  139.2839  143.1124 LP  0  0  0  0  0  0  0  0  0  0  0  0  # atno 17321 bound_to 7965
  139.9299  144.6748  150.8374 LP  0  0  0  0  0  0  0  0  0  0  0  0  # atno 17342 bound_to 10162
  140.7669  143.3316  151.2398 LP  0  0  0  0  0  0  0  0  0  0  0  0  # atno 17343 bound_to 10162
  155.9923  130.3932  150.2949 LP  0  0  0  0  0  0  0  0  0  0  0  0  # atno 17370 bound_to 10713
  157.1108  131.0221  151.3049 LP  0  0  0  0  0  0  0  0  0  0  0  0  # atno 17371 bound_to 10713
  140.8924  134.2479  157.5087 LP  0  0  0  0  0  0  0  0  0  0  0  0  # atno 17394 bound_to 11000
  139.8703  134.9668  156.4574 LP  0  0  0  0  0  0  0  0  0  0  0  0  # atno 17395 bound_to 11000

$$$$
