AV-unprocessed.smi:2405|AV-procd|sdf|9515|dock1
  -GOLD-   2272013143D 1   1.00000     0.00000
 Structure written by MMmdl.
 36 37  0  0  0  0  0  0  0  0  2 V2000
  150.7154  144.1239  157.8611 C   0  0  0  0  0  0  0  0  0  0  0  0
  152.0619  144.5012  158.4875 C   0  0  0  0  0  0  0  0  0  0  0  0
  152.3393  143.7438  159.7425 C   0  0  0  0  0  0  0  0  0  0  0  0
  153.3340  142.8611  159.8653 N   0  0  0  0  0  0  0  0  0  0  0  0
  153.4196  142.3206  161.1532 C   0  0  0  0  0  0  0  0  0  0  0  0
  154.4846  141.3140  161.4764 C   0  0  0  0  0  0  0  0  0  0  0  0
  154.3712  140.1138  160.5360 C   0  0  0  0  0  0  0  0  0  0  0  0
  154.1217  140.2875  159.3432 O   0  0  0  0  0  0  0  0  0  0  0  0
  154.5508  138.9044  161.0891 N   0  0  0  0  0  0  0  0  0  0  0  0
  154.4521  137.6317  160.3818 C   0  0  1  0  0  0  0  0  0  0  0  0
  153.0763  137.4969  159.7027 C   0  0  0  0  0  0  0  0  0  0  0  0
  153.3389  137.5681  158.1948 C   0  0  0  0  0  0  0  0  0  0  0  0
  154.7538  137.0048  158.0113 C   0  0  2  0  0  0  0  0  0  0  0  0
  154.7159  135.4652  157.9219 C   0  0  0  0  0  0  0  0  0  0  0  0
  154.2849  134.8125  158.8989 O   0  0  0  0  0  0  0  0  0  0  0  0
  155.1207  134.9622  156.8507 O   0  5  0  0  0  0  0  0  0  0  0  0
  155.4990  137.5316  159.2521 C   0  0  0  0  0  0  0  0  0  0  0  0
  152.4638  142.8104  162.0088 C   0  0  0  0  0  0  0  0  0  0  0  0
  151.4337  143.9808  161.2323 S   0  0  0  0  0  0  0  0  0  0  0  0
  150.5390  144.6907  156.9467 H   0  0  0  0  0  0  0  0  0  0  0  0
  149.8916  144.3296  158.5455 H   0  0  0  0  0  0  0  0  0  0  0  0
  150.6831  143.0637  157.6078 H   0  0  0  0  0  0  0  0  0  0  0  0
  152.8684  144.3102  157.7790 H   0  0  0  0  0  0  0  0  0  0  0  0
  152.0854  145.5694  158.7068 H   0  0  0  0  0  0  0  0  0  0  0  0
  155.4758  141.7574  161.3740 H   0  0  0  0  0  0  0  0  0  0  0  0
  154.4041  140.9771  162.5110 H   0  0  0  0  0  0  0  0  0  0  0  0
  154.7447  138.8602  162.0792 H   0  0  0  0  0  0  0  0  0  0  0  0
  154.5778  136.8049  161.0836 H   0  0  0  0  0  0  0  0  0  0  0  0
  152.6484  136.5240  159.9493 H   0  0  0  0  0  0  0  0  0  0  0  0
  152.3572  138.2511  160.0250 H   0  0  0  0  0  0  0  0  0  0  0  0
  152.5784  137.0363  157.6209 H   0  0  0  0  0  0  0  0  0  0  0  0
  153.3199  138.6081  157.8672 H   0  0  0  0  0  0  0  0  0  0  0  0
  155.2109  137.3825  157.0958 H   0  0  0  0  0  0  0  0  0  0  0  0
  155.8977  138.5197  159.0163 H   0  0  0  0  0  0  0  0  0  0  0  0
  156.3570  136.9229  159.5409 H   0  0  0  0  0  0  0  0  0  0  0  0
  152.3119  142.5616  163.0487 H   0  0  0  0  0  0  0  0  0  0  0  0
  1  2  1  0  0  0  0
  1 20  1  0  0  0  0
  1 21  1  0  0  0  0
  1 22  1  0  0  0  0
  2  3  1  0  0  0  0
  2 23  1  0  0  0  0
  2 24  1  0  0  0  0
  3 19  1  0  0  0  0
  3  4  2  0  0  0  0
  4  5  1  0  0  0  0
  5  6  1  0  0  0  0
  5 18  2  0  0  0  0
  6  7  1  0  0  0  0
  6 25  1  0  0  0  0
  6 26  1  0  0  0  0
  7  8  2  0  0  0  0
  7  9  1  0  0  0  0
  9 10  1  0  0  0  0
  9 27  1  0  0  0  0
 10 17  1  0  0  0  0
 10 11  1  0  0  0  0
 10 28  1  0  0  0  0
 11 12  1  0  0  0  0
 11 29  1  0  0  0  0
 11 30  1  0  0  0  0
 12 13  1  0  0  0  0
 12 31  1  0  0  0  0
 12 32  1  0  0  0  0
 13 14  1  0  0  0  0
 13 17  1  0  0  0  0
 13 33  1  0  0  0  0
 14 15  2  0  0  0  0
 14 16  1  0  0  0  0
 17 34  1  0  0  0  0
 17 35  1  0  0  0  0
 18 19  1  0  0  0  0
 18 36  1  0  0  0  0
M  CHG  1  16  -1
M  END
> <s_m_source_file>
AV-unprocessed.smi

> <i_m_source_file_index>
2405

> <i_lp_mmshare_version>
43012

> <i_f3d_flags>
0

> <s_epik_input>
W0NIM11bQ0gyXWMxbmMoW2NIXXMxKVtDSDJdQyg9TylbTkhdW0NAQEhdMltDSDJdW0NIMl1bQ0BIXShbQ0gyXTIpQyg9TylbT0hd

> <s_epik_cmdline>
J2VwaWtfcHl0aG9uJywgJy1waCcsICc3LjAnLCAnLXRuJywgJzgnLCAnLW1hJywgJzIwMCcsICctbWV0YWxfYmluZGluZycsICctaW1hZScsICc8aW5maWxlLm1hZT4nLCAnLW9tYWUnLCAnPG91dGZpbGUubWFlPic=

> <r_epik_Ionization_Penalty>
0.000544611

> <r_epik_Ionization_Penalty_Charging>
0.000481685

> <r_epik_Ionization_Penalty_Neutral>
6.29266e-05

> <r_epik_State_Penalty>
0.00029893

> <r_epik_Charging_Adjusted_Penalty>
0.000780614

> <i_epik_Tot_Q>
-1

> <i_epik_Tot_abs_Q>
1

> <r_epik_Metal_State_Penalty>
-0

> <b_epik_Metal_Only>
0

> <s_lp_Force_Field>
OPLS_2005

> <r_lp_Energy>
7.82971

> <b_lp_Chiralities_Consistent>
1

> <s_lp_Variant>
AV-unprocessed.smi:2405-4

> <Gold.Version>
5.8.1

> <Gold.Id.Protein>
6NUR|6NUR_protein|mol2

> <Gold.PLP.Fitness>
50.0694

> <Gold.PLP.PLP>
-36.7927

> <Gold.PLP.part.hbond>
-3.0000

> <Gold.PLP.part.metal>
0.0000

> <Gold.PLP.part.buried>
-2.3545

> <Gold.PLP.part.nonpolar>
-30.4318

> <Gold.PLP.part.repulsive>
0.0005

> <Gold.PLP.ligand.clash>
0.0000

> <Gold.PLP.ligand.torsion>
0.3809

> <Gold.PLP.Chemscore.Hbond>
4.6550

> <Gold.PLP.Chemscore.CHOScore>
0.0000

> <Gold.PLP.Chemscore.Metal>
0.0000

> <Gold.Chemscore.Hbonds>
donor molecule, donor type, donor heavy atom, donor atom, acceptor molecule, acceptor atom, score
      P1  H  6896  6909       L1    15  2.00
      P1  H  7997  8010       L1     8  0.45
      P1  H 10752 10765       L1    16  2.00

> <Gold.PLP.Chemscore.Internal.Correction>
0.0734

> <Gold.Rescore>
     Score         DG    S(hbond)    S(metal)    S(lipo)     H(rot)  DE(clash)    DE(int)     intcor
     17.05     -21.79       2.80        0.00     104.53       2.06       1.07       3.67       ----

> <Gold.Chemscore.Fitness>
17.0472

> <Gold.Chemscore.DG>
-21.7938

> <Gold.Chemscore.ZeroCoef>
-5.4800

> <Gold.Chemscore.Hbond>
2.8041

> <Gold.Chemscore.Metal>
0.0000

> <Gold.Chemscore.Lipo>
104.5347

> <Gold.Chemscore.Internal_Hbond>
0.0000

> <Gold.Chemscore.DEClash>
1.0726

> <Gold.Chemscore.DEInternal>
3.6739

> <Gold.Chemscore.Rot>
2.0635

> <Gold.Chemscore.Internal.Correction>
   9.000000E+99

> <Gold.Chemscore.Hbonds>
donor molecule, donor type, donor heavy atom, donor atom, acceptor molecule, acceptor atom, score
      P1  H  6896  6909       L1    15  0.92
      P1  H  7997  8010       L1     8  0.44
      P1  H 10752 10765       L1    16  0.96

> <Gold.Chemscore.Hbond.Weighted>
-9.3656

> <Gold.Chemscore.Metal.Weighted>
-0.0000

> <Gold.Chemscore.Lipo.Weighted>
-12.2306

> <Gold.Chemscore.Internal_Hbond.Weighted>
0.0000

> <Gold.Chemscore.DEClash.Weighted>
1.0726

> <Gold.Chemscore.DEInternal.Weighted>
3.6739

> <Gold.Chemscore.Rot.Weighted>
5.2825

> <Gold.Chemscore.Internal.Correction.Weighted>
   9.000000E+99

> <Gold.Protein.RotatedTorsions>
[ 6907 6896 6895 6894 ] final -149.40 input  -60.11 | X-H torsion
[ 7974 7965 7964 7962 ] final   22.80 input  175.53 | X-H torsion
[ 8008 7997 7996 7995 ] final    6.26 input   59.86 | X-H torsion
[ 10167 10162 10161 10158 ] final   -0.90 input  -65.29 | X-H torsion
[ 10718 10713 10712 10709 ] final  -15.64 input   66.30 | X-H torsion
[ 10763 10752 10751 10750 ] final  -84.49 input  -60.55 | X-H torsion
[ 11005 11000 10999 10996 ] final   48.89 input  -57.11 | X-H torsion

> <Gold.Protein.ActiveResidues>
 VAL166  LYS551  ARG553  GLY616  TRP617  ASP618  TYR619  PRO620  LYS621  CYS622 
 ASP623  PHE694  ASN695  SER759  ASP760  ASP761  ALA762  ILE779  LEU786  VAL792 
 PHE793  MET794  SER795  GLU796  ALA797  LYS798  CYS799  TRP800  GLU811  SER814 

> <Gold.Protein.RotatedAtoms>
  151.1836  133.4710  159.2594 H   0  0  0  0  0  0  0  0  0  0  0  0  # atno 6907 bound_to 6896
  151.1234  135.0091  159.8559 H   0  0  0  0  0  0  0  0  0  0  0  0  # atno 6908 bound_to 6896
  152.5457  134.1745  159.8663 H   0  0  0  0  0  0  0  0  0  0  0  0  # atno 6909 bound_to 6896
  146.2013  139.7834  142.8759 H   0  0  0  0  0  0  0  0  0  0  0  0  # atno 7974 bound_to 7965
  154.7387  140.2745  155.6392 H   0  0  0  0  0  0  0  0  0  0  0  0  # atno 8008 bound_to 7997
  156.2868  140.2701  156.2034 H   0  0  0  0  0  0  0  0  0  0  0  0  # atno 8009 bound_to 7997
  155.0286  140.0371  157.2455 H   0  0  0  0  0  0  0  0  0  0  0  0  # atno 8010 bound_to 7997
  140.6787  143.6839  150.8082 H   0  0  0  0  0  0  0  0  0  0  0  0  # atno 10167 bound_to 10162
  156.5989  130.4819  149.6248 H   0  0  0  0  0  0  0  0  0  0  0  0  # atno 10718 bound_to 10713
  154.6001  135.5519  153.7365 H   0  0  0  0  0  0  0  0  0  0  0  0  # atno 10763 bound_to 10752
  153.0151  135.6364  154.1727 H   0  0  0  0  0  0  0  0  0  0  0  0  # atno 10764 bound_to 10752
  154.1667  135.2894  155.3073 H   0  0  0  0  0  0  0  0  0  0  0  0  # atno 10765 bound_to 10752
  140.1151  134.4904  155.8645 H   0  0  0  0  0  0  0  0  0  0  0  0  # atno 11005 bound_to 11000
  145.3475  141.0300  143.3357 LP  0  0  0  0  0  0  0  0  0  0  0  0  # atno 17320 bound_to 7965
  144.8689  139.5067  143.6777 LP  0  0  0  0  0  0  0  0  0  0  0  0  # atno 17321 bound_to 7965
  140.0536  143.5224  152.2661 LP  0  0  0  0  0  0  0  0  0  0  0  0  # atno 17342 bound_to 10162
  139.6095  144.7605  151.2983 LP  0  0  0  0  0  0  0  0  0  0  0  0  # atno 17343 bound_to 10162
  156.2486  130.6893  151.1623 LP  0  0  0  0  0  0  0  0  0  0  0  0  # atno 17370 bound_to 10713
  157.7284  131.0631  150.5819 LP  0  0  0  0  0  0  0  0  0  0  0  0  # atno 17371 bound_to 10713
  141.2139  133.6740  156.6780 LP  0  0  0  0  0  0  0  0  0  0  0  0  # atno 17394 bound_to 11000
  140.3039  134.8141  157.4121 LP  0  0  0  0  0  0  0  0  0  0  0  0  # atno 17395 bound_to 11000

$$$$
