AV-unprocessed.smi:759|AV-procd|sdf|3621|dock8
  -GOLD-   22720 1 13D 1   1.00000     0.00000
 Structure written by MMmdl.
 24 25  0  0  0  0  0  0  0  0  2 V2000
  151.1892  141.0220  157.4356 C   0  0  0  0  0  0  0  0  0  0  0  0
  150.9893  142.3176  157.2025 N   0  0  0  0  0  0  0  0  0  0  0  0
  150.2588  142.2918  156.0684 N   0  0  0  0  0  0  0  0  0  0  0  0
  150.0694  141.0249  155.6931 C   0  0  0  0  0  0  0  0  0  0  0  0
  149.2899  140.6608  154.4665 C   0  0  2  0  0  0  0  0  0  0  0  0
  147.8545  141.2191  154.5068 C   0  0  0  0  0  0  0  0  0  0  0  0
  147.0839  140.8160  153.2400 C   0  0  0  0  0  0  0  0  0  0  0  0
  147.1209  139.2925  153.0346 C   0  0  0  0  0  0  0  0  0  0  0  0
  148.5167  138.8042  152.9961 N   0  3  0  0  0  0  0  0  0  0  0  0
  149.2806  139.1380  154.2186 C   0  0  0  0  0  0  0  0  0  0  0  0
  150.6388  140.1608  156.5280 N   0  0  0  0  0  0  0  0  0  0  0  0
  151.7542  140.6832  158.2917 H   0  0  0  0  0  0  0  0  0  0  0  0
  149.7949  141.1244  153.6170 H   0  0  0  0  0  0  0  0  0  0  0  0
  147.3308  140.8406  155.3860 H   0  0  0  0  0  0  0  0  0  0  0  0
  147.8741  142.3056  154.5997 H   0  0  0  0  0  0  0  0  0  0  0  0
  146.0510  141.1589  153.3074 H   0  0  0  0  0  0  0  0  0  0  0  0
  147.5191  141.3137  152.3723 H   0  0  0  0  0  0  0  0  0  0  0  0
  146.5844  138.7868  153.8389 H   0  0  0  0  0  0  0  0  0  0  0  0
  146.6243  139.0240  152.1020 H   0  0  0  0  0  0  0  0  0  0  0  0
  148.5100  137.8009  152.8780 H   0  0  0  0  0  0  0  0  0  0  0  0
  150.2991  138.7645  154.1088 H   0  0  0  0  0  0  0  0  0  0  0  0
  148.8386  138.6125  155.0667 H   0  0  0  0  0  0  0  0  0  0  0  0
  148.9810  139.2222  152.2027 H   0  0  0  0  0  0  0  0  0  0  0  0
  149.9264  143.1277  155.6088 H   0  0  0  0  0  0  0  0  0  0  0  0
  1 11  1  0  0  0  0
  1 12  1  0  0  0  0
  1  2  2  0  0  0  0
  2  3  1  0  0  0  0
  3  4  1  0  0  0  0
  3 24  1  0  0  0  0
  4 11  2  0  0  0  0
  4  5  1  0  0  0  0
  5 10  1  0  0  0  0
  5  6  1  0  0  0  0
  5 13  1  0  0  0  0
  6  7  1  0  0  0  0
  6 14  1  0  0  0  0
  6 15  1  0  0  0  0
  7  8  1  0  0  0  0
  7 16  1  0  0  0  0
  7 17  1  0  0  0  0
  8  9  1  0  0  0  0
  8 18  1  0  0  0  0
  8 19  1  0  0  0  0
  9 10  1  0  0  0  0
  9 20  1  0  0  0  0
  9 23  1  0  0  0  0
 10 21  1  0  0  0  0
 10 22  1  0  0  0  0
M  CHG  1   9   1
M  END
> <s_m_source_file>
AV-unprocessed.smi

> <i_m_source_file_index>
759

> <i_lp_mmshare_version>
43012

> <i_f3d_flags>
0

> <s_epik_input>
W25IXTFbY0hdbm5jMVtDQEBIXTJbQ0gyXVtDSDJdW0NIMl1bTkhdW0NIMl0y

> <s_epik_cmdline>
J2VwaWtfcHl0aG9uJywgJy1waCcsICc3LjAnLCAnLXRuJywgJzgnLCAnLW1hJywgJzIwMCcsICctbWV0YWxfYmluZGluZycsICctaW1hZScsICc8aW5maWxlLm1hZT4nLCAnLW9tYWUnLCAnPG91dGZpbGUubWFlPic=

> <r_epik_Ionization_Penalty>
0.00885924

> <r_epik_Ionization_Penalty_Charging>
0.000426856

> <r_epik_Ionization_Penalty_Neutral>
0.00843239

> <r_epik_State_Penalty>
0.640618

> <r_epik_Charging_Adjusted_Penalty>
0.641045

> <i_epik_Tot_Q>
1

> <i_epik_Tot_abs_Q>
1

> <r_epik_Metal_State_Penalty>
0.906339

> <b_epik_Metal_Only>
0

> <s_lp_Force_Field>
OPLS_2005

> <r_lp_Energy>
13.0828

> <b_lp_Chiralities_Consistent>
1

> <s_lp_Variant>
AV-unprocessed.smi:759-3

> <Gold.Version>
5.8.1

> <Gold.Id.Protein>
6NUR|6NUR_protein|mol2

> <Gold.PLP.Fitness>
32.8748

> <Gold.PLP.PLP>
-21.4860

> <Gold.PLP.part.hbond>
-2.7525

> <Gold.PLP.part.metal>
0.0000

> <Gold.PLP.part.buried>
-3.3395

> <Gold.PLP.part.nonpolar>
-16.2595

> <Gold.PLP.part.repulsive>
0.2875

> <Gold.PLP.ligand.clash>
0.0000

> <Gold.PLP.ligand.torsion>
0.0148

> <Gold.PLP.Chemscore.Hbond>
3.7965

> <Gold.PLP.Chemscore.CHOScore>
0.0000

> <Gold.PLP.Chemscore.Metal>
0.0000

> <Gold.Chemscore.Hbonds>
donor molecule, donor type, donor heavy atom, donor atom, acceptor molecule, acceptor atom, score
      L1  H     3    24       P1  8028  1.00
      L1  H     9    20       P1  7948  1.98
      L1  H     9    23       P1  7957  0.81

> <Gold.PLP.Chemscore.Internal.Correction>
0.0290

> <Gold.Rescore>
     Score         DG    S(hbond)    S(metal)    S(lipo)     H(rot)  DE(clash)    DE(int)     intcor
     16.56     -16.58       2.90        0.00      34.03       1.00       0.01       0.02       ----

> <Gold.Chemscore.Fitness>
16.5592

> <Gold.Chemscore.DG>
-16.5833

> <Gold.Chemscore.ZeroCoef>
-5.4800

> <Gold.Chemscore.Hbond>
2.8988

> <Gold.Chemscore.Metal>
0.0000

> <Gold.Chemscore.Lipo>
34.0294

> <Gold.Chemscore.Internal_Hbond>
0.0000

> <Gold.Chemscore.DEClash>
0.0073

> <Gold.Chemscore.DEInternal>
0.0168

> <Gold.Chemscore.Rot>
1.0000

> <Gold.Chemscore.Internal.Correction>
   9.000000E+99

> <Gold.Chemscore.Hbonds>
donor molecule, donor type, donor heavy atom, donor atom, acceptor molecule, acceptor atom, score
      L1  H     3    24       P1  8028  0.94
      L1  H     9    20       P1  7948  0.93
      L1  H     9    23       P1  7957  0.78

> <Gold.Chemscore.Hbond.Weighted>
-9.6819

> <Gold.Chemscore.Metal.Weighted>
-0.0000

> <Gold.Chemscore.Lipo.Weighted>
-3.9814

> <Gold.Chemscore.Internal_Hbond.Weighted>
0.0000

> <Gold.Chemscore.DEClash.Weighted>
0.0073

> <Gold.Chemscore.DEInternal.Weighted>
0.0168

> <Gold.Chemscore.Rot.Weighted>
2.5600

> <Gold.Chemscore.Internal.Correction.Weighted>
   9.000000E+99

> <Gold.Protein.RotatedTorsions>
[ 6907 6896 6895 6894 ] final  -36.03 input  -60.11 | X-H torsion
[ 7974 7965 7964 7962 ] final  162.41 input  175.53 | X-H torsion
[ 8008 7997 7996 7995 ] final  133.61 input   59.86 | X-H torsion
[ 10167 10162 10161 10158 ] final -167.55 input  -65.29 | X-H torsion
[ 10718 10713 10712 10709 ] final -102.83 input   66.30 | X-H torsion
[ 10763 10752 10751 10750 ] final  -95.66 input  -60.55 | X-H torsion
[ 11005 11000 10999 10996 ] final  126.71 input  -57.11 | X-H torsion

> <Gold.Protein.ActiveResidues>
 VAL166  LYS551  ARG553  GLY616  TRP617  ASP618  TYR619  PRO620  LYS621  CYS622 
 ASP623  PHE694  ASN695  SER759  ASP760  ASP761  ALA762  ILE779  LEU786  VAL792 
 PHE793  MET794  SER795  GLU796  ALA797  LYS798  CYS799  TRP800  GLU811  SER814 

> <Gold.Protein.RotatedAtoms>
  151.0323  134.9548  159.8117 H   0  0  0  0  0  0  0  0  0  0  0  0  # atno 6907 bound_to 6896
  152.5348  134.2764  159.9001 H   0  0  0  0  0  0  0  0  0  0  0  0  # atno 6908 bound_to 6896
  151.2774  133.4183  159.2659 H   0  0  0  0  0  0  0  0  0  0  0  0  # atno 6909 bound_to 6896
  144.7638  139.8035  143.6323 H   0  0  0  0  0  0  0  0  0  0  0  0  # atno 7974 bound_to 7965
  156.2993  140.2517  156.3281 H   0  0  0  0  0  0  0  0  0  0  0  0  # atno 8008 bound_to 7997
  154.9171  140.0402  157.1997 H   0  0  0  0  0  0  0  0  0  0  0  0  # atno 8009 bound_to 7997
  154.8348  140.2881  155.5703 H   0  0  0  0  0  0  0  0  0  0  0  0  # atno 8010 bound_to 7997
  139.6042  144.0947  152.1775 H   0  0  0  0  0  0  0  0  0  0  0  0  # atno 10167 bound_to 10162
  156.0243  130.5439  150.7166 H   0  0  0  0  0  0  0  0  0  0  0  0  # atno 10718 bound_to 10713
  154.7169  135.5112  153.8751 H   0  0  0  0  0  0  0  0  0  0  0  0  # atno 10763 bound_to 10752
  153.0828  135.6636  154.0019 H   0  0  0  0  0  0  0  0  0  0  0  0  # atno 10764 bound_to 10752
  153.9850  135.3025  155.3396 H   0  0  0  0  0  0  0  0  0  0  0  0  # atno 10765 bound_to 10752
  139.9470  134.9628  156.8748 H   0  0  0  0  0  0  0  0  0  0  0  0  # atno 11005 bound_to 11000
  146.1727  139.4884  142.9917 LP  0  0  0  0  0  0  0  0  0  0  0  0  # atno 17320 bound_to 7965
  145.6534  141.0258  143.1748 LP  0  0  0  0  0  0  0  0  0  0  0  0  # atno 17321 bound_to 7965
  140.0550  144.5902  150.7306 LP  0  0  0  0  0  0  0  0  0  0  0  0  # atno 17342 bound_to 10162
  140.7272  143.2649  151.4077 LP  0  0  0  0  0  0  0  0  0  0  0  0  # atno 17343 bound_to 10162
  157.4791  131.0900  151.0556 LP  0  0  0  0  0  0  0  0  0  0  0  0  # atno 17370 bound_to 10713
  157.0994  130.5975  149.5457 LP  0  0  0  0  0  0  0  0  0  0  0  0  # atno 17371 bound_to 10713
  140.5810  134.0352  155.7464 LP  0  0  0  0  0  0  0  0  0  0  0  0  # atno 17394 bound_to 11000
  141.1123  133.9596  157.2887 LP  0  0  0  0  0  0  0  0  0  0  0  0  # atno 17395 bound_to 11000

$$$$
