AV-unprocessed.smi:287|AV-procd|sdf|2181|dock3
  -GOLD-   2262021553D 1   1.00000     0.00000
 Structure written by MMmdl.
 55 58  0  0  0  0  0  0  0  0  1 V2000
  151.9840  144.7757  158.3952 C   0  0  0  0  0  0  0  0  0  0  0  0
  152.3716  143.4416  158.9346 C   0  0  0  0  0  0  0  0  0  0  0  0
  152.2738  142.1663  158.4595 C   0  0  0  0  0  0  0  0  0  0  0  0
  152.8234  141.2988  159.4501 C   0  0  0  0  0  0  0  0  0  0  0  0
  152.9183  139.7824  159.3491 C   0  0  1  0  0  0  0  0  0  0  0  0
  151.5078  139.1704  159.2997 C   0  0  0  0  0  0  0  0  0  0  0  0
  153.5532  139.3455  158.1629 O   0  0  0  0  0  0  0  0  0  0  0  0
  153.7219  139.1717  160.5191 C   0  0  0  0  0  0  0  0  0  0  0  0
  153.9234  137.7351  160.3796 N   0  0  0  0  0  0  0  0  0  0  0  0
  154.2253  136.9673  161.4476 C   0  0  0  0  0  0  0  0  0  0  0  0
  154.3133  137.6231  162.6296 N   0  0  0  0  0  0  0  0  0  0  0  0
  154.6056  136.9554  163.7491 C   0  0  0  0  0  0  0  0  0  0  0  0
  154.8393  135.6512  163.9057 N   0  0  0  0  0  0  0  0  0  0  0  0
  154.7513  134.9833  162.7193 C   0  0  0  0  0  0  0  0  0  0  0  0
  154.4547  135.5588  161.4507 C   0  0  0  0  0  0  0  0  0  0  0  0
  154.4641  134.5581  160.4843 N   0  0  0  0  0  0  0  0  0  0  0  0
  154.7475  133.4681  161.1445 C   0  0  0  0  0  0  0  0  0  0  0  0
  154.9211  133.6336  162.5017 N   0  0  0  0  0  0  0  0  0  0  0  0
  155.2583  132.6198  163.5518 C   0  0  2  0  0  0  0  0  0  0  0  0
  155.0351  131.3480  163.0201 O   0  0  0  0  0  0  0  0  0  0  0  0
  153.7368  130.8986  163.3945 C   0  0  1  0  0  0  0  0  0  0  0  0
  153.5911  129.3788  163.2029 C   0  0  0  0  0  0  0  0  0  0  0  0
  153.7466  129.0465  161.8395 O   0  0  0  0  0  0  0  0  0  0  0  0
  153.6394  131.3998  164.8404 C   0  0  1  0  0  0  0  0  0  0  0  0
  154.3160  130.5163  165.7205 O   0  0  0  0  0  0  0  0  0  0  0  0
  154.3069  132.7723  164.7547 C   0  0  1  0  0  0  0  0  0  0  0  0
  154.9691  133.1372  165.9513 O   0  0  0  0  0  0  0  0  0  0  0  0
  153.2238  142.1350  160.4652 C   0  0  0  0  0  0  0  0  0  0  0  0
  153.8718  141.9215  161.7935 C   0  0  0  0  0  0  0  0  0  0  0  0
  152.9533  143.4349  160.1600 O   0  0  0  0  0  0  0  0  0  0  0  0
  156.3141  132.7830  163.7718 H   0  0  0  0  0  0  0  0  0  0  0  0
  152.9866  131.4231  162.7994 H   0  0  0  0  0  0  0  0  0  0  0  0
  152.6034  131.4794  165.1716 H   0  0  0  0  0  0  0  0  0  0  0  0
  153.5502  133.5252  164.5278 H   0  0  0  0  0  0  0  0  0  0  0  0
  151.3097  144.6706  157.5449 H   0  0  0  0  0  0  0  0  0  0  0  0
  152.8634  145.3279  158.0638 H   0  0  0  0  0  0  0  0  0  0  0  0
  151.4772  145.3698  159.1561 H   0  0  0  0  0  0  0  0  0  0  0  0
  151.8503  141.8838  157.5072 H   0  0  0  0  0  0  0  0  0  0  0  0
  150.9398  139.4089  160.1996 H   0  0  0  0  0  0  0  0  0  0  0  0
  151.5453  138.0833  159.2172 H   0  0  0  0  0  0  0  0  0  0  0  0
  150.9422  139.5473  158.4462 H   0  0  0  0  0  0  0  0  0  0  0  0
  153.2385  138.4786  157.9568 H   0  0  0  0  0  0  0  0  0  0  0  0
  154.7099  139.6336  160.5346 H   0  0  0  0  0  0  0  0  0  0  0  0
  153.2487  139.3991  161.4755 H   0  0  0  0  0  0  0  0  0  0  0  0
  153.8354  137.3710  159.4416 H   0  0  0  0  0  0  0  0  0  0  0  0
  154.6606  137.5523  164.6476 H   0  0  0  0  0  0  0  0  0  0  0  0
  154.8345  132.5115  160.6499 H   0  0  0  0  0  0  0  0  0  0  0  0
  154.3110  128.8286  163.8097 H   0  0  0  0  0  0  0  0  0  0  0  0
  152.5944  129.0568  163.5058 H   0  0  0  0  0  0  0  0  0  0  0  0
  153.8263  129.8468  161.3431 H   0  0  0  0  0  0  0  0  0  0  0  0
  153.6868  129.8976  166.0597 H   0  0  0  0  0  0  0  0  0  0  0  0
  155.6790  132.5296  166.0947 H   0  0  0  0  0  0  0  0  0  0  0  0
  154.8307  141.4159  161.6790 H   0  0  0  0  0  0  0  0  0  0  0  0
  153.2393  141.3099  162.4371 H   0  0  0  0  0  0  0  0  0  0  0  0
  154.0515  142.8688  162.3028 H   0  0  0  0  0  0  0  0  0  0  0  0
  1  2  1  0  0  0  0
  1 35  1  0  0  0  0
  1 36  1  0  0  0  0
  1 37  1  0  0  0  0
  2 30  1  0  0  0  0
  2  3  2  0  0  0  0
  3  4  1  0  0  0  0
  3 38  1  0  0  0  0
  4  5  1  0  0  0  0
  4 28  2  0  0  0  0
  5  6  1  0  0  0  0
  5  7  1  0  0  0  0
  5  8  1  0  0  0  0
  6 39  1  0  0  0  0
  6 40  1  0  0  0  0
  6 41  1  0  0  0  0
  7 42  1  0  0  0  0
  8  9  1  0  0  0  0
  8 43  1  0  0  0  0
  8 44  1  0  0  0  0
  9 10  1  0  0  0  0
  9 45  1  0  0  0  0
 10 15  1  0  0  0  0
 10 11  2  0  0  0  0
 11 12  1  0  0  0  0
 12 13  2  0  0  0  0
 12 46  1  0  0  0  0
 13 14  1  0  0  0  0
 14 18  1  0  0  0  0
 14 15  2  0  0  0  0
 15 16  1  0  0  0  0
 16 17  2  0  0  0  0
 17 18  1  0  0  0  0
 17 47  1  0  0  0  0
 18 19  1  0  0  0  0
 19 31  1  0  0  0  0
 19 26  1  0  0  0  0
 19 20  1  0  0  0  0
 20 21  1  0  0  0  0
 21 32  1  0  0  0  0
 21 22  1  0  0  0  0
 21 24  1  0  0  0  0
 22 23  1  0  0  0  0
 22 48  1  0  0  0  0
 22 49  1  0  0  0  0
 23 50  1  0  0  0  0
 24 33  1  0  0  0  0
 24 25  1  0  0  0  0
 24 26  1  0  0  0  0
 25 51  1  0  0  0  0
 26 34  1  0  0  0  0
 26 27  1  0  0  0  0
 27 52  1  0  0  0  0
 28 29  1  0  0  0  0
 28 30  1  0  0  0  0
 29 53  1  0  0  0  0
 29 54  1  0  0  0  0
 29 55  1  0  0  0  0
M  END
> <s_m_source_file>
AV-unprocessed.smi

> <i_m_source_file_index>
287

> <i_lp_mmshare_version>
43012

> <i_f3d_flags>
0

> <s_epik_input>
W0NIM11jMVtjSF1jKGMobzEpW0NIM10pW0NAQF0oW0NIM10pKFtPSF0pW0NIMl1bTkhdYyhuW2NIXW4yKWMoYzIzKW5bY0hdbjNbQ0BASF00T1tDQEhdKFtDSDJdW09IXSlbQ0BASF0oW09IXSlbQ0BIXTRbT0hd

> <s_epik_cmdline>
J2VwaWtfcHl0aG9uJywgJy1waCcsICc3LjAnLCAnLXRuJywgJzgnLCAnLW1hJywgJzIwMCcsICctbWV0YWxfYmluZGluZycsICctaW1hZScsICc8aW5maWxlLm1hZT4nLCAnLW9tYWUnLCAnPG91dGZpbGUubWFlPic=

> <r_lp_tautomer_probability>
1

> <r_epik_Ionization_Penalty>
0.000992612

> <r_epik_Ionization_Penalty_Charging>
0

> <r_epik_Ionization_Penalty_Neutral>
0.000992612

> <r_epik_State_Penalty>
-0

> <r_epik_Charging_Adjusted_Penalty>
0

> <i_epik_Tot_Q>
0

> <i_epik_Tot_abs_Q>
0

> <r_epik_Metal_State_Penalty>
-0

> <b_epik_Metal_Only>
0

> <s_epik_Chemistry_Notes>
This compound contains an acetal/aminal-like group ( X-CH(R)-Y where X, Y are N, S, or O) that may be acid/base labile, releasing an aldehyde.

> <s_lp_Force_Field>
OPLS_2005

> <r_lp_Energy>
45.0467

> <b_lp_Chiralities_Consistent>
1

> <s_lp_Variant>
AV-unprocessed.smi:287-5

> <Gold.Version>
5.8.1

> <Gold.Id.Protein>
6NUR|6NUR_protein|mol2

> <Gold.PLP.Fitness>
52.1569

> <Gold.PLP.PLP>
-47.5190

> <Gold.PLP.part.hbond>
-1.9880

> <Gold.PLP.part.metal>
0.0000

> <Gold.PLP.part.buried>
-7.1371

> <Gold.PLP.part.nonpolar>
-38.7390

> <Gold.PLP.part.repulsive>
0.0957

> <Gold.PLP.ligand.clash>
0.0000

> <Gold.PLP.ligand.torsion>
0.5873

> <Gold.PLP.Chemscore.Hbond>
1.8938

> <Gold.PLP.Chemscore.CHOScore>
0.0000

> <Gold.PLP.Chemscore.Metal>
0.0000

> <Gold.Chemscore.Hbonds>
donor molecule, donor type, donor heavy atom, donor atom, acceptor molecule, acceptor atom, score
      P1  H  6896  6908       L1    16  1.00
      P1  H  7997  8008       L1     7  1.00

> <Gold.PLP.Chemscore.Internal.Correction>
0.1312

> <Gold.Rescore>
     Score         DG    S(hbond)    S(metal)    S(lipo)     H(rot)  DE(clash)    DE(int)     intcor
      7.81      -9.32       1.24        0.00     112.73       5.27       0.09       1.41       ----

> <Gold.Chemscore.Fitness>
7.8126

> <Gold.Chemscore.DG>
-9.3171

> <Gold.Chemscore.ZeroCoef>
-5.4800

> <Gold.Chemscore.Hbond>
1.2369

> <Gold.Chemscore.Metal>
0.0000

> <Gold.Chemscore.Lipo>
112.7342

> <Gold.Chemscore.Internal_Hbond>
0.0000

> <Gold.Chemscore.DEClash>
0.0949

> <Gold.Chemscore.DEInternal>
1.4096

> <Gold.Chemscore.Rot>
5.2672

> <Gold.Chemscore.Internal.Correction>
   9.000000E+99

> <Gold.Chemscore.Hbonds>
donor molecule, donor type, donor heavy atom, donor atom, acceptor molecule, acceptor atom, score
      P1  H  6896  6908       L1    16  0.25
      P1  H  7997  8008       L1     7  0.93

> <Gold.Chemscore.Hbond.Weighted>
-4.1311

> <Gold.Chemscore.Metal.Weighted>
-0.0000

> <Gold.Chemscore.Lipo.Weighted>
-13.1899

> <Gold.Chemscore.Internal_Hbond.Weighted>
0.0000

> <Gold.Chemscore.DEClash.Weighted>
0.0949

> <Gold.Chemscore.DEInternal.Weighted>
1.4096

> <Gold.Chemscore.Rot.Weighted>
13.4839

> <Gold.Chemscore.Internal.Correction.Weighted>
   9.000000E+99

> <Gold.Protein.RotatedTorsions>
[ 6907 6896 6895 6894 ] final  -32.60 input  -60.11 | X-H torsion
[ 7974 7965 7964 7962 ] final   -0.83 input  175.53 | X-H torsion
[ 8008 7997 7996 7995 ] final  -84.98 input   59.86 | X-H torsion
[ 10167 10162 10161 10158 ] final  125.50 input  -65.29 | X-H torsion
[ 10718 10713 10712 10709 ] final   68.82 input   66.30 | X-H torsion
[ 10763 10752 10751 10750 ] final  -78.38 input  -60.55 | X-H torsion
[ 11005 11000 10999 10996 ] final    0.96 input  -57.11 | X-H torsion

> <Gold.Protein.ActiveResidues>
 VAL166  LYS551  ARG553  GLY616  TRP617  ASP618  TYR619  PRO620  LYS621  CYS622 
 ASP623  PHE694  ASN695  SER759  ASP760  ASP761  ALA762  ILE779  LEU786  VAL792 
 PHE793  MET794  SER795  GLU796  ALA797  LYS798  CYS799  TRP800  GLU811  SER814 

> <Gold.Protein.RotatedAtoms>
  151.0767  134.9832  159.8335 H   0  0  0  0  0  0  0  0  0  0  0  0  # atno 6907 bound_to 6896
  152.5415  134.2232  159.8806 H   0  0  0  0  0  0  0  0  0  0  0  0  # atno 6908 bound_to 6896
  151.2260  133.4432  159.2636 H   0  0  0  0  0  0  0  0  0  0  0  0  # atno 6909 bound_to 6896
  146.2423  140.1328  142.8337 H   0  0  0  0  0  0  0  0  0  0  0  0  # atno 7974 bound_to 7965
  154.6357  140.0597  156.9785 H   0  0  0  0  0  0  0  0  0  0  0  0  # atno 8008 bound_to 7997
  155.1596  140.3281  155.4396 H   0  0  0  0  0  0  0  0  0  0  0  0  # atno 8009 bound_to 7997
  156.2505  140.1933  156.6704 H   0  0  0  0  0  0  0  0  0  0  0  0  # atno 8010 bound_to 7997
  139.5682  144.6923  151.3852 H   0  0  0  0  0  0  0  0  0  0  0  0  # atno 10167 bound_to 10162
  157.6311  130.9393  150.0429 H   0  0  0  0  0  0  0  0  0  0  0  0  # atno 10718 bound_to 10713
  154.5251  135.5732  153.6712 H   0  0  0  0  0  0  0  0  0  0  0  0  # atno 10763 bound_to 10752
  152.9926  135.6191  154.2703 H   0  0  0  0  0  0  0  0  0  0  0  0  # atno 10764 bound_to 10752
  154.2626  135.2855  155.2751 H   0  0  0  0  0  0  0  0  0  0  0  0  # atno 10765 bound_to 10752
  140.6207  133.9664  155.8223 H   0  0  0  0  0  0  0  0  0  0  0  0  # atno 11005 bound_to 11000
  145.0312  140.8872  143.5108 LP  0  0  0  0  0  0  0  0  0  0  0  0  # atno 17320 bound_to 7965
  145.1393  139.2582  143.5499 LP  0  0  0  0  0  0  0  0  0  0  0  0  # atno 17321 bound_to 7965
  140.6966  143.7734  150.7336 LP  0  0  0  0  0  0  0  0  0  0  0  0  # atno 17342 bound_to 10162
  140.1232  143.4593  152.2300 LP  0  0  0  0  0  0  0  0  0  0  0  0  # atno 17343 bound_to 10162
  156.1515  130.3642  149.9431 LP  0  0  0  0  0  0  0  0  0  0  0  0  # atno 17370 bound_to 10713
  156.7449  130.9093  151.3634 LP  0  0  0  0  0  0  0  0  0  0  0  0  # atno 17371 bound_to 10713
  141.0744  134.0157  157.3479 LP  0  0  0  0  0  0  0  0  0  0  0  0  # atno 17394 bound_to 11000
  139.9154  135.0196  156.7861 LP  0  0  0  0  0  0  0  0  0  0  0  0  # atno 17395 bound_to 11000

$$$$
