AV-unprocessed.smi:1524|AV-procd|sdf|6139|dock4
  -GOLD-   22720 6283D 1   1.00000     0.00000
 Structure written by MMmdl.
 35 36  0  0  0  0  0  0  0  0  1 V2000
  148.9298  135.2594  156.1073 O   0  0  0  0  0  0  0  0  0  0  0  0
  148.9397  135.4734  154.8970 C   0  0  0  0  0  0  0  0  0  0  0  0
  148.4304  134.6498  153.9577 N   0  0  0  0  0  0  0  0  0  0  0  0
  147.7697  133.4207  154.1129 C   0  0  0  0  0  0  0  0  0  0  0  0
  148.3725  132.2041  154.0672 C   0  0  0  0  0  0  0  0  0  0  0  0
  147.6285  130.9683  154.2455 C   0  0  0  0  0  0  0  0  0  0  0  0
  148.2981  129.6094  154.1114 C   0  0  0  0  0  0  0  0  0  0  0  0
  147.8041  128.9265  153.0778 F   0  0  0  0  0  0  0  0  0  0  0  0
  149.6136  129.7387  153.9375 F   0  0  0  0  0  0  0  0  0  0  0  0
  148.0947  128.8941  155.2168 F   0  0  0  0  0  0  0  0  0  0  0  0
  146.3037  131.0896  154.4505 C   0  0  0  0  0  0  0  0  0  0  0  0
  145.6811  132.3378  154.5227 N   0  0  0  0  0  0  0  0  0  0  0  0
  146.3240  133.5174  154.3720 C   0  0  0  0  0  0  0  0  0  0  0  0
  145.7047  134.5780  154.4525 O   0  0  0  0  0  0  0  0  0  0  0  0
  149.5158  136.5817  154.3966 N   0  0  0  0  0  0  0  0  0  0  0  0
  150.1616  137.6788  155.1216 C   0  0  0  0  0  0  0  0  0  0  0  0
  149.4750  139.0236  154.8197 C   0  0  0  0  0  0  0  0  0  0  0  0
  150.2631  140.1888  155.4402 C   0  0  0  0  0  0  0  0  0  0  0  0
  151.6066  140.1748  154.9701 O   0  0  0  0  0  0  0  0  0  0  0  0
  152.3109  138.9951  155.3422 C   0  0  0  0  0  0  0  0  0  0  0  0
  151.6402  137.7629  154.7137 C   0  0  0  0  0  0  0  0  0  0  0  0
  144.6866  132.3453  154.6983 H   0  0  0  0  0  0  0  0  0  0  0  0
  148.5807  134.9251  152.9980 H   0  0  0  0  0  0  0  0  0  0  0  0
  149.4363  132.1183  153.9166 H   0  0  0  0  0  0  0  0  0  0  0  0
  145.6276  130.2557  154.5686 H   0  0  0  0  0  0  0  0  0  0  0  0
  149.5283  136.6607  153.3899 H   0  0  0  0  0  0  0  0  0  0  0  0
  150.1223  137.4870  156.1956 H   0  0  0  0  0  0  0  0  0  0  0  0
  149.4082  139.1721  153.7409 H   0  0  0  0  0  0  0  0  0  0  0  0
  148.4523  139.0284  155.1985 H   0  0  0  0  0  0  0  0  0  0  0  0
  149.8044  141.1389  155.1661 H   0  0  0  0  0  0  0  0  0  0  0  0
  150.2480  140.1309  156.5298 H   0  0  0  0  0  0  0  0  0  0  0  0
  153.3413  139.0770  154.9963 H   0  0  0  0  0  0  0  0  0  0  0  0
  152.3461  138.9070  156.4291 H   0  0  0  0  0  0  0  0  0  0  0  0
  152.1676  136.8571  155.0154 H   0  0  0  0  0  0  0  0  0  0  0  0
  151.7238  137.8263  153.6277 H   0  0  0  0  0  0  0  0  0  0  0  0
  1  2  2  0  0  0  0
  2  3  1  0  0  0  0
  2 15  1  0  0  0  0
  3  4  1  0  0  0  0
  3 23  1  0  0  0  0
  4 13  1  0  0  0  0
  4  5  2  0  0  0  0
  5  6  1  0  0  0  0
  5 24  1  0  0  0  0
  6  7  1  0  0  0  0
  6 11  2  0  0  0  0
  7  8  1  0  0  0  0
  7  9  1  0  0  0  0
  7 10  1  0  0  0  0
 11 12  1  0  0  0  0
 11 25  1  0  0  0  0
 12 22  1  0  0  0  0
 12 13  1  0  0  0  0
 13 14  2  0  0  0  0
 15 16  1  0  0  0  0
 15 26  1  0  0  0  0
 16 21  1  0  0  0  0
 16 17  1  0  0  0  0
 16 27  1  0  0  0  0
 17 18  1  0  0  0  0
 17 28  1  0  0  0  0
 17 29  1  0  0  0  0
 18 19  1  0  0  0  0
 18 30  1  0  0  0  0
 18 31  1  0  0  0  0
 19 20  1  0  0  0  0
 20 21  1  0  0  0  0
 20 32  1  0  0  0  0
 20 33  1  0  0  0  0
 21 34  1  0  0  0  0
 21 35  1  0  0  0  0
M  END
> <s_m_source_file>
AV-unprocessed.smi

> <i_m_source_file_index>
1524

> <i_lp_mmshare_version>
43012

> <i_f3d_flags>
0

> <s_epik_input>
W0NIMl0xW0NIMl1PW0NIMl1bQ0gyXVtDSF0xW05IXUMoPU8pW05IXWMyW2NIXWMoQyhGKShGKUYpW2NIXVtuSF1jMj1P

> <s_epik_cmdline>
J2VwaWtfcHl0aG9uJywgJy1waCcsICc3LjAnLCAnLXRuJywgJzgnLCAnLW1hJywgJzIwMCcsICctbWV0YWxfYmluZGluZycsICctaW1hZScsICc8aW5maWxlLm1hZT4nLCAnLW9tYWUnLCAnPG91dGZpbGUubWFlPic=

> <r_lp_tautomer_probability>
1

> <r_epik_Ionization_Penalty>
0.00380781

> <r_epik_Ionization_Penalty_Charging>
0.00378827

> <r_epik_Ionization_Penalty_Neutral>
1.95401e-05

> <r_epik_State_Penalty>
-0

> <r_epik_Charging_Adjusted_Penalty>
0.00378827

> <i_epik_Tot_Q>
0

> <i_epik_Tot_abs_Q>
0

> <r_epik_Metal_State_Penalty>
0.371078

> <b_epik_Metal_Only>
0

> <s_lp_Force_Field>
OPLS_2005

> <r_lp_Energy>
30.03

> <b_lp_Chiralities_Consistent>
1

> <s_lp_Variant>
AV-unprocessed.smi:1524-1

> <Gold.Version>
5.8.1

> <Gold.Id.Protein>
6NUR|6NUR_protein|mol2

> <Gold.PLP.Fitness>
39.2951

> <Gold.PLP.PLP>
-26.2752

> <Gold.PLP.part.hbond>
-3.9205

> <Gold.PLP.part.metal>
0.0000

> <Gold.PLP.part.buried>
-3.6751

> <Gold.PLP.part.nonpolar>
-20.6590

> <Gold.PLP.part.repulsive>
0.1755

> <Gold.PLP.ligand.clash>
0.0000

> <Gold.PLP.ligand.torsion>
0.7855

> <Gold.PLP.Chemscore.Hbond>
3.8535

> <Gold.PLP.Chemscore.CHOScore>
1.0000

> <Gold.PLP.Chemscore.Metal>
0.0000

> <Gold.Chemscore.Hbonds>
donor molecule, donor type, donor heavy atom, donor atom, acceptor molecule, acceptor atom, score
      L1  H     3    23       P1  7948  0.98
      L1  H    12    22       P1 10957  0.88
      L1  H    15    26       P1  7948  1.00
      P1  H  7989  7998       L1    19  1.00
      L1  C    11    25       P1 10956  1.00

> <Gold.PLP.Chemscore.Internal.Correction>
0.0304

> <Gold.Rescore>
     Score         DG    S(hbond)    S(metal)    S(lipo)     H(rot)  DE(clash)    DE(int)     intcor
     19.21     -20.00       3.38        0.00      49.37       1.00       0.01       0.78       ----

> <Gold.Chemscore.Fitness>
19.2085

> <Gold.Chemscore.DG>
-20.0008

> <Gold.Chemscore.ZeroCoef>
-5.4800

> <Gold.Chemscore.Hbond>
3.3845

> <Gold.Chemscore.Metal>
0.0000

> <Gold.Chemscore.Lipo>
49.3718

> <Gold.Chemscore.Internal_Hbond>
0.0000

> <Gold.Chemscore.DEClash>
0.0106

> <Gold.Chemscore.DEInternal>
0.7816

> <Gold.Chemscore.Rot>
1.0000

> <Gold.Chemscore.Internal.Correction>
   9.000000E+99

> <Gold.Chemscore.Hbonds>
donor molecule, donor type, donor heavy atom, donor atom, acceptor molecule, acceptor atom, score
      L1  H     3    23       P1  7948  0.47
      L1  H    12    22       P1 10957  0.59
      L1  H    15    26       P1  7948  0.68
      P1  H  7989  7998       L1    19  0.65

> <Gold.Chemscore.Hbond.Weighted>
-11.3043

> <Gold.Chemscore.Metal.Weighted>
-0.0000

> <Gold.Chemscore.Lipo.Weighted>
-5.7765

> <Gold.Chemscore.Internal_Hbond.Weighted>
0.0000

> <Gold.Chemscore.DEClash.Weighted>
0.0106

> <Gold.Chemscore.DEInternal.Weighted>
0.7816

> <Gold.Chemscore.Rot.Weighted>
2.5600

> <Gold.Chemscore.Internal.Correction.Weighted>
   9.000000E+99

> <Gold.Protein.RotatedTorsions>
[ 6907 6896 6895 6894 ] final -119.18 input  -60.11 | X-H torsion
[ 7974 7965 7964 7962 ] final  -22.75 input  175.53 | X-H torsion
[ 8008 7997 7996 7995 ] final -141.23 input   59.86 | X-H torsion
[ 10167 10162 10161 10158 ] final   -3.42 input  -65.29 | X-H torsion
[ 10718 10713 10712 10709 ] final  177.39 input   66.30 | X-H torsion
[ 10763 10752 10751 10750 ] final   44.91 input  -60.55 | X-H torsion
[ 11005 11000 10999 10996 ] final  -72.58 input  -57.11 | X-H torsion

> <Gold.Protein.ActiveResidues>
 VAL166  LYS551  ARG553  GLY616  TRP617  ASP618  TYR619  PRO620  LYS621  CYS622 
 ASP623  PHE694  ASN695  SER759  ASP760  ASP761  ALA762  ILE779  LEU786  VAL792 
 PHE793  MET794  SER795  GLU796  ALA797  LYS798  CYS799  TRP800  GLU811  SER814 

> <Gold.Protein.RotatedAtoms>
  150.8283  133.8135  159.3109 H   0  0  0  0  0  0  0  0  0  0  0  0  # atno 6907 bound_to 6896
  151.5873  135.1053  160.0040 H   0  0  0  0  0  0  0  0  0  0  0  0  # atno 6908 bound_to 6896
  152.4365  133.7329  159.6654 H   0  0  0  0  0  0  0  0  0  0  0  0  # atno 6909 bound_to 6896
  146.1657  140.4522  142.8553 H   0  0  0  0  0  0  0  0  0  0  0  0  # atno 7974 bound_to 7965
  155.4744  140.0555  157.2975 H   0  0  0  0  0  0  0  0  0  0  0  0  # atno 8008 bound_to 7997
  154.4685  140.2029  156.0009 H   0  0  0  0  0  0  0  0  0  0  0  0  # atno 8009 bound_to 7997
  156.1016  140.3218  155.7954 H   0  0  0  0  0  0  0  0  0  0  0  0  # atno 8010 bound_to 7997
  140.6889  143.6542  150.8323 H   0  0  0  0  0  0  0  0  0  0  0  0  # atno 10167 bound_to 10162
  156.9061  130.9894  151.3028 H   0  0  0  0  0  0  0  0  0  0  0  0  # atno 10718 bound_to 10713
  152.9833  135.6056  154.3351 H   0  0  0  0  0  0  0  0  0  0  0  0  # atno 10763 bound_to 10752
  154.3052  135.2772  155.2594 H   0  0  0  0  0  0  0  0  0  0  0  0  # atno 10764 bound_to 10752
  154.4828  135.5912  153.6458 H   0  0  0  0  0  0  0  0  0  0  0  0  # atno 10765 bound_to 10752
  141.1610  133.6851  156.7080 H   0  0  0  0  0  0  0  0  0  0  0  0  # atno 11005 bound_to 11000
  144.8089  140.6350  143.6428 LP  0  0  0  0  0  0  0  0  0  0  0  0  # atno 17320 bound_to 7965
  145.4474  139.1528  143.3937 LP  0  0  0  0  0  0  0  0  0  0  0  0  # atno 17321 bound_to 7965
  140.0253  143.5500  152.2783 LP  0  0  0  0  0  0  0  0  0  0  0  0  # atno 17342 bound_to 10162
  139.6273  144.7639  151.2611 LP  0  0  0  0  0  0  0  0  0  0  0  0  # atno 17343 bound_to 10162
  157.5996  130.8503  149.8782 LP  0  0  0  0  0  0  0  0  0  0  0  0  # atno 17370 bound_to 10713
  156.0558  130.3708  150.1094 LP  0  0  0  0  0  0  0  0  0  0  0  0  # atno 17371 bound_to 10713
  140.2908  134.8242  157.4015 LP  0  0  0  0  0  0  0  0  0  0  0  0  # atno 17394 bound_to 11000
  140.1348  134.5048  155.8077 LP  0  0  0  0  0  0  0  0  0  0  0  0  # atno 17395 bound_to 11000

$$$$
