AV-unprocessed.smi:155|AV-procd|sdf|1285|dock5
  -GOLD-   2262018563D 1   1.00000     0.00000
 Structure written by MMmdl.
 64 67  0  0  0  0  0  0  0  0  3 V2000
  146.0559  131.8234  149.1917 C   0  0  0  0  0  0  0  0  0  0  0  0
  145.7322  132.9707  150.0710 N   0  3  0  0  0  0  0  0  0  0  0  0
  144.2927  133.0023  150.4133 C   0  0  0  0  0  0  0  0  0  0  0  0
  146.5937  133.0483  151.2783 C   0  0  0  0  0  0  0  0  0  0  0  0
  146.3032  134.2958  152.1403 C   0  0  0  0  0  0  0  0  0  0  0  0
  147.4100  134.6280  153.0773 N   0  3  2  0  0  0  0  0  0  0  0  0
  148.0721  133.4177  153.6329 C   0  0  0  0  0  0  0  0  0  0  0  0
  149.5985  133.6019  153.6581 C   0  0  0  0  0  0  0  0  0  0  0  0
  150.1154  134.5446  154.7554 C   0  0  0  0  0  0  0  0  0  0  0  0
  149.4488  135.8480  154.7294 N   0  0  0  0  0  0  0  0  0  0  0  0
  150.1754  136.9918  154.8289 C   0  0  0  0  0  0  0  0  0  0  0  0
  151.4454  137.0265  154.3451 N   0  0  0  0  0  0  0  0  0  0  0  0
  152.1795  138.1385  154.4454 C   0  0  0  0  0  0  0  0  0  0  0  0
  151.8455  139.3122  154.9842 N   0  0  0  0  0  0  0  0  0  0  0  0
  150.5709  139.2876  155.4674 C   0  0  0  0  0  0  0  0  0  0  0  0
  149.6748  138.1816  155.4322 C   0  0  0  0  0  0  0  0  0  0  0  0
  148.4616  138.5410  156.0099 N   0  0  0  0  0  0  0  0  0  0  0  0
  148.6354  139.7823  156.3748 C   0  0  0  0  0  0  0  0  0  0  0  0
  149.8727  140.3092  156.0843 N   0  0  0  0  0  0  0  0  0  0  0  0
  150.3385  141.6555  156.3667 C   0  0  0  0  0  0  0  0  0  0  0  0
  150.7350  141.8411  157.8473 C   0  0  1  0  0  0  0  0  0  0  0  0
  151.4553  140.6928  158.2544 O   0  0  0  0  0  0  0  0  0  0  0  0
  151.6334  143.0716  158.0833 C   0  0  1  0  0  0  0  0  0  0  0  0
  150.8871  144.4071  158.1462 C   0  0  0  0  0  0  0  0  0  0  0  0
  151.7864  145.2897  158.9972 C   0  0  0  0  0  0  0  0  0  0  0  0
  152.7388  144.3014  159.6726 C   0  0  0  0  0  0  0  0  0  0  0  0
  152.1996  143.0197  159.3845 O   0  0  0  0  0  0  0  0  0  0  0  0
  148.0671  135.8958  155.2050 C   0  0  0  0  0  0  0  0  0  0  0  0
  147.0135  135.6251  154.1108 C   0  0  0  0  0  0  0  0  0  0  0  0
  145.9246  130.8768  149.7175 H   0  0  0  0  0  0  0  0  0  0  0  0
  147.0825  131.8762  148.8302 H   0  0  0  0  0  0  0  0  0  0  0  0
  145.4067  131.8166  148.3153 H   0  0  0  0  0  0  0  0  0  0  0  0
  144.0127  132.1312  151.0073 H   0  0  0  0  0  0  0  0  0  0  0  0
  143.6810  133.0111  149.5103 H   0  0  0  0  0  0  0  0  0  0  0  0
  144.0480  133.8990  150.9839 H   0  0  0  0  0  0  0  0  0  0  0  0
  146.4085  132.1612  151.8864 H   0  0  0  0  0  0  0  0  0  0  0  0
  147.6424  133.0102  150.9801 H   0  0  0  0  0  0  0  0  0  0  0  0
  146.0823  135.1627  151.5164 H   0  0  0  0  0  0  0  0  0  0  0  0
  145.4060  134.0920  152.7268 H   0  0  0  0  0  0  0  0  0  0  0  0
  147.6762  133.1621  154.6169 H   0  0  0  0  0  0  0  0  0  0  0  0
  147.8640  132.5540  153.0004 H   0  0  0  0  0  0  0  0  0  0  0  0
  150.0684  132.6281  153.8010 H   0  0  0  0  0  0  0  0  0  0  0  0
  149.9387  133.9543  152.6833 H   0  0  0  0  0  0  0  0  0  0  0  0
  149.9621  134.0914  155.7354 H   0  0  0  0  0  0  0  0  0  0  0  0
  151.1941  134.6397  154.6298 H   0  0  0  0  0  0  0  0  0  0  0  0
  153.1777  138.0790  154.0366 H   0  0  0  0  0  0  0  0  0  0  0  0
  147.8596  140.3542  156.8630 H   0  0  0  0  0  0  0  0  0  0  0  0
  151.1824  141.8799  155.7128 H   0  0  0  0  0  0  0  0  0  0  0  0
  149.5399  142.3447  156.0908 H   0  0  0  0  0  0  0  0  0  0  0  0
  149.8326  141.9244  158.4546 H   0  0  0  0  0  0  0  0  0  0  0  0
  151.4736  140.6698  159.1988 H   0  0  0  0  0  0  0  0  0  0  0  0
  152.4280  143.1282  157.3360 H   0  0  0  0  0  0  0  0  0  0  0  0
  150.6943  144.8296  157.1596 H   0  0  0  0  0  0  0  0  0  0  0  0
  149.9278  144.2774  158.6496 H   0  0  0  0  0  0  0  0  0  0  0  0
  152.3422  146.0031  158.3877 H   0  0  0  0  0  0  0  0  0  0  0  0
  151.2025  145.8517  159.7267 H   0  0  0  0  0  0  0  0  0  0  0  0
  153.7384  144.3762  159.2421 H   0  0  0  0  0  0  0  0  0  0  0  0
  152.8176  144.4614  160.7481 H   0  0  0  0  0  0  0  0  0  0  0  0
  147.9607  135.1414  155.9853 H   0  0  0  0  0  0  0  0  0  0  0  0
  147.8499  136.8422  155.7024 H   0  0  0  0  0  0  0  0  0  0  0  0
  146.8023  136.5670  153.6067 H   0  0  0  0  0  0  0  0  0  0  0  0
  146.0811  135.3168  154.5855 H   0  0  0  0  0  0  0  0  0  0  0  0
  145.9076  133.8077  149.5330 H   0  0  0  0  0  0  0  0  0  0  0  0
  148.1201  135.0750  152.5145 H   0  0  0  0  0  0  0  0  0  0  0  0
  1  2  1  0  0  0  0
  1 30  1  0  0  0  0
  1 31  1  0  0  0  0
  1 32  1  0  0  0  0
  2  3  1  0  0  0  0
  2  4  1  0  0  0  0
  2 63  1  0  0  0  0
  3 33  1  0  0  0  0
  3 34  1  0  0  0  0
  3 35  1  0  0  0  0
  4  5  1  0  0  0  0
  4 36  1  0  0  0  0
  4 37  1  0  0  0  0
  5  6  1  0  0  0  0
  5 38  1  0  0  0  0
  5 39  1  0  0  0  0
  6 29  1  0  0  0  0
  6  7  1  0  0  0  0
  6 64  1  0  0  0  0
  7  8  1  0  0  0  0
  7 40  1  0  0  0  0
  7 41  1  0  0  0  0
  8  9  1  0  0  0  0
  8 42  1  0  0  0  0
  8 43  1  0  0  0  0
  9 10  1  0  0  0  0
  9 44  1  0  0  0  0
  9 45  1  0  0  0  0
 10 11  1  0  0  0  0
 10 28  1  0  0  0  0
 11 16  1  0  0  0  0
 11 12  2  0  0  0  0
 12 13  1  0  0  0  0
 13 14  2  0  0  0  0
 13 46  1  0  0  0  0
 14 15  1  0  0  0  0
 15 19  1  0  0  0  0
 15 16  2  0  0  0  0
 16 17  1  0  0  0  0
 17 18  2  0  0  0  0
 18 19  1  0  0  0  0
 18 47  1  0  0  0  0
 19 20  1  0  0  0  0
 20 21  1  0  0  0  0
 20 48  1  0  0  0  0
 20 49  1  0  0  0  0
 21 22  1  0  0  0  0
 21 23  1  0  0  0  0
 21 50  1  0  0  0  0
 22 51  1  0  0  0  0
 23 27  1  0  0  0  0
 23 24  1  0  0  0  0
 23 52  1  0  0  0  0
 24 25  1  0  0  0  0
 24 53  1  0  0  0  0
 24 54  1  0  0  0  0
 25 26  1  0  0  0  0
 25 55  1  0  0  0  0
 25 56  1  0  0  0  0
 26 27  1  0  0  0  0
 26 57  1  0  0  0  0
 26 58  1  0  0  0  0
 28 29  1  0  0  0  0
 28 59  1  0  0  0  0
 28 60  1  0  0  0  0
 29 61  1  0  0  0  0
 29 62  1  0  0  0  0
M  CHG  1   2   1
M  CHG  1   6   1
M  END
> <s_m_source_file>
AV-unprocessed.smi

> <i_m_source_file_index>
155

> <i_lp_mmshare_version>
43012

> <i_f3d_flags>
0

> <s_epik_input>
W0NIM11OKFtDSDNdKVtDSDJdW0NIMl1OMVtDSDJdW0NIMl1bQ0gyXU4oW0NIMl1bQ0gyXTEpYyhuW2NIXW4yKWMoYzIzKW5bY0hdbjNbQ0gyXVtDQEhdKFtPSF0pW0NAQEhdNFtDSDJdW0NIMl1bQ0gyXU80

> <s_epik_cmdline>
J2VwaWtfcHl0aG9uJywgJy1waCcsICc3LjAnLCAnLXRuJywgJzgnLCAnLW1hJywgJzIwMCcsICctbWV0YWxfYmluZGluZycsICctaW1hZScsICc8aW5maWxlLm1hZT4nLCAnLW9tYWUnLCAnPG91dGZpbGUubWFlPic=

> <r_lp_tautomer_probability>
1

> <r_epik_Ionization_Penalty>
3.0333

> <r_epik_Ionization_Penalty_Charging>
3.03317

> <r_epik_Ionization_Penalty_Neutral>
0.000131872

> <r_epik_State_Penalty>
1.99939

> <r_epik_Charging_Adjusted_Penalty>
5.03256

> <i_epik_Tot_Q>
2

> <i_epik_Tot_abs_Q>
2

> <r_epik_Metal_State_Penalty>
2.00021

> <b_epik_Metal_Only>
0

> <s_lp_Force_Field>
OPLS_2005

> <r_lp_Energy>
63.1179

> <b_lp_Chiralities_Consistent>
1

> <s_lp_Variant>
AV-unprocessed.smi:155-19

> <Gold.Version>
5.8.1

> <Gold.Id.Protein>
6NUR|6NUR_protein|mol2

> <Gold.PLP.Fitness>
57.7599

> <Gold.PLP.PLP>
-46.8904

> <Gold.PLP.part.hbond>
-3.7230

> <Gold.PLP.part.metal>
0.0000

> <Gold.PLP.part.buried>
-3.6378

> <Gold.PLP.part.nonpolar>
-40.3390

> <Gold.PLP.part.repulsive>
0.8286

> <Gold.PLP.ligand.clash>
0.0000

> <Gold.PLP.ligand.torsion>
1.1160

> <Gold.PLP.Chemscore.Hbond>
4.2571

> <Gold.PLP.Chemscore.CHOScore>
0.0000

> <Gold.PLP.Chemscore.Metal>
0.0000

> <Gold.Chemscore.Hbonds>
donor molecule, donor type, donor heavy atom, donor atom, acceptor molecule, acceptor atom, score
      L1  H     2    63       P1  7921  0.63
      L1  H     6    64       P1  7948  2.00
      P1  H  7989  7998       L1    14  0.70
      P1  H 10752 10764       L1    12  0.95

> <Gold.PLP.Chemscore.Internal.Correction>
0.3302

> <Gold.Rescore>
     Score         DG    S(hbond)    S(metal)    S(lipo)     H(rot)  DE(clash)    DE(int)     intcor
     13.94     -16.56       1.42        0.00     114.43       2.75       0.11       2.51       ----

> <Gold.Chemscore.Fitness>
13.9351

> <Gold.Chemscore.DG>
-16.5632

> <Gold.Chemscore.ZeroCoef>
-5.4800

> <Gold.Chemscore.Hbond>
1.4172

> <Gold.Chemscore.Metal>
0.0000

> <Gold.Chemscore.Lipo>
114.4284

> <Gold.Chemscore.Internal_Hbond>
0.0000

> <Gold.Chemscore.DEClash>
0.1139

> <Gold.Chemscore.DEInternal>
2.5143

> <Gold.Chemscore.Rot>
2.7493

> <Gold.Chemscore.Internal.Correction>
   9.000000E+99

> <Gold.Chemscore.Hbonds>
donor molecule, donor type, donor heavy atom, donor atom, acceptor molecule, acceptor atom, score
      L1  H     2    63       P1  7921  0.12
      L1  H     6    64       P1  7948  0.80
      P1  H  7989  7998       L1    14  0.14
      P1  H 10752 10764       L1    12  0.20

> <Gold.Chemscore.Hbond.Weighted>
-4.7334

> <Gold.Chemscore.Metal.Weighted>
-0.0000

> <Gold.Chemscore.Lipo.Weighted>
-13.3881

> <Gold.Chemscore.Internal_Hbond.Weighted>
0.0000

> <Gold.Chemscore.DEClash.Weighted>
0.1139

> <Gold.Chemscore.DEInternal.Weighted>
2.5143

> <Gold.Chemscore.Rot.Weighted>
7.0383

> <Gold.Chemscore.Internal.Correction.Weighted>
   9.000000E+99

> <Gold.Protein.RotatedTorsions>
[ 6907 6896 6895 6894 ] final  -72.01 input  -60.11 | X-H torsion
[ 7974 7965 7964 7962 ] final -159.16 input  175.53 | X-H torsion
[ 8008 7997 7996 7995 ] final -145.70 input   59.86 | X-H torsion
[ 10167 10162 10161 10158 ] final -124.55 input  -65.29 | X-H torsion
[ 10718 10713 10712 10709 ] final   41.93 input   66.30 | X-H torsion
[ 10763 10752 10751 10750 ] final  -71.63 input  -60.55 | X-H torsion
[ 11005 11000 10999 10996 ] final  -82.66 input  -57.11 | X-H torsion

> <Gold.Protein.ActiveResidues>
 VAL166  LYS551  ARG553  GLY616  TRP617  ASP618  TYR619  PRO620  LYS621  CYS622 
 ASP623  PHE694  ASN695  SER759  ASP760  ASP761  ALA762  ILE779  LEU786  VAL792 
 PHE793  MET794  SER795  GLU796  ALA797  LYS798  CYS799  TRP800  GLU811  SER814 

> <Gold.Protein.RotatedAtoms>
  150.7188  134.5225  159.5660 H   0  0  0  0  0  0  0  0  0  0  0  0  # atno 6907 bound_to 6896
  152.2777  134.7860  160.0411 H   0  0  0  0  0  0  0  0  0  0  0  0  # atno 6908 bound_to 6896
  151.8518  133.3406  159.3712 H   0  0  0  0  0  0  0  0  0  0  0  0  # atno 6909 bound_to 6896
  144.7476  140.3724  143.6073 H   0  0  0  0  0  0  0  0  0  0  0  0  # atno 7974 bound_to 7965
  155.5474  140.0613  157.2857 H   0  0  0  0  0  0  0  0  0  0  0  0  # atno 8008 bound_to 7997
  154.4432  140.1908  156.0696 H   0  0  0  0  0  0  0  0  0  0  0  0  # atno 8009 bound_to 7997
  156.0541  140.3280  155.7388 H   0  0  0  0  0  0  0  0  0  0  0  0  # atno 8010 bound_to 7997
  139.9916  143.5635  152.2340 H   0  0  0  0  0  0  0  0  0  0  0  0  # atno 10167 bound_to 10162
  157.3991  130.7850  149.7333 H   0  0  0  0  0  0  0  0  0  0  0  0  # atno 10718 bound_to 10713
  154.4345  135.5956  153.6089 H   0  0  0  0  0  0  0  0  0  0  0  0  # atno 10763 bound_to 10752
  152.9801  135.5983  154.3799 H   0  0  0  0  0  0  0  0  0  0  0  0  # atno 10764 bound_to 10752
  154.3641  135.2841  155.2282 H   0  0  0  0  0  0  0  0  0  0  0  0  # atno 10765 bound_to 10752
  141.1662  133.7255  156.8605 H   0  0  0  0  0  0  0  0  0  0  0  0  # atno 11005 bound_to 11000
  145.7063  139.1673  143.2564 LP  0  0  0  0  0  0  0  0  0  0  0  0  # atno 17320 bound_to 7965
  146.1379  140.7098  142.9381 LP  0  0  0  0  0  0  0  0  0  0  0  0  # atno 17321 bound_to 7965
  139.6336  144.7647  151.2484 LP  0  0  0  0  0  0  0  0  0  0  0  0  # atno 17342 bound_to 10162
  140.7452  143.6437  150.8312 LP  0  0  0  0  0  0  0  0  0  0  0  0  # atno 17343 bound_to 10162
  155.9818  130.4015  150.3449 LP  0  0  0  0  0  0  0  0  0  0  0  0  # atno 17370 bound_to 10713
  157.1575  131.0336  151.2856 LP  0  0  0  0  0  0  0  0  0  0  0  0  # atno 17371 bound_to 10713
  140.1852  134.9005  157.2996 LP  0  0  0  0  0  0  0  0  0  0  0  0  # atno 17394 bound_to 11000
  140.2351  134.3863  155.7505 LP  0  0  0  0  0  0  0  0  0  0  0  0  # atno 17395 bound_to 11000

$$$$
