AV-unprocessed.smi:2269|AV-procd|sdf|9153|dock7
  -GOLD-   2272012363D 1   1.00000     0.00000
 Structure written by MMmdl.
 41 42  0  0  0  0  0  0  0  0  1 V2000
  152.0258  144.1310  160.2566 C   0  0  0  0  0  0  0  0  0  0  0  0
  151.7350  143.1489  159.1354 C   0  0  0  0  0  0  0  0  0  0  0  0
  150.9653  143.6478  158.0802 N   0  0  0  0  0  0  0  0  0  0  0  0
  150.6698  142.8833  157.0803 C   0  0  0  0  0  0  0  0  0  0  0  0
  151.1047  141.5498  157.0182 N   0  0  0  0  0  0  0  0  0  0  0  0
  150.6959  140.7857  155.8291 C   0  0  0  0  0  0  0  0  0  0  0  0
  149.7379  141.5922  154.9220 C   0  0  1  0  0  0  0  0  0  0  0  0
  149.7797  141.0512  153.6170 O   0  0  0  0  0  0  0  0  0  0  0  0
  148.2831  141.5080  155.4053 C   0  0  0  0  0  0  0  0  0  0  0  0
  147.4443  142.0432  154.3920 O   0  0  0  0  0  0  0  0  0  0  0  0
  146.0559  141.9220  154.6627 C   0  0  0  0  0  0  0  0  0  0  0  0
  145.4582  143.1739  155.2884 C   0  0  0  0  0  0  0  0  0  0  0  0
  144.9390  143.1112  156.5996 C   0  0  0  0  0  0  0  0  0  0  0  0
  144.3795  144.2552  157.2001 C   0  0  0  0  0  0  0  0  0  0  0  0
  144.3330  145.4699  156.4913 C   0  0  0  0  0  0  0  0  0  0  0  0
  144.8441  145.5385  155.1814 C   0  0  0  0  0  0  0  0  0  0  0  0
  145.4048  144.3960  154.5755 C   0  0  0  0  0  0  0  0  0  0  0  0
  146.0143  144.5222  152.9622 Cl  0  0  0  0  0  0  0  0  0  0  0  0
  151.8510  140.9804  158.0086 C   0  0  0  0  0  0  0  0  0  0  0  0
  152.2130  139.8036  157.9510 O   0  0  0  0  0  0  0  0  0  0  0  0
  152.1825  141.8634  159.1385 C   0  0  0  0  0  0  0  0  0  0  0  0
  153.0220  141.2650  160.2605 C   0  0  0  0  0  0  0  0  0  0  0  0
  151.6223  143.7637  161.2005 H   0  0  0  0  0  0  0  0  0  0  0  0
  151.5768  145.1050  160.0580 H   0  0  0  0  0  0  0  0  0  0  0  0
  153.1006  144.2760  160.3682 H   0  0  0  0  0  0  0  0  0  0  0  0
  150.0685  143.2215  156.2345 H   0  0  0  0  0  0  0  0  0  0  0  0
  151.5516  140.4175  155.2586 H   0  0  0  0  0  0  0  0  0  0  0  0
  150.2014  139.8737  156.1677 H   0  0  0  0  0  0  0  0  0  0  0  0
  150.0292  142.6422  154.8688 H   0  0  0  0  0  0  0  0  0  0  0  0
  149.3763  140.1968  153.6328 H   0  0  0  0  0  0  0  0  0  0  0  0
  147.9988  140.4699  155.5847 H   0  0  0  0  0  0  0  0  0  0  0  0
  148.1687  142.0469  156.3472 H   0  0  0  0  0  0  0  0  0  0  0  0
  145.5424  141.7370  153.7190 H   0  0  0  0  0  0  0  0  0  0  0  0
  145.8706  141.0465  155.2868 H   0  0  0  0  0  0  0  0  0  0  0  0
  144.9706  142.1842  157.1530 H   0  0  0  0  0  0  0  0  0  0  0  0
  143.9861  144.2003  158.2045 H   0  0  0  0  0  0  0  0  0  0  0  0
  143.9040  146.3481  156.9510 H   0  0  0  0  0  0  0  0  0  0  0  0
  144.8040  146.4717  154.6393 H   0  0  0  0  0  0  0  0  0  0  0  0
  153.9807  140.9221  159.8702 H   0  0  0  0  0  0  0  0  0  0  0  0
  152.5089  140.4079  160.6975 H   0  0  0  0  0  0  0  0  0  0  0  0
  153.2283  141.9685  161.0654 H   0  0  0  0  0  0  0  0  0  0  0  0
  1  2  1  0  0  0  0
  1 23  1  0  0  0  0
  1 24  1  0  0  0  0
  1 25  1  0  0  0  0
  2 21  2  0  0  0  0
  2  3  1  0  0  0  0
  3  4  2  0  0  0  0
  4  5  1  0  0  0  0
  4 26  1  0  0  0  0
  5  6  1  0  0  0  0
  5 19  1  0  0  0  0
  6  7  1  0  0  0  0
  6 27  1  0  0  0  0
  6 28  1  0  0  0  0
  7  8  1  0  0  0  0
  7  9  1  0  0  0  0
  7 29  1  0  0  0  0
  8 30  1  0  0  0  0
  9 10  1  0  0  0  0
  9 31  1  0  0  0  0
  9 32  1  0  0  0  0
 10 11  1  0  0  0  0
 11 12  1  0  0  0  0
 11 33  1  0  0  0  0
 11 34  1  0  0  0  0
 12 17  1  0  0  0  0
 12 13  2  0  0  0  0
 13 14  1  0  0  0  0
 13 35  1  0  0  0  0
 14 15  2  0  0  0  0
 14 36  1  0  0  0  0
 15 16  1  0  0  0  0
 15 37  1  0  0  0  0
 16 17  2  0  0  0  0
 16 38  1  0  0  0  0
 17 18  1  0  0  0  0
 19 20  2  0  0  0  0
 19 21  1  0  0  0  0
 21 22  1  0  0  0  0
 22 39  1  0  0  0  0
 22 40  1  0  0  0  0
 22 41  1  0  0  0  0
M  END
> <s_m_source_file>
AV-unprocessed.smi

> <i_m_source_file_index>
2269

> <i_lp_mmshare_version>
43012

> <i_f3d_flags>
0

> <s_epik_input>
W0NIM11jMW5bY0hdbihjKD1PKWMxW0NIM10pW0NIMl1bQ0BIXShbT0hdKVtDSDJdT1tDSDJdYzJbY0hdW2NIXVtjSF1bY0hdYzJDbA==

> <s_epik_cmdline>
J2VwaWtfcHl0aG9uJywgJy1waCcsICc3LjAnLCAnLXRuJywgJzgnLCAnLW1hJywgJzIwMCcsICctbWV0YWxfYmluZGluZycsICctaW1hZScsICc8aW5maWxlLm1hZT4nLCAnLW9tYWUnLCAnPG91dGZpbGUubWFlPic=

> <r_lp_tautomer_probability>
1

> <r_epik_Ionization_Penalty>
5.36022e-05

> <r_epik_Ionization_Penalty_Charging>
1.17753e-07

> <r_epik_Ionization_Penalty_Neutral>
5.34845e-05

> <r_epik_State_Penalty>
-0

> <r_epik_Charging_Adjusted_Penalty>
1.17753e-07

> <i_epik_Tot_Q>
0

> <i_epik_Tot_abs_Q>
0

> <r_epik_Metal_State_Penalty>
-0

> <b_epik_Metal_Only>
0

> <s_lp_Force_Field>
OPLS_2005

> <r_lp_Energy>
21.6364

> <b_lp_Chiralities_Consistent>
1

> <s_lp_Variant>
AV-unprocessed.smi:2269-2

> <Gold.Version>
5.8.1

> <Gold.Id.Protein>
6NUR|6NUR_protein|mol2

> <Gold.PLP.Fitness>
47.3545

> <Gold.PLP.PLP>
-41.0277

> <Gold.PLP.part.hbond>
-3.8398

> <Gold.PLP.part.metal>
0.0000

> <Gold.PLP.part.buried>
-3.4896

> <Gold.PLP.part.nonpolar>
-32.4924

> <Gold.PLP.part.repulsive>
0.2671

> <Gold.PLP.ligand.clash>
2.4400

> <Gold.PLP.ligand.torsion>
0.5913

> <Gold.PLP.Chemscore.Hbond>
2.2740

> <Gold.PLP.Chemscore.CHOScore>
1.0000

> <Gold.PLP.Chemscore.Metal>
0.0000

> <Gold.Chemscore.Hbonds>
donor molecule, donor type, donor heavy atom, donor atom, acceptor molecule, acceptor atom, score
      P1  H  7989  7998       L1     8  0.26
      P1  H  8011  8017       L1     8  0.96
      L1  C     4    26       P1  8028  0.90

> <Gold.PLP.Chemscore.Internal.Correction>
0.1275

> <Gold.Rescore>
     Score         DG    S(hbond)    S(metal)    S(lipo)     H(rot)  DE(clash)    DE(int)     intcor
     11.80     -13.40       1.26        0.00      86.73       2.52       0.89       0.71       ----

> <Gold.Chemscore.Fitness>
11.8030

> <Gold.Chemscore.DG>
-13.3992

> <Gold.Chemscore.ZeroCoef>
-5.4800

> <Gold.Chemscore.Hbond>
1.2613

> <Gold.Chemscore.Metal>
0.0000

> <Gold.Chemscore.Lipo>
86.7331

> <Gold.Chemscore.Internal_Hbond>
0.0000

> <Gold.Chemscore.DEClash>
0.8888

> <Gold.Chemscore.DEInternal>
0.7074

> <Gold.Chemscore.Rot>
2.5162

> <Gold.Chemscore.Internal.Correction>
   9.000000E+99

> <Gold.Chemscore.Hbonds>
donor molecule, donor type, donor heavy atom, donor atom, acceptor molecule, acceptor atom, score
      P1  H  7989  7998       L1     8  0.04
      P1  H  8011  8017       L1     8  0.72

> <Gold.Chemscore.Hbond.Weighted>
-4.2128

> <Gold.Chemscore.Metal.Weighted>
-0.0000

> <Gold.Chemscore.Lipo.Weighted>
-10.1478

> <Gold.Chemscore.Internal_Hbond.Weighted>
0.0000

> <Gold.Chemscore.DEClash.Weighted>
0.8888

> <Gold.Chemscore.DEInternal.Weighted>
0.7074

> <Gold.Chemscore.Rot.Weighted>
6.4414

> <Gold.Chemscore.Internal.Correction.Weighted>
   9.000000E+99

> <Gold.Protein.RotatedTorsions>
[ 6907 6896 6895 6894 ] final   32.43 input  -60.11 | X-H torsion
[ 7974 7965 7964 7962 ] final  -65.85 input  175.53 | X-H torsion
[ 8008 7997 7996 7995 ] final  164.70 input   59.86 | X-H torsion
[ 10167 10162 10161 10158 ] final  140.63 input  -65.29 | X-H torsion
[ 10718 10713 10712 10709 ] final -101.40 input   66.30 | X-H torsion
[ 10763 10752 10751 10750 ] final -129.81 input  -60.55 | X-H torsion
[ 11005 11000 10999 10996 ] final  115.25 input  -57.11 | X-H torsion

> <Gold.Protein.ActiveResidues>
 VAL166  LYS551  ARG553  GLY616  TRP617  ASP618  TYR619  PRO620  LYS621  CYS622 
 ASP623  PHE694  ASN695  SER759  ASP760  ASP761  ALA762  ILE779  LEU786  VAL792 
 PHE793  MET794  SER795  GLU796  ALA797  LYS798  CYS799  TRP800  GLU811  SER814 

> <Gold.Protein.RotatedAtoms>
  152.0744  134.9512  160.0573 H   0  0  0  0  0  0  0  0  0  0  0  0  # atno 6907 bound_to 6896
  152.0826  133.4155  159.4516 H   0  0  0  0  0  0  0  0  0  0  0  0  # atno 6908 bound_to 6896
  150.6836  134.2884  159.4700 H   0  0  0  0  0  0  0  0  0  0  0  0  # atno 6909 bound_to 6896
  145.7491  140.8917  143.0489 H   0  0  0  0  0  0  0  0  0  0  0  0  # atno 7974 bound_to 7965
  156.1859  140.1689  156.8186 H   0  0  0  0  0  0  0  0  0  0  0  0  # atno 8008 bound_to 7997
  154.5413  140.0736  156.8548 H   0  0  0  0  0  0  0  0  0  0  0  0  # atno 8009 bound_to 7997
  155.3208  140.3373  155.4243 H   0  0  0  0  0  0  0  0  0  0  0  0  # atno 8010 bound_to 7997
  139.5043  144.6222  151.6023 H   0  0  0  0  0  0  0  0  0  0  0  0  # atno 10167 bound_to 10162
  156.0193  130.5372  150.6957 H   0  0  0  0  0  0  0  0  0  0  0  0  # atno 10718 bound_to 10713
  154.8757  135.3883  154.3981 H   0  0  0  0  0  0  0  0  0  0  0  0  # atno 10763 bound_to 10752
  153.4708  135.7030  153.5999 H   0  0  0  0  0  0  0  0  0  0  0  0  # atno 10764 bound_to 10752
  153.4457  135.3845  155.2222 H   0  0  0  0  0  0  0  0  0  0  0  0  # atno 10765 bound_to 10752
  139.9004  134.9581  156.7016 H   0  0  0  0  0  0  0  0  0  0  0  0  # atno 11005 bound_to 11000
  144.6854  139.9566  143.7479 LP  0  0  0  0  0  0  0  0  0  0  0  0  # atno 17320 bound_to 7965
  146.0374  139.3390  143.0718 LP  0  0  0  0  0  0  0  0  0  0  0  0  # atno 17321 bound_to 7965
  140.5928  143.9749  150.6335 LP  0  0  0  0  0  0  0  0  0  0  0  0  # atno 17342 bound_to 10162
  140.2935  143.3308  152.1040 LP  0  0  0  0  0  0  0  0  0  0  0  0  # atno 17343 bound_to 10162
  157.4629  131.0885  151.0726 LP  0  0  0  0  0  0  0  0  0  0  0  0  # atno 17370 bound_to 10713
  157.1209  130.6061  149.5505 LP  0  0  0  0  0  0  0  0  0  0  0  0  # atno 17371 bound_to 10713
  140.7146  133.9193  155.8107 LP  0  0  0  0  0  0  0  0  0  0  0  0  # atno 17394 bound_to 11000
  141.0274  134.0804  157.4053 LP  0  0  0  0  0  0  0  0  0  0  0  0  # atno 17395 bound_to 11000

$$$$
