AV-unprocessed.smi:2616|AV-procd|sdf|10216|dock6
  -GOLD-   2272014223D 1   1.00000     0.00000
 Structure written by MMmdl.
 26 27  0  0  0  0  0  0  0  0  2 V2000
  152.9680  139.2303  155.6241 O   0  0  0  0  0  0  0  0  0  0  0  0
  151.9393  138.5474  155.4301 C   0  0  0  0  0  0  0  0  0  0  0  0
  151.9468  137.3108  155.6309 O   0  5  0  0  0  0  0  0  0  0  0  0
  150.6548  139.1912  154.9439 C   0  0  0  0  0  0  0  0  0  0  0  0
  150.7024  140.5441  154.8690 N   0  0  0  0  0  0  0  0  0  0  0  0
  149.6226  141.2260  154.4513 C   0  0  0  0  0  0  0  0  0  0  0  0
  148.4209  140.6062  154.0787 C   0  0  0  0  0  0  0  0  0  0  0  0
  147.0879  141.5766  153.5541 Cl  0  0  0  0  0  0  0  0  0  0  0  0
  148.3372  139.1979  154.1445 C   0  0  0  0  0  0  0  0  0  0  0  0
  147.1247  138.5942  153.7681 N   0  0  0  0  0  0  0  0  0  0  0  0
  145.9808  138.7973  154.6450 C   0  0  0  0  0  0  0  0  0  0  0  0
  144.8888  137.7677  154.3071 C   0  0  0  0  0  0  0  0  0  0  0  0
  144.5701  137.8411  152.9189 O   0  0  0  0  0  0  0  0  0  0  0  0
  145.6921  137.5423  152.0907 C   0  0  0  0  0  0  0  0  0  0  0  0
  146.8137  138.5637  152.3465 C   0  0  0  0  0  0  0  0  0  0  0  0
  149.4749  138.4631  154.5863 C   0  0  0  0  0  0  0  0  0  0  0  0
  149.3855  136.7293  154.6696 Cl  0  0  0  0  0  0  0  0  0  0  0  0
  149.7220  142.3009  154.4139 H   0  0  0  0  0  0  0  0  0  0  0  0
  146.2851  138.6978  155.6876 H   0  0  0  0  0  0  0  0  0  0  0  0
  145.5845  139.8042  154.5175 H   0  0  0  0  0  0  0  0  0  0  0  0
  145.2156  136.7581  154.5610 H   0  0  0  0  0  0  0  0  0  0  0  0
  143.9900  137.9675  154.8905 H   0  0  0  0  0  0  0  0  0  0  0  0
  146.0399  136.5268  152.2871 H   0  0  0  0  0  0  0  0  0  0  0  0
  145.3839  137.5765  151.0458 H   0  0  0  0  0  0  0  0  0  0  0  0
  146.4927  139.5495  152.0119 H   0  0  0  0  0  0  0  0  0  0  0  0
  147.7035  138.2998  151.7739 H   0  0  0  0  0  0  0  0  0  0  0  0
  1  2  2  0  0  0  0
  2  3  1  0  0  0  0
  2  4  1  0  0  0  0
  4 16  1  0  0  0  0
  4  5  2  0  0  0  0
  5  6  1  0  0  0  0
  6  7  2  0  0  0  0
  6 18  1  0  0  0  0
  7  8  1  0  0  0  0
  7  9  1  0  0  0  0
  9 10  1  0  0  0  0
  9 16  2  0  0  0  0
 10 15  1  0  0  0  0
 10 11  1  0  0  0  0
 11 12  1  0  0  0  0
 11 19  1  0  0  0  0
 11 20  1  0  0  0  0
 12 13  1  0  0  0  0
 12 21  1  0  0  0  0
 12 22  1  0  0  0  0
 13 14  1  0  0  0  0
 14 15  1  0  0  0  0
 14 23  1  0  0  0  0
 14 24  1  0  0  0  0
 15 25  1  0  0  0  0
 15 26  1  0  0  0  0
 16 17  1  0  0  0  0
M  CHG  1   3  -1
M  END
> <s_m_source_file>
AV-unprocessed.smi

> <i_m_source_file_index>
2616

> <i_lp_mmshare_version>
43012

> <i_f3d_flags>
0

> <s_epik_input>
Tz1DKFtPSF0pYzFuW2NIXWMoQ2wpYyhjMUNsKU4yW0NIMl1bQ0gyXU9bQ0gyXVtDSDJdMg==

> <s_epik_cmdline>
J2VwaWtfcHl0aG9uJywgJy1waCcsICc3LjAnLCAnLXRuJywgJzgnLCAnLW1hJywgJzIwMCcsICctbWV0YWxfYmluZGluZycsICctaW1hZScsICc8aW5maWxlLm1hZT4nLCAnLW9tYWUnLCAnPG91dGZpbGUubWFlPic=

> <r_epik_Ionization_Penalty>
0.00232884

> <r_epik_Ionization_Penalty_Charging>
7.03121e-06

> <r_epik_Ionization_Penalty_Neutral>
0.00232181

> <r_epik_State_Penalty>
0.00160212

> <r_epik_Charging_Adjusted_Penalty>
0.00160915

> <i_epik_Tot_Q>
-1

> <i_epik_Tot_abs_Q>
1

> <r_epik_Metal_State_Penalty>
-0

> <b_epik_Metal_Only>
0

> <s_lp_Force_Field>
OPLS_2005

> <r_lp_Energy>
33.645

> <b_lp_Chiralities_Consistent>
1

> <s_lp_Variant>
AV-unprocessed.smi:2616-1

> <Gold.Version>
5.8.1

> <Gold.Id.Protein>
6NUR|6NUR_protein|mol2

> <Gold.PLP.Fitness>
38.4710

> <Gold.PLP.PLP>
-23.1792

> <Gold.PLP.part.hbond>
-3.0000

> <Gold.PLP.part.metal>
0.0000

> <Gold.PLP.part.buried>
1.6466

> <Gold.PLP.part.nonpolar>
-23.9196

> <Gold.PLP.part.repulsive>
1.0921

> <Gold.PLP.ligand.clash>
0.0000

> <Gold.PLP.ligand.torsion>
0.2544

> <Gold.PLP.Chemscore.Hbond>
4.5985

> <Gold.PLP.Chemscore.CHOScore>
0.5105

> <Gold.PLP.Chemscore.Metal>
0.0000

> <Gold.Chemscore.Hbonds>
donor molecule, donor type, donor heavy atom, donor atom, acceptor molecule, acceptor atom, score
      P1  H  7989  7998       L1     5  0.75
      P1  H  7997  8010       L1     1  2.00
      P1  H 10752 10764       L1     3  1.03
      L1  C     6    18       P1  8028  0.25

> <Gold.PLP.Chemscore.Internal.Correction>
0.4736

> <Gold.Rescore>
     Score         DG    S(hbond)    S(metal)    S(lipo)     H(rot)  DE(clash)    DE(int)     intcor
     13.20     -17.03       1.96        0.00      64.52       1.00       2.16       1.67       ----

> <Gold.Chemscore.Fitness>
13.1995

> <Gold.Chemscore.DG>
-17.0293

> <Gold.Chemscore.ZeroCoef>
-5.4800

> <Gold.Chemscore.Hbond>
1.9643

> <Gold.Chemscore.Metal>
0.0000

> <Gold.Chemscore.Lipo>
64.5177

> <Gold.Chemscore.Internal_Hbond>
0.0000

> <Gold.Chemscore.DEClash>
2.1644

> <Gold.Chemscore.DEInternal>
1.6655

> <Gold.Chemscore.Rot>
1.0000

> <Gold.Chemscore.Internal.Correction>
   9.000000E+99

> <Gold.Chemscore.Hbonds>
donor molecule, donor type, donor heavy atom, donor atom, acceptor molecule, acceptor atom, score
      P1  H  7989  7998       L1     5  0.05
      P1  H  7997  8010       L1     1  1.00
      P1  H 10752 10764       L1     3  0.48

> <Gold.Chemscore.Hbond.Weighted>
-6.5608

> <Gold.Chemscore.Metal.Weighted>
-0.0000

> <Gold.Chemscore.Lipo.Weighted>
-7.5486

> <Gold.Chemscore.Internal_Hbond.Weighted>
0.0000

> <Gold.Chemscore.DEClash.Weighted>
2.1644

> <Gold.Chemscore.DEInternal.Weighted>
1.6655

> <Gold.Chemscore.Rot.Weighted>
2.5600

> <Gold.Chemscore.Internal.Correction.Weighted>
   9.000000E+99

> <Gold.Protein.RotatedTorsions>
[ 6907 6896 6895 6894 ] final  121.76 input  -60.11 | X-H torsion
[ 7974 7965 7964 7962 ] final  174.54 input  175.53 | X-H torsion
[ 8008 7997 7996 7995 ] final   90.26 input   59.86 | X-H torsion
[ 10167 10162 10161 10158 ] final   30.86 input  -65.29 | X-H torsion
[ 10718 10713 10712 10709 ] final -115.16 input   66.30 | X-H torsion
[ 10763 10752 10751 10750 ] final  -53.54 input  -60.55 | X-H torsion
[ 11005 11000 10999 10996 ] final  -77.18 input  -57.11 | X-H torsion

> <Gold.Protein.ActiveResidues>
 VAL166  LYS551  ARG553  GLY616  TRP617  ASP618  TYR619  PRO620  LYS621  CYS622 
 ASP623  PHE694  ASN695  SER759  ASP760  ASP761  ALA762  ILE779  LEU786  VAL792 
 PHE793  MET794  SER795  GLU796  ALA797  LYS798  CYS799  TRP800  GLU811  SER814 

> <Gold.Protein.RotatedAtoms>
  152.4296  133.7255  159.6557 H   0  0  0  0  0  0  0  0  0  0  0  0  # atno 6907 bound_to 6896
  150.8175  133.8301  159.3160 H   0  0  0  0  0  0  0  0  0  0  0  0  # atno 6908 bound_to 6896
  151.5993  135.1050  160.0108 H   0  0  0  0  0  0  0  0  0  0  0  0  # atno 6909 bound_to 6896
  144.7219  139.9813  143.6439 H   0  0  0  0  0  0  0  0  0  0  0  0  # atno 7974 bound_to 7965
  156.0098  140.3351  155.6929 H   0  0  0  0  0  0  0  0  0  0  0  0  # atno 8008 bound_to 7997
  155.6173  140.0671  157.2706 H   0  0  0  0  0  0  0  0  0  0  0  0  # atno 8009 bound_to 7997
  154.4277  140.1783  156.1323 H   0  0  0  0  0  0  0  0  0  0  0  0  # atno 8010 bound_to 7997
  140.4641  144.0863  150.6220 H   0  0  0  0  0  0  0  0  0  0  0  0  # atno 10167 bound_to 10162
  156.0877  130.6065  150.8869 H   0  0  0  0  0  0  0  0  0  0  0  0  # atno 10718 bound_to 10713
  154.1605  135.6475  153.4985 H   0  0  0  0  0  0  0  0  0  0  0  0  # atno 10763 bound_to 10752
  153.0112  135.5359  154.6715 H   0  0  0  0  0  0  0  0  0  0  0  0  # atno 10764 bound_to 10752
  154.6027  135.2945  155.0489 H   0  0  0  0  0  0  0  0  0  0  0  0  # atno 10765 bound_to 10752
  141.1659  133.7012  156.7782 H   0  0  0  0  0  0  0  0  0  0  0  0  # atno 11005 bound_to 11000
  146.0485  139.3489  143.0654 LP  0  0  0  0  0  0  0  0  0  0  0  0  # atno 17320 bound_to 7965
  145.8245  140.9662  143.0881 LP  0  0  0  0  0  0  0  0  0  0  0  0  # atno 17321 bound_to 7965
  140.4058  143.2681  151.9893 LP  0  0  0  0  0  0  0  0  0  0  0  0  # atno 17342 bound_to 10162
  139.4810  144.5958  151.7692 LP  0  0  0  0  0  0  0  0  0  0  0  0  # atno 17343 bound_to 10162
  157.6017  131.0941  150.8949 LP  0  0  0  0  0  0  0  0  0  0  0  0  # atno 17370 bound_to 10713
  156.9106  130.5279  149.5280 LP  0  0  0  0  0  0  0  0  0  0  0  0  # atno 17371 bound_to 10713
  140.2414  134.8610  157.3577 LP  0  0  0  0  0  0  0  0  0  0  0  0  # atno 17394 bound_to 11000
  140.1792  134.4511  155.7782 LP  0  0  0  0  0  0  0  0  0  0  0  0  # atno 17395 bound_to 11000

$$$$
