AV-unprocessed.smi:3258|AV-procd|sdf|12470|dock2
  -GOLD-   2272018363D 1   1.00000     0.00000
 Structure written by MMmdl.
 38 39  0  0  0  0  0  0  0  0  1 V2000
  144.4564  135.0186  153.1951 C   0  0  0  0  0  0  0  0  0  0  0  0
  145.0759  136.1076  152.3037 C   0  0  2  0  0  0  0  0  0  0  0  0
  145.1160  135.7223  150.8085 C   0  0  0  0  0  0  0  0  0  0  0  0
  145.1322  134.2857  150.5999 N   0  0  0  0  0  0  0  0  0  0  0  0
  144.1558  133.4953  150.0315 C   0  0  0  0  0  0  0  0  0  0  0  0
  144.6130  132.2089  150.0495 C   0  0  0  0  0  0  0  0  0  0  0  0
  145.8969  132.3153  150.6539 C   0  0  0  0  0  0  0  0  0  0  0  0
  146.2059  133.5597  150.9809 N   0  0  0  0  0  0  0  0  0  0  0  0
  146.4226  136.4082  152.7815 N   0  0  0  0  0  0  0  0  0  0  0  0
  146.7249  136.8606  154.0067 C   0  0  0  0  0  0  0  0  0  0  0  0
  145.8917  137.0783  154.8866 O   0  0  0  0  0  0  0  0  0  0  0  0
  148.0431  137.0545  154.1533 N   0  0  0  0  0  0  0  0  0  0  0  0
  148.6947  137.5504  155.3617 C   0  0  0  0  0  0  0  0  0  0  0  0
  149.5131  138.8270  155.0912 C   0  0  1  0  0  0  0  0  0  0  0  0
  149.9330  139.6018  156.3259 C   0  0  0  0  0  0  0  0  0  0  0  0
  151.0771  140.4580  155.7910 C   0  0  0  0  0  0  0  0  0  0  0  0
  151.6658  139.7084  154.7315 O   0  0  0  0  0  0  0  0  0  0  0  0
  150.8719  138.5615  154.4446 C   0  0  0  0  0  0  0  0  0  0  0  0
  143.4155  134.8305  152.9314 H   0  0  0  0  0  0  0  0  0  0  0  0
  144.4741  135.3140  154.2446 H   0  0  0  0  0  0  0  0  0  0  0  0
  144.9981  134.0765  153.1044 H   0  0  0  0  0  0  0  0  0  0  0  0
  144.4625  137.0040  152.4141 H   0  0  0  0  0  0  0  0  0  0  0  0
  144.2454  136.1241  150.2885 H   0  0  0  0  0  0  0  0  0  0  0  0
  145.9925  136.1602  150.3277 H   0  0  0  0  0  0  0  0  0  0  0  0
  143.2271  133.9105  149.6678 H   0  0  0  0  0  0  0  0  0  0  0  0
  144.1078  131.3265  149.6860 H   0  0  0  0  0  0  0  0  0  0  0  0
  146.6091  131.5305  150.8625 H   0  0  0  0  0  0  0  0  0  0  0  0
  147.1787  136.2629  152.1285 H   0  0  0  0  0  0  0  0  0  0  0  0
  148.6428  136.8462  153.3683 H   0  0  0  0  0  0  0  0  0  0  0  0
  147.9646  137.7206  156.1548 H   0  0  0  0  0  0  0  0  0  0  0  0
  149.3582  136.7650  155.7241 H   0  0  0  0  0  0  0  0  0  0  0  0
  148.9441  139.4916  154.4386 H   0  0  0  0  0  0  0  0  0  0  0  0
  149.1273  140.1964  156.7574 H   0  0  0  0  0  0  0  0  0  0  0  0
  150.3040  138.9214  157.0938 H   0  0  0  0  0  0  0  0  0  0  0  0
  150.6934  141.3930  155.3808 H   0  0  0  0  0  0  0  0  0  0  0  0
  151.8086  140.7017  156.5616 H   0  0  0  0  0  0  0  0  0  0  0  0
  151.3510  137.6909  154.8950 H   0  0  0  0  0  0  0  0  0  0  0  0
  150.7975  138.3878  153.3708 H   0  0  0  0  0  0  0  0  0  0  0  0
  1  2  1  0  0  0  0
  1 19  1  0  0  0  0
  1 20  1  0  0  0  0
  1 21  1  0  0  0  0
  2  3  1  0  0  0  0
  2  9  1  0  0  0  0
  2 22  1  0  0  0  0
  3  4  1  0  0  0  0
  3 23  1  0  0  0  0
  3 24  1  0  0  0  0
  4  8  1  0  0  0  0
  4  5  1  0  0  0  0
  5  6  2  0  0  0  0
  5 25  1  0  0  0  0
  6  7  1  0  0  0  0
  6 26  1  0  0  0  0
  7  8  2  0  0  0  0
  7 27  1  0  0  0  0
  9 10  1  0  0  0  0
  9 28  1  0  0  0  0
 10 11  2  0  0  0  0
 10 12  1  0  0  0  0
 12 13  1  0  0  0  0
 12 29  1  0  0  0  0
 13 14  1  0  0  0  0
 13 30  1  0  0  0  0
 13 31  1  0  0  0  0
 14 18  1  0  0  0  0
 14 15  1  0  0  0  0
 14 32  1  0  0  0  0
 15 16  1  0  0  0  0
 15 33  1  0  0  0  0
 15 34  1  0  0  0  0
 16 17  1  0  0  0  0
 16 35  1  0  0  0  0
 16 36  1  0  0  0  0
 17 18  1  0  0  0  0
 18 37  1  0  0  0  0
 18 38  1  0  0  0  0
M  END
> <s_m_source_file>
AV-unprocessed.smi

> <i_m_source_file_index>
3258

> <i_lp_mmshare_version>
43012

> <i_f3d_flags>
0

> <s_epik_input>
bjFbY0hdW2NIXVtjSF1uMVtDSDJdW0NAQEhdKFtDSDNdKVtOSF1DKD1PKVtOSF1bQ0gyXVtDQEBIXTJbQ0gyXVtDSDJdT1tDSDJdMg==

> <s_epik_cmdline>
J2VwaWtfcHl0aG9uJywgJy1waCcsICc3LjAnLCAnLXRuJywgJzgnLCAnLW1hJywgJzIwMCcsICctbWV0YWxfYmluZGluZycsICctaW1hZScsICc8aW5maWxlLm1hZT4nLCAnLW9tYWUnLCAnPG91dGZpbGUubWFlPic=

> <r_lp_tautomer_probability>
1

> <r_epik_Ionization_Penalty>
6.85079e-05

> <r_epik_Ionization_Penalty_Charging>
0

> <r_epik_Ionization_Penalty_Neutral>
6.85079e-05

> <r_epik_State_Penalty>
-0

> <r_epik_Charging_Adjusted_Penalty>
0

> <i_epik_Tot_Q>
0

> <i_epik_Tot_abs_Q>
0

> <r_epik_Metal_State_Penalty>
-0

> <b_epik_Metal_Only>
0

> <s_lp_Force_Field>
OPLS_2005

> <r_lp_Energy>
15.6708

> <b_lp_Chiralities_Consistent>
1

> <s_lp_Variant>
AV-unprocessed.smi:3258-3

> <Gold.Version>
5.8.1

> <Gold.Id.Protein>
6NUR|6NUR_protein|mol2

> <Gold.PLP.Fitness>
42.4866

> <Gold.PLP.PLP>
-28.8261

> <Gold.PLP.part.hbond>
-3.0000

> <Gold.PLP.part.metal>
0.0000

> <Gold.PLP.part.buried>
-5.4609

> <Gold.PLP.part.nonpolar>
-21.3913

> <Gold.PLP.part.repulsive>
0.2928

> <Gold.PLP.ligand.clash>
0.0000

> <Gold.PLP.ligand.torsion>
0.6883

> <Gold.PLP.Chemscore.Hbond>
2.9920

> <Gold.PLP.Chemscore.CHOScore>
2.0000

> <Gold.PLP.Chemscore.Metal>
0.0000

> <Gold.Chemscore.Hbonds>
donor molecule, donor type, donor heavy atom, donor atom, acceptor molecule, acceptor atom, score
      L1  H     9    28       P1  7948  0.98
      L1  H    12    29       P1  7948  1.00
      P1  H  7989  7998       L1    17  1.00
      L1  C     5    25       P1 10186  1.00
      L1  C     7    27       P1 10747  1.00

> <Gold.PLP.Chemscore.Internal.Correction>
0.0611

> <Gold.Rescore>
     Score         DG    S(hbond)    S(metal)    S(lipo)     H(rot)  DE(clash)    DE(int)     intcor
     16.79     -17.50       2.70        0.00      66.67       1.87       0.04       0.66       ----

> <Gold.Chemscore.Fitness>
16.7900

> <Gold.Chemscore.DG>
-17.4971

> <Gold.Chemscore.ZeroCoef>
-5.4800

> <Gold.Chemscore.Hbond>
2.6976

> <Gold.Chemscore.Metal>
0.0000

> <Gold.Chemscore.Lipo>
66.6702

> <Gold.Chemscore.Internal_Hbond>
0.0000

> <Gold.Chemscore.DEClash>
0.0437

> <Gold.Chemscore.DEInternal>
0.6634

> <Gold.Chemscore.Rot>
1.8724

> <Gold.Chemscore.Internal.Correction>
   9.000000E+99

> <Gold.Chemscore.Hbonds>
donor molecule, donor type, donor heavy atom, donor atom, acceptor molecule, acceptor atom, score
      L1  H     9    28       P1  7948  0.93
      L1  H    12    29       P1  7948  0.98
      P1  H  7989  7998       L1    17  0.26

> <Gold.Chemscore.Hbond.Weighted>
-9.0099

> <Gold.Chemscore.Metal.Weighted>
-0.0000

> <Gold.Chemscore.Lipo.Weighted>
-7.8004

> <Gold.Chemscore.Internal_Hbond.Weighted>
0.0000

> <Gold.Chemscore.DEClash.Weighted>
0.0437

> <Gold.Chemscore.DEInternal.Weighted>
0.6634

> <Gold.Chemscore.Rot.Weighted>
4.7933

> <Gold.Chemscore.Internal.Correction.Weighted>
   9.000000E+99

> <Gold.Protein.RotatedTorsions>
[ 6907 6896 6895 6894 ] final  162.16 input  -60.11 | X-H torsion
[ 7974 7965 7964 7962 ] final -119.54 input  175.53 | X-H torsion
[ 8008 7997 7996 7995 ] final  -47.69 input   59.86 | X-H torsion
[ 10167 10162 10161 10158 ] final  137.09 input  -65.29 | X-H torsion
[ 10718 10713 10712 10709 ] final -160.98 input   66.30 | X-H torsion
[ 10763 10752 10751 10750 ] final  138.99 input  -60.55 | X-H torsion
[ 11005 11000 10999 10996 ] final -136.47 input  -57.11 | X-H torsion

> <Gold.Protein.ActiveResidues>
 VAL166  LYS551  ARG553  GLY616  TRP617  ASP618  TYR619  PRO620  LYS621  CYS622 
 ASP623  PHE694  ASN695  SER759  ASP760  ASP761  ALA762  ILE779  LEU786  VAL792 
 PHE793  MET794  SER795  GLU796  ALA797  LYS798  CYS799  TRP800  GLU811  SER814 

> <Gold.Protein.RotatedAtoms>
  151.9447  133.3648  159.3977 H   0  0  0  0  0  0  0  0  0  0  0  0  # atno 6907 bound_to 6896
  150.6992  134.4403  159.5298 H   0  0  0  0  0  0  0  0  0  0  0  0  # atno 6908 bound_to 6896
  152.2066  134.8540  160.0553 H   0  0  0  0  0  0  0  0  0  0  0  0  # atno 6909 bound_to 6896
  145.0614  140.8293  143.4150 H   0  0  0  0  0  0  0  0  0  0  0  0  # atno 7974 bound_to 7965
  154.4019  140.1340  156.4217 H   0  0  0  0  0  0  0  0  0  0  0  0  # atno 8008 bound_to 7997
  155.7636  140.3485  155.5190 H   0  0  0  0  0  0  0  0  0  0  0  0  # atno 8009 bound_to 7997
  155.8835  140.0991  157.1459 H   0  0  0  0  0  0  0  0  0  0  0  0  # atno 8010 bound_to 7997
  139.5156  144.6429  151.5520 H   0  0  0  0  0  0  0  0  0  0  0  0  # atno 10167 bound_to 10162
  156.5897  130.8765  151.2887 H   0  0  0  0  0  0  0  0  0  0  0  0  # atno 10718 bound_to 10713
  153.8987  135.3024  155.3448 H   0  0  0  0  0  0  0  0  0  0  0  0  # atno 10763 bound_to 10752
  154.7681  135.4900  153.9597 H   0  0  0  0  0  0  0  0  0  0  0  0  # atno 10764 bound_to 10752
  153.1257  135.6792  153.9361 H   0  0  0  0  0  0  0  0  0  0  0  0  # atno 10765 bound_to 10752
  140.8802  134.1941  157.4596 H   0  0  0  0  0  0  0  0  0  0  0  0  # atno 11005 bound_to 11000
  145.1404  139.2576  143.5493 LP  0  0  0  0  0  0  0  0  0  0  0  0  # atno 17320 bound_to 7965
  146.3524  140.1079  142.8605 LP  0  0  0  0  0  0  0  0  0  0  0  0  # atno 17321 bound_to 7965
  140.6203  143.9272  150.6520 LP  0  0  0  0  0  0  0  0  0  0  0  0  # atno 17342 bound_to 10162
  140.2543  143.3570  152.1379 LP  0  0  0  0  0  0  0  0  0  0  0  0  # atno 17343 bound_to 10162
  157.7306  130.9688  150.1843 LP  0  0  0  0  0  0  0  0  0  0  0  0  # atno 17370 bound_to 10713
  156.2560  130.3705  149.8181 LP  0  0  0  0  0  0  0  0  0  0  0  0  # atno 17371 bound_to 10713
  139.8719  134.9814  156.5113 LP  0  0  0  0  0  0  0  0  0  0  0  0  # atno 17394 bound_to 11000
  140.8470  133.8161  155.9131 LP  0  0  0  0  0  0  0  0  0  0  0  0  # atno 17395 bound_to 11000

$$$$
