#       Name:                AV-unprocessed.smi:651
#       Creating user name   scv26
#       Creation time:       Fri Mar 27 00:11:12 2020


#       File generated by GOLD software.
#

@<TRIPOS>MOLECULE
AV-unprocessed.smi:651
    43    44     1
SMALL
NO_CHARGES


@<TRIPOS>ATOM
      1 ****        -3.6295   5.3410  -0.2180 C.3            1 S1                 0.0000
      2 ****        -3.1405   3.9162  -0.3741 C.ar           1 S1                 0.0000
      3 ****        -3.0116   3.3367  -1.6538 C.ar           1 S1                 0.0000
      4 ****        -2.5402   2.0132  -1.7462 C.ar           1 S1                 0.0000
      5 ****        -2.2170   1.3219  -0.5604 C.ar           1 S1                 0.0000
      6 ****        -1.6928  -0.1042  -0.6062 C.3            1 S1                 0.0000
      7 ****        -0.1602  -0.1612  -0.6034 C.2            1 S1                 0.0000
      8 ****         0.5191   0.8666  -0.5812 O.2            1 S1                 0.0000
      9 ****         0.3766  -1.3906  -0.6145 N.am           1 S1                 0.0000
     10 ****         1.8119  -1.6781  -0.5901 C.3            1 S1                 0.0000
     11 ****         2.1033  -3.1197  -1.0475 C.3            1 S1                 0.0000
     12 ****         3.2065  -3.6626  -0.1291 C.3            1 S1                 0.0000
     13 ****         3.6842  -2.4712   0.7063 C.3            1 S1                 0.0000
     14 ****         2.4849  -1.5162   0.7988 C.3            1 S1                 0.0000
     15 ****         1.5882  -1.8681   2.0060 C.2            1 S1                 0.0000
     16 ****         1.4076  -0.9139   2.9225 N.am           1 S1                 0.0000
     17 ****         1.0615  -2.9748   2.1085 O.2            1 S1                 0.0000
     18 ****        -2.3843   1.9926   0.6701 C.ar           1 S1                 0.0000
     19 ****        -2.8349   3.2619   0.7683 N.ar           1 S1                 0.0000
     20 ****        -4.2621   5.6295  -1.0580 H              1 S1                 0.0000
     21 ****        -2.7817   6.0251  -0.1767 H              1 S1                 0.0000
     22 ****        -4.2104   5.4572   0.6976 H              1 S1                 0.0000
     23 ****        -3.2635   3.8928  -2.5449 H              1 S1                 0.0000
     24 ****        -2.4244   1.5408  -2.7107 H              1 S1                 0.0000
     25 ****        -2.0747  -0.6569   0.2533 H              1 S1                 0.0000
     26 ****        -2.0698  -0.6048  -1.4990 H              1 S1                 0.0000
     27 ****        -0.2482  -2.1838  -0.6268 H              1 S1                 0.0000
     28 ****         2.3129  -1.0035  -1.2875 H              1 S1                 0.0000
     29 ****         1.2193  -3.7547  -0.9722 H              1 S1                 0.0000
     30 ****         2.4181  -3.1325  -2.0917 H              1 S1                 0.0000
     31 ****         2.7949  -4.4326   0.5245 H              1 S1                 0.0000
     32 ****         4.0232  -4.1177  -0.6901 H              1 S1                 0.0000
     33 ****         4.0663  -2.7814   1.6799 H              1 S1                 0.0000
     34 ****         4.5024  -1.9686   0.1887 H              1 S1                 0.0000
     35 ****         2.8357  -0.4899   0.9211 H              1 S1                 0.0000
     36 ****         0.8328  -1.0946   3.7328 H              1 S1                 0.0000
     37 ****         1.8504  -0.0145   2.8029 H              1 S1                 0.0000
     38 ****        -2.1442   1.5001   1.6010 H              1 S1                 0.0000
     39 ****         0.0722   1.7611  -0.5645 LP             1 S1                 0.0000
     40 ****         1.5172   0.8063  -0.5798 LP             1 S1                 0.0000
     41 ****         1.2104  -3.6668   1.4022 LP             1 S1                 0.0000
     42 ****         0.4842  -3.1826   2.8982 LP             1 S1                 0.0000
     43 ****        -2.9393   3.7042   1.6591 LP             1 S1                 0.0000
@<TRIPOS>BOND
    1    1    2 1     
    2    1   20 1     
    3    1   21 1     
    4    1   22 1     
    5    2   19 ar    
    6    2    3 ar    
    7    3    4 ar    
    8    3   23 1     
    9    4    5 ar    
   10    4   24 1     
   11    5    6 1     
   12    5   18 ar    
   13    6    7 1     
   14    6   25 1     
   15    6   26 1     
   16    7    8 2     
   17    7    9 am    
   18    9   10 1     
   19    9   27 1     
   20   10   14 1     
   21   10   11 1     
   22   10   28 1     
   23   11   12 1     
   24   11   29 1     
   25   11   30 1     
   26   12   13 1     
   27   12   31 1     
   28   12   32 1     
   29   13   14 1     
   30   13   33 1     
   31   13   34 1     
   32   14   15 1     
   33   14   35 1     
   34   15   16 am    
   35   15   17 2     
   36   16   36 1     
   37   16   37 1     
   38   18   19 ar    
   39   18   38 1     
   40    8   39 1     
   41    8   40 1     
   42   17   41 1     
   43   17   42 1     
   44   19   43 1     
@<TRIPOS>SUBSTRUCTURE
      1 S1             1
@<TRIPOS>SET
LONE_PAIRS      STATIC     ATOMS    <user>   **** ""
5 39 40 41 42 43
DONOR_HYDROGENS      STATIC     ATOMS    <user>   **** ""
3 27 36 37
ATOM$BLUE        STATIC     ATOMS    COLORGROUP SYSTEM
5 39 40 41 42 43
ATOM$RED        STATIC     ATOMS    COLORGROUP SYSTEM
3 27 36 37
