AV-unprocessed.smi:760|AV-procd|sdf|3628|dock7
  -GOLD-   22720 1 23D 1   1.00000     0.00000
 Structure written by MMmdl.
 44 45  0  0  0  0  0  0  0  0  2 V2000
  143.8833  132.2710  149.8438 C   0  0  0  0  0  0  0  0  0  0  0  0
  144.6874  132.1813  150.9162 C   0  0  0  0  0  0  0  0  0  0  0  0
  145.4150  130.8951  151.2664 C   0  0  0  0  0  0  0  0  0  0  0  0
  144.9414  133.3743  151.8253 C   0  0  0  0  0  0  0  0  0  0  0  0
  146.0026  133.1159  152.8339 N   0  3  2  0  0  0  0  0  0  0  0  0
  145.9549  134.1052  153.9416 C   0  0  0  0  0  0  0  0  0  0  0  0
  146.9497  133.7469  155.0588 C   0  0  0  0  0  0  0  0  0  0  0  0
  148.3883  133.6141  154.5254 C   0  0  2  0  0  0  0  0  0  0  0  0
  148.9455  134.9099  154.1371 N   0  0  0  0  0  0  0  0  0  0  0  0
  149.4254  135.8290  154.9877 C   0  0  0  0  0  0  0  0  0  0  0  0
  149.4466  135.6782  156.2091 O   0  0  0  0  0  0  0  0  0  0  0  0
  149.8654  136.9177  154.3361 N   0  0  0  0  0  0  0  0  0  0  0  0
  150.4342  138.0845  154.9060 C   0  0  0  0  0  0  0  0  0  0  0  0
  150.4410  139.4197  154.4107 C   0  0  0  0  0  0  0  0  0  0  0  0
  151.0782  140.2315  155.2413 N   0  0  0  0  0  0  0  0  0  0  0  0
  151.4848  139.4409  156.2640 N   0  0  0  0  0  0  0  0  0  0  0  0
  152.2234  140.0253  157.3630 C   0  0  0  0  0  0  0  0  0  0  0  0
  151.1051  138.1247  156.0913 C   0  0  0  0  0  0  0  0  0  0  0  0
  148.4081  132.6361  153.3394 C   0  0  0  0  0  0  0  0  0  0  0  0
  147.3704  132.9988  152.2607 C   0  0  0  0  0  0  0  0  0  0  0  0
  143.7153  131.4238  149.1947 H   0  0  0  0  0  0  0  0  0  0  0  0
  143.3799  133.1946  149.5980 H   0  0  0  0  0  0  0  0  0  0  0  0
  146.4926  131.0456  151.1972 H   0  0  0  0  0  0  0  0  0  0  0  0
  145.1453  130.0897  150.5822 H   0  0  0  0  0  0  0  0  0  0  0  0
  145.1865  130.5654  152.2786 H   0  0  0  0  0  0  0  0  0  0  0  0
  145.1810  134.2601  151.2348 H   0  0  0  0  0  0  0  0  0  0  0  0
  144.0058  133.5931  152.3421 H   0  0  0  0  0  0  0  0  0  0  0  0
  146.1656  135.1022  153.5515 H   0  0  0  0  0  0  0  0  0  0  0  0
  144.9487  134.1386  154.3614 H   0  0  0  0  0  0  0  0  0  0  0  0
  146.9021  134.4902  155.8556 H   0  0  0  0  0  0  0  0  0  0  0  0
  146.6487  132.8017  155.5127 H   0  0  0  0  0  0  0  0  0  0  0  0
  149.0189  133.1984  155.3136 H   0  0  0  0  0  0  0  0  0  0  0  0
  148.9744  135.1186  153.1498 H   0  0  0  0  0  0  0  0  0  0  0  0
  149.7833  136.9142  153.3302 H   0  0  0  0  0  0  0  0  0  0  0  0
  150.0195  139.8276  153.5040 H   0  0  0  0  0  0  0  0  0  0  0  0
  152.7470  139.2453  157.9166 H   0  0  0  0  0  0  0  0  0  0  0  0
  151.5354  140.5383  158.0354 H   0  0  0  0  0  0  0  0  0  0  0  0
  152.9549  140.7404  156.9846 H   0  0  0  0  0  0  0  0  0  0  0  0
  151.3409  137.3529  156.8093 H   0  0  0  0  0  0  0  0  0  0  0  0
  149.4058  132.5932  152.9005 H   0  0  0  0  0  0  0  0  0  0  0  0
  148.1977  131.6303  153.7063 H   0  0  0  0  0  0  0  0  0  0  0  0
  147.3929  132.2175  151.5030 H   0  0  0  0  0  0  0  0  0  0  0  0
  147.6425  133.9327  151.7668 H   0  0  0  0  0  0  0  0  0  0  0  0
  145.7855  132.2201  153.2472 H   0  0  0  0  0  0  0  0  0  0  0  0
  1  2  2  0  0  0  0
  1 21  1  0  0  0  0
  1 22  1  0  0  0  0
  2  3  1  0  0  0  0
  2  4  1  0  0  0  0
  3 23  1  0  0  0  0
  3 24  1  0  0  0  0
  3 25  1  0  0  0  0
  4  5  1  0  0  0  0
  4 26  1  0  0  0  0
  4 27  1  0  0  0  0
  5 20  1  0  0  0  0
  5  6  1  0  0  0  0
  5 44  1  0  0  0  0
  6  7  1  0  0  0  0
  6 28  1  0  0  0  0
  6 29  1  0  0  0  0
  7  8  1  0  0  0  0
  7 30  1  0  0  0  0
  7 31  1  0  0  0  0
  8  9  1  0  0  0  0
  8 19  1  0  0  0  0
  8 32  1  0  0  0  0
  9 10  1  0  0  0  0
  9 33  1  0  0  0  0
 10 11  2  0  0  0  0
 10 12  1  0  0  0  0
 12 13  1  0  0  0  0
 12 34  1  0  0  0  0
 13 18  2  0  0  0  0
 13 14  1  0  0  0  0
 14 15  2  0  0  0  0
 14 35  1  0  0  0  0
 15 16  1  0  0  0  0
 16 17  1  0  0  0  0
 16 18  1  0  0  0  0
 17 36  1  0  0  0  0
 17 37  1  0  0  0  0
 17 38  1  0  0  0  0
 18 39  1  0  0  0  0
 19 20  1  0  0  0  0
 19 40  1  0  0  0  0
 19 41  1  0  0  0  0
 20 42  1  0  0  0  0
 20 43  1  0  0  0  0
M  CHG  1   5   1
M  END
> <s_m_source_file>
AV-unprocessed.smi

> <i_m_source_file_index>
760

> <i_lp_mmshare_version>
43012

> <i_f3d_flags>
0

> <s_epik_input>
W0NIMl09QyhbQ0gzXSlbQ0gyXU4xW0NIMl1bQ0gyXVtDSF0oW0NIMl1bQ0gyXTEpW05IXUMoPU8pW05IXWMyW2NIXW5uKFtDSDNdKVtjSF0y

> <s_epik_cmdline>
J2VwaWtfcHl0aG9uJywgJy1waCcsICc3LjAnLCAnLXRuJywgJzgnLCAnLW1hJywgJzIwMCcsICctbWV0YWxfYmluZGluZycsICctaW1hZScsICc8aW5maWxlLm1hZT4nLCAnLW9tYWUnLCAnPG91dGZpbGUubWFlPic=

> <r_lp_tautomer_probability>
1

> <r_epik_Ionization_Penalty>
0.0194996

> <r_epik_Ionization_Penalty_Charging>
0.0193505

> <r_epik_Ionization_Penalty_Neutral>
0.000149098

> <r_epik_State_Penalty>
0.0154499

> <r_epik_Charging_Adjusted_Penalty>
0.0348004

> <i_epik_Tot_Q>
1

> <i_epik_Tot_abs_Q>
1

> <r_epik_Metal_State_Penalty>
0.0154507

> <b_epik_Metal_Only>
0

> <s_lp_Force_Field>
OPLS_2005

> <r_lp_Energy>
20.0822

> <b_lp_Chiralities_Consistent>
1

> <s_lp_Variant>
AV-unprocessed.smi:760-2

> <Gold.Version>
5.8.1

> <Gold.Id.Protein>
6NUR|6NUR_protein|mol2

> <Gold.PLP.Fitness>
39.7297

> <Gold.PLP.PLP>
-31.8609

> <Gold.PLP.part.hbond>
-3.1909

> <Gold.PLP.part.metal>
0.0000

> <Gold.PLP.part.buried>
-2.9757

> <Gold.PLP.part.nonpolar>
-25.6872

> <Gold.PLP.part.repulsive>
0.0978

> <Gold.PLP.ligand.clash>
0.0000

> <Gold.PLP.ligand.torsion>
0.5675

> <Gold.PLP.Chemscore.Hbond>
1.9920

> <Gold.PLP.Chemscore.CHOScore>
1.0000

> <Gold.PLP.Chemscore.Metal>
0.0000

> <Gold.Chemscore.Hbonds>
donor molecule, donor type, donor heavy atom, donor atom, acceptor molecule, acceptor atom, score
      L1  H     9    33       P1  7948  1.00
      L1  H    12    34       P1  7948  0.98
      L1  C    14    35       P1  7957  1.00

> <Gold.PLP.Chemscore.Internal.Correction>
0.0278

> <Gold.Rescore>
     Score         DG    S(hbond)    S(metal)    S(lipo)     H(rot)  DE(clash)    DE(int)     intcor
     15.00     -16.78       1.77        0.00      76.06       1.38       0.01       1.76       ----

> <Gold.Chemscore.Fitness>
14.9986

> <Gold.Chemscore.DG>
-16.7757

> <Gold.Chemscore.ZeroCoef>
-5.4800

> <Gold.Chemscore.Hbond>
1.7716

> <Gold.Chemscore.Metal>
0.0000

> <Gold.Chemscore.Lipo>
76.0606

> <Gold.Chemscore.Internal_Hbond>
0.0000

> <Gold.Chemscore.DEClash>
0.0126

> <Gold.Chemscore.DEInternal>
1.7645

> <Gold.Chemscore.Rot>
1.3752

> <Gold.Chemscore.Internal.Correction>
   9.000000E+99

> <Gold.Chemscore.Hbonds>
donor molecule, donor type, donor heavy atom, donor atom, acceptor molecule, acceptor atom, score
      L1  H     9    33       P1  7948  0.25
      L1  H    12    34       P1  7948  0.42

> <Gold.Chemscore.Hbond.Weighted>
-5.9170

> <Gold.Chemscore.Metal.Weighted>
-0.0000

> <Gold.Chemscore.Lipo.Weighted>
-8.8991

> <Gold.Chemscore.Internal_Hbond.Weighted>
0.0000

> <Gold.Chemscore.DEClash.Weighted>
0.0126

> <Gold.Chemscore.DEInternal.Weighted>
1.7645

> <Gold.Chemscore.Rot.Weighted>
3.5204

> <Gold.Chemscore.Internal.Correction.Weighted>
   9.000000E+99

> <Gold.Protein.RotatedTorsions>
[ 6907 6896 6895 6894 ] final   45.88 input  -60.11 | X-H torsion
[ 7974 7965 7964 7962 ] final -109.76 input  175.53 | X-H torsion
[ 8008 7997 7996 7995 ] final  -95.78 input   59.86 | X-H torsion
[ 10167 10162 10161 10158 ] final  -60.38 input  -65.29 | X-H torsion
[ 10718 10713 10712 10709 ] final  -34.57 input   66.30 | X-H torsion
[ 10763 10752 10751 10750 ] final -143.96 input  -60.55 | X-H torsion
[ 11005 11000 10999 10996 ] final  -51.86 input  -57.11 | X-H torsion

> <Gold.Protein.ActiveResidues>
 VAL166  LYS551  ARG553  GLY616  TRP617  ASP618  TYR619  PRO620  LYS621  CYS622 
 ASP623  PHE694  ASN695  SER759  ASP760  ASP761  ALA762  ILE779  LEU786  VAL792 
 PHE793  MET794  SER795  GLU796  ALA797  LYS798  CYS799  TRP800  GLU811  SER814 

> <Gold.Protein.RotatedAtoms>
  152.2498  134.8144  160.0447 H   0  0  0  0  0  0  0  0  0  0  0  0  # atno 6907 bound_to 6896
  151.8828  133.3494  159.3780 H   0  0  0  0  0  0  0  0  0  0  0  0  # atno 6908 bound_to 6896
  150.7080  134.4928  159.5568 H   0  0  0  0  0  0  0  0  0  0  0  0  # atno 6909 bound_to 6896
  145.1765  140.8951  143.3505 H   0  0  0  0  0  0  0  0  0  0  0  0  # atno 7974 bound_to 7965
  154.7658  140.0477  157.1011 H   0  0  0  0  0  0  0  0  0  0  0  0  # atno 8008 bound_to 7997
  154.9881  140.3110  155.4898 H   0  0  0  0  0  0  0  0  0  0  0  0  # atno 8009 bound_to 7997
  156.2912  140.2223  156.4984 H   0  0  0  0  0  0  0  0  0  0  0  0  # atno 8010 bound_to 7997
  140.6075  143.2377  151.5787 H   0  0  0  0  0  0  0  0  0  0  0  0  # atno 10167 bound_to 10162
  156.3490  130.4305  149.7721 H   0  0  0  0  0  0  0  0  0  0  0  0  # atno 10718 bound_to 10713
  154.8448  135.3453  154.6271 H   0  0  0  0  0  0  0  0  0  0  0  0  # atno 10763 bound_to 10752
  153.6880  135.6976  153.5103 H   0  0  0  0  0  0  0  0  0  0  0  0  # atno 10764 bound_to 10752
  153.2617  135.4321  155.0856 H   0  0  0  0  0  0  0  0  0  0  0  0  # atno 10765 bound_to 10752
  141.0894  133.6636  156.3939 H   0  0  0  0  0  0  0  0  0  0  0  0  # atno 11005 bound_to 11000
  145.0179  139.3450  143.6087 LP  0  0  0  0  0  0  0  0  0  0  0  0  # atno 17320 bound_to 7965
  146.3460  139.9468  142.8734 LP  0  0  0  0  0  0  0  0  0  0  0  0  # atno 17321 bound_to 7965
  139.5336  144.2846  152.1202 LP  0  0  0  0  0  0  0  0  0  0  0  0  # atno 17342 bound_to 10162
  140.2038  144.4631  150.6418 LP  0  0  0  0  0  0  0  0  0  0  0  0  # atno 17343 bound_to 10162
  156.4928  130.8093  151.3101 LP  0  0  0  0  0  0  0  0  0  0  0  0  # atno 17370 bound_to 10713
  157.7458  130.9970  150.2799 LP  0  0  0  0  0  0  0  0  0  0  0  0  # atno 17371 bound_to 10713
  140.5288  134.6232  157.5343 LP  0  0  0  0  0  0  0  0  0  0  0  0  # atno 17394 bound_to 11000
  139.9717  134.7282  156.0029 LP  0  0  0  0  0  0  0  0  0  0  0  0  # atno 17395 bound_to 11000

$$$$
