#       Name:                AV-unprocessed.smi:2997
#       Creating user name   scv26
#       Creation time:       Fri Mar 27 16:33:28 2020


#       File generated by GOLD software.
#

@<TRIPOS>MOLECULE
AV-unprocessed.smi:2997
    42    44     1
SMALL
NO_CHARGES


@<TRIPOS>ATOM
      1 ****        -2.6501   4.0372   2.4145 C.3            1 S1                 0.0000
      2 ****        -2.2686   2.8965   1.4876 C.ar           1 S1                 0.0000
      3 ****        -2.4347   3.0590   0.0937 C.ar           1 S1                 0.0000
      4 ****        -2.0880   2.0242  -0.8026 C.ar           1 S1                 0.0000
      5 ****        -2.1649   1.9677  -2.1838 N.2            1 S1                 0.0000
      6 ****        -1.6943   0.7478  -2.4284 C.2            1 S1                 0.0000
      7 ****        -1.3233   0.0060  -1.3670 N.pl3          1 S1                 0.0000
      8 ****        -0.7839  -1.3417  -1.3828 C.3            1 S1                 0.0000
      9 ****         0.7547  -1.3595  -1.3194 C.3            1 S1                 0.0000
     10 ****         1.2841  -0.6947  -2.4515 O.3            1 S1                 0.0000
     11 ****         1.3111  -2.7941  -1.2480 C.3            1 S1                 0.0000
     12 ****         2.7564  -2.8220  -1.1055 N.pl3          1 S1                 0.0000
     13 ****         3.5046  -2.6589   0.0413 C.2            1 S1                 0.0000
     14 ****         4.8193  -2.7596  -0.3133 C.2            1 S1                 0.0000
     15 ****         4.7741  -2.9878  -1.7171 C.2            1 S1                 0.0000
     16 ****         3.5381  -3.0246  -2.1883 N.2            1 S1                 0.0000
     17 ****        -1.5667   0.8129  -0.2615 C.ar           1 S1                 0.0000
     18 ****        -1.3983   0.6385   1.1235 C.ar           1 S1                 0.0000
     19 ****        -1.7504   1.6821   2.0049 C.ar           1 S1                 0.0000
     20 ****        -1.5681   1.4832   3.4993 C.3            1 S1                 0.0000
     21 ****        -3.0394   4.8899   1.8574 H              1 S1                 0.0000
     22 ****        -1.7818   4.3758   2.9803 H              1 S1                 0.0000
     23 ****        -3.4192   3.7182   3.1180 H              1 S1                 0.0000
     24 ****        -2.8304   3.9835  -0.3005 H              1 S1                 0.0000
     25 ****        -1.6109   0.3715  -3.4377 H              1 S1                 0.0000
     26 ****        -1.2022  -1.8836  -0.5339 H              1 S1                 0.0000
     27 ****        -1.1368  -1.8499  -2.2815 H              1 S1                 0.0000
     28 ****         1.0789  -0.8127  -0.4328 H              1 S1                 0.0000
     29 ****         2.2276  -0.7401  -2.4116 H              1 S1                 0.0000
     30 ****         0.8799  -3.3193  -0.3949 H              1 S1                 0.0000
     31 ****         1.0280  -3.3604  -2.1370 H              1 S1                 0.0000
     32 ****         3.0440  -2.4851   1.0027 H              1 S1                 0.0000
     33 ****         5.6820  -2.6817   0.3316 H              1 S1                 0.0000
     34 ****         5.5972  -3.1263  -2.4026 H              1 S1                 0.0000
     35 ****        -1.0012  -0.2915   1.5028 H              1 S1                 0.0000
     36 ****        -1.1378   0.5061   3.7209 H              1 S1                 0.0000
     37 ****        -2.5276   1.5501   4.0127 H              1 S1                 0.0000
     38 ****        -0.9021   2.2426   3.9091 H              1 S1                 0.0000
     39 ****        -2.4887   2.6610  -2.8276 LP             1 S1                 0.0000
     40 ****         0.9919   0.2617  -2.4484 LP             1 S1                 0.0000
     41 ****         0.9599  -1.1396  -3.2863 LP             1 S1                 0.0000
     42 ****         3.2478  -3.1698  -3.1341 LP             1 S1                 0.0000
@<TRIPOS>BOND
    1    1    2 1     
    2    1   21 1     
    3    1   22 1     
    4    1   23 1     
    5    2   19 ar    
    6    2    3 ar    
    7    3    4 ar    
    8    3   24 1     
    9    4   17 ar    
   10    4    5 1     
   11    5    6 2     
   12    6    7 1     
   13    6   25 1     
   14    7    8 1     
   15    7   17 1     
   16    8    9 1     
   17    8   26 1     
   18    8   27 1     
   19    9   10 1     
   20    9   11 1     
   21    9   28 1     
   22   10   29 1     
   23   11   12 1     
   24   11   30 1     
   25   11   31 1     
   26   12   16 1     
   27   12   13 1     
   28   13   14 2     
   29   13   32 1     
   30   14   15 1     
   31   14   33 1     
   32   15   16 2     
   33   15   34 1     
   34   17   18 ar    
   35   18   19 ar    
   36   18   35 1     
   37   19   20 1     
   38   20   36 1     
   39   20   37 1     
   40   20   38 1     
   41    5   39 1     
   42   10   40 1     
   43   10   41 1     
   44   16   42 1     
@<TRIPOS>SUBSTRUCTURE
      1 S1             1
@<TRIPOS>SET
LONE_PAIRS      STATIC     ATOMS    <user>   **** ""
4 39 40 41 42
DONOR_HYDROGENS      STATIC     ATOMS    <user>   **** ""
1 29
ATOM$BLUE        STATIC     ATOMS    COLORGROUP SYSTEM
4 39 40 41 42
ATOM$RED        STATIC     ATOMS    COLORGROUP SYSTEM
1 29
