AV-unprocessed.smi:813|AV-procd|sdf|3818|dock9
  -GOLD-   22720 1253D 1   1.00000     0.00000
 Structure written by MMmdl.
 36 37  0  0  0  0  0  0  0  0  1 V2000
  149.6173  132.3686  153.8884 C   0  0  0  0  0  0  0  0  0  0  0  0
  148.7608  133.3975  154.6454 C   0  0  1  0  0  0  0  0  0  0  0  0
  149.1621  134.7334  154.2074 N   0  0  0  0  0  0  0  0  0  0  0  0
  149.8751  135.6034  154.9392 C   0  0  0  0  0  0  0  0  0  0  0  0
  150.2870  135.3571  156.0732 O   0  0  0  0  0  0  0  0  0  0  0  0
  150.0682  136.7559  154.2742 N   0  0  0  0  0  0  0  0  0  0  0  0
  150.7836  137.9071  154.6986 C   0  0  0  0  0  0  0  0  0  0  0  0
  150.4129  139.1639  154.4074 N   0  0  0  0  0  0  0  0  0  0  0  0
  151.2842  140.1012  154.9474 N   0  0  0  0  0  0  0  0  0  0  0  0
  152.2766  139.5155  155.6233 C   0  0  0  0  0  0  0  0  0  0  0  0
  152.2433  137.7611  155.6675 S   0  0  0  0  0  0  0  0  0  0  0  0
  147.2851  133.1439  154.3002 C   0  0  0  0  0  0  0  0  0  0  0  0
  146.4682  132.8927  155.1878 O   0  0  0  0  0  0  0  0  0  0  0  0
  146.9601  133.2196  153.0009 N   0  0  0  0  0  0  0  0  0  0  0  0
  145.6255  132.9954  152.4521 C   0  0  0  0  0  0  0  0  0  0  0  0
  145.6058  131.7855  151.4970 C   0  0  0  0  0  0  0  0  0  0  0  0
  145.5307  132.3698  150.0873 C   0  0  0  0  0  0  0  0  0  0  0  0
  144.7209  133.6504  150.2614 C   0  0  0  0  0  0  0  0  0  0  0  0
  145.1687  134.2070  151.6151 C   0  0  0  0  0  0  0  0  0  0  0  0
  149.3647  131.3495  154.1841 H   0  0  0  0  0  0  0  0  0  0  0  0
  150.6770  132.5133  154.1017 H   0  0  0  0  0  0  0  0  0  0  0  0
  149.4863  132.4442  152.8078 H   0  0  0  0  0  0  0  0  0  0  0  0
  148.9258  133.2907  155.7195 H   0  0  0  0  0  0  0  0  0  0  0  0
  148.8572  135.0193  153.2885 H   0  0  0  0  0  0  0  0  0  0  0  0
  149.6590  136.8160  153.3536 H   0  0  0  0  0  0  0  0  0  0  0  0
  153.0333  140.1206  156.1002 H   0  0  0  0  0  0  0  0  0  0  0  0
  147.6949  133.4297  152.3410 H   0  0  0  0  0  0  0  0  0  0  0  0
  144.9216  132.8285  153.2698 H   0  0  0  0  0  0  0  0  0  0  0  0
  146.4591  131.1166  151.6186 H   0  0  0  0  0  0  0  0  0  0  0  0
  144.7086  131.1952  151.6870 H   0  0  0  0  0  0  0  0  0  0  0  0
  146.5346  132.6129  149.7361 H   0  0  0  0  0  0  0  0  0  0  0  0
  145.0825  131.6813  149.3707 H   0  0  0  0  0  0  0  0  0  0  0  0
  144.8730  134.3581  149.4460 H   0  0  0  0  0  0  0  0  0  0  0  0
  143.6580  133.4078  150.2974 H   0  0  0  0  0  0  0  0  0  0  0  0
  144.3696  134.7646  152.1045 H   0  0  0  0  0  0  0  0  0  0  0  0
  145.9943  134.9030  151.4585 H   0  0  0  0  0  0  0  0  0  0  0  0
  1  2  1  0  0  0  0
  1 20  1  0  0  0  0
  1 21  1  0  0  0  0
  1 22  1  0  0  0  0
  2  3  1  0  0  0  0
  2 12  1  0  0  0  0
  2 23  1  0  0  0  0
  3  4  1  0  0  0  0
  3 24  1  0  0  0  0
  4  5  2  0  0  0  0
  4  6  1  0  0  0  0
  6  7  1  0  0  0  0
  6 25  1  0  0  0  0
  7 11  1  0  0  0  0
  7  8  2  0  0  0  0
  8  9  1  0  0  0  0
  9 10  2  0  0  0  0
 10 11  1  0  0  0  0
 10 26  1  0  0  0  0
 12 13  2  0  0  0  0
 12 14  1  0  0  0  0
 14 15  1  0  0  0  0
 14 27  1  0  0  0  0
 15 19  1  0  0  0  0
 15 16  1  0  0  0  0
 15 28  1  0  0  0  0
 16 17  1  0  0  0  0
 16 29  1  0  0  0  0
 16 30  1  0  0  0  0
 17 18  1  0  0  0  0
 17 31  1  0  0  0  0
 17 32  1  0  0  0  0
 18 19  1  0  0  0  0
 18 33  1  0  0  0  0
 18 34  1  0  0  0  0
 19 35  1  0  0  0  0
 19 36  1  0  0  0  0
M  END
> <s_m_source_file>
AV-unprocessed.smi

> <i_m_source_file_index>
813

> <i_lp_mmshare_version>
43012

> <i_f3d_flags>
0

> <s_epik_input>
W0NIMl0xW0NIMl1bQ0gyXVtDSDJdW0NIXTFbTkhdQyg9TylbQ0BIXShbQ0gzXSlbTkhdQyg9TylbTkhdYzJubltjSF1zMg==

> <s_epik_cmdline>
J2VwaWtfcHl0aG9uJywgJy1waCcsICc3LjAnLCAnLXRuJywgJzgnLCAnLW1hJywgJzIwMCcsICctbWV0YWxfYmluZGluZycsICctaW1hZScsICc8aW5maWxlLm1hZT4nLCAnLW9tYWUnLCAnPG91dGZpbGUubWFlPic=

> <r_lp_tautomer_probability>
1

> <r_epik_Ionization_Penalty>
0.00321247

> <r_epik_Ionization_Penalty_Charging>
0

> <r_epik_Ionization_Penalty_Neutral>
0.00321247

> <r_epik_State_Penalty>
-0

> <r_epik_Charging_Adjusted_Penalty>
0

> <i_epik_Tot_Q>
0

> <i_epik_Tot_abs_Q>
0

> <r_epik_Metal_State_Penalty>
0.363968

> <b_epik_Metal_Only>
0

> <s_lp_Force_Field>
OPLS_2005

> <r_lp_Energy>
15.9742

> <b_lp_Chiralities_Consistent>
1

> <s_lp_Variant>
AV-unprocessed.smi:813-2

> <Gold.Version>
5.8.1

> <Gold.Id.Protein>
6NUR|6NUR_protein|mol2

> <Gold.PLP.Fitness>
37.6419

> <Gold.PLP.PLP>
-29.6378

> <Gold.PLP.part.hbond>
-4.1695

> <Gold.PLP.part.metal>
0.0000

> <Gold.PLP.part.buried>
-4.6027

> <Gold.PLP.part.nonpolar>
-21.6349

> <Gold.PLP.part.repulsive>
0.4109

> <Gold.PLP.ligand.clash>
0.0000

> <Gold.PLP.ligand.torsion>
0.4424

> <Gold.PLP.Chemscore.Hbond>
2.9600

> <Gold.PLP.Chemscore.CHOScore>
0.0000

> <Gold.PLP.Chemscore.Metal>
0.0000

> <Gold.Chemscore.Hbonds>
donor molecule, donor type, donor heavy atom, donor atom, acceptor molecule, acceptor atom, score
      L1  H     3    24       P1  7948  0.99
      L1  H     6    25       P1  7948  1.00
      P1  H  7989  7998       L1     9  0.80

> <Gold.PLP.Chemscore.Internal.Correction>
0.0090

> <Gold.Rescore>
     Score         DG    S(hbond)    S(metal)    S(lipo)     H(rot)  DE(clash)    DE(int)     intcor
     13.45     -14.02       1.71        0.00      62.27       1.74       0.07       0.50       ----

> <Gold.Chemscore.Fitness>
13.4484

> <Gold.Chemscore.DG>
-14.0189

> <Gold.Chemscore.ZeroCoef>
-5.4800

> <Gold.Chemscore.Hbond>
1.7114

> <Gold.Chemscore.Metal>
0.0000

> <Gold.Chemscore.Lipo>
62.2685

> <Gold.Chemscore.Internal_Hbond>
0.0000

> <Gold.Chemscore.DEClash>
0.0670

> <Gold.Chemscore.DEInternal>
0.5035

> <Gold.Chemscore.Rot>
1.7433

> <Gold.Chemscore.Internal.Correction>
   9.000000E+99

> <Gold.Chemscore.Hbonds>
donor molecule, donor type, donor heavy atom, donor atom, acceptor molecule, acceptor atom, score
      L1  H     3    24       P1  7948  0.37
      L1  H     6    25       P1  7948  0.55
      P1  H  7989  7998       L1     9  0.11

> <Gold.Chemscore.Hbond.Weighted>
-5.7162

> <Gold.Chemscore.Metal.Weighted>
-0.0000

> <Gold.Chemscore.Lipo.Weighted>
-7.2854

> <Gold.Chemscore.Internal_Hbond.Weighted>
0.0000

> <Gold.Chemscore.DEClash.Weighted>
0.0670

> <Gold.Chemscore.DEInternal.Weighted>
0.5035

> <Gold.Chemscore.Rot.Weighted>
4.4628

> <Gold.Chemscore.Internal.Correction.Weighted>
   9.000000E+99

> <Gold.Protein.RotatedTorsions>
[ 6907 6896 6895 6894 ] final  -32.63 input  -60.11 | X-H torsion
[ 7974 7965 7964 7962 ] final -145.50 input  175.53 | X-H torsion
[ 8008 7997 7996 7995 ] final  112.32 input   59.86 | X-H torsion
[ 10167 10162 10161 10158 ] final  -88.17 input  -65.29 | X-H torsion
[ 10718 10713 10712 10709 ] final   -9.50 input   66.30 | X-H torsion
[ 10763 10752 10751 10750 ] final   65.73 input  -60.55 | X-H torsion
[ 11005 11000 10999 10996 ] final  167.63 input  -57.11 | X-H torsion

> <Gold.Protein.ActiveResidues>
 VAL166  LYS551  ARG553  GLY616  TRP617  ASP618  TYR619  PRO620  LYS621  CYS622 
 ASP623  PHE694  ASN695  SER759  ASP760  ASP761  ALA762  ILE779  LEU786  VAL792 
 PHE793  MET794  SER795  GLU796  ALA797  LYS798  CYS799  TRP800  GLU811  SER814 

> <Gold.Protein.RotatedAtoms>
  151.0763  134.9830  159.8333 H   0  0  0  0  0  0  0  0  0  0  0  0  # atno 6907 bound_to 6896
  152.5414  134.2237  159.8808 H   0  0  0  0  0  0  0  0  0  0  0  0  # atno 6908 bound_to 6896
  151.2265  133.4430  159.2636 H   0  0  0  0  0  0  0  0  0  0  0  0  # atno 6909 bound_to 6896
  144.8223  140.5576  143.5570 H   0  0  0  0  0  0  0  0  0  0  0  0  # atno 7974 bound_to 7965
  156.2184  140.3002  155.9894 H   0  0  0  0  0  0  0  0  0  0  0  0  # atno 8008 bound_to 7997
  155.2545  140.0427  157.3007 H   0  0  0  0  0  0  0  0  0  0  0  0  # atno 8009 bound_to 7997
  154.5803  140.2373  155.8072 H   0  0  0  0  0  0  0  0  0  0  0  0  # atno 8010 bound_to 7997
  140.3772  143.2765  151.9428 H   0  0  0  0  0  0  0  0  0  0  0  0  # atno 10167 bound_to 10162
  156.6871  130.5054  149.5954 H   0  0  0  0  0  0  0  0  0  0  0  0  # atno 10718 bound_to 10713
  153.0109  135.5346  154.6713 H   0  0  0  0  0  0  0  0  0  0  0  0  # atno 10763 bound_to 10752
  154.5897  135.2857  155.0650 H   0  0  0  0  0  0  0  0  0  0  0  0  # atno 10764 bound_to 10752
  154.1748  135.6526  153.5071 H   0  0  0  0  0  0  0  0  0  0  0  0  # atno 10765 bound_to 10752
  140.2788  134.7767  157.3740 H   0  0  0  0  0  0  0  0  0  0  0  0  # atno 11005 bound_to 11000
  145.5077  139.1480  143.3622 LP  0  0  0  0  0  0  0  0  0  0  0  0  # atno 17320 bound_to 7965
  146.2529  140.5217  142.8886 LP  0  0  0  0  0  0  0  0  0  0  0  0  # atno 17321 bound_to 7965
  139.4798  144.5852  151.7866 LP  0  0  0  0  0  0  0  0  0  0  0  0  # atno 17342 bound_to 10162
  140.4974  144.1221  150.5963 LP  0  0  0  0  0  0  0  0  0  0  0  0  # atno 17343 bound_to 10162
  156.1824  130.6508  151.0967 LP  0  0  0  0  0  0  0  0  0  0  0  0  # atno 17370 bound_to 10713
  157.7022  131.0771  150.6783 LP  0  0  0  0  0  0  0  0  0  0  0  0  # atno 17371 bound_to 10713
  140.1303  134.5104  155.8111 LP  0  0  0  0  0  0  0  0  0  0  0  0  # atno 17394 bound_to 11000
  141.2166  133.6787  156.7027 LP  0  0  0  0  0  0  0  0  0  0  0  0  # atno 17395 bound_to 11000

$$$$
