AV-unprocessed.smi:907|AV-procd|sdf|4113|dock6
  -GOLD-   22720 2 13D 1   1.00000     0.00000
 Structure written by MMmdl.
 54 57  0  0  0  0  0  0  0  0  3 V2000
  153.1072  139.2587  155.5042 O   0  0  0  0  0  0  0  0  0  0  0  0
  151.8842  139.2390  155.3607 C   0  0  0  0  0  0  0  0  0  0  0  0
  151.0634  139.9792  156.1261 N   0  0  0  0  0  0  0  0  0  0  0  0
  151.4994  140.9110  157.1610 C   0  0  0  0  0  0  0  0  0  0  0  0
  150.9144  142.3173  156.9457 C   0  0  0  0  0  0  0  0  0  0  0  0
  151.2955  143.2737  158.0590 C   0  0  0  0  0  0  0  0  0  0  0  0
  152.1186  142.8782  159.1358 C   0  0  0  0  0  0  0  0  0  0  0  0
  152.4428  143.8172  160.1371 C   0  0  0  0  0  0  0  0  0  0  0  0
  151.9393  145.1311  160.0400 C   0  0  0  0  0  0  0  0  0  0  0  0
  151.1233  145.4728  158.9421 C   0  0  0  0  0  0  0  0  0  0  0  0
  150.8350  144.5446  158.0032 N   0  3  0  0  0  0  0  0  0  0  0  0
  151.2553  138.4248  154.4770 N   0  0  0  0  0  0  0  0  0  0  0  0
  151.7081  137.0917  154.0580 C   0  0  0  0  0  0  0  0  0  0  0  0
  150.8392  136.0220  154.7478 C   0  0  0  0  0  0  0  0  0  0  0  0
  149.3852  136.2316  154.4880 N   0  3  0  0  0  0  0  0  0  0  0  0
  148.5161  135.2200  155.1562 C   0  0  1  0  0  0  0  0  0  0  0  0
  147.0829  135.1242  154.5766 C   0  0  0  0  0  0  0  0  0  0  0  0
  146.8993  133.6128  154.3434 C   0  0  1  0  0  0  0  0  0  0  0  0
  147.6946  133.2058  153.0914 C   0  0  0  0  0  0  0  0  0  0  0  0
  149.1522  133.3142  153.5727 C   0  0  0  0  0  0  0  0  0  0  0  0
  149.0004  133.7521  155.0462 C   0  0  2  0  0  0  0  0  0  0  0  0
  147.7389  133.0001  155.4578 C   0  0  0  0  0  0  0  0  0  0  0  0
  148.9608  137.6318  154.7759 C   0  0  0  0  0  0  0  0  0  0  0  0
  149.8680  138.6525  154.0673 C   0  0  0  0  0  0  0  0  0  0  0  0
  150.0684  139.8925  155.9778 H   0  0  0  0  0  0  0  0  0  0  0  0
  151.2193  140.5283  158.1440 H   0  0  0  0  0  0  0  0  0  0  0  0
  152.5888  140.9524  157.1440 H   0  0  0  0  0  0  0  0  0  0  0  0
  151.2571  142.7248  155.9937 H   0  0  0  0  0  0  0  0  0  0  0  0
  149.8262  142.2701  156.8843 H   0  0  0  0  0  0  0  0  0  0  0  0
  152.4993  141.8687  159.1947 H   0  0  0  0  0  0  0  0  0  0  0  0
  153.0714  143.5331  160.9686 H   0  0  0  0  0  0  0  0  0  0  0  0
  152.1767  145.8655  160.7960 H   0  0  0  0  0  0  0  0  0  0  0  0
  150.6963  146.4530  158.7874 H   0  0  0  0  0  0  0  0  0  0  0  0
  151.6095  137.0077  152.9746 H   0  0  0  0  0  0  0  0  0  0  0  0
  152.7593  136.8973  154.2701 H   0  0  0  0  0  0  0  0  0  0  0  0
  151.1512  135.0413  154.3901 H   0  0  0  0  0  0  0  0  0  0  0  0
  151.0181  136.0393  155.8241 H   0  0  0  0  0  0  0  0  0  0  0  0
  148.4527  135.4803  156.2148 H   0  0  0  0  0  0  0  0  0  0  0  0
  146.3551  135.5026  155.2954 H   0  0  0  0  0  0  0  0  0  0  0  0
  146.9489  135.6772  153.6464 H   0  0  0  0  0  0  0  0  0  0  0  0
  145.8566  133.2950  154.3203 H   0  0  0  0  0  0  0  0  0  0  0  0
  147.4621  132.1806  152.7995 H   0  0  0  0  0  0  0  0  0  0  0  0
  147.4873  133.8509  152.2366 H   0  0  0  0  0  0  0  0  0  0  0  0
  149.6452  132.3434  153.5090 H   0  0  0  0  0  0  0  0  0  0  0  0
  149.7346  134.0171  152.9768 H   0  0  0  0  0  0  0  0  0  0  0  0
  149.8699  133.5252  155.6637 H   0  0  0  0  0  0  0  0  0  0  0  0
  147.3845  133.2565  156.4579 H   0  0  0  0  0  0  0  0  0  0  0  0
  147.8355  131.9155  155.3807 H   0  0  0  0  0  0  0  0  0  0  0  0
  147.9324  137.7968  154.4575 H   0  0  0  0  0  0  0  0  0  0  0  0
  148.9863  137.8029  155.8535 H   0  0  0  0  0  0  0  0  0  0  0  0
  149.5294  139.6677  154.2800 H   0  0  0  0  0  0  0  0  0  0  0  0
  149.7878  138.5375  152.9851 H   0  0  0  0  0  0  0  0  0  0  0  0
  149.2601  136.0990  153.4946 H   0  0  0  0  0  0  0  0  0  0  0  0
  150.2427  144.8148  157.2176 H   0  0  0  0  0  0  0  0  0  0  0  0
  1  2  2  0  0  0  0
  2  3  1  0  0  0  0
  2 12  1  0  0  0  0
  3  4  1  0  0  0  0
  3 25  1  0  0  0  0
  4  5  1  0  0  0  0
  4 26  1  0  0  0  0
  4 27  1  0  0  0  0
  5  6  1  0  0  0  0
  5 28  1  0  0  0  0
  5 29  1  0  0  0  0
  6 11  1  0  0  0  0
  6  7  2  0  0  0  0
  7  8  1  0  0  0  0
  7 30  1  0  0  0  0
  8  9  2  0  0  0  0
  8 31  1  0  0  0  0
  9 10  1  0  0  0  0
  9 32  1  0  0  0  0
 10 11  2  0  0  0  0
 10 33  1  0  0  0  0
 11 54  1  0  0  0  0
 12 24  1  0  0  0  0
 12 13  1  0  0  0  0
 13 14  1  0  0  0  0
 13 34  1  0  0  0  0
 13 35  1  0  0  0  0
 14 15  1  0  0  0  0
 14 36  1  0  0  0  0
 14 37  1  0  0  0  0
 15 16  1  0  0  0  0
 15 23  1  0  0  0  0
 15 53  1  0  0  0  0
 16 21  1  0  0  0  0
 16 17  1  0  0  0  0
 16 38  1  0  0  0  0
 17 18  1  0  0  0  0
 17 39  1  0  0  0  0
 17 40  1  0  0  0  0
 18 22  1  0  0  0  0
 18 19  1  0  0  0  0
 18 41  1  0  0  0  0
 19 20  1  0  0  0  0
 19 42  1  0  0  0  0
 19 43  1  0  0  0  0
 20 21  1  0  0  0  0
 20 44  1  0  0  0  0
 20 45  1  0  0  0  0
 21 22  1  0  0  0  0
 21 46  1  0  0  0  0
 22 47  1  0  0  0  0
 22 48  1  0  0  0  0
 23 24  1  0  0  0  0
 23 49  1  0  0  0  0
 23 50  1  0  0  0  0
 24 51  1  0  0  0  0
 24 52  1  0  0  0  0
M  CHG  1  11   1
M  CHG  1  15   1
M  END
> <s_m_source_file>
AV-unprocessed.smi

> <i_m_source_file_index>
907

> <i_lp_mmshare_version>
43012

> <i_f3d_flags>
0

> <s_epik_input>
W0NIMl0xW0NIMl1bQ0BASF0oW0NIMl0yKVtDQEBIXShbQ0gyXVtDQEhdMTIpTihbQ0gyXVtDSDJdMylbQ0gyXVtDSDJdTjNDKD1PKVtOSF1bQ0gyXVtDSDJdYzRbY0hdW2NIXVtjSF1bY0hdbjQ=

> <s_epik_cmdline>
J2VwaWtfcHl0aG9uJywgJy1waCcsICc3LjAnLCAnLXRuJywgJzgnLCAnLW1hJywgJzIwMCcsICctbWV0YWxfYmluZGluZycsICctaW1hZScsICc8aW5maWxlLm1hZT4nLCAnLW9tYWUnLCAnPG91dGZpbGUubWFlPic=

> <r_epik_Ionization_Penalty>
1.63018

> <r_epik_Ionization_Penalty_Charging>
1.63015

> <r_epik_Ionization_Penalty_Neutral>
2.64641e-05

> <r_epik_State_Penalty>
1.72761

> <r_epik_Charging_Adjusted_Penalty>
3.35777

> <i_epik_Tot_Q>
2

> <i_epik_Tot_abs_Q>
2

> <r_epik_Metal_State_Penalty>
1.76501

> <b_epik_Metal_Only>
0

> <s_lp_Force_Field>
OPLS_2005

> <r_lp_Energy>
102.542

> <b_lp_Chiralities_Consistent>
1

> <s_lp_Variant>
AV-unprocessed.smi:907-8

> <Gold.Version>
5.8.1

> <Gold.Id.Protein>
6NUR|6NUR_protein|mol2

> <Gold.PLP.Fitness>
56.2211

> <Gold.PLP.PLP>
-42.9884

> <Gold.PLP.part.hbond>
-3.0947

> <Gold.PLP.part.metal>
0.0000

> <Gold.PLP.part.buried>
1.9170

> <Gold.PLP.part.nonpolar>
-42.5835

> <Gold.PLP.part.repulsive>
0.2156

> <Gold.PLP.ligand.clash>
0.8911

> <Gold.PLP.ligand.torsion>
0.4903

> <Gold.PLP.Chemscore.Hbond>
5.0000

> <Gold.PLP.Chemscore.CHOScore>
0.0000

> <Gold.PLP.Chemscore.Metal>
0.0000

> <Gold.Chemscore.Hbonds>
donor molecule, donor type, donor heavy atom, donor atom, acceptor molecule, acceptor atom, score
      L1  H    11    54       P1  8028  2.00
      L1  H    15    53       P1  7948  2.00
      P1  H  7997  8008       L1     1  1.00

> <Gold.PLP.Chemscore.Internal.Correction>
0.1044

> <Gold.Rescore>
     Score         DG    S(hbond)    S(metal)    S(lipo)     H(rot)  DE(clash)    DE(int)     intcor
     21.32     -24.40       2.43        0.00     124.24       1.46       2.64       0.44       ----

> <Gold.Chemscore.Fitness>
21.3166

> <Gold.Chemscore.DG>
-24.4039

> <Gold.Chemscore.ZeroCoef>
-5.4800

> <Gold.Chemscore.Hbond>
2.4306

> <Gold.Chemscore.Metal>
0.0000

> <Gold.Chemscore.Lipo>
124.2407

> <Gold.Chemscore.Internal_Hbond>
0.0000

> <Gold.Chemscore.DEClash>
2.6439

> <Gold.Chemscore.DEInternal>
0.4434

> <Gold.Chemscore.Rot>
1.4572

> <Gold.Chemscore.Internal.Correction>
   9.000000E+99

> <Gold.Chemscore.Hbonds>
donor molecule, donor type, donor heavy atom, donor atom, acceptor molecule, acceptor atom, score
      L1  H    11    54       P1  8028  0.24
      L1  H    15    53       P1  7948  0.82
      P1  H  7997  8008       L1     1  1.00

> <Gold.Chemscore.Hbond.Weighted>
-8.1183

> <Gold.Chemscore.Metal.Weighted>
-0.0000

> <Gold.Chemscore.Lipo.Weighted>
-14.5362

> <Gold.Chemscore.Internal_Hbond.Weighted>
0.0000

> <Gold.Chemscore.DEClash.Weighted>
2.6439

> <Gold.Chemscore.DEInternal.Weighted>
0.4434

> <Gold.Chemscore.Rot.Weighted>
3.7305

> <Gold.Chemscore.Internal.Correction.Weighted>
   9.000000E+99

> <Gold.Protein.RotatedTorsions>
[ 6907 6896 6895 6894 ] final   98.98 input  -60.11 | X-H torsion
[ 7974 7965 7964 7962 ] final  -63.09 input  175.53 | X-H torsion
[ 8008 7997 7996 7995 ] final  -29.73 input   59.86 | X-H torsion
[ 10167 10162 10161 10158 ] final   49.88 input  -65.29 | X-H torsion
[ 10718 10713 10712 10709 ] final   30.74 input   66.30 | X-H torsion
[ 10763 10752 10751 10750 ] final  172.23 input  -60.55 | X-H torsion
[ 11005 11000 10999 10996 ] final   80.11 input  -57.11 | X-H torsion

> <Gold.Protein.ActiveResidues>
 VAL166  LYS551  ARG553  GLY616  TRP617  ASP618  TYR619  PRO620  LYS621  CYS622 
 ASP623  PHE694  ASN695  SER759  ASP760  ASP761  ALA762  ILE779  LEU786  VAL792 
 PHE793  MET794  SER795  GLU796  ALA797  LYS798  CYS799  TRP800  GLU811  SER814 

> <Gold.Protein.RotatedAtoms>
  152.5400  134.0498  159.8104 H   0  0  0  0  0  0  0  0  0  0  0  0  # atno 6907 bound_to 6896
  151.0642  133.5512  159.2639 H   0  0  0  0  0  0  0  0  0  0  0  0  # atno 6908 bound_to 6896
  151.2399  135.0593  159.9075 H   0  0  0  0  0  0  0  0  0  0  0  0  # atno 6909 bound_to 6896
  145.7833  140.8750  143.0319 H   0  0  0  0  0  0  0  0  0  0  0  0  # atno 7974 bound_to 7965
  154.4278  140.1810  156.1294 H   0  0  0  0  0  0  0  0  0  0  0  0  # atno 8008 bound_to 7997
  156.0079  140.3353  155.6886 H   0  0  0  0  0  0  0  0  0  0  0  0  # atno 8009 bound_to 7997
  155.6151  140.0654  157.2685 H   0  0  0  0  0  0  0  0  0  0  0  0  # atno 8010 bound_to 7997
  140.2783  144.3186  150.6271 H   0  0  0  0  0  0  0  0  0  0  0  0  # atno 10167 bound_to 10162
  157.2634  130.7172  149.6466 H   0  0  0  0  0  0  0  0  0  0  0  0  # atno 10718 bound_to 10713
  154.4231  135.2758  155.1962 H   0  0  0  0  0  0  0  0  0  0  0  0  # atno 10763 bound_to 10752
  154.3900  135.6068  153.5841 H   0  0  0  0  0  0  0  0  0  0  0  0  # atno 10764 bound_to 10752
  152.9833  135.5901  154.4530 H   0  0  0  0  0  0  0  0  0  0  0  0  # atno 10765 bound_to 10752
  139.9147  134.7895  156.1867 H   0  0  0  0  0  0  0  0  0  0  0  0  # atno 11005 bound_to 11000
  144.6793  140.0020  143.7484 LP  0  0  0  0  0  0  0  0  0  0  0  0  # atno 17320 bound_to 7965
  146.0052  139.3124  143.0904 LP  0  0  0  0  0  0  0  0  0  0  0  0  # atno 17321 bound_to 7965
  140.5833  143.2171  151.7389 LP  0  0  0  0  0  0  0  0  0  0  0  0  # atno 17342 bound_to 10162
  139.4969  144.4048  152.0143 LP  0  0  0  0  0  0  0  0  0  0  0  0  # atno 17343 bound_to 10162
  155.9664  130.4390  150.5241 LP  0  0  0  0  0  0  0  0  0  0  0  0  # atno 17370 bound_to 10713
  157.3150  131.0671  151.1973 LP  0  0  0  0  0  0  0  0  0  0  0  0  # atno 17371 bound_to 10713
  141.0609  133.6842  156.1950 LP  0  0  0  0  0  0  0  0  0  0  0  0  # atno 17394 bound_to 11000
  140.6662  134.4915  157.5585 LP  0  0  0  0  0  0  0  0  0  0  0  0  # atno 17395 bound_to 11000

$$$$
