AV-unprocessed.smi:2435|AV-procd|sdf|9592|dock5
  -GOLD-   2272013223D 1   1.00000     0.00000
 Structure written by MMmdl.
 44 45  0  0  0  0  0  0  0  0  1 V2000
  148.6723  136.3171  157.1790 C   0  0  0  0  0  0  0  0  0  0  0  0
  148.7884  137.3564  156.2223 O   0  0  0  0  0  0  0  0  0  0  0  0
  150.0323  137.4820  155.7128 C   0  0  0  0  0  0  0  0  0  0  0  0
  150.9175  138.5244  155.7036 C   0  0  0  0  0  0  0  0  0  0  0  0
  150.7947  139.8312  156.2412 N   0  0  0  0  0  0  0  0  0  0  0  0
  151.6594  140.4633  157.0504 C   0  0  0  0  0  0  0  0  0  0  0  0
  152.7188  139.9901  157.4607 O   0  0  0  0  0  0  0  0  0  0  0  0
  151.2330  141.6996  157.3466 N   0  0  0  0  0  0  0  0  0  0  0  0
  151.9340  142.6590  158.1973 C   0  0  0  0  0  0  0  0  0  0  0  0
  152.1546  142.0067  159.5752 C   0  0  0  0  0  0  0  0  0  0  0  0
  152.8634  142.8915  160.6155 C   0  0  0  0  0  0  0  0  0  0  0  0
  151.9503  143.9903  161.1825 C   0  0  0  0  0  0  0  0  0  0  0  0
  151.9029  145.2943  160.3675 C   0  0  0  0  0  0  0  0  0  0  0  0
  151.9600  145.1518  158.8363 C   0  0  0  0  0  0  0  0  0  0  0  0
  151.1469  143.9882  158.2453 C   0  0  0  0  0  0  0  0  0  0  0  0
  152.0326  138.0535  154.9569 C   0  0  0  0  0  0  0  0  0  0  0  0
  153.2976  138.7724  154.5849 C   0  0  0  0  0  0  0  0  0  0  0  0
  151.8591  136.7918  154.5789 N   0  0  0  0  0  0  0  0  0  0  0  0
  150.6384  136.4364  155.0492 N   0  0  0  0  0  0  0  0  0  0  0  0
  150.1298  135.1041  154.7960 C   0  0  0  0  0  0  0  0  0  0  0  0
  147.6521  136.2843  157.5608 H   0  0  0  0  0  0  0  0  0  0  0  0
  149.3430  136.4854  158.0230 H   0  0  0  0  0  0  0  0  0  0  0  0
  148.8987  135.3431  156.7436 H   0  0  0  0  0  0  0  0  0  0  0  0
  150.0118  140.3724  155.9050 H   0  0  0  0  0  0  0  0  0  0  0  0
  150.3531  142.0026  156.9555 H   0  0  0  0  0  0  0  0  0  0  0  0
  152.9164  142.8498  157.7608 H   0  0  0  0  0  0  0  0  0  0  0  0
  151.2024  141.6620  159.9813 H   0  0  0  0  0  0  0  0  0  0  0  0
  152.7544  141.1066  159.4331 H   0  0  0  0  0  0  0  0  0  0  0  0
  153.1649  142.2479  161.4428 H   0  0  0  0  0  0  0  0  0  0  0  0
  153.7865  143.3122  160.2152 H   0  0  0  0  0  0  0  0  0  0  0  0
  150.9401  143.5964  161.2996 H   0  0  0  0  0  0  0  0  0  0  0  0
  152.2783  144.2387  162.1927 H   0  0  0  0  0  0  0  0  0  0  0  0
  150.9963  145.8339  160.6434 H   0  0  0  0  0  0  0  0  0  0  0  0
  152.7288  145.9363  160.6759 H   0  0  0  0  0  0  0  0  0  0  0  0
  151.6026  146.0866  158.4030 H   0  0  0  0  0  0  0  0  0  0  0  0
  152.9986  145.0691  158.5138 H   0  0  0  0  0  0  0  0  0  0  0  0
  150.8816  144.2672  157.2246 H   0  0  0  0  0  0  0  0  0  0  0  0
  150.2003  143.8669  158.7738 H   0  0  0  0  0  0  0  0  0  0  0  0
  153.4546  139.6507  155.2113 H   0  0  0  0  0  0  0  0  0  0  0  0
  153.2652  139.1061  153.5475 H   0  0  0  0  0  0  0  0  0  0  0  0
  154.1684  138.1268  154.7009 H   0  0  0  0  0  0  0  0  0  0  0  0
  149.5300  134.7698  155.6428 H   0  0  0  0  0  0  0  0  0  0  0  0
  150.9537  134.4037  154.6516 H   0  0  0  0  0  0  0  0  0  0  0  0
  149.5077  135.1153  153.9009 H   0  0  0  0  0  0  0  0  0  0  0  0
  1  2  1  0  0  0  0
  1 21  1  0  0  0  0
  1 22  1  0  0  0  0
  1 23  1  0  0  0  0
  2  3  1  0  0  0  0
  3 19  1  0  0  0  0
  3  4  2  0  0  0  0
  4  5  1  0  0  0  0
  4 16  1  0  0  0  0
  5  6  1  0  0  0  0
  5 24  1  0  0  0  0
  6  7  2  0  0  0  0
  6  8  1  0  0  0  0
  8  9  1  0  0  0  0
  8 25  1  0  0  0  0
  9 15  1  0  0  0  0
  9 10  1  0  0  0  0
  9 26  1  0  0  0  0
 10 11  1  0  0  0  0
 10 27  1  0  0  0  0
 10 28  1  0  0  0  0
 11 12  1  0  0  0  0
 11 29  1  0  0  0  0
 11 30  1  0  0  0  0
 12 13  1  0  0  0  0
 12 31  1  0  0  0  0
 12 32  1  0  0  0  0
 13 14  1  0  0  0  0
 13 33  1  0  0  0  0
 13 34  1  0  0  0  0
 14 15  1  0  0  0  0
 14 35  1  0  0  0  0
 14 36  1  0  0  0  0
 15 37  1  0  0  0  0
 15 38  1  0  0  0  0
 16 17  1  0  0  0  0
 16 18  2  0  0  0  0
 17 39  1  0  0  0  0
 17 40  1  0  0  0  0
 17 41  1  0  0  0  0
 18 19  1  0  0  0  0
 19 20  1  0  0  0  0
 20 42  1  0  0  0  0
 20 43  1  0  0  0  0
 20 44  1  0  0  0  0
M  END
> <s_m_source_file>
AV-unprocessed.smi

> <i_m_source_file_index>
2435

> <i_lp_mmshare_version>
43012

> <i_f3d_flags>
0

> <s_epik_input>
W0NIM11uMW5jKFtDSDNdKWMoYzFPW0NIM10pW05IXUMoPU8pW05IXVtDSF0yW0NIMl1bQ0gyXVtDSDJdW0NIMl1bQ0gyXVtDSDJdMg==

> <s_epik_cmdline>
J2VwaWtfcHl0aG9uJywgJy1waCcsICc3LjAnLCAnLXRuJywgJzgnLCAnLW1hJywgJzIwMCcsICctbWV0YWxfYmluZGluZycsICctaW1hZScsICc8aW5maWxlLm1hZT4nLCAnLW9tYWUnLCAnPG91dGZpbGUubWFlPic=

> <r_lp_tautomer_probability>
1

> <r_epik_Ionization_Penalty>
0.000417553

> <r_epik_Ionization_Penalty_Charging>
0

> <r_epik_Ionization_Penalty_Neutral>
0.000417553

> <r_epik_State_Penalty>
-0

> <r_epik_Charging_Adjusted_Penalty>
0

> <i_epik_Tot_Q>
0

> <i_epik_Tot_abs_Q>
0

> <r_epik_Metal_State_Penalty>
-0

> <b_epik_Metal_Only>
0

> <s_lp_Force_Field>
OPLS_2005

> <r_lp_Energy>
21.6667

> <b_lp_Chiralities_Consistent>
1

> <s_lp_Variant>
AV-unprocessed.smi:2435-1

> <Gold.Version>
5.8.1

> <Gold.Id.Protein>
6NUR|6NUR_protein|mol2

> <Gold.PLP.Fitness>
45.0653

> <Gold.PLP.PLP>
-40.0125

> <Gold.PLP.part.hbond>
-2.0000

> <Gold.PLP.part.metal>
0.0000

> <Gold.PLP.part.buried>
-5.0641

> <Gold.PLP.part.nonpolar>
-33.2571

> <Gold.PLP.part.repulsive>
0.3133

> <Gold.PLP.ligand.clash>
0.0000

> <Gold.PLP.ligand.torsion>
0.4827

> <Gold.PLP.Chemscore.Hbond>
2.0000

> <Gold.PLP.Chemscore.CHOScore>
0.0000

> <Gold.PLP.Chemscore.Metal>
0.0000

> <Gold.Chemscore.Hbonds>
donor molecule, donor type, donor heavy atom, donor atom, acceptor molecule, acceptor atom, score
      P1  H  7997  8008       L1     7  1.00
      P1  H 10752 10763       L1    18  1.00

> <Gold.PLP.Chemscore.Internal.Correction>
0.0181

> <Gold.Rescore>
     Score         DG    S(hbond)    S(metal)    S(lipo)     H(rot)  DE(clash)    DE(int)     intcor
     20.41     -22.06       1.97        0.00     112.06       1.21       0.13       1.52       ----

> <Gold.Chemscore.Fitness>
20.4134

> <Gold.Chemscore.DG>
-22.0601

> <Gold.Chemscore.ZeroCoef>
-5.4800

> <Gold.Chemscore.Hbond>
1.9673

> <Gold.Chemscore.Metal>
0.0000

> <Gold.Chemscore.Lipo>
112.0649

> <Gold.Chemscore.Internal_Hbond>
0.0000

> <Gold.Chemscore.DEClash>
0.1259

> <Gold.Chemscore.DEInternal>
1.5208

> <Gold.Chemscore.Rot>
1.2119

> <Gold.Chemscore.Internal.Correction>
   9.000000E+99

> <Gold.Chemscore.Hbonds>
donor molecule, donor type, donor heavy atom, donor atom, acceptor molecule, acceptor atom, score
      P1  H  7997  8008       L1     7  0.97
      P1  H 10752 10763       L1    18  0.94

> <Gold.Chemscore.Hbond.Weighted>
-6.5709

> <Gold.Chemscore.Metal.Weighted>
-0.0000

> <Gold.Chemscore.Lipo.Weighted>
-13.1116

> <Gold.Chemscore.Internal_Hbond.Weighted>
0.0000

> <Gold.Chemscore.DEClash.Weighted>
0.1259

> <Gold.Chemscore.DEInternal.Weighted>
1.5208

> <Gold.Chemscore.Rot.Weighted>
3.1024

> <Gold.Chemscore.Internal.Correction.Weighted>
   9.000000E+99

> <Gold.Protein.RotatedTorsions>
[ 6907 6896 6895 6894 ] final  147.67 input  -60.11 | X-H torsion
[ 7974 7965 7964 7962 ] final -176.41 input  175.53 | X-H torsion
[ 8008 7997 7996 7995 ] final  -58.36 input   59.86 | X-H torsion
[ 10167 10162 10161 10158 ] final   11.83 input  -65.29 | X-H torsion
[ 10718 10713 10712 10709 ] final   19.86 input   66.30 | X-H torsion
[ 10763 10752 10751 10750 ] final   34.48 input  -60.55 | X-H torsion
[ 11005 11000 10999 10996 ] final  -52.87 input  -57.11 | X-H torsion

> <Gold.Protein.ActiveResidues>
 VAL166  LYS551  ARG553  GLY616  TRP617  ASP618  TYR619  PRO620  LYS621  CYS622 
 ASP623  PHE694  ASN695  SER759  ASP760  ASP761  ALA762  ILE779  LEU786  VAL792 
 PHE793  MET794  SER795  GLU796  ALA797  LYS798  CYS799  TRP800  GLU811  SER814 

> <Gold.Protein.RotatedAtoms>
  152.1517  133.4526  159.4816 H   0  0  0  0  0  0  0  0  0  0  0  0  # atno 6907 bound_to 6896
  150.6896  134.2180  159.4394 H   0  0  0  0  0  0  0  0  0  0  0  0  # atno 6908 bound_to 6896
  152.0077  134.9893  160.0618 H   0  0  0  0  0  0  0  0  0  0  0  0  # atno 6909 bound_to 6896
  144.7127  140.1175  143.6407 H   0  0  0  0  0  0  0  0  0  0  0  0  # atno 7974 bound_to 7965
  154.4305  140.1086  156.5944 H   0  0  0  0  0  0  0  0  0  0  0  0  # atno 8008 bound_to 7997
  155.5978  140.3493  155.4566 H   0  0  0  0  0  0  0  0  0  0  0  0  # atno 8009 bound_to 7997
  156.0197  140.1237  157.0360 H   0  0  0  0  0  0  0  0  0  0  0  0  # atno 8010 bound_to 7997
  140.6107  143.8414  150.7062 H   0  0  0  0  0  0  0  0  0  0  0  0  # atno 10167 bound_to 10162
  157.1164  130.6530  149.5911 H   0  0  0  0  0  0  0  0  0  0  0  0  # atno 10718 bound_to 10713
  153.0162  135.6359  154.1676 H   0  0  0  0  0  0  0  0  0  0  0  0  # atno 10763 bound_to 10752
  154.1415  135.2834  155.3161 H   0  0  0  0  0  0  0  0  0  0  0  0  # atno 10764 bound_to 10752
  154.6121  135.5553  153.7546 H   0  0  0  0  0  0  0  0  0  0  0  0  # atno 10765 bound_to 10752
  141.0947  133.6626  156.4088 H   0  0  0  0  0  0  0  0  0  0  0  0  # atno 11005 bound_to 11000
  145.9401  139.2663  143.1274 LP  0  0  0  0  0  0  0  0  0  0  0  0  # atno 17320 bound_to 7965
  145.9433  140.8963  143.0296 LP  0  0  0  0  0  0  0  0  0  0  0  0  # atno 17321 bound_to 7965
  140.1981  143.3981  152.1812 LP  0  0  0  0  0  0  0  0  0  0  0  0  # atno 17342 bound_to 10162
  139.5359  144.7209  151.4896 LP  0  0  0  0  0  0  0  0  0  0  0  0  # atno 17343 bound_to 10162
  155.9838  130.4860  150.6953 LP  0  0  0  0  0  0  0  0  0  0  0  0  # atno 17370 bound_to 10713
  157.4515  131.0873  151.0841 LP  0  0  0  0  0  0  0  0  0  0  0  0  # atno 17371 bound_to 10713
  140.5169  134.6341  157.5304 LP  0  0  0  0  0  0  0  0  0  0  0  0  # atno 17394 bound_to 11000
  139.9780  134.7183  155.9912 LP  0  0  0  0  0  0  0  0  0  0  0  0  # atno 17395 bound_to 11000

$$$$
