AV-unprocessed.smi:705|AV-procd|sdf|3451|dock7
  -GOLD-   22720 0433D 1   1.00000     0.00000
 Structure written by MMmdl.
 28 29  0  0  0  0  0  0  0  0  3 V2000
  152.8368  138.4005  154.8147 N   0  0  0  0  0  0  0  0  0  0  0  0
  151.8943  139.2978  155.1139 C   0  0  0  0  0  0  0  0  0  0  0  0
  150.9569  139.5615  154.3626 O   0  0  0  0  0  0  0  0  0  0  0  0
  152.0491  139.9737  156.4433 C   0  0  0  0  0  0  0  0  0  0  0  0
  151.2899  141.1010  156.8481 C   0  0  0  0  0  0  0  0  0  0  0  0
  151.8701  141.2890  158.1562 C   0  0  0  0  0  0  0  0  0  0  0  0
  151.3575  142.4419  158.9975 C   0  0  1  0  0  0  0  0  0  0  0  0
  152.5100  143.3109  159.5336 C   0  0  0  0  0  0  0  0  0  0  0  0
  151.9585  144.4946  160.3430 C   0  0  0  0  0  0  0  0  0  0  0  0
  150.9404  145.2983  159.5167 C   0  0  0  0  0  0  0  0  0  0  0  0
  149.8521  144.4223  159.0307 N   0  3  0  0  0  0  0  0  0  0  0  0
  150.3431  143.2938  158.2106 C   0  0  0  0  0  0  0  0  0  0  0  0
  152.8233  140.3822  158.4418 N   0  0  0  0  0  0  0  0  0  0  0  0
  152.9251  139.5884  157.3901 N   0  5  0  0  0  0  0  0  0  0  0  0
  152.8073  137.9011  153.9390 H   0  0  0  0  0  0  0  0  0  0  0  0
  153.5768  138.2350  155.4825 H   0  0  0  0  0  0  0  0  0  0  0  0
  150.5149  141.6515  156.3293 H   0  0  0  0  0  0  0  0  0  0  0  0
  150.8365  142.0178  159.8577 H   0  0  0  0  0  0  0  0  0  0  0  0
  153.1792  142.7127  160.1531 H   0  0  0  0  0  0  0  0  0  0  0  0
  153.1081  143.6872  158.7022 H   0  0  0  0  0  0  0  0  0  0  0  0
  151.4837  144.1256  161.2532 H   0  0  0  0  0  0  0  0  0  0  0  0
  152.7762  145.1421  160.6610 H   0  0  0  0  0  0  0  0  0  0  0  0
  150.5114  146.0989  160.1195 H   0  0  0  0  0  0  0  0  0  0  0  0
  151.4308  145.7686  158.6631 H   0  0  0  0  0  0  0  0  0  0  0  0
  149.3601  144.0466  159.8286 H   0  0  0  0  0  0  0  0  0  0  0  0
  150.7984  143.6881  157.3008 H   0  0  0  0  0  0  0  0  0  0  0  0
  149.4928  142.6844  157.9026 H   0  0  0  0  0  0  0  0  0  0  0  0
  149.2089  144.9712  158.4783 H   0  0  0  0  0  0  0  0  0  0  0  0
  1  2  1  0  0  0  0
  1 15  1  0  0  0  0
  1 16  1  0  0  0  0
  2  3  2  0  0  0  0
  2  4  1  0  0  0  0
  4 14  1  0  0  0  0
  4  5  2  0  0  0  0
  5  6  1  0  0  0  0
  5 17  1  0  0  0  0
  6  7  1  0  0  0  0
  6 13  2  0  0  0  0
  7 12  1  0  0  0  0
  7  8  1  0  0  0  0
  7 18  1  0  0  0  0
  8  9  1  0  0  0  0
  8 19  1  0  0  0  0
  8 20  1  0  0  0  0
  9 10  1  0  0  0  0
  9 21  1  0  0  0  0
  9 22  1  0  0  0  0
 10 11  1  0  0  0  0
 10 23  1  0  0  0  0
 10 24  1  0  0  0  0
 11 12  1  0  0  0  0
 11 25  1  0  0  0  0
 11 28  1  0  0  0  0
 12 26  1  0  0  0  0
 12 27  1  0  0  0  0
 13 14  1  0  0  0  0
M  CHG  1  11   1
M  CHG  1  14  -1
M  END
> <s_m_source_file>
AV-unprocessed.smi

> <i_m_source_file_index>
705

> <i_lp_mmshare_version>
43012

> <i_f3d_flags>
0

> <s_epik_input>
W05IMl1DKD1PKWMxW2NIXWMoW25IXW4xKVtDQEBIXTJbQ0gyXVtDSDJdW0NIMl1bTkhdW0NIMl0y

> <s_epik_cmdline>
J2VwaWtfcHl0aG9uJywgJy1waCcsICc3LjAnLCAnLXRuJywgJzgnLCAnLW1hJywgJzIwMCcsICctbWV0YWxfYmluZGluZycsICctaW1hZScsICc8aW5maWxlLm1hZT4nLCAnLW9tYWUnLCAnPG91dGZpbGUubWFlPic=

> <r_lp_tautomer_probability>
0.5

> <r_epik_Ionization_Penalty>
8.1602

> <r_epik_Ionization_Penalty_Charging>
5.25561

> <r_epik_Ionization_Penalty_Neutral>
2.90459

> <r_epik_State_Penalty>
5.66605

> <r_epik_Charging_Adjusted_Penalty>
10.9217

> <i_epik_Tot_Q>
0

> <i_epik_Tot_abs_Q>
2

> <r_epik_Metal_State_Penalty>
1.68656

> <b_epik_Metal_Only>
1

> <s_lp_Force_Field>
OPLS_2005

> <r_lp_Energy>
5.1844

> <b_lp_Chiralities_Consistent>
1

> <s_lp_Variant>
AV-unprocessed.smi:705-6

> <Gold.Version>
5.8.1

> <Gold.Id.Protein>
6NUR|6NUR_protein|mol2

> <Gold.PLP.Fitness>
43.4613

> <Gold.PLP.PLP>
-28.7555

> <Gold.PLP.part.hbond>
-3.5071

> <Gold.PLP.part.metal>
0.0000

> <Gold.PLP.part.buried>
-3.5206

> <Gold.PLP.part.nonpolar>
-22.1431

> <Gold.PLP.part.repulsive>
0.5096

> <Gold.PLP.ligand.clash>
0.0062

> <Gold.PLP.ligand.torsion>
0.1546

> <Gold.PLP.Chemscore.Hbond>
5.0000

> <Gold.PLP.Chemscore.CHOScore>
0.0000

> <Gold.PLP.Chemscore.Metal>
0.0000

> <Gold.Chemscore.Hbonds>
donor molecule, donor type, donor heavy atom, donor atom, acceptor molecule, acceptor atom, score
      L1  H    11    28       P1  8029  2.00
      P1  H  7989  7998       L1     3  1.00
      P1  H  7997  8008       L1    14  1.90

> <Gold.PLP.Chemscore.Internal.Correction>
0.0211

> <Gold.Rescore>
     Score         DG    S(hbond)    S(metal)    S(lipo)     H(rot)  DE(clash)    DE(int)     intcor
     18.26     -18.64       2.15        0.00      72.97       1.00       0.24       0.14       ----

> <Gold.Chemscore.Fitness>
18.2641

> <Gold.Chemscore.DG>
-18.6424

> <Gold.Chemscore.ZeroCoef>
-5.4800

> <Gold.Chemscore.Hbond>
2.1510

> <Gold.Chemscore.Metal>
0.0000

> <Gold.Chemscore.Lipo>
72.9736

> <Gold.Chemscore.Internal_Hbond>
0.0000

> <Gold.Chemscore.DEClash>
0.2410

> <Gold.Chemscore.DEInternal>
0.1373

> <Gold.Chemscore.Rot>
1.0000

> <Gold.Chemscore.Internal.Correction>
   9.000000E+99

> <Gold.Chemscore.Hbonds>
donor molecule, donor type, donor heavy atom, donor atom, acceptor molecule, acceptor atom, score
      L1  H    11    28       P1  8029  0.73
      P1  H  7989  7998       L1     3  0.26
      P1  H  7997  8008       L1    14  0.12

> <Gold.Chemscore.Hbond.Weighted>
-7.1845

> <Gold.Chemscore.Metal.Weighted>
-0.0000

> <Gold.Chemscore.Lipo.Weighted>
-8.5379

> <Gold.Chemscore.Internal_Hbond.Weighted>
0.0000

> <Gold.Chemscore.DEClash.Weighted>
0.2410

> <Gold.Chemscore.DEInternal.Weighted>
0.1373

> <Gold.Chemscore.Rot.Weighted>
2.5600

> <Gold.Chemscore.Internal.Correction.Weighted>
   9.000000E+99

> <Gold.Protein.RotatedTorsions>
[ 6907 6896 6895 6894 ] final   18.60 input  -60.11 | X-H torsion
[ 7974 7965 7964 7962 ] final  -48.37 input  175.53 | X-H torsion
[ 8008 7997 7996 7995 ] final  -73.17 input   59.86 | X-H torsion
[ 10167 10162 10161 10158 ] final    9.94 input  -65.29 | X-H torsion
[ 10718 10713 10712 10709 ] final -109.91 input   66.30 | X-H torsion
[ 10763 10752 10751 10750 ] final -161.30 input  -60.55 | X-H torsion
[ 11005 11000 10999 10996 ] final  166.95 input  -57.11 | X-H torsion

> <Gold.Protein.ActiveResidues>
 VAL166  LYS551  ARG553  GLY616  TRP617  ASP618  TYR619  PRO620  LYS621  CYS622 
 ASP623  PHE694  ASN695  SER759  ASP760  ASP761  ALA762  ILE779  LEU786  VAL792 
 PHE793  MET794  SER795  GLU796  ALA797  LYS798  CYS799  TRP800  GLU811  SER814 

> <Gold.Protein.RotatedAtoms>
  151.8678  135.0500  160.0475 H   0  0  0  0  0  0  0  0  0  0  0  0  # atno 6907 bound_to 6896
  152.2612  133.5294  159.5391 H   0  0  0  0  0  0  0  0  0  0  0  0  # atno 6908 bound_to 6896
  150.7117  134.0743  159.3918 H   0  0  0  0  0  0  0  0  0  0  0  0  # atno 6909 bound_to 6896
  145.9519  140.7564  142.9500 H   0  0  0  0  0  0  0  0  0  0  0  0  # atno 7974 bound_to 7965
  154.5226  140.0784  156.8199 H   0  0  0  0  0  0  0  0  0  0  0  0  # atno 8008 bound_to 7997
  155.3544  140.3414  155.4221 H   0  0  0  0  0  0  0  0  0  0  0  0  # atno 8009 bound_to 7997
  156.1697  140.1615  156.8456 H   0  0  0  0  0  0  0  0  0  0  0  0  # atno 8010 bound_to 7997
  140.6224  143.8175  150.7191 H   0  0  0  0  0  0  0  0  0  0  0  0  # atno 10167 bound_to 10162
  156.0562  130.5788  150.8165 H   0  0  0  0  0  0  0  0  0  0  0  0  # atno 10718 bound_to 10713
  154.7316  135.3048  154.8882 H   0  0  0  0  0  0  0  0  0  0  0  0  # atno 10763 bound_to 10752
  153.9723  135.6740  153.4751 H   0  0  0  0  0  0  0  0  0  0  0  0  # atno 10764 bound_to 10752
  153.0923  135.4953  154.8635 H   0  0  0  0  0  0  0  0  0  0  0  0  # atno 10765 bound_to 10752
  140.2717  134.7821  157.3681 H   0  0  0  0  0  0  0  0  0  0  0  0  # atno 11005 bound_to 11000
  144.6797  140.2449  143.7339 LP  0  0  0  0  0  0  0  0  0  0  0  0  # atno 17320 bound_to 7965
  145.8159  139.2023  143.1966 LP  0  0  0  0  0  0  0  0  0  0  0  0  # atno 17321 bound_to 7965
  140.1768  143.4148  152.1962 LP  0  0  0  0  0  0  0  0  0  0  0  0  # atno 17342 bound_to 10162
  139.5450  144.7291  151.4611 LP  0  0  0  0  0  0  0  0  0  0  0  0  # atno 17343 bound_to 10162
  157.5534  131.0944  150.9663 LP  0  0  0  0  0  0  0  0  0  0  0  0  # atno 17370 bound_to 10713
  156.9917  130.5566  149.5304 LP  0  0  0  0  0  0  0  0  0  0  0  0  # atno 17371 bound_to 10713
  140.1367  134.5025  155.8063 LP  0  0  0  0  0  0  0  0  0  0  0  0  # atno 17394 bound_to 11000
  141.2176  133.6810  156.7136 LP  0  0  0  0  0  0  0  0  0  0  0  0  # atno 17395 bound_to 11000

$$$$
