#       Name:                AV-unprocessed.smi:2021
#       Creating user name   scv26
#       Creation time:       Fri Mar 27 10:43:15 2020


#       File generated by GOLD software.
#

@<TRIPOS>MOLECULE
AV-unprocessed.smi:2021
    48    49     1
SMALL
NO_CHARGES


@<TRIPOS>ATOM
      1 ****        -4.9996   1.9842  -0.7415 C.3            1 S1                 0.0000
      2 ****        -3.8143   1.4224  -1.5423 C.3            1 S1                 0.0000
      3 ****        -4.2817   1.0116  -2.9492 C.3            1 S1                 0.0000
      4 ****        -3.1451   0.2460  -0.7933 C.3            1 S1                 0.0000
      5 ****        -1.6826   0.2787  -0.7433 N.3            1 S1                 0.0000
      6 ****        -1.0653   0.1223  -2.0577 C.3            1 S1                 0.0000
      7 ****         0.4704   0.1233  -1.9750 C.3            1 S1                 0.0000
      8 ****         0.9011  -0.8944  -1.0781 O.3            1 S1                 0.0000
      9 ****         0.3699  -0.7371   0.2357 C.3            1 S1                 0.0000
     10 ****         0.9112  -1.8723   1.1217 C.3            1 S1                 0.0000
     11 ****         2.3634  -1.8118   1.2478 N.am           1 S1                 0.0000
     12 ****         3.0310  -0.9868   2.0666 C.2            1 S1                 0.0000
     13 ****         2.4776  -0.1994   2.8340 O.2            1 S1                 0.0000
     14 ****         4.3583  -1.1362   1.9300 N.am           1 S1                 0.0000
     15 ****         5.3885  -0.4250   2.5947 C.2            1 S1                 0.0000
     16 ****         6.6567  -0.7296   2.2946 N.2            1 S1                 0.0000
     17 ****         7.5614   0.0434   3.0121 N.2            1 S1                 0.0000
     18 ****         6.9393   0.9012   3.8265 C.2            1 S1                 0.0000
     19 ****         5.1856   0.8509   3.7993 S.3            1 S1                 0.0000
     20 ****        -1.1687  -0.7558   0.1486 C.3            1 S1                 0.0000
     21 ****        -5.7700   1.2279  -0.5880 H              1 S1                 0.0000
     22 ****        -5.4590   2.8281  -1.2571 H              1 S1                 0.0000
     23 ****        -4.6789   2.3373   0.2391 H              1 S1                 0.0000
     24 ****        -3.0919   2.2336  -1.6437 H              1 S1                 0.0000
     25 ****        -5.0407   0.2303  -2.9003 H              1 S1                 0.0000
     26 ****        -3.4597   0.6330  -3.5552 H              1 S1                 0.0000
     27 ****        -4.7140   1.8592  -3.4815 H              1 S1                 0.0000
     28 ****        -3.5107   0.2522   0.2345 H              1 S1                 0.0000
     29 ****        -3.4843  -0.7047  -1.2078 H              1 S1                 0.0000
     30 ****        -1.4028  -0.8077  -2.5176 H              1 S1                 0.0000
     31 ****        -1.3750   0.9320  -2.7174 H              1 S1                 0.0000
     32 ****         0.9036  -0.0608  -2.9581 H              1 S1                 0.0000
     33 ****         0.8387   1.0938  -1.6389 H              1 S1                 0.0000
     34 ****         0.6927   0.2243   0.6397 H              1 S1                 0.0000
     35 ****         0.4536  -1.8331   2.1118 H              1 S1                 0.0000
     36 ****         0.6432  -2.8395   0.6959 H              1 S1                 0.0000
     37 ****         2.8965  -2.4246   0.6485 H              1 S1                 0.0000
     38 ****         4.6690  -1.8278   1.2639 H              1 S1                 0.0000
     39 ****         7.5178   1.5693   4.4473 H              1 S1                 0.0000
     40 ****        -1.5851  -0.6194   1.1474 H              1 S1                 0.0000
     41 ****        -1.5007  -1.7370  -0.1953 H              1 S1                 0.0000
     42 ****        -1.4403   1.1840  -0.3945 LP             1 S1                 0.0000
     43 ****         1.8993  -0.8703  -1.0237 LP             1 S1                 0.0000
     44 ****         0.6082  -1.7808  -1.4367 LP             1 S1                 0.0000
     45 ****         1.4793  -0.1527   2.8682 LP             1 S1                 0.0000
     46 ****         3.0264   0.3935   3.4234 LP             1 S1                 0.0000
     47 ****         6.9218  -1.4305   1.6325 LP             1 S1                 0.0000
     48 ****         8.5551  -0.0328   2.9294 LP             1 S1                 0.0000
@<TRIPOS>BOND
    1    1    2 1     
    2    1   21 1     
    3    1   22 1     
    4    1   23 1     
    5    2    3 1     
    6    2    4 1     
    7    2   24 1     
    8    3   25 1     
    9    3   26 1     
   10    3   27 1     
   11    4    5 1     
   12    4   28 1     
   13    4   29 1     
   14    5   20 1     
   15    5    6 1     
   16    6    7 1     
   17    6   30 1     
   18    6   31 1     
   19    7    8 1     
   20    7   32 1     
   21    7   33 1     
   22    8    9 1     
   23    9   10 1     
   24    9   20 1     
   25    9   34 1     
   26   10   11 1     
   27   10   35 1     
   28   10   36 1     
   29   11   12 am    
   30   11   37 1     
   31   12   13 2     
   32   12   14 am    
   33   14   15 1     
   34   14   38 1     
   35   15   19 1     
   36   15   16 2     
   37   16   17 1     
   38   17   18 2     
   39   18   19 1     
   40   18   39 1     
   41   20   40 1     
   42   20   41 1     
   43    5   42 1     
   44    8   43 1     
   45    8   44 1     
   46   13   45 1     
   47   13   46 1     
   48   16   47 1     
   49   17   48 1     
@<TRIPOS>SUBSTRUCTURE
      1 S1             1
@<TRIPOS>SET
LONE_PAIRS      STATIC     ATOMS    <user>   **** ""
7 42 43 44 45 46 47 48
DONOR_HYDROGENS      STATIC     ATOMS    <user>   **** ""
2 37 38
ATOM$BLUE        STATIC     ATOMS    COLORGROUP SYSTEM
7 42 43 44 45 46 47 48
ATOM$RED        STATIC     ATOMS    COLORGROUP SYSTEM
2 37 38
