AV-unprocessed.smi:623|AV-procd|sdf|3093|dock5
  -GOLD-   22720 0 13D 1   1.00000     0.00000
 Structure written by MMmdl.
 45 47  0  0  0  0  0  0  0  0  1 V2000
  146.4427  133.7814  151.6334 C   0  0  0  0  0  0  0  0  0  0  0  0
  145.2182  134.6904  151.9393 C   0  0  0  0  0  0  0  0  0  0  0  0
  144.4295  134.7717  150.6016 C   0  0  0  0  0  0  0  0  0  0  0  0
  144.3748  134.2333  153.1466 C   0  0  2  0  0  0  0  0  0  0  0  0
  143.3145  135.3489  153.2907 C   0  0  0  0  0  0  0  0  0  0  0  0
  144.1055  136.6151  152.9013 C   0  0  0  0  0  0  0  0  0  0  0  0
  145.5241  136.0578  152.6142 C   0  0  2  0  0  0  0  0  0  0  0  0
  146.3874  137.0362  151.7933 C   0  0  0  0  0  0  0  0  0  0  0  0
  146.0961  135.6834  154.0169 C   0  0  2  0  0  0  0  0  0  0  0  0
  147.5449  135.5024  154.0136 N   0  0  0  0  0  0  0  0  0  0  0  0
  148.3280  135.1701  155.0525 C   0  0  0  0  0  0  0  0  0  0  0  0
  147.8899  134.9260  156.1756 O   0  0  0  0  0  0  0  0  0  0  0  0
  149.8466  135.1236  154.8088 C   0  0  0  0  0  0  0  0  0  0  0  0
  150.5985  136.1893  155.4939 N   0  0  0  0  0  0  0  0  0  0  0  0
  150.9225  137.3555  154.8146 C   0  0  0  0  0  0  0  0  0  0  0  0
  151.6517  138.3577  155.3592 C   0  0  0  0  0  0  0  0  0  0  0  0
  152.1451  138.2523  156.7279 C   0  0  0  0  0  0  0  0  0  0  0  0
  152.8150  139.1038  157.3076 O   0  0  0  0  0  0  0  0  0  0  0  0
  151.7980  137.0654  157.3783 N   0  0  0  0  0  0  0  0  0  0  0  0
  151.0476  136.0280  156.8230 C   0  0  0  0  0  0  0  0  0  0  0  0
  150.8115  135.0156  157.4805 O   0  0  0  0  0  0  0  0  0  0  0  0
  145.3390  134.3780  154.3465 C   0  0  0  0  0  0  0  0  0  0  0  0
  152.1193  136.9466  158.3282 H   0  0  0  0  0  0  0  0  0  0  0  0
  146.1171  132.8284  151.2153 H   0  0  0  0  0  0  0  0  0  0  0  0
  147.0630  133.5297  152.4887 H   0  0  0  0  0  0  0  0  0  0  0  0
  147.0976  134.2452  150.8954 H   0  0  0  0  0  0  0  0  0  0  0  0
  143.5290  135.3809  150.6297 H   0  0  0  0  0  0  0  0  0  0  0  0
  144.1159  133.7779  150.2801 H   0  0  0  0  0  0  0  0  0  0  0  0
  145.0556  135.1811  149.8085 H   0  0  0  0  0  0  0  0  0  0  0  0
  143.9439  133.2359  153.0568 H   0  0  0  0  0  0  0  0  0  0  0  0
  142.4684  135.1888  152.6223 H   0  0  0  0  0  0  0  0  0  0  0  0
  142.9142  135.4103  154.3033 H   0  0  0  0  0  0  0  0  0  0  0  0
  143.6705  137.0946  152.0243 H   0  0  0  0  0  0  0  0  0  0  0  0
  144.0980  137.3633  153.6950 H   0  0  0  0  0  0  0  0  0  0  0  0
  146.5709  137.9541  152.3520 H   0  0  0  0  0  0  0  0  0  0  0  0
  145.8954  137.3116  150.8604 H   0  0  0  0  0  0  0  0  0  0  0  0
  147.3557  136.6067  151.5360 H   0  0  0  0  0  0  0  0  0  0  0  0
  145.8362  136.4479  154.7510 H   0  0  0  0  0  0  0  0  0  0  0  0
  148.0074  135.6782  153.1335 H   0  0  0  0  0  0  0  0  0  0  0  0
  150.2129  134.1503  155.1386 H   0  0  0  0  0  0  0  0  0  0  0  0
  150.0293  135.1456  153.7331 H   0  0  0  0  0  0  0  0  0  0  0  0
  150.5849  137.4714  153.7944 H   0  0  0  0  0  0  0  0  0  0  0  0
  151.8743  139.2408  154.7778 H   0  0  0  0  0  0  0  0  0  0  0  0
  144.8074  134.4464  155.2964 H   0  0  0  0  0  0  0  0  0  0  0  0
  146.0070  133.5199  154.4262 H   0  0  0  0  0  0  0  0  0  0  0  0
  1  2  1  0  0  0  0
  1 24  1  0  0  0  0
  1 25  1  0  0  0  0
  1 26  1  0  0  0  0
  2  7  1  0  0  0  0
  2  3  1  0  0  0  0
  2  4  1  0  0  0  0
  3 27  1  0  0  0  0
  3 28  1  0  0  0  0
  3 29  1  0  0  0  0
  4 22  1  0  0  0  0
  4  5  1  0  0  0  0
  4 30  1  0  0  0  0
  5  6  1  0  0  0  0
  5 31  1  0  0  0  0
  5 32  1  0  0  0  0
  6  7  1  0  0  0  0
  6 33  1  0  0  0  0
  6 34  1  0  0  0  0
  7  8  1  0  0  0  0
  7  9  1  0  0  0  0
  8 35  1  0  0  0  0
  8 36  1  0  0  0  0
  8 37  1  0  0  0  0
  9 10  1  0  0  0  0
  9 22  1  0  0  0  0
  9 38  1  0  0  0  0
 10 11  1  0  0  0  0
 10 39  1  0  0  0  0
 11 12  2  0  0  0  0
 11 13  1  0  0  0  0
 13 14  1  0  0  0  0
 13 40  1  0  0  0  0
 13 41  1  0  0  0  0
 14 20  1  0  0  0  0
 14 15  1  0  0  0  0
 15 16  2  0  0  0  0
 15 42  1  0  0  0  0
 16 17  1  0  0  0  0
 16 43  1  0  0  0  0
 17 18  2  0  0  0  0
 17 19  1  0  0  0  0
 19 23  1  0  0  0  0
 19 20  1  0  0  0  0
 20 21  2  0  0  0  0
 22 44  1  0  0  0  0
 22 45  1  0  0  0  0
M  END
> <s_m_source_file>
AV-unprocessed.smi

> <i_m_source_file_index>
623

> <i_lp_mmshare_version>
43012

> <i_f3d_flags>
0

> <s_epik_input>
W0NIM11bQ0BdMTJDKFtDSDNdKShbQ0gzXSlbQ0BIXShbQ0gyXVtDSDJdMSlbQ0gyXVtDQEBIXTJbTkhdQyg9TylbQ0gyXW4zW2NIXVtjSF1jKD1PKVtuSF1jMz1P

> <s_epik_cmdline>
J2VwaWtfcHl0aG9uJywgJy1waCcsICc3LjAnLCAnLXRuJywgJzgnLCAnLW1hJywgJzIwMCcsICctbWV0YWxfYmluZGluZycsICctaW1hZScsICc8aW5maWxlLm1hZT4nLCAnLW9tYWUnLCAnPG91dGZpbGUubWFlPic=

> <r_lp_tautomer_probability>
0.999537

> <r_epik_Ionization_Penalty>
0.00303563

> <r_epik_Ionization_Penalty_Charging>
0.00303561

> <r_epik_Ionization_Penalty_Neutral>
2.03238e-08

> <r_epik_State_Penalty>
0.00213308

> <r_epik_Charging_Adjusted_Penalty>
0.00516869

> <i_epik_Tot_Q>
0

> <i_epik_Tot_abs_Q>
0

> <r_epik_Metal_State_Penalty>
0.361714

> <b_epik_Metal_Only>
0

> <s_lp_Force_Field>
OPLS_2005

> <r_lp_Energy>
55.1954

> <b_lp_Chiralities_Consistent>
1

> <s_lp_Variant>
AV-unprocessed.smi:623-3

> <Gold.Version>
5.8.1

> <Gold.Id.Protein>
6NUR|6NUR_protein|mol2

> <Gold.PLP.Fitness>
36.2244

> <Gold.PLP.PLP>
-27.4968

> <Gold.PLP.part.hbond>
-2.8212

> <Gold.PLP.part.metal>
0.0000

> <Gold.PLP.part.buried>
0.3772

> <Gold.PLP.part.nonpolar>
-25.8833

> <Gold.PLP.part.repulsive>
0.1147

> <Gold.PLP.ligand.clash>
0.0000

> <Gold.PLP.ligand.torsion>
0.4307

> <Gold.PLP.Chemscore.Hbond>
2.0000

> <Gold.PLP.Chemscore.CHOScore>
1.1912

> <Gold.PLP.Chemscore.Metal>
0.0000

> <Gold.Chemscore.Hbonds>
donor molecule, donor type, donor heavy atom, donor atom, acceptor molecule, acceptor atom, score
      L1  H    10    39       P1  7948  1.00
      P1  H  6896  6908       L1    21  0.02
      P1  H  7997  8009       L1    18  1.00
      L1  C    15    42       P1  7948  0.31
      L1  C    15    42       P1  7949  0.22

> <Gold.PLP.Chemscore.Internal.Correction>
0.0155

> <Gold.Rescore>
     Score         DG    S(hbond)    S(metal)    S(lipo)     H(rot)  DE(clash)    DE(int)     intcor
     13.39     -15.16       1.98        0.00      62.58       1.66       1.34       0.42       ----

> <Gold.Chemscore.Fitness>
13.3911

> <Gold.Chemscore.DG>
-15.1578

> <Gold.Chemscore.ZeroCoef>
-5.4800

> <Gold.Chemscore.Hbond>
1.9813

> <Gold.Chemscore.Metal>
0.0000

> <Gold.Chemscore.Lipo>
62.5805

> <Gold.Chemscore.Internal_Hbond>
0.0000

> <Gold.Chemscore.DEClash>
1.3427

> <Gold.Chemscore.DEInternal>
0.4240

> <Gold.Chemscore.Rot>
1.6647

> <Gold.Chemscore.Internal.Correction>
   9.000000E+99

> <Gold.Chemscore.Hbonds>
donor molecule, donor type, donor heavy atom, donor atom, acceptor molecule, acceptor atom, score
      L1  H    10    39       P1  7948  1.00
      P1  H  6896  6908       L1    21  0.04
      P1  H  6896  6909       L1    21  0.01
      P1  H  7997  8009       L1    18  0.98

> <Gold.Chemscore.Hbond.Weighted>
-6.6176

> <Gold.Chemscore.Metal.Weighted>
-0.0000

> <Gold.Chemscore.Lipo.Weighted>
-7.3219

> <Gold.Chemscore.Internal_Hbond.Weighted>
0.0000

> <Gold.Chemscore.DEClash.Weighted>
1.3427

> <Gold.Chemscore.DEInternal.Weighted>
0.4240

> <Gold.Chemscore.Rot.Weighted>
4.2617

> <Gold.Chemscore.Internal.Correction.Weighted>
   9.000000E+99

> <Gold.Protein.RotatedTorsions>
[ 6907 6896 6895 6894 ] final   95.91 input  -60.11 | X-H torsion
[ 7974 7965 7964 7962 ] final  136.74 input  175.53 | X-H torsion
[ 8008 7997 7996 7995 ] final -176.35 input   59.86 | X-H torsion
[ 10167 10162 10161 10158 ] final  -23.33 input  -65.29 | X-H torsion
[ 10718 10713 10712 10709 ] final -145.16 input   66.30 | X-H torsion
[ 10763 10752 10751 10750 ] final -155.76 input  -60.55 | X-H torsion
[ 11005 11000 10999 10996 ] final  -85.83 input  -57.11 | X-H torsion

> <Gold.Protein.ActiveResidues>
 VAL166  LYS551  ARG553  GLY616  TRP617  ASP618  TYR619  PRO620  LYS621  CYS622 
 ASP623  PHE694  ASN695  SER759  ASP760  ASP761  ALA762  ILE779  LEU786  VAL792 
 PHE793  MET794  SER795  GLU796  ALA797  LYS798  CYS799  TRP800  GLU811  SER814 

> <Gold.Protein.RotatedAtoms>
  152.5440  134.0968  159.8300 H   0  0  0  0  0  0  0  0  0  0  0  0  # atno 6907 bound_to 6896
  151.1050  133.5207  159.2615 H   0  0  0  0  0  0  0  0  0  0  0  0  # atno 6908 bound_to 6896
  151.1948  135.0427  159.8902 H   0  0  0  0  0  0  0  0  0  0  0  0  # atno 6909 bound_to 6896
  144.9535  139.4791  143.5514 H   0  0  0  0  0  0  0  0  0  0  0  0  # atno 7974 bound_to 7965
  155.9938  140.1206  157.0613 H   0  0  0  0  0  0  0  0  0  0  0  0  # atno 8008 bound_to 7997
  154.4220  140.1120  156.5670 H   0  0  0  0  0  0  0  0  0  0  0  0  # atno 8009 bound_to 7997
  155.6306  140.3473  155.4684 H   0  0  0  0  0  0  0  0  0  0  0  0  # atno 8010 bound_to 7997
  140.7288  143.4453  151.0596 H   0  0  0  0  0  0  0  0  0  0  0  0  # atno 10167 bound_to 10162
  156.3790  130.7827  151.2017 H   0  0  0  0  0  0  0  0  0  0  0  0  # atno 10718 bound_to 10713
  154.7763  135.3160  154.8084 H   0  0  0  0  0  0  0  0  0  0  0  0  # atno 10763 bound_to 10752
  153.8807  135.6835  153.4771 H   0  0  0  0  0  0  0  0  0  0  0  0  # atno 10764 bound_to 10752
  153.1388  135.4748  154.9400 H   0  0  0  0  0  0  0  0  0  0  0  0  # atno 10765 bound_to 10752
  141.1637  133.7421  156.9072 H   0  0  0  0  0  0  0  0  0  0  0  0  # atno 11005 bound_to 11000
  146.3329  139.8637  142.8852 LP  0  0  0  0  0  0  0  0  0  0  0  0  # atno 17320 bound_to 7965
  145.2807  141.0138  143.3719 LP  0  0  0  0  0  0  0  0  0  0  0  0  # atno 17321 bound_to 7965
  139.8124  143.7933  152.3172 LP  0  0  0  0  0  0  0  0  0  0  0  0  # atno 17342 bound_to 10162
  139.7987  144.7382  150.9855 LP  0  0  0  0  0  0  0  0  0  0  0  0  # atno 17343 bound_to 10162
  157.7491  131.0350  150.4342 LP  0  0  0  0  0  0  0  0  0  0  0  0  # atno 17370 bound_to 10713
  156.4582  130.4026  149.6593 LP  0  0  0  0  0  0  0  0  0  0  0  0  # atno 17371 bound_to 10713
  140.1542  134.9210  157.2631 LP  0  0  0  0  0  0  0  0  0  0  0  0  # atno 17394 bound_to 11000
  140.2687  134.3485  155.7381 LP  0  0  0  0  0  0  0  0  0  0  0  0  # atno 17395 bound_to 11000

$$$$
