AV-unprocessed.smi:3085|AV-procd|sdf|11763|dock3
  -GOLD-   2272017143D 1   1.00000     0.00000
 Structure written by MMmdl.
 26 27  0  0  0  0  0  0  0  0  2 V2000
  152.3059  143.4380  158.9282 C   0  0  0  0  0  0  0  0  0  0  0  0
  152.8352  142.0081  159.0764 C   0  0  0  0  0  0  0  0  0  0  0  0
  152.3345  141.1002  157.9749 C   0  0  0  0  0  0  0  0  0  0  0  0
  151.4736  141.4380  157.0203 N   0  0  0  0  0  0  0  0  0  0  0  0
  151.3548  140.3564  156.2359 C   0  0  0  0  0  0  0  0  0  0  0  0
  150.4456  140.2573  155.0270 C   0  0  1  0  0  0  0  0  0  0  0  0
  150.4609  138.8336  154.4341 C   0  0  0  0  0  0  0  0  0  0  0  0
  149.5756  138.7485  153.2724 N   0  0  0  0  0  0  0  0  0  0  0  0
  148.2225  139.1878  153.6058 C   0  0  0  0  0  0  0  0  0  0  0  0
  148.2560  140.5998  154.2146 C   0  0  0  0  0  0  0  0  0  0  0  0
  149.1020  140.6030  155.3585 O   0  0  0  0  0  0  0  0  0  0  0  0
  152.1169  139.3520  156.6958 N   0  0  0  0  0  0  0  0  0  0  0  0
  152.7243  139.8311  157.7622 N   0  5  0  0  0  0  0  0  0  0  0  0
  152.6779  144.0760  159.7296 H   0  0  0  0  0  0  0  0  0  0  0  0
  151.2163  143.4575  158.9622 H   0  0  0  0  0  0  0  0  0  0  0  0
  152.6195  143.8751  157.9797 H   0  0  0  0  0  0  0  0  0  0  0  0
  153.9253  142.0102  159.0629 H   0  0  0  0  0  0  0  0  0  0  0  0
  152.5326  141.5955  160.0393 H   0  0  0  0  0  0  0  0  0  0  0  0
  150.8175  140.9676  154.2859 H   0  0  0  0  0  0  0  0  0  0  0  0
  151.4762  138.5583  154.1475 H   0  0  0  0  0  0  0  0  0  0  0  0
  150.1459  138.1165  155.1934 H   0  0  0  0  0  0  0  0  0  0  0  0
  149.5495  137.7913  152.9368 H   0  0  0  0  0  0  0  0  0  0  0  0
  147.5948  139.1780  152.7147 H   0  0  0  0  0  0  0  0  0  0  0  0
  147.7718  138.4938  154.3164 H   0  0  0  0  0  0  0  0  0  0  0  0
  148.6022  141.3343  153.4857 H   0  0  0  0  0  0  0  0  0  0  0  0
  147.2532  140.9009  154.5181 H   0  0  0  0  0  0  0  0  0  0  0  0
  1  2  1  0  0  0  0
  1 14  1  0  0  0  0
  1 15  1  0  0  0  0
  1 16  1  0  0  0  0
  2  3  1  0  0  0  0
  2 17  1  0  0  0  0
  2 18  1  0  0  0  0
  3 13  1  0  0  0  0
  3  4  2  0  0  0  0
  4  5  1  0  0  0  0
  5  6  1  0  0  0  0
  5 12  2  0  0  0  0
  6 11  1  0  0  0  0
  6  7  1  0  0  0  0
  6 19  1  0  0  0  0
  7  8  1  0  0  0  0
  7 20  1  0  0  0  0
  7 21  1  0  0  0  0
  8  9  1  0  0  0  0
  8 22  1  0  0  0  0
  9 10  1  0  0  0  0
  9 23  1  0  0  0  0
  9 24  1  0  0  0  0
 10 11  1  0  0  0  0
 10 25  1  0  0  0  0
 10 26  1  0  0  0  0
 12 13  1  0  0  0  0
M  CHG  1  13  -1
M  END
> <s_m_source_file>
AV-unprocessed.smi

> <i_m_source_file_index>
3085

> <i_lp_mmshare_version>
43012

> <i_f3d_flags>
0

> <s_epik_input>
W0NIM11bQ0gyXWMxbmMobltuSF0xKVtDQEBIXTJbQ0gyXVtOSF1bQ0gyXVtDSDJdTzI=

> <s_epik_cmdline>
J2VwaWtfcHl0aG9uJywgJy1waCcsICc3LjAnLCAnLXRuJywgJzgnLCAnLW1hJywgJzIwMCcsICctbWV0YWxfYmluZGluZycsICctaW1hZScsICc8aW5maWxlLm1hZT4nLCAnLW9tYWUnLCAnPG91dGZpbGUubWFlPic=

> <r_lp_tautomer_probability>
0.948284

> <r_epik_Ionization_Penalty>
17.858

> <r_epik_Ionization_Penalty_Charging>
16.2847

> <r_epik_Ionization_Penalty_Neutral>
1.5733

> <r_epik_State_Penalty>
7.01418

> <r_epik_Charging_Adjusted_Penalty>
23.2989

> <i_epik_Tot_Q>
-1

> <i_epik_Tot_abs_Q>
1

> <r_epik_Metal_State_Penalty>
3.17281

> <b_epik_Metal_Only>
1

> <s_lp_Force_Field>
OPLS_2005

> <r_lp_Energy>
10.7333

> <b_lp_Chiralities_Consistent>
1

> <s_lp_Variant>
AV-unprocessed.smi:3085-14

> <Gold.Version>
5.8.1

> <Gold.Id.Protein>
6NUR|6NUR_protein|mol2

> <Gold.PLP.Fitness>
31.6810

> <Gold.PLP.PLP>
-22.8214

> <Gold.PLP.part.hbond>
-3.0000

> <Gold.PLP.part.metal>
0.0000

> <Gold.PLP.part.buried>
-2.3206

> <Gold.PLP.part.nonpolar>
-17.3412

> <Gold.PLP.part.repulsive>
0.0937

> <Gold.PLP.ligand.clash>
0.0000

> <Gold.PLP.ligand.torsion>
0.0768

> <Gold.PLP.Chemscore.Hbond>
3.0000

> <Gold.PLP.Chemscore.CHOScore>
0.0000

> <Gold.PLP.Chemscore.Metal>
0.0000

> <Gold.Chemscore.Hbonds>
donor molecule, donor type, donor heavy atom, donor atom, acceptor molecule, acceptor atom, score
      L1  H     8    22       P1  7948  1.00
      P1  H  7997  8008       L1    13  1.80

> <Gold.PLP.Chemscore.Internal.Correction>
0.0132

> <Gold.Rescore>
     Score         DG    S(hbond)    S(metal)    S(lipo)     H(rot)  DE(clash)    DE(int)     intcor
     12.40     -12.62       1.39        0.00      48.83       1.26       0.16       0.06       ----

> <Gold.Chemscore.Fitness>
12.3981

> <Gold.Chemscore.DG>
-12.6156

> <Gold.Chemscore.ZeroCoef>
-5.4800

> <Gold.Chemscore.Hbond>
1.3941

> <Gold.Chemscore.Metal>
0.0000

> <Gold.Chemscore.Lipo>
48.8271

> <Gold.Chemscore.Internal_Hbond>
0.0000

> <Gold.Chemscore.DEClash>
0.1599

> <Gold.Chemscore.DEInternal>
0.0576

> <Gold.Chemscore.Rot>
1.2630

> <Gold.Chemscore.Internal.Correction>
   9.000000E+99

> <Gold.Chemscore.Hbonds>
donor molecule, donor type, donor heavy atom, donor atom, acceptor molecule, acceptor atom, score
      L1  H     8    22       P1  7948  0.77
      P1  H  7997  8008       L1    13  0.07

> <Gold.Chemscore.Hbond.Weighted>
-4.6562

> <Gold.Chemscore.Metal.Weighted>
-0.0000

> <Gold.Chemscore.Lipo.Weighted>
-5.7128

> <Gold.Chemscore.Internal_Hbond.Weighted>
0.0000

> <Gold.Chemscore.DEClash.Weighted>
0.1599

> <Gold.Chemscore.DEInternal.Weighted>
0.0576

> <Gold.Chemscore.Rot.Weighted>
3.2333

> <Gold.Chemscore.Internal.Correction.Weighted>
   9.000000E+99

> <Gold.Protein.RotatedTorsions>
[ 6907 6896 6895 6894 ] final   86.16 input  -60.11 | X-H torsion
[ 7974 7965 7964 7962 ] final  -45.63 input  175.53 | X-H torsion
[ 8008 7997 7996 7995 ] final  -82.23 input   59.86 | X-H torsion
[ 10167 10162 10161 10158 ] final   14.24 input  -65.29 | X-H torsion
[ 10718 10713 10712 10709 ] final   12.16 input   66.30 | X-H torsion
[ 10763 10752 10751 10750 ] final -150.58 input  -60.55 | X-H torsion
[ 11005 11000 10999 10996 ] final  152.82 input  -57.11 | X-H torsion

> <Gold.Protein.ActiveResidues>
 VAL166  LYS551  ARG553  GLY616  TRP617  ASP618  TYR619  PRO620  LYS621  CYS622 
 ASP623  PHE694  ASN695  SER759  ASP760  ASP761  ALA762  ILE779  LEU786  VAL792 
 PHE793  MET794  SER795  GLU796  ALA797  LYS798  CYS799  TRP800  GLU811  SER814 

> <Gold.Protein.RotatedAtoms>
  152.5389  134.2474  159.8885 H   0  0  0  0  0  0  0  0  0  0  0  0  # atno 6907 bound_to 6896
  151.2439  133.4378  159.2616 H   0  0  0  0  0  0  0  0  0  0  0  0  # atno 6908 bound_to 6896
  151.0601  134.9745  159.8312 H   0  0  0  0  0  0  0  0  0  0  0  0  # atno 6909 bound_to 6896
  145.9801  140.7293  142.9368 H   0  0  0  0  0  0  0  0  0  0  0  0  # atno 7974 bound_to 7965
  154.6064  140.0636  156.9437 H   0  0  0  0  0  0  0  0  0  0  0  0  # atno 8008 bound_to 7997
  155.2045  140.3317  155.4320 H   0  0  0  0  0  0  0  0  0  0  0  0  # atno 8009 bound_to 7997
  156.2350  140.1859  156.7126 H   0  0  0  0  0  0  0  0  0  0  0  0  # atno 8010 bound_to 7997
  140.5949  143.8722  150.6908 H   0  0  0  0  0  0  0  0  0  0  0  0  # atno 10167 bound_to 10162
  157.0061  130.6098  149.5702 H   0  0  0  0  0  0  0  0  0  0  0  0  # atno 10718 bound_to 10713
  154.8110  135.3281  154.7305 H   0  0  0  0  0  0  0  0  0  0  0  0  # atno 10763 bound_to 10752
  153.7954  135.6908  153.4869 H   0  0  0  0  0  0  0  0  0  0  0  0  # atno 10764 bound_to 10752
  153.1889  135.4558  155.0070 H   0  0  0  0  0  0  0  0  0  0  0  0  # atno 10765 bound_to 10752
  140.1342  134.8781  157.2245 H   0  0  0  0  0  0  0  0  0  0  0  0  # atno 11005 bound_to 11000
  144.6859  140.2894  143.7280 LP  0  0  0  0  0  0  0  0  0  0  0  0  # atno 17320 bound_to 7965
  145.7782  139.1881  143.2173 LP  0  0  0  0  0  0  0  0  0  0  0  0  # atno 17321 bound_to 7965
  140.2254  143.3777  152.1609 LP  0  0  0  0  0  0  0  0  0  0  0  0  # atno 17342 bound_to 10162
  139.5251  144.7092  151.5259 LP  0  0  0  0  0  0  0  0  0  0  0  0  # atno 17343 bound_to 10162
  156.0153  130.5247  150.8115 LP  0  0  0  0  0  0  0  0  0  0  0  0  # atno 17370 bound_to 10713
  157.5355  131.0938  150.9898 LP  0  0  0  0  0  0  0  0  0  0  0  0  # atno 17371 bound_to 10713
  140.2803  134.3358  155.7345 LP  0  0  0  0  0  0  0  0  0  0  0  0  # atno 17394 bound_to 11000
  141.2175  133.7474  156.9354 LP  0  0  0  0  0  0  0  0  0  0  0  0  # atno 17395 bound_to 11000

$$$$
