AV-unprocessed.smi:102|AV-procd|sdf|952|dock3
  -GOLD-   2262017483D 1   1.00000     0.00000
 Structure written by MMmdl.
 44 45  0  0  0  0  0  0  0  0  1 V2000
  147.3605  144.8949  161.2852 C   0  0  0  0  0  0  0  0  0  0  0  0
  147.2774  143.6642  160.3913 C   0  0  0  0  0  0  0  0  0  0  0  0
  146.3332  142.8791  160.4734 O   0  0  0  0  0  0  0  0  0  0  0  0
  148.3229  143.5665  159.5503 O   0  0  0  0  0  0  0  0  0  0  0  0
  148.1800  142.9445  158.2800 C   0  0  0  0  0  0  0  0  0  0  0  0
  149.1660  141.7728  158.1330 C   0  0  1  0  0  0  0  0  0  0  0  0
  149.3518  141.4219  156.7681 O   0  0  0  0  0  0  0  0  0  0  0  0
  150.5437  140.7051  156.6259 C   0  0  2  0  0  0  0  0  0  0  0  0
  150.2413  139.2422  156.3590 N   0  0  0  0  0  0  0  0  0  0  0  0
  149.5097  138.4548  157.2403 C   0  0  0  0  0  0  0  0  0  0  0  0
  149.2481  137.1457  157.0133 C   0  0  0  0  0  0  0  0  0  0  0  0
  148.5340  136.4466  157.9118 F   0  0  0  0  0  0  0  0  0  0  0  0
  149.7329  136.4863  155.8043 C   0  0  0  0  0  0  0  0  0  0  0  0
  149.5477  135.3064  155.5124 O   0  0  0  0  0  0  0  0  0  0  0  0
  150.4618  137.3159  154.9477 N   0  0  0  0  0  0  0  0  0  0  0  0
  150.7393  138.6653  155.1695 C   0  0  0  0  0  0  0  0  0  0  0  0
  151.4020  139.3018  154.3514 O   0  0  0  0  0  0  0  0  0  0  0  0
  151.3761  140.9239  157.9132 C   0  0  2  0  0  0  0  0  0  0  0  0
  151.4503  139.7486  158.7168 O   0  0  0  0  0  0  0  0  0  0  0  0
  152.6382  139.1981  159.0134 C   0  0  0  0  0  0  0  0  0  0  0  0
  152.4921  137.8299  159.6652 C   0  0  0  0  0  0  0  0  0  0  0  0
  153.7437  139.6958  158.8018 O   0  0  0  0  0  0  0  0  0  0  0  0
  150.5870  141.9980  158.6514 C   0  0  1  0  0  0  0  0  0  0  0  0
  151.0733  143.2896  158.3035 O   0  0  0  0  0  0  0  0  0  0  0  0
  152.3163  143.6649  158.6542 C   0  0  0  0  0  0  0  0  0  0  0  0
  152.7398  144.9643  157.9832 C   0  0  0  0  0  0  0  0  0  0  0  0
  153.0645  143.0653  159.4258 O   0  0  0  0  0  0  0  0  0  0  0  0
  150.8197  136.9031  154.0985 H   0  0  0  0  0  0  0  0  0  0  0  0
  146.6592  145.6560  160.9432 H   0  0  0  0  0  0  0  0  0  0  0  0
  148.3650  145.3189  161.2727 H   0  0  0  0  0  0  0  0  0  0  0  0
  147.1115  144.6322  162.3135 H   0  0  0  0  0  0  0  0  0  0  0  0
  147.1641  142.5517  158.2386 H   0  0  0  0  0  0  0  0  0  0  0  0
  148.2632  143.6525  157.4543 H   0  0  0  0  0  0  0  0  0  0  0  0
  148.7487  140.8985  158.6346 H   0  0  0  0  0  0  0  0  0  0  0  0
  151.0407  141.0723  155.7261 H   0  0  0  0  0  0  0  0  0  0  0  0
  149.1208  138.8799  158.1527 H   0  0  0  0  0  0  0  0  0  0  0  0
  152.3729  141.2653  157.6294 H   0  0  0  0  0  0  0  0  0  0  0  0
  152.0075  137.1351  158.9787 H   0  0  0  0  0  0  0  0  0  0  0  0
  151.8876  137.9031  160.5694 H   0  0  0  0  0  0  0  0  0  0  0  0
  153.4687  137.4265  159.9334 H   0  0  0  0  0  0  0  0  0  0  0  0
  150.6217  141.8675  159.7344 H   0  0  0  0  0  0  0  0  0  0  0  0
  152.0529  145.7678  158.2496 H   0  0  0  0  0  0  0  0  0  0  0  0
  152.7377  144.8495  156.8992 H   0  0  0  0  0  0  0  0  0  0  0  0
  153.7436  145.2493  158.2991 H   0  0  0  0  0  0  0  0  0  0  0  0
  1  2  1  0  0  0  0
  1 29  1  0  0  0  0
  1 30  1  0  0  0  0
  1 31  1  0  0  0  0
  2  3  2  0  0  0  0
  2  4  1  0  0  0  0
  4  5  1  0  0  0  0
  5  6  1  0  0  0  0
  5 32  1  0  0  0  0
  5 33  1  0  0  0  0
  6 23  1  0  0  0  0
  6  7  1  0  0  0  0
  6 34  1  0  0  0  0
  7  8  1  0  0  0  0
  8  9  1  0  0  0  0
  8 18  1  0  0  0  0
  8 35  1  0  0  0  0
  9 16  1  0  0  0  0
  9 10  1  0  0  0  0
 10 11  2  0  0  0  0
 10 36  1  0  0  0  0
 11 12  1  0  0  0  0
 11 13  1  0  0  0  0
 13 14  2  0  0  0  0
 13 15  1  0  0  0  0
 15 28  1  0  0  0  0
 15 16  1  0  0  0  0
 16 17  2  0  0  0  0
 18 19  1  0  0  0  0
 18 23  1  0  0  0  0
 18 37  1  0  0  0  0
 19 20  1  0  0  0  0
 20 21  1  0  0  0  0
 20 22  2  0  0  0  0
 21 38  1  0  0  0  0
 21 39  1  0  0  0  0
 21 40  1  0  0  0  0
 23 24  1  0  0  0  0
 23 41  1  0  0  0  0
 24 25  1  0  0  0  0
 25 26  1  0  0  0  0
 25 27  2  0  0  0  0
 26 42  1  0  0  0  0
 26 43  1  0  0  0  0
 26 44  1  0  0  0  0
M  END
> <s_m_source_file>
AV-unprocessed.smi

> <i_m_source_file_index>
102

> <i_lp_mmshare_version>
43012

> <i_f3d_flags>
0

> <s_epik_input>
W0NIM11DKD1PKU9bQ0gyXVtDQEBIXTFPW0NASF0oW0NAQEhdKE9DKD1PKVtDSDNdKVtDQEhdMU9DKD1PKVtDSDNdKW4yW2NIXWMoRiljKD1PKVtuSF1jMj1P

> <s_epik_cmdline>
J2VwaWtfcHl0aG9uJywgJy1waCcsICc3LjAnLCAnLXRuJywgJzgnLCAnLW1hJywgJzIwMCcsICctbWV0YWxfYmluZGluZycsICctaW1hZScsICc8aW5maWxlLm1hZT4nLCAnLW9tYWUnLCAnPG91dGZpbGUubWFlPic=

> <r_lp_tautomer_probability>
0.999537

> <r_epik_Ionization_Penalty>
0.058267

> <r_epik_Ionization_Penalty_Charging>
0.058267

> <r_epik_Ionization_Penalty_Neutral>
6.57791e-16

> <r_epik_State_Penalty>
0.0503774

> <r_epik_Charging_Adjusted_Penalty>
0.108644

> <i_epik_Tot_Q>
0

> <i_epik_Tot_abs_Q>
0

> <r_epik_Metal_State_Penalty>
2.6644

> <b_epik_Metal_Only>
0

> <s_epik_Chemistry_Notes>
This compound has an ester and may undergo hydrolysis at high or low pH. This compound contains an acetal/aminal-like group ( X-CH(R)-Y where X, Y are N, S, or O) that may be acid/base labile, releasing an aldehyde.

> <s_lp_Force_Field>
OPLS_2005

> <r_lp_Energy>
12.8015

> <b_lp_Chiralities_Consistent>
1

> <s_lp_Variant>
AV-unprocessed.smi:102-8

> <Gold.Version>
5.8.1

> <Gold.Id.Protein>
6NUR|6NUR_protein|mol2

> <Gold.PLP.Fitness>
38.9797

> <Gold.PLP.PLP>
-33.5756

> <Gold.PLP.part.hbond>
-4.7360

> <Gold.PLP.part.metal>
0.0000

> <Gold.PLP.part.buried>
-5.8098

> <Gold.PLP.part.nonpolar>
-23.0667

> <Gold.PLP.part.repulsive>
0.5526

> <Gold.PLP.ligand.clash>
0.0000

> <Gold.PLP.ligand.torsion>
1.8601

> <Gold.PLP.Chemscore.Hbond>
3.0000

> <Gold.PLP.Chemscore.CHOScore>
0.0000

> <Gold.PLP.Chemscore.Metal>
0.0000

> <Gold.Chemscore.Hbonds>
donor molecule, donor type, donor heavy atom, donor atom, acceptor molecule, acceptor atom, score
      P1  H  6934  6946       L1     3  0.81
      P1  H  7989  7998       L1    17  1.00
      P1  H  7997  8009       L1    22  1.00

> <Gold.PLP.Chemscore.Internal.Correction>
0.1243

> <Gold.Rescore>
     Score         DG    S(hbond)    S(metal)    S(lipo)     H(rot)  DE(clash)    DE(int)     intcor
      5.70     -10.05       2.76        0.00      48.83       4.05       1.29       3.06       ----

> <Gold.Chemscore.Fitness>
5.6978

> <Gold.Chemscore.DG>
-10.0545

> <Gold.Chemscore.ZeroCoef>
-5.4800

> <Gold.Chemscore.Hbond>
2.7647

> <Gold.Chemscore.Metal>
0.0000

> <Gold.Chemscore.Lipo>
48.8346

> <Gold.Chemscore.Internal_Hbond>
0.0000

> <Gold.Chemscore.DEClash>
1.2918

> <Gold.Chemscore.DEInternal>
3.0648

> <Gold.Chemscore.Rot>
4.0520

> <Gold.Chemscore.Internal.Correction>
   9.000000E+99

> <Gold.Chemscore.Hbonds>
donor molecule, donor type, donor heavy atom, donor atom, acceptor molecule, acceptor atom, score
      P1  H  6934  6946       L1     3  0.69
      P1  H  7989  7998       L1    17  0.99
      P1  H  7997  8009       L1    22  0.97

> <Gold.Chemscore.Hbond.Weighted>
-9.2341

> <Gold.Chemscore.Metal.Weighted>
-0.0000

> <Gold.Chemscore.Lipo.Weighted>
-5.7136

> <Gold.Chemscore.Internal_Hbond.Weighted>
0.0000

> <Gold.Chemscore.DEClash.Weighted>
1.2918

> <Gold.Chemscore.DEInternal.Weighted>
3.0648

> <Gold.Chemscore.Rot.Weighted>
10.3732

> <Gold.Chemscore.Internal.Correction.Weighted>
   9.000000E+99

> <Gold.Protein.RotatedTorsions>
[ 6907 6896 6895 6894 ] final   74.21 input  -60.11 | X-H torsion
[ 7974 7965 7964 7962 ] final  170.28 input  175.53 | X-H torsion
[ 8008 7997 7996 7995 ] final  128.54 input   59.86 | X-H torsion
[ 10167 10162 10161 10158 ] final  -33.36 input  -65.29 | X-H torsion
[ 10718 10713 10712 10709 ] final   70.02 input   66.30 | X-H torsion
[ 10763 10752 10751 10750 ] final  153.85 input  -60.55 | X-H torsion
[ 11005 11000 10999 10996 ] final -114.78 input  -57.11 | X-H torsion

> <Gold.Protein.ActiveResidues>
 VAL166  LYS551  ARG553  GLY616  TRP617  ASP618  TYR619  PRO620  LYS621  CYS622 
 ASP623  PHE694  ASN695  SER759  ASP760  ASP761  ALA762  ILE779  LEU786  VAL792 
 PHE793  MET794  SER795  GLU796  ALA797  LYS798  CYS799  TRP800  GLU811  SER814 

> <Gold.Protein.RotatedAtoms>
  152.4964  134.4305  159.9510 H   0  0  0  0  0  0  0  0  0  0  0  0  # atno 6907 bound_to 6896
  151.4283  133.3671  159.2773 H   0  0  0  0  0  0  0  0  0  0  0  0  # atno 6908 bound_to 6896
  150.9173  134.8613  159.7525 H   0  0  0  0  0  0  0  0  0  0  0  0  # atno 6909 bound_to 6896
  144.7328  139.9179  143.6418 H   0  0  0  0  0  0  0  0  0  0  0  0  # atno 7974 bound_to 7965
  156.2917  140.2642  156.2452 H   0  0  0  0  0  0  0  0  0  0  0  0  # atno 8008 bound_to 7997
  154.9938  140.0388  157.2349 H   0  0  0  0  0  0  0  0  0  0  0  0  # atno 8009 bound_to 7997
  154.7662  140.2770  155.6179 H   0  0  0  0  0  0  0  0  0  0  0  0  # atno 8010 bound_to 7997
  140.7205  143.3626  151.1934 H   0  0  0  0  0  0  0  0  0  0  0  0  # atno 10167 bound_to 10162
  157.6377  130.9456  150.0593 H   0  0  0  0  0  0  0  0  0  0  0  0  # atno 10718 bound_to 10713
  154.1429  135.2819  155.3156 H   0  0  0  0  0  0  0  0  0  0  0  0  # atno 10763 bound_to 10752
  154.6274  135.5447  153.7645 H   0  0  0  0  0  0  0  0  0  0  0  0  # atno 10764 bound_to 10752
  153.0245  135.6454  154.1575 H   0  0  0  0  0  0  0  0  0  0  0  0  # atno 10765 bound_to 10752
  141.0530  133.9658  157.2804 H   0  0  0  0  0  0  0  0  0  0  0  0  # atno 11005 bound_to 11000
  146.0951  139.3943  143.0381 LP  0  0  0  0  0  0  0  0  0  0  0  0  # atno 17320 bound_to 7965
  145.7656  140.9917  143.1176 LP  0  0  0  0  0  0  0  0  0  0  0  0  # atno 17321 bound_to 7965
  139.7181  143.9268  152.2974 LP  0  0  0  0  0  0  0  0  0  0  0  0  # atno 17342 bound_to 10162
  139.9015  144.6909  150.8659 LP  0  0  0  0  0  0  0  0  0  0  0  0  # atno 17343 bound_to 10162
  156.1631  130.3644  149.9271 LP  0  0  0  0  0  0  0  0  0  0  0  0  # atno 17370 bound_to 10713
  156.7265  130.9027  151.3622 LP  0  0  0  0  0  0  0  0  0  0  0  0  # atno 17371 bound_to 10713
  139.9366  135.0196  156.8575 LP  0  0  0  0  0  0  0  0  0  0  0  0  # atno 17394 bound_to 11000
  140.6019  134.0163  155.7541 LP  0  0  0  0  0  0  0  0  0  0  0  0  # atno 17395 bound_to 11000

$$$$
