AV-unprocessed.smi:447|AV-procd|sdf|2598|dock2
  -GOLD-   2262022593D 1   1.00000     0.00000
 Structure written by MMmdl.
 45 47  0  0  0  0  0  0  0  0  1 V2000
  151.9030  137.8919  159.4063 C   0  0  0  0  0  0  0  0  0  0  0  0
  152.3896  138.7472  158.2419 C   0  0  0  0  0  0  0  0  0  0  0  0
  153.2350  139.6217  158.4299 O   0  0  0  0  0  0  0  0  0  0  0  0
  151.8384  138.4912  157.0464 N   0  0  0  0  0  0  0  0  0  0  0  0
  152.1119  139.2227  155.8110 C   0  0  1  0  0  0  0  0  0  0  0  0
  152.9302  138.3696  154.8296 C   0  0  0  0  0  0  0  0  0  0  0  0
  150.7898  139.6446  155.2221 C   0  0  0  0  0  0  0  0  0  0  0  0
  150.0761  138.8326  154.4356 N   0  0  0  0  0  0  0  0  0  0  0  0
  148.9739  139.5984  154.1162 C   0  0  0  0  0  0  0  0  0  0  0  0
  147.8468  139.2987  153.3180 C   0  0  0  0  0  0  0  0  0  0  0  0
  146.8284  140.2565  153.1330 C   0  0  0  0  0  0  0  0  0  0  0  0
  146.9230  141.5248  153.7414 C   0  0  0  0  0  0  0  0  0  0  0  0
  148.0387  141.8434  154.5394 C   0  0  0  0  0  0  0  0  0  0  0  0
  149.0521  140.8831  154.7213 C   0  0  0  0  0  0  0  0  0  0  0  0
  150.2508  140.8764  155.4280 N   0  0  0  0  0  0  0  0  0  0  0  0
  150.7680  141.9912  156.2122 C   0  0  0  0  0  0  0  0  0  0  0  0
  150.6383  141.7494  157.7302 C   0  0  2  0  0  0  0  0  0  0  0  0
  149.2907  141.4325  158.0135 O   0  0  0  0  0  0  0  0  0  0  0  0
  151.1480  142.9194  158.5619 C   0  0  0  0  0  0  0  0  0  0  0  0
  152.1499  142.7047  159.5332 C   0  0  0  0  0  0  0  0  0  0  0  0
  152.6356  143.7787  160.3037 C   0  0  0  0  0  0  0  0  0  0  0  0
  152.1199  145.0743  160.1103 C   0  0  0  0  0  0  0  0  0  0  0  0
  151.1234  145.2963  159.1408 C   0  0  0  0  0  0  0  0  0  0  0  0
  150.6406  144.2234  158.3668 C   0  0  0  0  0  0  0  0  0  0  0  0
  151.8373  136.8429  159.1157 H   0  0  0  0  0  0  0  0  0  0  0  0
  150.9162  138.2243  159.7296 H   0  0  0  0  0  0  0  0  0  0  0  0
  152.5852  137.9688  160.2534 H   0  0  0  0  0  0  0  0  0  0  0  0
  151.1532  137.7516  156.9870 H   0  0  0  0  0  0  0  0  0  0  0  0
  152.6912  140.1049  156.0761 H   0  0  0  0  0  0  0  0  0  0  0  0
  153.1299  138.9203  153.9100 H   0  0  0  0  0  0  0  0  0  0  0  0
  152.4011  137.4546  154.5609 H   0  0  0  0  0  0  0  0  0  0  0  0
  153.8918  138.0857  155.2576 H   0  0  0  0  0  0  0  0  0  0  0  0
  147.7653  138.3302  152.8473 H   0  0  0  0  0  0  0  0  0  0  0  0
  145.9710  140.0172  152.5212 H   0  0  0  0  0  0  0  0  0  0  0  0
  146.1390  142.2533  153.5950 H   0  0  0  0  0  0  0  0  0  0  0  0
  148.1144  142.8143  155.0061 H   0  0  0  0  0  0  0  0  0  0  0  0
  151.7950  142.2166  155.9280 H   0  0  0  0  0  0  0  0  0  0  0  0
  150.1913  142.8748  155.9355 H   0  0  0  0  0  0  0  0  0  0  0  0
  151.2175  140.8645  157.9975 H   0  0  0  0  0  0  0  0  0  0  0  0
  148.9424  142.0966  158.5889 H   0  0  0  0  0  0  0  0  0  0  0  0
  152.5544  141.7146  159.6853 H   0  0  0  0  0  0  0  0  0  0  0  0
  153.4054  143.6087  161.0420 H   0  0  0  0  0  0  0  0  0  0  0  0
  152.4940  145.8987  160.6993 H   0  0  0  0  0  0  0  0  0  0  0  0
  150.7339  146.2915  158.9854 H   0  0  0  0  0  0  0  0  0  0  0  0
  149.8829  144.4084  157.6194 H   0  0  0  0  0  0  0  0  0  0  0  0
  1  2  1  0  0  0  0
  1 25  1  0  0  0  0
  1 26  1  0  0  0  0
  1 27  1  0  0  0  0
  2  3  2  0  0  0  0
  2  4  1  0  0  0  0
  4  5  1  0  0  0  0
  4 28  1  0  0  0  0
  5  6  1  0  0  0  0
  5  7  1  0  0  0  0
  5 29  1  0  0  0  0
  6 30  1  0  0  0  0
  6 31  1  0  0  0  0
  6 32  1  0  0  0  0
  7 15  1  0  0  0  0
  7  8  2  0  0  0  0
  8  9  1  0  0  0  0
  9 14  2  0  0  0  0
  9 10  1  0  0  0  0
 10 11  2  0  0  0  0
 10 33  1  0  0  0  0
 11 12  1  0  0  0  0
 11 34  1  0  0  0  0
 12 13  2  0  0  0  0
 12 35  1  0  0  0  0
 13 14  1  0  0  0  0
 13 36  1  0  0  0  0
 14 15  1  0  0  0  0
 15 16  1  0  0  0  0
 16 17  1  0  0  0  0
 16 37  1  0  0  0  0
 16 38  1  0  0  0  0
 17 18  1  0  0  0  0
 17 19  1  0  0  0  0
 17 39  1  0  0  0  0
 18 40  1  0  0  0  0
 19 24  1  0  0  0  0
 19 20  2  0  0  0  0
 20 21  1  0  0  0  0
 20 41  1  0  0  0  0
 21 22  2  0  0  0  0
 21 42  1  0  0  0  0
 22 23  1  0  0  0  0
 22 43  1  0  0  0  0
 23 24  2  0  0  0  0
 23 44  1  0  0  0  0
 24 45  1  0  0  0  0
M  END
> <s_m_source_file>
AV-unprocessed.smi

> <i_m_source_file_index>
447

> <i_lp_mmshare_version>
43012

> <i_f3d_flags>
0

> <s_epik_input>
W0NIM11DKD1PKVtOSF1bQ0BIXShbQ0gzXSljKG4xKW4oYyhjMTIpW2NIXVtjSF1bY0hdW2NIXTIpW0NIMl1bQ0BIXShbT0hdKWMzW2NIXVtjSF1bY0hdW2NIXVtjSF0z

> <s_epik_cmdline>
J2VwaWtfcHl0aG9uJywgJy1waCcsICc3LjAnLCAnLXRuJywgJzgnLCAnLW1hJywgJzIwMCcsICctbWV0YWxfYmluZGluZycsICctaW1hZScsICc8aW5maWxlLm1hZT4nLCAnLW9tYWUnLCAnPG91dGZpbGUubWFlPic=

> <r_epik_Ionization_Penalty>
0.13301

> <r_epik_Ionization_Penalty_Charging>
0

> <r_epik_Ionization_Penalty_Neutral>
0.13301

> <r_epik_State_Penalty>
0.122384

> <r_epik_Charging_Adjusted_Penalty>
0.122384

> <i_epik_Tot_Q>
0

> <i_epik_Tot_abs_Q>
0

> <r_epik_Metal_State_Penalty>
0.0997374

> <b_epik_Metal_Only>
0

> <s_lp_Force_Field>
OPLS_2005

> <r_lp_Energy>
6.90784

> <b_lp_Chiralities_Consistent>
1

> <s_lp_Variant>
AV-unprocessed.smi:447-2

> <Gold.Version>
5.8.1

> <Gold.Id.Protein>
6NUR|6NUR_protein|mol2

> <Gold.PLP.Fitness>
52.3208

> <Gold.PLP.PLP>
-51.2119

> <Gold.PLP.part.hbond>
-1.0000

> <Gold.PLP.part.metal>
0.0000

> <Gold.PLP.part.buried>
-0.6584

> <Gold.PLP.part.nonpolar>
-49.3417

> <Gold.PLP.part.repulsive>
0.2631

> <Gold.PLP.ligand.clash>
0.0000

> <Gold.PLP.ligand.torsion>
0.9889

> <Gold.PLP.Chemscore.Hbond>
1.0000

> <Gold.PLP.Chemscore.CHOScore>
0.0000

> <Gold.PLP.Chemscore.Metal>
0.0000

> <Gold.Chemscore.Hbonds>
donor molecule, donor type, donor heavy atom, donor atom, acceptor molecule, acceptor atom, score
      P1  H  7997  8009       L1     3  1.00

> <Gold.PLP.Chemscore.Internal.Correction>
0.0866

> <Gold.Rescore>
     Score         DG    S(hbond)    S(metal)    S(lipo)     H(rot)  DE(clash)    DE(int)     intcor
     18.02     -19.40       1.00        0.00     142.03       2.35       0.43       0.95       ----

> <Gold.Chemscore.Fitness>
18.0180

> <Gold.Chemscore.DG>
-19.3999

> <Gold.Chemscore.ZeroCoef>
-5.4800

> <Gold.Chemscore.Hbond>
0.9957

> <Gold.Chemscore.Metal>
0.0000

> <Gold.Chemscore.Lipo>
142.0280

> <Gold.Chemscore.Internal_Hbond>
0.0000

> <Gold.Chemscore.DEClash>
0.4348

> <Gold.Chemscore.DEInternal>
0.9471

> <Gold.Chemscore.Rot>
2.3528

> <Gold.Chemscore.Internal.Correction>
   9.000000E+99

> <Gold.Chemscore.Hbonds>
donor molecule, donor type, donor heavy atom, donor atom, acceptor molecule, acceptor atom, score
      P1  H  7997  8009       L1     3  0.93

> <Gold.Chemscore.Hbond.Weighted>
-3.3257

> <Gold.Chemscore.Metal.Weighted>
-0.0000

> <Gold.Chemscore.Lipo.Weighted>
-16.6173

> <Gold.Chemscore.Internal_Hbond.Weighted>
0.0000

> <Gold.Chemscore.DEClash.Weighted>
0.4348

> <Gold.Chemscore.DEInternal.Weighted>
0.9471

> <Gold.Chemscore.Rot.Weighted>
6.0231

> <Gold.Chemscore.Internal.Correction.Weighted>
   9.000000E+99

> <Gold.Protein.RotatedTorsions>
[ 6907 6896 6895 6894 ] final  113.00 input  -60.11 | X-H torsion
[ 7974 7965 7964 7962 ] final  -57.95 input  175.53 | X-H torsion
[ 8008 7997 7996 7995 ] final  159.19 input   59.86 | X-H torsion
[ 10167 10162 10161 10158 ] final  -29.80 input  -65.29 | X-H torsion
[ 10718 10713 10712 10709 ] final -107.31 input   66.30 | X-H torsion
[ 10763 10752 10751 10750 ] final -105.64 input  -60.55 | X-H torsion
[ 11005 11000 10999 10996 ] final  168.38 input  -57.11 | X-H torsion

> <Gold.Protein.ActiveResidues>
 VAL166  LYS551  ARG553  GLY616  TRP617  ASP618  TYR619  PRO620  LYS621  CYS622 
 ASP623  PHE694  ASN695  SER759  ASP760  ASP761  ALA762  ILE779  LEU786  VAL792 
 PHE793  MET794  SER795  GLU796  ALA797  LYS798  CYS799  TRP800  GLU811  SER814 

> <Gold.Protein.RotatedAtoms>
  152.4885  133.8436  159.7165 H   0  0  0  0  0  0  0  0  0  0  0  0  # atno 6907 bound_to 6896
  150.8993  133.7130  159.2890 H   0  0  0  0  0  0  0  0  0  0  0  0  # atno 6908 bound_to 6896
  151.4577  135.1039  159.9768 H   0  0  0  0  0  0  0  0  0  0  0  0  # atno 6909 bound_to 6896
  145.8450  140.8391  143.0015 H   0  0  0  0  0  0  0  0  0  0  0  0  # atno 7974 bound_to 7965
  156.2255  140.1838  156.7374 H   0  0  0  0  0  0  0  0  0  0  0  0  # atno 8008 bound_to 7997
  154.5934  140.0647  156.9298 H   0  0  0  0  0  0  0  0  0  0  0  0  # atno 8009 bound_to 7997
  155.2297  140.3314  155.4307 H   0  0  0  0  0  0  0  0  0  0  0  0  # atno 8010 bound_to 7997
  140.7256  143.3900  151.1447 H   0  0  0  0  0  0  0  0  0  0  0  0  # atno 10167 bound_to 10162
  156.0431  130.5656  150.7804 H   0  0  0  0  0  0  0  0  0  0  0  0  # atno 10718 bound_to 10713
  154.7960  135.4741  154.0162 H   0  0  0  0  0  0  0  0  0  0  0  0  # atno 10763 bound_to 10752
  153.1704  135.6824  153.8622 H   0  0  0  0  0  0  0  0  0  0  0  0  # atno 10764 bound_to 10752
  153.8206  135.3204  155.3387 H   0  0  0  0  0  0  0  0  0  0  0  0  # atno 10765 bound_to 10752
  140.2867  134.7707  157.3804 H   0  0  0  0  0  0  0  0  0  0  0  0  # atno 11005 bound_to 11000
  144.6731  140.0869  143.7467 LP  0  0  0  0  0  0  0  0  0  0  0  0  # atno 17320 bound_to 7965
  145.9422  139.2676  143.1262 LP  0  0  0  0  0  0  0  0  0  0  0  0  # atno 17321 bound_to 7965
  139.7503  143.8789  152.3075 LP  0  0  0  0  0  0  0  0  0  0  0  0  # atno 17342 bound_to 10162
  139.8640  144.7102  150.9066 LP  0  0  0  0  0  0  0  0  0  0  0  0  # atno 17343 bound_to 10162
  157.5273  131.0935  151.0001 LP  0  0  0  0  0  0  0  0  0  0  0  0  # atno 17370 bound_to 10713
  157.0316  130.5713  149.5344 LP  0  0  0  0  0  0  0  0  0  0  0  0  # atno 17371 bound_to 10713
  140.1233  134.5191  155.8165 LP  0  0  0  0  0  0  0  0  0  0  0  0  # atno 17394 bound_to 11000
  141.2153  133.6764  156.6906 LP  0  0  0  0  0  0  0  0  0  0  0  0  # atno 17395 bound_to 11000

$$$$
