AV-unprocessed.smi:140|AV-procd|sdf|1185|dock6
  -GOLD-   2262018333D 1   1.00000     0.00000
 Structure written by MMmdl.
 52 55  0  0  0  0  0  0  0  0  1 V2000
  145.9613  135.9898  157.7501 C   0  0  0  0  0  0  0  0  0  0  0  0
  147.4014  136.3701  157.6218 C   0  0  0  0  0  0  0  0  0  0  0  0
  148.2731  136.8119  158.5725 C   0  0  0  0  0  0  0  0  0  0  0  0
  149.5335  137.0505  157.9568 C   0  0  0  0  0  0  0  0  0  0  0  0
  150.7924  137.5173  158.5908 C   0  0  0  0  0  0  0  0  0  0  0  0
  151.1426  137.1830  159.7237 O   0  0  0  0  0  0  0  0  0  0  0  0
  151.6527  138.4730  157.7430 C   0  0  0  0  0  0  0  0  0  0  0  0
  152.1500  139.6163  158.4984 N   0  0  0  0  0  0  0  0  0  0  0  0
  153.3186  139.4394  159.2806 C   0  0  0  0  0  0  0  0  0  0  0  0
  153.9132  138.3616  159.3366 O   0  0  0  0  0  0  0  0  0  0  0  0
  153.7559  140.6344  159.9942 C   0  0  0  0  0  0  0  0  0  0  0  0
  154.8495  140.5797  160.7733 F   0  0  0  0  0  0  0  0  0  0  0  0
  153.0817  141.7996  159.8850 C   0  0  0  0  0  0  0  0  0  0  0  0
  151.9485  141.9462  159.1018 N   0  0  0  0  0  0  0  0  0  0  0  0
  151.2203  143.2667  158.9825 C   0  0  2  0  0  0  0  0  0  0  0  0
  152.1259  144.3251  158.3285 C   0  0  0  0  0  0  0  0  0  0  0  0
  151.9805  145.5073  159.2645 C   0  0  0  0  0  0  0  0  0  0  0  0
  151.7389  144.8201  160.6004 C   0  0  0  0  0  0  0  0  0  0  0  0
  150.8811  143.7398  160.2553 O   0  0  0  0  0  0  0  0  0  0  0  0
  151.4521  140.8418  158.3765 C   0  0  0  0  0  0  0  0  0  0  0  0
  150.4560  140.9556  157.6580 O   0  0  0  0  0  0  0  0  0  0  0  0
  149.3971  136.7608  156.6180 C   0  0  0  0  0  0  0  0  0  0  0  0
  150.3778  136.8525  155.4820 C   0  0  0  0  0  0  0  0  0  0  0  0
  148.0893  136.3161  156.4155 N   0  0  0  0  0  0  0  0  0  0  0  0
  147.5184  135.8722  155.1457 C   0  0  0  0  0  0  0  0  0  0  0  0
  148.1072  134.6006  154.6081 C   0  0  0  0  0  0  0  0  0  0  0  0
  149.1621  133.9062  155.1438 C   0  0  0  0  0  0  0  0  0  0  0  0
  149.4920  132.7255  154.4157 C   0  0  0  0  0  0  0  0  0  0  0  0
  148.6840  132.5291  153.3281 C   0  0  0  0  0  0  0  0  0  0  0  0
  147.4962  133.7938  153.1786 S   0  0  0  0  0  0  0  0  0  0  0  0
  145.5825  136.2335  158.7428 H   0  0  0  0  0  0  0  0  0  0  0  0
  145.8258  134.9194  157.5952 H   0  0  0  0  0  0  0  0  0  0  0  0
  145.3491  136.5221  157.0216 H   0  0  0  0  0  0  0  0  0  0  0  0
  148.0251  136.9462  159.6152 H   0  0  0  0  0  0  0  0  0  0  0  0
  152.5123  137.9531  157.3168 H   0  0  0  0  0  0  0  0  0  0  0  0
  151.0894  138.8488  156.8877 H   0  0  0  0  0  0  0  0  0  0  0  0
  153.4611  142.6433  160.4403 H   0  0  0  0  0  0  0  0  0  0  0  0
  150.3048  143.0569  158.4262 H   0  0  0  0  0  0  0  0  0  0  0  0
  153.1606  143.9783  158.3133 H   0  0  0  0  0  0  0  0  0  0  0  0
  151.8077  144.5377  157.3079 H   0  0  0  0  0  0  0  0  0  0  0  0
  152.8550  146.1585  159.2708 H   0  0  0  0  0  0  0  0  0  0  0  0
  151.1098  146.1026  158.9864 H   0  0  0  0  0  0  0  0  0  0  0  0
  152.6737  144.4407  161.0150 H   0  0  0  0  0  0  0  0  0  0  0  0
  151.2775  145.4784  161.3366 H   0  0  0  0  0  0  0  0  0  0  0  0
  151.0022  137.7405  155.5733 H   0  0  0  0  0  0  0  0  0  0  0  0
  149.8878  136.9280  154.5124 H   0  0  0  0  0  0  0  0  0  0  0  0
  151.0311  135.9801  155.4649 H   0  0  0  0  0  0  0  0  0  0  0  0
  146.4408  135.7605  155.2668 H   0  0  0  0  0  0  0  0  0  0  0  0
  147.6347  136.6643  154.4067 H   0  0  0  0  0  0  0  0  0  0  0  0
  149.7048  134.2027  156.0292 H   0  0  0  0  0  0  0  0  0  0  0  0
  150.2988  132.0710  154.7111 H   0  0  0  0  0  0  0  0  0  0  0  0
  148.7126  131.7231  152.6099 H   0  0  0  0  0  0  0  0  0  0  0  0
  1  2  1  0  0  0  0
  1 31  1  0  0  0  0
  1 32  1  0  0  0  0
  1 33  1  0  0  0  0
  2 24  1  0  0  0  0
  2  3  2  0  0  0  0
  3  4  1  0  0  0  0
  3 34  1  0  0  0  0
  4  5  1  0  0  0  0
  4 22  2  0  0  0  0
  5  6  2  0  0  0  0
  5  7  1  0  0  0  0
  7  8  1  0  0  0  0
  7 35  1  0  0  0  0
  7 36  1  0  0  0  0
  8 20  1  0  0  0  0
  8  9  1  0  0  0  0
  9 10  2  0  0  0  0
  9 11  1  0  0  0  0
 11 12  1  0  0  0  0
 11 13  2  0  0  0  0
 13 14  1  0  0  0  0
 13 37  1  0  0  0  0
 14 15  1  0  0  0  0
 14 20  1  0  0  0  0
 15 19  1  0  0  0  0
 15 16  1  0  0  0  0
 15 38  1  0  0  0  0
 16 17  1  0  0  0  0
 16 39  1  0  0  0  0
 16 40  1  0  0  0  0
 17 18  1  0  0  0  0
 17 41  1  0  0  0  0
 17 42  1  0  0  0  0
 18 19  1  0  0  0  0
 18 43  1  0  0  0  0
 18 44  1  0  0  0  0
 20 21  2  0  0  0  0
 22 23  1  0  0  0  0
 22 24  1  0  0  0  0
 23 45  1  0  0  0  0
 23 46  1  0  0  0  0
 23 47  1  0  0  0  0
 24 25  1  0  0  0  0
 25 26  1  0  0  0  0
 25 48  1  0  0  0  0
 25 49  1  0  0  0  0
 26 30  1  0  0  0  0
 26 27  2  0  0  0  0
 27 28  1  0  0  0  0
 27 50  1  0  0  0  0
 28 29  2  0  0  0  0
 28 51  1  0  0  0  0
 29 30  1  0  0  0  0
 29 52  1  0  0  0  0
M  END
> <s_m_source_file>
AV-unprocessed.smi

> <i_m_source_file_index>
140

> <i_lp_mmshare_version>
43012

> <i_f3d_flags>
0

> <s_epik_input>
czFbY0hdW2NIXVtjSF1jMVtDSDJdbjJjKFtDSDNdKWMoW2NIXWMyW0NIM10pQyg9TylbQ0gyXW4zYyg9TyljKEYpW2NIXW4oYzM9TylbQ0BASF00W0NIMl1bQ0gyXVtDSDJdTzQ=

> <s_epik_cmdline>
J2VwaWtfcHl0aG9uJywgJy1waCcsICc3LjAnLCAnLXRuJywgJzgnLCAnLW1hJywgJzIwMCcsICctbWV0YWxfYmluZGluZycsICctaW1hZScsICc8aW5maWxlLm1hZT4nLCAnLW9tYWUnLCAnPG91dGZpbGUubWFlPic=

> <r_lp_tautomer_probability>
1

> <r_epik_Ionization_Penalty>
5.024e-09

> <r_epik_Ionization_Penalty_Charging>
5.01743e-09

> <r_epik_Ionization_Penalty_Neutral>
6.5712e-12

> <r_epik_State_Penalty>
-0

> <r_epik_Charging_Adjusted_Penalty>
5.01743e-09

> <i_epik_Tot_Q>
0

> <i_epik_Tot_abs_Q>
0

> <r_epik_Metal_State_Penalty>
-0

> <b_epik_Metal_Only>
0

> <s_epik_Chemistry_Notes>
This compound contains an acetal/aminal-like group ( X-CH(R)-Y where X, Y are N, S, or O) that may be acid/base labile, releasing an aldehyde.

> <s_lp_Force_Field>
OPLS_2005

> <r_lp_Energy>
39.7817

> <b_lp_Chiralities_Consistent>
1

> <s_lp_Variant>
AV-unprocessed.smi:140-1

> <Gold.Version>
5.8.1

> <Gold.Id.Protein>
6NUR|6NUR_protein|mol2

> <Gold.PLP.Fitness>
55.2366

> <Gold.PLP.PLP>
-51.4963

> <Gold.PLP.part.hbond>
-1.4726

> <Gold.PLP.part.metal>
0.0000

> <Gold.PLP.part.buried>
-6.1104

> <Gold.PLP.part.nonpolar>
-43.7706

> <Gold.PLP.part.repulsive>
0.1074

> <Gold.PLP.ligand.clash>
0.0000

> <Gold.PLP.ligand.torsion>
1.1493

> <Gold.PLP.Chemscore.Hbond>
1.0000

> <Gold.PLP.Chemscore.CHOScore>
0.9725

> <Gold.PLP.Chemscore.Metal>
0.0000

> <Gold.Chemscore.Hbonds>
donor molecule, donor type, donor heavy atom, donor atom, acceptor molecule, acceptor atom, score
      P1  H  6896  6908       L1     6  0.96
      L1  C    29    52       P1 10747  1.00

> <Gold.PLP.Chemscore.Internal.Correction>
0.1215

> <Gold.Rescore>
     Score         DG    S(hbond)    S(metal)    S(lipo)     H(rot)  DE(clash)    DE(int)     intcor
     14.46     -16.52       0.97        0.00     107.46       1.87       0.13       1.92       ----

> <Gold.Chemscore.Fitness>
14.4601

> <Gold.Chemscore.DG>
-16.5167

> <Gold.Chemscore.ZeroCoef>
-5.4800

> <Gold.Chemscore.Hbond>
0.9743

> <Gold.Chemscore.Metal>
0.0000

> <Gold.Chemscore.Lipo>
107.4624

> <Gold.Chemscore.Internal_Hbond>
0.0000

> <Gold.Chemscore.DEClash>
0.1339

> <Gold.Chemscore.DEInternal>
1.9227

> <Gold.Chemscore.Rot>
1.8713

> <Gold.Chemscore.Internal.Correction>
   9.000000E+99

> <Gold.Chemscore.Hbonds>
donor molecule, donor type, donor heavy atom, donor atom, acceptor molecule, acceptor atom, score
      P1  H  6896  6908       L1     6  0.80

> <Gold.Chemscore.Hbond.Weighted>
-3.2540

> <Gold.Chemscore.Metal.Weighted>
-0.0000

> <Gold.Chemscore.Lipo.Weighted>
-12.5731

> <Gold.Chemscore.Internal_Hbond.Weighted>
0.0000

> <Gold.Chemscore.DEClash.Weighted>
0.1339

> <Gold.Chemscore.DEInternal.Weighted>
1.9227

> <Gold.Chemscore.Rot.Weighted>
4.7905

> <Gold.Chemscore.Internal.Correction.Weighted>
   9.000000E+99

> <Gold.Protein.RotatedTorsions>
[ 6907 6896 6895 6894 ] final -130.28 input  -60.11 | X-H torsion
[ 7974 7965 7964 7962 ] final   66.48 input  175.53 | X-H torsion
[ 8008 7997 7996 7995 ] final -167.41 input   59.86 | X-H torsion
[ 10167 10162 10161 10158 ] final  -66.99 input  -65.29 | X-H torsion
[ 10718 10713 10712 10709 ] final  -39.81 input   66.30 | X-H torsion
[ 10763 10752 10751 10750 ] final   19.32 input  -60.55 | X-H torsion
[ 11005 11000 10999 10996 ] final   29.59 input  -57.11 | X-H torsion

> <Gold.Protein.ActiveResidues>
 VAL166  LYS551  ARG553  GLY616  TRP617  ASP618  TYR619  PRO620  LYS621  CYS622 
 ASP623  PHE694  ASN695  SER759  ASP760  ASP761  ALA762  ILE779  LEU786  VAL792 
 PHE793  MET794  SER795  GLU796  ALA797  LYS798  CYS799  TRP800  GLU811  SER814 

> <Gold.Protein.RotatedAtoms>
  150.9380  133.6690  159.2796 H   0  0  0  0  0  0  0  0  0  0  0  0  # atno 6907 bound_to 6896
  151.4089  135.0981  159.9588 H   0  0  0  0  0  0  0  0  0  0  0  0  # atno 6908 bound_to 6896
  152.5056  133.8857  159.7423 H   0  0  0  0  0  0  0  0  0  0  0  0  # atno 6909 bound_to 6896
  145.8262  139.3112  143.1014 H   0  0  0  0  0  0  0  0  0  0  0  0  # atno 7974 bound_to 7965
  155.8773  140.1003  157.1509 H   0  0  0  0  0  0  0  0  0  0  0  0  # atno 8008 bound_to 7997
  154.4002  140.1335  156.4216 H   0  0  0  0  0  0  0  0  0  0  0  0  # atno 8009 bound_to 7997
  155.7682  140.3461  155.5235 H   0  0  0  0  0  0  0  0  0  0  0  0  # atno 8010 bound_to 7997
  140.5616  143.2313  151.6716 H   0  0  0  0  0  0  0  0  0  0  0  0  # atno 10167 bound_to 10162
  156.2882  130.4225  149.8265 H   0  0  0  0  0  0  0  0  0  0  0  0  # atno 10718 bound_to 10713
  153.1172  135.6711  153.9397 H   0  0  0  0  0  0  0  0  0  0  0  0  # atno 10763 bound_to 10752
  153.8923  135.3045  155.3449 H   0  0  0  0  0  0  0  0  0  0  0  0  # atno 10764 bound_to 10752
  154.7588  135.4998  153.9503 H   0  0  0  0  0  0  0  0  0  0  0  0  # atno 10765 bound_to 10752
  140.3034  134.2731  155.7749 H   0  0  0  0  0  0  0  0  0  0  0  0  # atno 11005 bound_to 11000
  145.9621  140.8827  143.0205 LP  0  0  0  0  0  0  0  0  0  0  0  0  # atno 17320 bound_to 7965
  144.6743  140.1827  143.7404 LP  0  0  0  0  0  0  0  0  0  0  0  0  # atno 17321 bound_to 7965
  139.5073  144.3652  152.0524 LP  0  0  0  0  0  0  0  0  0  0  0  0  # atno 17342 bound_to 10162
  140.2779  144.3892  150.6129 LP  0  0  0  0  0  0  0  0  0  0  0  0  # atno 17343 bound_to 10162
  156.5688  130.8415  151.3350 LP  0  0  0  0  0  0  0  0  0  0  0  0  # atno 17370 bound_to 10713
  157.7335  130.9731  150.1980 LP  0  0  0  0  0  0  0  0  0  0  0  0  # atno 17371 bound_to 10713
  141.2123  133.7661  156.9800 LP  0  0  0  0  0  0  0  0  0  0  0  0  # atno 17394 bound_to 11000
  140.1089  134.9489  157.2036 LP  0  0  0  0  0  0  0  0  0  0  0  0  # atno 17395 bound_to 11000

$$$$
