AV-unprocessed.smi:847|AV-procd|sdf|3937|dock4
  -GOLD-   22720 1403D 1   1.00000     0.00000
 Structure written by MMmdl.
 46 47  0  0  0  0  0  0  0  0  1 V2000
  143.3927  146.6191  155.8097 C   0  0  0  0  0  0  0  0  0  0  0  0
  143.2955  145.2334  156.0878 O   0  0  0  0  0  0  0  0  0  0  0  0
  144.3044  144.4775  155.4386 C   0  0  0  0  0  0  0  0  0  0  0  0
  144.0468  142.9869  155.6775 C   0  0  0  0  0  0  0  0  0  0  0  0
  144.7916  142.2324  154.7261 O   0  0  0  0  0  0  0  0  0  0  0  0
  146.1294  142.0000  154.9716 C   0  0  0  0  0  0  0  0  0  0  0  0
  146.9813  141.7493  153.8774 C   0  0  0  0  0  0  0  0  0  0  0  0
  148.3470  141.5100  154.1212 C   0  0  0  0  0  0  0  0  0  0  0  0
  148.8179  141.5241  155.4496 C   0  0  0  0  0  0  0  0  0  0  0  0
  150.2913  141.2746  155.7411 C   0  0  0  0  0  0  0  0  0  0  0  0
  150.6709  141.4885  157.1332 N   0  0  0  0  0  0  0  0  0  0  0  0
  151.7453  140.9471  157.7324 C   0  0  0  0  0  0  0  0  0  0  0  0
  152.5337  140.2075  157.1442 O   0  0  0  0  0  0  0  0  0  0  0  0
  151.9813  141.2655  159.2244 C   0  0  2  0  0  0  0  0  0  0  0  0
  152.1646  142.7834  159.3880 C   0  0  0  0  0  0  0  0  0  0  0  0
  153.0637  142.9437  160.5989 C   0  0  0  0  0  0  0  0  0  0  0  0
  153.9096  141.6720  160.6320 C   0  0  0  0  0  0  0  0  0  0  0  0
  153.1748  140.6669  159.8592 N   0  0  0  0  0  0  0  0  0  0  0  0
  153.5194  139.3562  159.8296 C   0  0  0  0  0  0  0  0  0  0  0  0
  154.8060  138.9193  160.5345 C   0  0  0  0  0  0  0  0  0  0  0  0
  152.8399  138.4976  159.2677 O   0  0  0  0  0  0  0  0  0  0  0  0
  147.8864  141.7912  156.4776 C   0  0  0  0  0  0  0  0  0  0  0  0
  146.5756  142.0218  156.2523 N   0  0  0  0  0  0  0  0  0  0  0  0
  151.1112  140.9394  159.7971 H   0  0  0  0  0  0  0  0  0  0  0  0
  142.6073  147.1557  156.3420 H   0  0  0  0  0  0  0  0  0  0  0  0
  143.2722  146.8162  154.7436 H   0  0  0  0  0  0  0  0  0  0  0  0
  144.3540  147.0205  156.1339 H   0  0  0  0  0  0  0  0  0  0  0  0
  144.2740  144.6833  154.3676 H   0  0  0  0  0  0  0  0  0  0  0  0
  145.2960  144.7571  155.7982 H   0  0  0  0  0  0  0  0  0  0  0  0
  144.3191  142.7179  156.6996 H   0  0  0  0  0  0  0  0  0  0  0  0
  142.9826  142.7830  155.5486 H   0  0  0  0  0  0  0  0  0  0  0  0
  146.5941  141.7406  152.8693 H   0  0  0  0  0  0  0  0  0  0  0  0
  149.0201  141.3164  153.2990 H   0  0  0  0  0  0  0  0  0  0  0  0
  150.5644  140.2623  155.4380 H   0  0  0  0  0  0  0  0  0  0  0  0
  150.8808  141.9510  155.1223 H   0  0  0  0  0  0  0  0  0  0  0  0
  150.0745  142.0896  157.6829 H   0  0  0  0  0  0  0  0  0  0  0  0
  152.6692  143.2157  158.5215 H   0  0  0  0  0  0  0  0  0  0  0  0
  151.2151  143.3068  159.5064 H   0  0  0  0  0  0  0  0  0  0  0  0
  153.6652  143.8526  160.5656 H   0  0  0  0  0  0  0  0  0  0  0  0
  152.4467  142.9887  161.4972 H   0  0  0  0  0  0  0  0  0  0  0  0
  154.8747  141.8510  160.1558 H   0  0  0  0  0  0  0  0  0  0  0  0
  154.0901  141.3564  161.6605 H   0  0  0  0  0  0  0  0  0  0  0  0
  155.6593  139.5005  160.1842 H   0  0  0  0  0  0  0  0  0  0  0  0
  155.0152  137.8680  160.3338 H   0  0  0  0  0  0  0  0  0  0  0  0
  154.7156  139.0417  161.6140 H   0  0  0  0  0  0  0  0  0  0  0  0
  148.1949  141.8250  157.5120 H   0  0  0  0  0  0  0  0  0  0  0  0
  1  2  1  0  0  0  0
  1 25  1  0  0  0  0
  1 26  1  0  0  0  0
  1 27  1  0  0  0  0
  2  3  1  0  0  0  0
  3  4  1  0  0  0  0
  3 28  1  0  0  0  0
  3 29  1  0  0  0  0
  4  5  1  0  0  0  0
  4 30  1  0  0  0  0
  4 31  1  0  0  0  0
  5  6  1  0  0  0  0
  6 23  1  0  0  0  0
  6  7  2  0  0  0  0
  7  8  1  0  0  0  0
  7 32  1  0  0  0  0
  8  9  2  0  0  0  0
  8 33  1  0  0  0  0
  9 10  1  0  0  0  0
  9 22  1  0  0  0  0
 10 11  1  0  0  0  0
 10 34  1  0  0  0  0
 10 35  1  0  0  0  0
 11 12  1  0  0  0  0
 11 36  1  0  0  0  0
 12 13  2  0  0  0  0
 12 14  1  0  0  0  0
 14 24  1  0  0  0  0
 14 18  1  0  0  0  0
 14 15  1  0  0  0  0
 15 16  1  0  0  0  0
 15 37  1  0  0  0  0
 15 38  1  0  0  0  0
 16 17  1  0  0  0  0
 16 39  1  0  0  0  0
 16 40  1  0  0  0  0
 17 18  1  0  0  0  0
 17 41  1  0  0  0  0
 17 42  1  0  0  0  0
 18 19  1  0  0  0  0
 19 20  1  0  0  0  0
 19 21  2  0  0  0  0
 20 43  1  0  0  0  0
 20 44  1  0  0  0  0
 20 45  1  0  0  0  0
 22 23  2  0  0  0  0
 22 46  1  0  0  0  0
M  END
> <s_m_source_file>
AV-unprocessed.smi

> <i_m_source_file_index>
847

> <i_lp_mmshare_version>
43012

> <i_f3d_flags>
0

> <s_epik_input>
W0NIM11PW0NIMl1bQ0gyXU9jMVtjSF1bY0hdYyhbY0hdbjEpW0NIMl1bTkhdQyg9TylbQ0BASF0yW0NIMl1bQ0gyXVtDSDJdTjJDKD1PKVtDSDNd

> <s_epik_cmdline>
J2VwaWtfcHl0aG9uJywgJy1waCcsICc3LjAnLCAnLXRuJywgJzgnLCAnLW1hJywgJzIwMCcsICctbWV0YWxfYmluZGluZycsICctaW1hZScsICc8aW5maWxlLm1hZT4nLCAnLW9tYWUnLCAnPG91dGZpbGUubWFlPic=

> <r_lp_tautomer_probability>
1

> <r_epik_Ionization_Penalty>
6.04138e-05

> <r_epik_Ionization_Penalty_Charging>
0

> <r_epik_Ionization_Penalty_Neutral>
6.04138e-05

> <r_epik_State_Penalty>
-0

> <r_epik_Charging_Adjusted_Penalty>
0

> <i_epik_Tot_Q>
0

> <i_epik_Tot_abs_Q>
0

> <r_epik_Metal_State_Penalty>
-0

> <b_epik_Metal_Only>
0

> <s_lp_Force_Field>
OPLS_2005

> <r_lp_Energy>
14.576

> <b_lp_Chiralities_Consistent>
1

> <s_lp_Variant>
AV-unprocessed.smi:847-1

> <Gold.Version>
5.8.1

> <Gold.Id.Protein>
6NUR|6NUR_protein|mol2

> <Gold.PLP.Fitness>
42.5899

> <Gold.PLP.PLP>
-40.9158

> <Gold.PLP.part.hbond>
-1.0000

> <Gold.PLP.part.metal>
0.0000

> <Gold.PLP.part.buried>
-3.0858

> <Gold.PLP.part.nonpolar>
-35.4608

> <Gold.PLP.part.repulsive>
0.4284

> <Gold.PLP.ligand.clash>
0.0000

> <Gold.PLP.ligand.torsion>
0.7510

> <Gold.PLP.Chemscore.Hbond>
1.0000

> <Gold.PLP.Chemscore.CHOScore>
0.0000

> <Gold.PLP.Chemscore.Metal>
0.0000

> <Gold.Chemscore.Hbonds>
donor molecule, donor type, donor heavy atom, donor atom, acceptor molecule, acceptor atom, score
      P1  H  7997  8009       L1    13  1.00

> <Gold.PLP.Chemscore.Internal.Correction>
0.1760

> <Gold.Rescore>
     Score         DG    S(hbond)    S(metal)    S(lipo)     H(rot)  DE(clash)    DE(int)     intcor
      9.77     -13.33       0.95        0.00      90.33       2.31       0.04       3.52       ----

> <Gold.Chemscore.Fitness>
9.7694

> <Gold.Chemscore.DG>
-13.3278

> <Gold.Chemscore.ZeroCoef>
-5.4800

> <Gold.Chemscore.Hbond>
0.9530

> <Gold.Chemscore.Metal>
0.0000

> <Gold.Chemscore.Lipo>
90.3300

> <Gold.Chemscore.Internal_Hbond>
0.0000

> <Gold.Chemscore.DEClash>
0.0421

> <Gold.Chemscore.DEInternal>
3.5163

> <Gold.Chemscore.Rot>
2.3062

> <Gold.Chemscore.Internal.Correction>
   9.000000E+99

> <Gold.Chemscore.Hbonds>
donor molecule, donor type, donor heavy atom, donor atom, acceptor molecule, acceptor atom, score
      P1  H  7997  8009       L1    13  0.96

> <Gold.Chemscore.Hbond.Weighted>
-3.1830

> <Gold.Chemscore.Metal.Weighted>
-0.0000

> <Gold.Chemscore.Lipo.Weighted>
-10.5686

> <Gold.Chemscore.Internal_Hbond.Weighted>
0.0000

> <Gold.Chemscore.DEClash.Weighted>
0.0421

> <Gold.Chemscore.DEInternal.Weighted>
3.5163

> <Gold.Chemscore.Rot.Weighted>
5.9038

> <Gold.Chemscore.Internal.Correction.Weighted>
   9.000000E+99

> <Gold.Protein.RotatedTorsions>
[ 6907 6896 6895 6894 ] final  -90.60 input  -60.11 | X-H torsion
[ 7974 7965 7964 7962 ] final   49.76 input  175.53 | X-H torsion
[ 8008 7997 7996 7995 ] final  177.34 input   59.86 | X-H torsion
[ 10167 10162 10161 10158 ] final  -56.86 input  -65.29 | X-H torsion
[ 10718 10713 10712 10709 ] final -158.47 input   66.30 | X-H torsion
[ 10763 10752 10751 10750 ] final  113.95 input  -60.55 | X-H torsion
[ 11005 11000 10999 10996 ] final  -66.55 input  -57.11 | X-H torsion

> <Gold.Protein.ActiveResidues>
 VAL166  LYS551  ARG553  GLY616  TRP617  ASP618  TYR619  PRO620  LYS621  CYS622 
 ASP623  PHE694  ASN695  SER759  ASP760  ASP761  ALA762  ILE779  LEU786  VAL792 
 PHE793  MET794  SER795  GLU796  ALA797  LYS798  CYS799  TRP800  GLU811  SER814 

> <Gold.Protein.RotatedAtoms>
  150.6883  134.2407  159.4470 H   0  0  0  0  0  0  0  0  0  0  0  0  # atno 6907 bound_to 6896
  152.0351  134.9742  160.0582 H   0  0  0  0  0  0  0  0  0  0  0  0  # atno 6908 bound_to 6896
  152.1266  133.4349  159.4738 H   0  0  0  0  0  0  0  0  0  0  0  0  # atno 6909 bound_to 6896
  146.0078  139.4509  142.9975 H   0  0  0  0  0  0  0  0  0  0  0  0  # atno 7974 bound_to 7965
  156.0667  140.1361  156.9877 H   0  0  0  0  0  0  0  0  0  0  0  0  # atno 8008 bound_to 7997
  154.4510  140.0980  156.6669 H   0  0  0  0  0  0  0  0  0  0  0  0  # atno 8009 bound_to 7997
  155.5292  140.3458  155.4425 H   0  0  0  0  0  0  0  0  0  0  0  0  # atno 8010 bound_to 7997
  140.6292  143.2452  151.5285 H   0  0  0  0  0  0  0  0  0  0  0  0  # atno 10167 bound_to 10162
  156.5546  130.8620  151.2790 H   0  0  0  0  0  0  0  0  0  0  0  0  # atno 10718 bound_to 10713
  153.5001  135.3640  155.2535 H   0  0  0  0  0  0  0  0  0  0  0  0  # atno 10763 bound_to 10752
  154.8748  135.3998  154.3489 H   0  0  0  0  0  0  0  0  0  0  0  0  # atno 10764 bound_to 10752
  153.4123  135.7078  153.6417 H   0  0  0  0  0  0  0  0  0  0  0  0  # atno 10765 bound_to 10752
  141.1485  133.6701  156.6156 H   0  0  0  0  0  0  0  0  0  0  0  0  # atno 11005 bound_to 11000
  145.7389  141.0015  143.1311 LP  0  0  0  0  0  0  0  0  0  0  0  0  # atno 17320 bound_to 7965
  144.6942  139.9075  143.7462 LP  0  0  0  0  0  0  0  0  0  0  0  0  # atno 17321 bound_to 7965
  139.5508  144.2400  152.1527 LP  0  0  0  0  0  0  0  0  0  0  0  0  # atno 17342 bound_to 10162
  140.1639  144.4999  150.6617 LP  0  0  0  0  0  0  0  0  0  0  0  0  # atno 17343 bound_to 10162
  157.7381  130.9807  150.2230 LP  0  0  0  0  0  0  0  0  0  0  0  0  # atno 17370 bound_to 10713
  156.2854  130.3738  149.7894 LP  0  0  0  0  0  0  0  0  0  0  0  0  # atno 17371 bound_to 10713
  140.3580  134.7712  157.4514 LP  0  0  0  0  0  0  0  0  0  0  0  0  # atno 17394 bound_to 11000
  140.0807  134.5734  155.8543 LP  0  0  0  0  0  0  0  0  0  0  0  0  # atno 17395 bound_to 11000

$$$$
