#       Name:                AV-unprocessed.smi:3337
#       Creating user name   scv26
#       Creation time:       Fri Mar 27 19:26:48 2020


#       File generated by GOLD software.
#

@<TRIPOS>MOLECULE
AV-unprocessed.smi:3337
    50    51     1
SMALL
NO_CHARGES


@<TRIPOS>ATOM
      1 ****        -0.6841   3.5026   2.3082 C.3            1 S1                 0.0000
      2 ****        -1.3789   2.2506   2.8722 C.3            1 S1                 0.0000
      3 ****        -2.9077   2.2804   2.6929 C.3            1 S1                 0.0000
      4 ****        -3.3149   2.0210   1.2313 C.3            1 S1                 0.0000
      5 ****        -4.8418   1.9870   1.0749 C.3            1 S1                 0.0000
      6 ****        -2.6664   0.7205   0.7185 C.3            1 S1                 0.0000
      7 ****        -1.1886   0.7528   0.8722 N.4            1 S1                 1.0000
      8 ****        -0.5322  -0.4163   0.2341 C.3            1 S1                 0.0000
      9 ****         0.9527  -0.1567  -0.0851 C.3            1 S1                 0.0000
     10 ****         1.5621  -1.2957  -0.7607 N.am           1 S1                 0.0000
     11 ****         1.4716  -1.5493  -2.0766 C.2            1 S1                 0.0000
     12 ****         0.8140  -0.8461  -2.8448 O.2            1 S1                 0.0000
     13 ****         2.2301  -2.7865  -2.5923 C.3            1 S1                 0.0000
     14 ****         2.0033  -3.0521  -4.0942 C.3            1 S1                 0.0000
     15 ****         3.6517  -2.6974  -2.2783 N.pl3          1 S1                 0.0000
     16 ****         4.3837  -3.3883  -1.4016 C.2            1 S1                 0.0000
     17 ****         5.6573  -3.0233  -1.3576 N.2            1 S1                 0.0000
     18 ****         5.6438  -2.0330  -2.2984 C.2            1 S1                 0.0000
     19 ****         4.4672  -1.7936  -2.8772 N.2            1 S1                 0.0000
     20 ****        -0.7932   0.9479   2.2931 C.3            1 S1                 0.0000
     21 ****        -0.7990   3.5829   1.2274 H              1 S1                 0.0000
     22 ****         0.3848   3.4859   2.5236 H              1 S1                 0.0000
     23 ****        -1.0919   4.4107   2.7533 H              1 S1                 0.0000
     24 ****        -1.1799   2.2486   3.9447 H              1 S1                 0.0000
     25 ****        -3.3542   1.5159   3.3305 H              1 S1                 0.0000
     26 ****        -3.3092   3.2345   3.0369 H              1 S1                 0.0000
     27 ****        -2.9482   2.8457   0.6193 H              1 S1                 0.0000
     28 ****        -5.2837   1.1788   1.6586 H              1 S1                 0.0000
     29 ****        -5.1275   1.8399   0.0330 H              1 S1                 0.0000
     30 ****        -5.2912   2.9225   1.4090 H              1 S1                 0.0000
     31 ****        -3.0682  -0.1428   1.2518 H              1 S1                 0.0000
     32 ****        -2.9203   0.5881  -0.3341 H              1 S1                 0.0000
     33 ****        -0.6449  -1.2967   0.8689 H              1 S1                 0.0000
     34 ****        -1.0474  -0.6431  -0.7006 H              1 S1                 0.0000
     35 ****         1.0618   0.7423  -0.6946 H              1 S1                 0.0000
     36 ****         1.5242   0.0164   0.8256 H              1 S1                 0.0000
     37 ****         2.1174  -1.9210  -0.1944 H              1 S1                 0.0000
     38 ****         1.8339  -3.6443  -2.0467 H              1 S1                 0.0000
     39 ****         0.9445  -3.1874  -4.3178 H              1 S1                 0.0000
     40 ****         2.5200  -3.9590  -4.4102 H              1 S1                 0.0000
     41 ****         2.3710  -2.2319  -4.7121 H              1 S1                 0.0000
     42 ****         3.9763  -4.1725  -0.7802 H              1 S1                 0.0000
     43 ****         6.5261  -1.4682  -2.5606 H              1 S1                 0.0000
     44 ****         0.2909   0.9695   2.3954 H              1 S1                 0.0000
     45 ****        -1.1402   0.0950   2.8789 H              1 S1                 0.0000
     46 ****        -0.8732   1.5669   0.3642 H              1 S1                 0.0000
     47 ****         0.3203  -0.0499  -2.4950 LP             1 S1                 0.0000
     48 ****         0.7738  -1.0714  -3.8183 LP             1 S1                 0.0000
     49 ****         6.4094  -3.3717  -0.7982 LP             1 S1                 0.0000
     50 ****         4.2418  -1.1168  -3.5780 LP             1 S1                 0.0000
@<TRIPOS>BOND
    1    1    2 1     
    2    1   21 1     
    3    1   22 1     
    4    1   23 1     
    5    2   20 1     
    6    2    3 1     
    7    2   24 1     
    8    3    4 1     
    9    3   25 1     
   10    3   26 1     
   11    4    5 1     
   12    4    6 1     
   13    4   27 1     
   14    5   28 1     
   15    5   29 1     
   16    5   30 1     
   17    6    7 1     
   18    6   31 1     
   19    6   32 1     
   20    7    8 1     
   21    7   20 1     
   22    7   46 1     
   23    8    9 1     
   24    8   33 1     
   25    8   34 1     
   26    9   10 1     
   27    9   35 1     
   28    9   36 1     
   29   10   11 am    
   30   10   37 1     
   31   11   12 2     
   32   11   13 1     
   33   13   14 1     
   34   13   15 1     
   35   13   38 1     
   36   14   39 1     
   37   14   40 1     
   38   14   41 1     
   39   15   19 1     
   40   15   16 1     
   41   16   17 2     
   42   16   42 1     
   43   17   18 1     
   44   18   19 2     
   45   18   43 1     
   46   20   44 1     
   47   20   45 1     
   48   12   47 1     
   49   12   48 1     
   50   17   49 1     
   51   19   50 1     
@<TRIPOS>SUBSTRUCTURE
      1 S1             1
@<TRIPOS>SET
LONE_PAIRS      STATIC     ATOMS    <user>   **** ""
4 47 48 49 50
DONOR_HYDROGENS      STATIC     ATOMS    <user>   **** ""
2 46 37
ATOM$BLUE        STATIC     ATOMS    COLORGROUP SYSTEM
4 47 48 49 50
ATOM$RED        STATIC     ATOMS    COLORGROUP SYSTEM
2 46 37
