AV-unprocessed.smi:103|AV-procd|sdf|982|dock1
  -GOLD-   2262017543D 1   1.00000     0.00000
 Structure written by MMmdl.
 53 55  0  0  0  0  0  0  0  0  1 V2000
  147.3999  134.9610  162.2945 C   0  0  0  0  0  0  0  0  0  0  0  0
  147.7275  136.1284  161.3729 C   0  0  0  0  0  0  0  0  0  0  0  0
  147.5099  137.2921  161.7110 O   0  0  0  0  0  0  0  0  0  0  0  0
  148.2592  135.7263  160.2070 O   0  0  0  0  0  0  0  0  0  0  0  0
  148.5675  136.6772  159.1992 C   0  0  0  0  0  0  0  0  0  0  0  0
  147.2862  137.0342  158.4264 C   0  0  1  0  0  0  0  0  0  0  0  0
  147.2232  138.4596  158.3555 O   0  0  0  0  0  0  0  0  0  0  0  0
  147.1333  138.8727  157.0318 C   0  0  1  0  0  0  0  0  0  0  0  0
  147.8974  140.1468  156.8626 N   0  0  0  0  0  0  0  0  0  0  0  0
  147.4956  141.3538  156.3255 C   0  0  0  0  0  0  0  0  0  0  0  0
  145.8665  141.7542  155.7041 S   0  0  0  0  0  0  0  0  0  0  0  0
  146.2631  142.5396  154.0898 C   0  0  0  0  0  0  0  0  0  0  0  0
  145.1708  140.4796  155.4675 O   0  0  0  0  0  0  0  0  0  0  0  0
  145.2898  142.7625  156.6061 O   0  0  0  0  0  0  0  0  0  0  0  0
  148.3596  142.3315  156.3714 N   0  0  0  0  0  0  0  0  0  0  0  0
  149.4806  141.7353  156.9310 C   0  0  0  0  0  0  0  0  0  0  0  0
  150.7829  142.1928  157.2543 C   0  0  0  0  0  0  0  0  0  0  0  0
  151.1912  143.4508  157.0372 N   0  0  0  0  0  0  0  0  0  0  0  0
  151.6556  141.3203  157.8105 N   0  0  0  0  0  0  0  0  0  0  0  0
  151.2719  140.0602  158.0388 C   0  0  0  0  0  0  0  0  0  0  0  0
  150.0900  139.4904  157.7915 N   0  0  0  0  0  0  0  0  0  0  0  0
  149.2091  140.3699  157.2321 C   0  0  0  0  0  0  0  0  0  0  0  0
  147.7284  137.7606  156.1823 C   0  0  2  0  0  0  0  0  0  0  0  0
  147.1647  137.7965  154.8797 O   0  0  0  0  0  0  0  0  0  0  0  0
  147.5552  138.7307  153.9990 C   0  0  0  0  0  0  0  0  0  0  0  0
  146.7928  138.6399  152.6842 C   0  0  0  0  0  0  0  0  0  0  0  0
  148.4254  139.5820  154.1815 O   0  0  0  0  0  0  0  0  0  0  0  0
  147.2674  136.5444  156.9628 C   0  0  1  0  0  0  0  0  0  0  0  0
  148.1435  135.4522  156.7108 O   0  0  0  0  0  0  0  0  0  0  0  0
  148.3872  135.0562  155.4508 C   0  0  0  0  0  0  0  0  0  0  0  0
  149.6483  134.2098  155.3438 C   0  0  0  0  0  0  0  0  0  0  0  0
  147.6984  135.3137  154.4637 O   0  0  0  0  0  0  0  0  0  0  0  0
  147.0149  134.1170  161.7219 H   0  0  0  0  0  0  0  0  0  0  0  0
  146.6464  135.2528  163.0262 H   0  0  0  0  0  0  0  0  0  0  0  0
  148.2945  134.6398  162.8280 H   0  0  0  0  0  0  0  0  0  0  0  0
  149.0129  137.5814  159.6142 H   0  0  0  0  0  0  0  0  0  0  0  0
  149.3066  136.2336  158.5317 H   0  0  0  0  0  0  0  0  0  0  0  0
  146.4146  136.6485  158.9561 H   0  0  0  0  0  0  0  0  0  0  0  0
  146.0919  139.0951  156.8048 H   0  0  0  0  0  0  0  0  0  0  0  0
  145.3387  142.8315  153.5922 H   0  0  0  0  0  0  0  0  0  0  0  0
  146.8033  141.8288  153.4646 H   0  0  0  0  0  0  0  0  0  0  0  0
  146.8825  143.4210  154.2530 H   0  0  0  0  0  0  0  0  0  0  0  0
  150.5579  144.1209  156.6250 H   0  0  0  0  0  0  0  0  0  0  0  0
  152.1308  143.7257  157.2844 H   0  0  0  0  0  0  0  0  0  0  0  0
  152.0157  139.4170  158.4862 H   0  0  0  0  0  0  0  0  0  0  0  0
  148.8162  137.8507  156.1901 H   0  0  0  0  0  0  0  0  0  0  0  0
  145.7235  138.5391  152.8711 H   0  0  0  0  0  0  0  0  0  0  0  0
  147.1283  137.7747  152.1122 H   0  0  0  0  0  0  0  0  0  0  0  0
  146.9553  139.5356  152.0846 H   0  0  0  0  0  0  0  0  0  0  0  0
  146.2410  136.3133  156.6711 H   0  0  0  0  0  0  0  0  0  0  0  0
  150.4592  134.6605  155.9162 H   0  0  0  0  0  0  0  0  0  0  0  0
  149.9654  134.1251  154.3042 H   0  0  0  0  0  0  0  0  0  0  0  0
  149.4641  133.2083  155.7326 H   0  0  0  0  0  0  0  0  0  0  0  0
  1  2  1  0  0  0  0
  1 33  1  0  0  0  0
  1 34  1  0  0  0  0
  1 35  1  0  0  0  0
  2  3  2  0  0  0  0
  2  4  1  0  0  0  0
  4  5  1  0  0  0  0
  5  6  1  0  0  0  0
  5 36  1  0  0  0  0
  5 37  1  0  0  0  0
  6 28  1  0  0  0  0
  6  7  1  0  0  0  0
  6 38  1  0  0  0  0
  7  8  1  0  0  0  0
  8  9  1  0  0  0  0
  8 23  1  0  0  0  0
  8 39  1  0  0  0  0
  9 22  1  0  0  0  0
  9 10  1  0  0  0  0
 10 11  1  0  0  0  0
 10 15  2  0  0  0  0
 11 12  1  0  0  0  0
 11 13  2  0  0  0  0
 11 14  2  0  0  0  0
 12 40  1  0  0  0  0
 12 41  1  0  0  0  0
 12 42  1  0  0  0  0
 15 16  1  0  0  0  0
 16 22  2  0  0  0  0
 16 17  1  0  0  0  0
 17 18  1  0  0  0  0
 17 19  2  0  0  0  0
 18 43  1  0  0  0  0
 18 44  1  0  0  0  0
 19 20  1  0  0  0  0
 20 21  2  0  0  0  0
 20 45  1  0  0  0  0
 21 22  1  0  0  0  0
 23 24  1  0  0  0  0
 23 28  1  0  0  0  0
 23 46  1  0  0  0  0
 24 25  1  0  0  0  0
 25 26  1  0  0  0  0
 25 27  2  0  0  0  0
 26 47  1  0  0  0  0
 26 48  1  0  0  0  0
 26 49  1  0  0  0  0
 28 29  1  0  0  0  0
 28 50  1  0  0  0  0
 29 30  1  0  0  0  0
 30 31  1  0  0  0  0
 30 32  2  0  0  0  0
 31 51  1  0  0  0  0
 31 52  1  0  0  0  0
 31 53  1  0  0  0  0
M  END
> <s_m_source_file>
AV-unprocessed.smi

> <i_m_source_file_index>
103

> <i_lp_mmshare_version>
43012

> <i_f3d_flags>
0

> <s_epik_input>
W0NIM11DKD1PKU9bQ0gyXVtDQEBIXTFPW0NASF0oW0NAQEhdKE9DKD1PKVtDSDNdKVtDQEhdMU9DKD1PKVtDSDNdKW4oYyhuMilTKD1PKSg9TylbQ0gzXSljKGMyMyluW2NIXW5jM1tOSDJd

> <s_epik_cmdline>
J2VwaWtfcHl0aG9uJywgJy1waCcsICc3LjAnLCAnLXRuJywgJzgnLCAnLW1hJywgJzIwMCcsICctbWV0YWxfYmluZGluZycsICctaW1hZScsICc8aW5maWxlLm1hZT4nLCAnLW9tYWUnLCAnPG91dGZpbGUubWFlPic=

> <r_lp_tautomer_probability>
1

> <r_epik_Ionization_Penalty>
1.51338e-05

> <r_epik_Ionization_Penalty_Charging>
0

> <r_epik_Ionization_Penalty_Neutral>
1.51338e-05

> <r_epik_State_Penalty>
-0

> <r_epik_Charging_Adjusted_Penalty>
0

> <i_epik_Tot_Q>
0

> <i_epik_Tot_abs_Q>
0

> <r_epik_Metal_State_Penalty>
-0

> <b_epik_Metal_Only>
0

> <s_epik_Chemistry_Notes>
This compound has an ester and may undergo hydrolysis at high or low pH. This compound contains an acetal/aminal-like group ( X-CH(R)-Y where X, Y are N, S, or O) that may be acid/base labile, releasing an aldehyde.

> <s_lp_Force_Field>
OPLS_2005

> <r_lp_Energy>
15.9567

> <b_lp_Chiralities_Consistent>
1

> <s_lp_Variant>
AV-unprocessed.smi:103-6

> <Gold.Version>
5.8.1

> <Gold.Id.Protein>
6NUR|6NUR_protein|mol2

> <Gold.PLP.Fitness>
37.3666

> <Gold.PLP.PLP>
-31.5553

> <Gold.PLP.part.hbond>
-3.7016

> <Gold.PLP.part.metal>
0.0000

> <Gold.PLP.part.buried>
-8.2269

> <Gold.PLP.part.nonpolar>
-24.1415

> <Gold.PLP.part.repulsive>
5.0265

> <Gold.PLP.ligand.clash>
0.0000

> <Gold.PLP.ligand.torsion>
2.3617

> <Gold.PLP.Chemscore.Hbond>
2.7440

> <Gold.PLP.Chemscore.CHOScore>
0.0000

> <Gold.PLP.Chemscore.Metal>
0.0000

> <Gold.Chemscore.Hbonds>
donor molecule, donor type, donor heavy atom, donor atom, acceptor molecule, acceptor atom, score
      L1  H    18    43       P1  8028  1.00
      P1  H  6931  6943       L1     3  0.90
      P1  H  6934  6947       L1     3  0.75

> <Gold.PLP.Chemscore.Internal.Correction>
2.3028

> <Gold.Rescore>
     Score         DG    S(hbond)    S(metal)    S(lipo)     H(rot)  DE(clash)    DE(int)     intcor
      1.99      -7.62       2.61        0.00      36.71       4.25       0.11       5.51       ----

> <Gold.Chemscore.Fitness>
1.9899

> <Gold.Chemscore.DG>
-7.6168

> <Gold.Chemscore.ZeroCoef>
-5.4800

> <Gold.Chemscore.Hbond>
2.6078

> <Gold.Chemscore.Metal>
0.0000

> <Gold.Chemscore.Lipo>
36.7125

> <Gold.Chemscore.Internal_Hbond>
0.0000

> <Gold.Chemscore.DEClash>
0.1129

> <Gold.Chemscore.DEInternal>
5.5141

> <Gold.Chemscore.Rot>
4.2456

> <Gold.Chemscore.Internal.Correction>
   9.000000E+99

> <Gold.Chemscore.Hbonds>
donor molecule, donor type, donor heavy atom, donor atom, acceptor molecule, acceptor atom, score
      L1  H    18    43       P1  8028  0.95
      P1  H  6931  6943       L1     3  0.75
      P1  H  6934  6947       L1     3  0.76

> <Gold.Chemscore.Hbond.Weighted>
-8.7101

> <Gold.Chemscore.Metal.Weighted>
-0.0000

> <Gold.Chemscore.Lipo.Weighted>
-4.2954

> <Gold.Chemscore.Internal_Hbond.Weighted>
0.0000

> <Gold.Chemscore.DEClash.Weighted>
0.1129

> <Gold.Chemscore.DEInternal.Weighted>
5.5141

> <Gold.Chemscore.Rot.Weighted>
10.8687

> <Gold.Chemscore.Internal.Correction.Weighted>
   9.000000E+99

> <Gold.Protein.RotatedTorsions>
[ 6907 6896 6895 6894 ] final -145.79 input  -60.11 | X-H torsion
[ 7974 7965 7964 7962 ] final  -85.91 input  175.53 | X-H torsion
[ 8008 7997 7996 7995 ] final -137.48 input   59.86 | X-H torsion
[ 10167 10162 10161 10158 ] final  -12.66 input  -65.29 | X-H torsion
[ 10718 10713 10712 10709 ] final  -82.09 input   66.30 | X-H torsion
[ 10763 10752 10751 10750 ] final   47.39 input  -60.55 | X-H torsion
[ 11005 11000 10999 10996 ] final  -66.36 input  -57.11 | X-H torsion

> <Gold.Protein.ActiveResidues>
 VAL166  LYS551  ARG553  GLY616  TRP617  ASP618  TYR619  PRO620  LYS621  CYS622 
 ASP623  PHE694  ASN695  SER759  ASP760  ASP761  ALA762  ILE779  LEU786  VAL792 
 PHE793  MET794  SER795  GLU796  ALA797  LYS798  CYS799  TRP800  GLU811  SER814 

> <Gold.Protein.RotatedAtoms>
  151.1326  133.5026  159.2598 H   0  0  0  0  0  0  0  0  0  0  0  0  # atno 6907 bound_to 6896
  151.1741  135.0331  159.8774 H   0  0  0  0  0  0  0  0  0  0  0  0  # atno 6908 bound_to 6896
  152.5460  134.1186  159.8442 H   0  0  0  0  0  0  0  0  0  0  0  0  # atno 6909 bound_to 6896
  145.4870  140.9554  143.1833 H   0  0  0  0  0  0  0  0  0  0  0  0  # atno 7974 bound_to 7965
  155.4124  140.0513  157.3031 H   0  0  0  0  0  0  0  0  0  0  0  0  # atno 8008 bound_to 7997
  154.4940  140.2131  155.9447 H   0  0  0  0  0  0  0  0  0  0  0  0  # atno 8009 bound_to 7997
  156.1380  140.3159  155.8456 H   0  0  0  0  0  0  0  0  0  0  0  0  # atno 8010 bound_to 7997
  140.7166  143.5509  150.9302 H   0  0  0  0  0  0  0  0  0  0  0  0  # atno 10167 bound_to 10162
  156.0039  130.4624  150.4053 H   0  0  0  0  0  0  0  0  0  0  0  0  # atno 10718 bound_to 10713
  152.9800  135.5978  154.3755 H   0  0  0  0  0  0  0  0  0  0  0  0  # atno 10763 bound_to 10752
  154.3424  135.2767  155.2417 H   0  0  0  0  0  0  0  0  0  0  0  0  # atno 10764 bound_to 10752
  154.4493  135.5994  153.6236 H   0  0  0  0  0  0  0  0  0  0  0  0  # atno 10765 bound_to 10752
  141.1480  133.6698  156.6127 H   0  0  0  0  0  0  0  0  0  0  0  0  # atno 11005 bound_to 11000
  144.7856  139.6434  143.7135 LP  0  0  0  0  0  0  0  0  0  0  0  0  # atno 17320 bound_to 7965
  146.2307  139.5808  142.9557 LP  0  0  0  0  0  0  0  0  0  0  0  0  # atno 17321 bound_to 7965
  139.9233  143.6580  152.3092 LP  0  0  0  0  0  0  0  0  0  0  0  0  # atno 17342 bound_to 10162
  139.7004  144.7635  151.1282 LP  0  0  0  0  0  0  0  0  0  0  0  0  # atno 17343 bound_to 10162
  157.2119  131.0462  151.2594 LP  0  0  0  0  0  0  0  0  0  0  0  0  # atno 17370 bound_to 10713
  157.3881  130.7267  149.6677 LP  0  0  0  0  0  0  0  0  0  0  0  0  # atno 17371 bound_to 10713
  140.3602  134.7694  157.4528 LP  0  0  0  0  0  0  0  0  0  0  0  0  # atno 17394 bound_to 11000
  140.0791  134.5756  155.8559 LP  0  0  0  0  0  0  0  0  0  0  0  0  # atno 17395 bound_to 11000

$$$$
