AV-unprocessed.smi:2784|AV-procd|sdf|10740|dock5
  -GOLD-   2272015173D 1   1.00000     0.00000
 Structure written by MMmdl.
 31 32  0  0  0  0  0  0  0  0  1 V2000
  148.1486  142.1827  158.3788 C   0  0  0  0  0  0  0  0  0  0  0  0
  149.1501  143.1566  158.6233 O   0  0  0  0  0  0  0  0  0  0  0  0
  150.4743  142.6297  158.6300 C   0  0  2  0  0  0  0  0  0  0  0  0
  151.3262  143.5969  159.4537 C   0  0  0  0  0  0  0  0  0  0  0  0
  151.6905  144.7072  158.4725 C   0  0  0  0  0  0  0  0  0  0  0  0
  151.8996  143.9894  157.1368 C   0  0  0  0  0  0  0  0  0  0  0  0
  151.1024  142.6721  157.2170 C   0  0  2  0  0  0  0  0  0  0  0  0
  150.1101  142.5938  156.1462 N   0  0  0  0  0  0  0  0  0  0  0  0
  150.0430  141.6321  155.2136 C   0  0  0  0  0  0  0  0  0  0  0  0
  150.8574  140.7040  155.1852 O   0  0  0  0  0  0  0  0  0  0  0  0
  148.9650  141.8639  154.3716 N   0  0  0  0  0  0  0  0  0  0  0  0
  148.3057  140.8615  153.8786 C   0  0  0  0  0  0  0  0  0  0  0  0
  147.2084  140.9056  153.0335 N   0  0  0  0  0  0  0  0  0  0  0  0
  146.8310  139.6205  152.7579 C   0  0  0  0  0  0  0  0  0  0  0  0
  147.6555  138.7999  153.4023 C   0  0  0  0  0  0  0  0  0  0  0  0
  148.5709  139.5293  154.0992 O   0  0  0  0  0  0  0  0  0  0  0  0
  147.1709  142.6632  158.3492 H   0  0  0  0  0  0  0  0  0  0  0  0
  148.1319  141.4330  159.1708 H   0  0  0  0  0  0  0  0  0  0  0  0
  148.3059  141.6787  157.4248 H   0  0  0  0  0  0  0  0  0  0  0  0
  150.5101  141.6249  159.0563 H   0  0  0  0  0  0  0  0  0  0  0  0
  150.8110  143.9676  160.3405 H   0  0  0  0  0  0  0  0  0  0  0  0
  152.2348  143.0928  159.7857 H   0  0  0  0  0  0  0  0  0  0  0  0
  150.8570  145.4058  158.3872 H   0  0  0  0  0  0  0  0  0  0  0  0
  152.5676  145.2737  158.7861 H   0  0  0  0  0  0  0  0  0  0  0  0
  151.5975  144.6221  156.3009 H   0  0  0  0  0  0  0  0  0  0  0  0
  152.9582  143.7654  156.9991 H   0  0  0  0  0  0  0  0  0  0  0  0
  151.8148  141.8504  157.1215 H   0  0  0  0  0  0  0  0  0  0  0  0
  149.4099  143.3209  156.1233 H   0  0  0  0  0  0  0  0  0  0  0  0
  146.7365  141.7181  152.6637 H   0  0  0  0  0  0  0  0  0  0  0  0
  145.9882  139.4253  152.1111 H   0  0  0  0  0  0  0  0  0  0  0  0
  147.7202  137.7238  153.4640 H   0  0  0  0  0  0  0  0  0  0  0  0
  1  2  1  0  0  0  0
  1 17  1  0  0  0  0
  1 18  1  0  0  0  0
  1 19  1  0  0  0  0
  2  3  1  0  0  0  0
  3  7  1  0  0  0  0
  3  4  1  0  0  0  0
  3 20  1  0  0  0  0
  4  5  1  0  0  0  0
  4 21  1  0  0  0  0
  4 22  1  0  0  0  0
  5  6  1  0  0  0  0
  5 23  1  0  0  0  0
  5 24  1  0  0  0  0
  6  7  1  0  0  0  0
  6 25  1  0  0  0  0
  6 26  1  0  0  0  0
  7  8  1  0  0  0  0
  7 27  1  0  0  0  0
  8 28  1  0  0  0  0
  8  9  1  0  0  0  0
  9 11  1  0  0  0  0
  9 10  2  0  0  0  0
 11 12  2  0  0  0  0
 12 16  1  0  0  0  0
 12 13  1  0  0  0  0
 13 29  1  0  0  0  0
 13 14  1  0  0  0  0
 14 30  1  0  0  0  0
 14 15  2  0  0  0  0
 15 31  1  0  0  0  0
 15 16  1  0  0  0  0
M  END
> <s_m_source_file>
AV-unprocessed.smi

> <i_m_source_file_index>
2784

> <i_lp_mmshare_version>
43012

> <i_f3d_flags>
0

> <s_epik_input>
W0NIM11PW0NAQEhdMVtDSDJdW0NIMl1bQ0gyXVtDQEhdMVtOSF1DKD1PKVtOSF1jMm5bY0hdW2NIXW8y

> <s_epik_cmdline>
J2VwaWtfcHl0aG9uJywgJy1waCcsICc3LjAnLCAnLXRuJywgJzgnLCAnLW1hJywgJzIwMCcsICctbWV0YWxfYmluZGluZycsICctaW1hZScsICc8aW5maWxlLm1hZT4nLCAnLW9tYWUnLCAnPG91dGZpbGUubWFlPic=

> <r_lp_tautomer_probability>
0.107061

> <r_epik_Ionization_Penalty>
1.29244

> <r_epik_Ionization_Penalty_Charging>
1.29208

> <r_epik_Ionization_Penalty_Neutral>
0.000359742

> <r_epik_State_Penalty>
2.59896

> <r_epik_Charging_Adjusted_Penalty>
3.89105

> <i_epik_Tot_Q>
0

> <i_epik_Tot_abs_Q>
0

> <r_epik_Metal_State_Penalty>
3.62496

> <b_epik_Metal_Only>
0

> <s_lp_Force_Field>
OPLS_2005

> <r_lp_Energy>
45.4205

> <b_lp_Chiralities_Consistent>
1

> <s_lp_Variant>
AV-unprocessed.smi:2784-15

> <Gold.Version>
5.8.1

> <Gold.Id.Protein>
6NUR|6NUR_protein|mol2

> <Gold.PLP.Fitness>
36.1660

> <Gold.PLP.PLP>
-25.9534

> <Gold.PLP.part.hbond>
-3.4488

> <Gold.PLP.part.metal>
0.0000

> <Gold.PLP.part.buried>
-1.3182

> <Gold.PLP.part.nonpolar>
-21.7791

> <Gold.PLP.part.repulsive>
0.8051

> <Gold.PLP.ligand.clash>
0.0000

> <Gold.PLP.ligand.torsion>
0.5493

> <Gold.PLP.Chemscore.Hbond>
2.0048

> <Gold.PLP.Chemscore.CHOScore>
1.7611

> <Gold.PLP.Chemscore.Metal>
0.0000

> <Gold.Chemscore.Hbonds>
donor molecule, donor type, donor heavy atom, donor atom, acceptor molecule, acceptor atom, score
      L1  H     8    28       P1  8028  1.00
      P1  H  7989  7998       L1    10  0.88
      P1  H  8011  8017       L1    11  0.11
      L1  C    14    30       P1 10175  0.84
      L1  C    15    31       P1  7948  0.90

> <Gold.PLP.Chemscore.Internal.Correction>
0.0134

> <Gold.Rescore>
     Score         DG    S(hbond)    S(metal)    S(lipo)     H(rot)  DE(clash)    DE(int)     intcor
     11.12     -14.07       1.22        0.00      67.58       1.32       0.27       2.68       ----

> <Gold.Chemscore.Fitness>
11.1210

> <Gold.Chemscore.DG>
-14.0745

> <Gold.Chemscore.ZeroCoef>
-5.4800

> <Gold.Chemscore.Hbond>
1.2203

> <Gold.Chemscore.Metal>
0.0000

> <Gold.Chemscore.Lipo>
67.5806

> <Gold.Chemscore.Internal_Hbond>
0.0000

> <Gold.Chemscore.DEClash>
0.2722

> <Gold.Chemscore.DEInternal>
2.6813

> <Gold.Chemscore.Rot>
1.3235

> <Gold.Chemscore.Internal.Correction>
   9.000000E+99

> <Gold.Chemscore.Hbonds>
donor molecule, donor type, donor heavy atom, donor atom, acceptor molecule, acceptor atom, score
      L1  H     8    28       P1  8028  0.93
      P1  H  7989  7998       L1    10  0.34
      P1  H  8011  8017       L1    11  0.01

> <Gold.Chemscore.Hbond.Weighted>
-4.0757

> <Gold.Chemscore.Metal.Weighted>
-0.0000

> <Gold.Chemscore.Lipo.Weighted>
-7.9069

> <Gold.Chemscore.Internal_Hbond.Weighted>
0.0000

> <Gold.Chemscore.DEClash.Weighted>
0.2722

> <Gold.Chemscore.DEInternal.Weighted>
2.6813

> <Gold.Chemscore.Rot.Weighted>
3.3882

> <Gold.Chemscore.Internal.Correction.Weighted>
   9.000000E+99

> <Gold.Protein.RotatedTorsions>
[ 6907 6896 6895 6894 ] final -168.08 input  -60.11 | X-H torsion
[ 7974 7965 7964 7962 ] final  -28.69 input  175.53 | X-H torsion
[ 8008 7997 7996 7995 ] final  134.61 input   59.86 | X-H torsion
[ 10167 10162 10161 10158 ] final   56.19 input  -65.29 | X-H torsion
[ 10718 10713 10712 10709 ] final -134.48 input   66.30 | X-H torsion
[ 10763 10752 10751 10750 ] final  -42.23 input  -60.55 | X-H torsion
[ 11005 11000 10999 10996 ] final -159.48 input  -57.11 | X-H torsion

> <Gold.Protein.ActiveResidues>
 VAL166  LYS551  ARG553  GLY616  TRP617  ASP618  TYR619  PRO620  LYS621  CYS622 
 ASP623  PHE694  ASN695  SER759  ASP760  ASP761  ALA762  ILE779  LEU786  VAL792 
 PHE793  MET794  SER795  GLU796  ALA797  LYS798  CYS799  TRP800  GLU811  SER814 

> <Gold.Protein.RotatedAtoms>
  151.4698  133.3572  159.2821 H   0  0  0  0  0  0  0  0  0  0  0  0  # atno 6907 bound_to 6896
  150.8969  134.8380  159.7343 H   0  0  0  0  0  0  0  0  0  0  0  0  # atno 6908 bound_to 6896
  152.4856  134.4614  159.9658 H   0  0  0  0  0  0  0  0  0  0  0  0  # atno 6909 bound_to 6896
  146.1270  140.5315  142.8710 H   0  0  0  0  0  0  0  0  0  0  0  0  # atno 7974 bound_to 7965
  156.3000  140.2492  156.3445 H   0  0  0  0  0  0  0  0  0  0  0  0  # atno 8008 bound_to 7997
  154.9024  140.0406  157.1920 H   0  0  0  0  0  0  0  0  0  0  0  0  # atno 8009 bound_to 7997
  154.8487  140.2902  155.5616 H   0  0  0  0  0  0  0  0  0  0  0  0  # atno 8010 bound_to 7997
  140.2114  144.3885  150.6487 H   0  0  0  0  0  0  0  0  0  0  0  0  # atno 10167 bound_to 10162
  156.2559  130.7181  151.1097 H   0  0  0  0  0  0  0  0  0  0  0  0  # atno 10718 bound_to 10713
  153.9756  135.6723  153.4748 H   0  0  0  0  0  0  0  0  0  0  0  0  # atno 10763 bound_to 10752
  153.0772  135.4942  154.8425 H   0  0  0  0  0  0  0  0  0  0  0  0  # atno 10764 bound_to 10752
  154.7194  135.3114  154.9033 H   0  0  0  0  0  0  0  0  0  0  0  0  # atno 10765 bound_to 10752
  140.6421  134.4540  157.5233 H   0  0  0  0  0  0  0  0  0  0  0  0  # atno 11005 bound_to 11000
  144.7652  140.5514  143.6708 LP  0  0  0  0  0  0  0  0  0  0  0  0  # atno 17320 bound_to 7965
  145.5343  139.1475  143.3482 LP  0  0  0  0  0  0  0  0  0  0  0  0  # atno 17321 bound_to 7965
  140.6320  143.2189  151.6474 LP  0  0  0  0  0  0  0  0  0  0  0  0  # atno 17342 bound_to 10162
  139.5178  144.3303  152.0832 LP  0  0  0  0  0  0  0  0  0  0  0  0  # atno 17343 bound_to 10162
  157.7232  131.0667  150.6045 LP  0  0  0  0  0  0  0  0  0  0  0  0  # atno 17370 bound_to 10713
  156.6129  130.4385  149.5852 LP  0  0  0  0  0  0  0  0  0  0  0  0  # atno 17371 bound_to 10713
  139.9076  134.8414  156.1646 LP  0  0  0  0  0  0  0  0  0  0  0  0  # atno 17394 bound_to 11000
  141.0599  133.6847  156.1932 LP  0  0  0  0  0  0  0  0  0  0  0  0  # atno 17395 bound_to 11000

$$$$
