AV-unprocessed.smi:1195|AV-procd|sdf|4995|dock2
  -GOLD-   22720 4 03D 1   1.00000     0.00000
 Structure written by MMmdl.
 39 40  0  0  0  0  0  0  0  0  1 V2000
  148.4281  138.6399  152.6442 N   0  0  0  0  0  0  0  0  0  0  0  0
  147.3405  139.2222  152.1335 C   0  0  0  0  0  0  0  0  0  0  0  0
  146.9148  138.9362  151.0151 O   0  0  0  0  0  0  0  0  0  0  0  0
  146.6483  140.2682  153.0176 C   0  0  0  0  0  0  0  0  0  0  0  0
  147.4757  140.7038  154.1311 N   0  0  0  0  0  0  0  0  0  0  0  0
  148.7387  141.2614  154.0874 C   0  0  0  0  0  0  0  0  0  0  0  0
  149.0825  141.5011  155.3878 C   0  0  0  0  0  0  0  0  0  0  0  0
  150.2701  142.0698  155.9135 N   0  0  0  0  0  0  0  0  0  0  0  0
  150.5300  142.3706  157.1965 C   0  0  0  0  0  0  0  0  0  0  0  0
  149.7506  142.2014  158.1345 O   0  0  0  0  0  0  0  0  0  0  0  0
  151.7590  142.8877  157.3370 N   0  0  0  0  0  0  0  0  0  0  0  0
  152.3482  143.3246  158.5991 C   0  0  2  0  0  0  0  0  0  0  0  0
  152.4910  142.1211  159.5480 C   0  0  0  0  0  0  0  0  0  0  0  0
  153.0703  142.5416  160.9104 C   0  0  0  0  0  0  0  0  0  0  0  0
  152.2591  143.6752  161.5663 C   0  0  2  0  0  0  0  0  0  0  0  0
  151.0023  143.1878  161.9931 O   0  0  0  0  0  0  0  0  0  0  0  0
  152.0656  144.8639  160.6059 C   0  0  0  0  0  0  0  0  0  0  0  0
  151.4897  144.4292  159.2470 C   0  0  0  0  0  0  0  0  0  0  0  0
  147.9797  141.0640  156.1667 C   0  0  0  0  0  0  0  0  0  0  0  0
  147.0138  140.5801  155.4008 N   0  0  0  0  0  0  0  0  0  0  0  0
  148.9218  137.9434  152.1048 H   0  0  0  0  0  0  0  0  0  0  0  0
  148.7530  138.8951  153.5652 H   0  0  0  0  0  0  0  0  0  0  0  0
  146.3751  141.1337  152.4120 H   0  0  0  0  0  0  0  0  0  0  0  0
  145.7235  139.8519  153.4190 H   0  0  0  0  0  0  0  0  0  0  0  0
  149.2568  141.4337  153.1558 H   0  0  0  0  0  0  0  0  0  0  0  0
  150.9965  142.2708  155.2418 H   0  0  0  0  0  0  0  0  0  0  0  0
  152.3312  142.9865  156.5112 H   0  0  0  0  0  0  0  0  0  0  0  0
  153.3465  143.7213  158.4042 H   0  0  0  0  0  0  0  0  0  0  0  0
  151.5187  141.6492  159.6966 H   0  0  0  0  0  0  0  0  0  0  0  0
  153.1338  141.3640  159.0971 H   0  0  0  0  0  0  0  0  0  0  0  0
  153.1233  141.6797  161.5769 H   0  0  0  0  0  0  0  0  0  0  0  0
  154.0982  142.8776  160.7681 H   0  0  0  0  0  0  0  0  0  0  0  0
  152.7853  144.0189  162.4573 H   0  0  0  0  0  0  0  0  0  0  0  0
  150.7844  143.5982  162.8160 H   0  0  0  0  0  0  0  0  0  0  0  0
  151.4236  145.6188  161.0613 H   0  0  0  0  0  0  0  0  0  0  0  0
  153.0296  145.3463  160.4400 H   0  0  0  0  0  0  0  0  0  0  0  0
  151.4278  145.2950  158.5868 H   0  0  0  0  0  0  0  0  0  0  0  0
  150.4674  144.0726  159.3802 H   0  0  0  0  0  0  0  0  0  0  0  0
  147.8507  141.0799  157.2389 H   0  0  0  0  0  0  0  0  0  0  0  0
  1  2  1  0  0  0  0
  1 21  1  0  0  0  0
  1 22  1  0  0  0  0
  2  3  2  0  0  0  0
  2  4  1  0  0  0  0
  4  5  1  0  0  0  0
  4 23  1  0  0  0  0
  4 24  1  0  0  0  0
  5 20  1  0  0  0  0
  5  6  1  0  0  0  0
  6  7  2  0  0  0  0
  6 25  1  0  0  0  0
  7  8  1  0  0  0  0
  7 19  1  0  0  0  0
  8  9  1  0  0  0  0
  8 26  1  0  0  0  0
  9 10  2  0  0  0  0
  9 11  1  0  0  0  0
 11 12  1  0  0  0  0
 11 27  1  0  0  0  0
 12 18  1  0  0  0  0
 12 13  1  0  0  0  0
 12 28  1  0  0  0  0
 13 14  1  0  0  0  0
 13 29  1  0  0  0  0
 13 30  1  0  0  0  0
 14 15  1  0  0  0  0
 14 31  1  0  0  0  0
 14 32  1  0  0  0  0
 15 16  1  0  0  0  0
 15 17  1  0  0  0  0
 15 33  1  0  0  0  0
 16 34  1  0  0  0  0
 17 18  1  0  0  0  0
 17 35  1  0  0  0  0
 17 36  1  0  0  0  0
 18 37  1  0  0  0  0
 18 38  1  0  0  0  0
 19 20  2  0  0  0  0
 19 39  1  0  0  0  0
M  END
> <s_m_source_file>
AV-unprocessed.smi

> <i_m_source_file_index>
1195

> <i_lp_mmshare_version>
43012

> <i_f3d_flags>
0

> <s_epik_input>
W05IMl1DKD1PKVtDSDJdbjFbY0hdYyhbY0hdbjEpW05IXUMoPU8pW05IXVtDQEBIXTJbQ0gyXVtDSDJdW0NAQEhdKFtPSF0pW0NIMl1bQ0gyXTI=

> <s_epik_cmdline>
J2VwaWtfcHl0aG9uJywgJy1waCcsICc3LjAnLCAnLXRuJywgJzgnLCAnLW1hJywgJzIwMCcsICctbWV0YWxfYmluZGluZycsICctaW1hZScsICc8aW5maWxlLm1hZT4nLCAnLW9tYWUnLCAnPG91dGZpbGUubWFlPic=

> <r_lp_tautomer_probability>
1

> <r_epik_Ionization_Penalty>
4.75851e-05

> <r_epik_Ionization_Penalty_Charging>
0

> <r_epik_Ionization_Penalty_Neutral>
4.75851e-05

> <r_epik_State_Penalty>
-0

> <r_epik_Charging_Adjusted_Penalty>
0

> <i_epik_Tot_Q>
0

> <i_epik_Tot_abs_Q>
0

> <r_epik_Metal_State_Penalty>
-0

> <b_epik_Metal_Only>
0

> <s_lp_Force_Field>
OPLS_2005

> <r_lp_Energy>
14.5792

> <b_lp_Chiralities_Consistent>
1

> <s_lp_Variant>
AV-unprocessed.smi:1195-2

> <Gold.Version>
5.8.1

> <Gold.Id.Protein>
6NUR|6NUR_protein|mol2

> <Gold.PLP.Fitness>
49.7791

> <Gold.PLP.PLP>
-40.4621

> <Gold.PLP.part.hbond>
-6.4644

> <Gold.PLP.part.metal>
0.0000

> <Gold.PLP.part.buried>
0.6524

> <Gold.PLP.part.nonpolar>
-36.3578

> <Gold.PLP.part.repulsive>
1.4542

> <Gold.PLP.ligand.clash>
0.0000

> <Gold.PLP.ligand.torsion>
0.2011

> <Gold.PLP.Chemscore.Hbond>
2.2322

> <Gold.PLP.Chemscore.CHOScore>
1.0000

> <Gold.PLP.Chemscore.Metal>
0.0000

> <Gold.Chemscore.Hbonds>
donor molecule, donor type, donor heavy atom, donor atom, acceptor molecule, acceptor atom, score
      L1  H     1    21       P1  7948  0.85
      P1  H  6933  6945       L1    16  0.40
      P1  H  7954  7966       L1     3  0.83
      L1  C     6    25       P1  7957  1.00

> <Gold.PLP.Chemscore.Internal.Correction>
0.0228

> <Gold.Rescore>
     Score         DG    S(hbond)    S(metal)    S(lipo)     H(rot)  DE(clash)    DE(int)     intcor
     10.18     -16.51       2.07        0.00      92.64       2.62       3.30       3.03       ----

> <Gold.Chemscore.Fitness>
10.1820

> <Gold.Chemscore.DG>
-16.5062

> <Gold.Chemscore.ZeroCoef>
-5.4800

> <Gold.Chemscore.Hbond>
2.0653

> <Gold.Chemscore.Metal>
0.0000

> <Gold.Chemscore.Lipo>
92.6361

> <Gold.Chemscore.Internal_Hbond>
0.0000

> <Gold.Chemscore.DEClash>
3.2975

> <Gold.Chemscore.DEInternal>
3.0267

> <Gold.Chemscore.Rot>
2.6212

> <Gold.Chemscore.Internal.Correction>
   9.000000E+99

> <Gold.Chemscore.Hbonds>
donor molecule, donor type, donor heavy atom, donor atom, acceptor molecule, acceptor atom, score
      L1  H     1    21       P1  7948  0.81
      P1  H  6933  6945       L1    16  0.05
      P1  H  7954  7966       L1     3  0.74

> <Gold.Chemscore.Hbond.Weighted>
-6.8980

> <Gold.Chemscore.Metal.Weighted>
-0.0000

> <Gold.Chemscore.Lipo.Weighted>
-10.8384

> <Gold.Chemscore.Internal_Hbond.Weighted>
0.0000

> <Gold.Chemscore.DEClash.Weighted>
3.2975

> <Gold.Chemscore.DEInternal.Weighted>
3.0267

> <Gold.Chemscore.Rot.Weighted>
6.7103

> <Gold.Chemscore.Internal.Correction.Weighted>
   9.000000E+99

> <Gold.Protein.RotatedTorsions>
[ 6907 6896 6895 6894 ] final   -9.52 input  -60.11 | X-H torsion
[ 7974 7965 7964 7962 ] final   41.45 input  175.53 | X-H torsion
[ 8008 7997 7996 7995 ] final  -20.72 input   59.86 | X-H torsion
[ 10167 10162 10161 10158 ] final  -76.53 input  -65.29 | X-H torsion
[ 10718 10713 10712 10709 ] final  152.67 input   66.30 | X-H torsion
[ 10763 10752 10751 10750 ] final  165.88 input  -60.55 | X-H torsion
[ 11005 11000 10999 10996 ] final   80.60 input  -57.11 | X-H torsion

> <Gold.Protein.ActiveResidues>
 VAL166  LYS551  ARG553  GLY616  TRP617  ASP618  TYR619  PRO620  LYS621  CYS622 
 ASP623  PHE694  ASN695  SER759  ASP760  ASP761  ALA762  ILE779  LEU786  VAL792 
 PHE793  MET794  SER795  GLU796  ALA797  LYS798  CYS799  TRP800  GLU811  SER814 

> <Gold.Protein.RotatedAtoms>
  151.4164  135.0992  159.9600 H   0  0  0  0  0  0  0  0  0  0  0  0  # atno 6907 bound_to 6896
  152.5003  133.8748  159.7327 H   0  0  0  0  0  0  0  0  0  0  0  0  # atno 6908 bound_to 6896
  150.9254  133.6772  159.2850 H   0  0  0  0  0  0  0  0  0  0  0  0  # atno 6909 bound_to 6896
  146.0822  139.5414  142.9530 H   0  0  0  0  0  0  0  0  0  0  0  0  # atno 7974 bound_to 7965
  154.4751  140.2054  155.9897 H   0  0  0  0  0  0  0  0  0  0  0  0  # atno 8008 bound_to 7997
  156.1076  140.3234  155.7998 H   0  0  0  0  0  0  0  0  0  0  0  0  # atno 8009 bound_to 7997
  155.4690  140.0530  157.2972 H   0  0  0  0  0  0  0  0  0  0  0  0  # atno 8010 bound_to 7997
  140.4849  143.2393  151.8000 H   0  0  0  0  0  0  0  0  0  0  0  0  # atno 10167 bound_to 10162
  157.2548  131.0786  151.1706 H   0  0  0  0  0  0  0  0  0  0  0  0  # atno 10718 bound_to 10713
  154.3307  135.2755  155.2473 H   0  0  0  0  0  0  0  0  0  0  0  0  # atno 10763 bound_to 10752
  154.4787  135.5864  153.6377 H   0  0  0  0  0  0  0  0  0  0  0  0  # atno 10764 bound_to 10752
  152.9867  135.6106  154.3499 H   0  0  0  0  0  0  0  0  0  0  0  0  # atno 10765 bound_to 10752
  139.9128  134.7933  156.1931 H   0  0  0  0  0  0  0  0  0  0  0  0  # atno 11005 bound_to 11000
  145.6197  141.0325  143.1922 LP  0  0  0  0  0  0  0  0  0  0  0  0  # atno 17320 bound_to 7965
  144.7301  139.7753  143.7350 LP  0  0  0  0  0  0  0  0  0  0  0  0  # atno 17321 bound_to 7965
  139.4840  144.4725  151.9407 LP  0  0  0  0  0  0  0  0  0  0  0  0  # atno 17342 bound_to 10162
  140.3811  144.2735  150.5908 LP  0  0  0  0  0  0  0  0  0  0  0  0  # atno 17343 bound_to 10162
  157.3239  130.6951  149.6285 LP  0  0  0  0  0  0  0  0  0  0  0  0  # atno 17370 bound_to 10713
  155.9665  130.4327  150.4975 LP  0  0  0  0  0  0  0  0  0  0  0  0  # atno 17371 bound_to 10713
  141.0571  133.6860  156.1882 LP  0  0  0  0  0  0  0  0  0  0  0  0  # atno 17394 bound_to 11000
  140.6719  134.4859  157.5587 LP  0  0  0  0  0  0  0  0  0  0  0  0  # atno 17395 bound_to 11000

$$$$
