AV-unprocessed.smi:799|AV-procd|sdf|3785|dock3
  -GOLD-   22720 1223D 1   1.00000     0.00000
 Structure written by MMmdl.
 47 48  0  0  0  0  0  0  0  0  1 V2000
  150.1907  142.2108  155.8494 C   0  0  0  0  0  0  0  0  0  0  0  0
  149.9602  140.8669  155.2239 C   0  0  0  0  0  0  0  0  0  0  0  0
  148.7291  140.3083  154.7724 C   0  0  0  0  0  0  0  0  0  0  0  0
  149.1106  139.0829  154.2986 C   0  0  0  0  0  0  0  0  0  0  0  0
  148.3491  138.1089  153.7334 N   0  0  0  0  0  0  0  0  0  0  0  0
  147.0888  137.7480  154.0297 C   0  0  0  0  0  0  0  0  0  0  0  0
  146.3963  138.2493  154.9152 O   0  0  0  0  0  0  0  0  0  0  0  0
  146.6755  136.7552  153.2228 N   0  0  0  0  0  0  0  0  0  0  0  0
  145.3771  136.0597  153.2092 C   0  0  1  0  0  0  0  0  0  0  0  0
  145.2428  135.3699  154.5869 C   0  0  0  0  0  0  0  0  0  0  0  0
  144.2282  137.0998  153.0563 C   0  0  0  0  0  0  0  0  0  0  0  0
  144.3452  137.8648  151.8713 O   0  0  0  0  0  0  0  0  0  0  0  0
  145.3362  135.0055  152.0429 C   0  0  0  0  0  0  0  0  0  0  0  0
  144.0147  134.1986  151.9548 C   0  0  0  0  0  0  0  0  0  0  0  0
  143.9896  133.2672  150.7313 C   0  0  0  0  0  0  0  0  0  0  0  0
  145.1916  132.3132  150.7288 C   0  0  0  0  0  0  0  0  0  0  0  0
  146.5092  133.0958  150.8056 C   0  0  0  0  0  0  0  0  0  0  0  0
  146.5366  134.0203  152.0330 C   0  0  0  0  0  0  0  0  0  0  0  0
  150.4703  138.9446  154.4662 N   0  0  0  0  0  0  0  0  0  0  0  0
  151.3327  137.8323  154.1187 C   0  0  0  0  0  0  0  0  0  0  0  0
  150.9918  140.0508  155.0393 N   0  0  0  0  0  0  0  0  0  0  0  0
  149.2629  142.7796  155.9137 H   0  0  0  0  0  0  0  0  0  0  0  0
  150.9000  142.7989  155.2666 H   0  0  0  0  0  0  0  0  0  0  0  0
  150.5891  142.1108  156.8593 H   0  0  0  0  0  0  0  0  0  0  0  0
  147.7450  140.7513  154.7984 H   0  0  0  0  0  0  0  0  0  0  0  0
  148.7952  137.5920  152.9902 H   0  0  0  0  0  0  0  0  0  0  0  0
  147.3405  136.4287  152.5376 H   0  0  0  0  0  0  0  0  0  0  0  0
  144.2761  134.8814  154.7063 H   0  0  0  0  0  0  0  0  0  0  0  0
  145.3328  136.0892  155.4018 H   0  0  0  0  0  0  0  0  0  0  0  0
  146.0159  134.6193  154.7477 H   0  0  0  0  0  0  0  0  0  0  0  0
  143.2514  136.6160  153.0596 H   0  0  0  0  0  0  0  0  0  0  0  0
  144.2252  137.8023  153.8889 H   0  0  0  0  0  0  0  0  0  0  0  0
  144.1134  138.7595  152.0680 H   0  0  0  0  0  0  0  0  0  0  0  0
  145.3976  135.5670  151.1102 H   0  0  0  0  0  0  0  0  0  0  0  0
  143.8762  133.5983  152.8540 H   0  0  0  0  0  0  0  0  0  0  0  0
  143.1553  134.8641  151.8906 H   0  0  0  0  0  0  0  0  0  0  0  0
  143.0626  132.6933  150.7215 H   0  0  0  0  0  0  0  0  0  0  0  0
  143.9933  133.8630  149.8177 H   0  0  0  0  0  0  0  0  0  0  0  0
  145.1206  131.6304  151.5763 H   0  0  0  0  0  0  0  0  0  0  0  0
  145.1760  131.6957  149.8302 H   0  0  0  0  0  0  0  0  0  0  0  0
  147.3502  132.4030  150.8438 H   0  0  0  0  0  0  0  0  0  0  0  0
  146.6381  133.6883  149.8987 H   0  0  0  0  0  0  0  0  0  0  0  0
  147.4856  134.5553  152.0337 H   0  0  0  0  0  0  0  0  0  0  0  0
  146.5300  133.4074  152.9340 H   0  0  0  0  0  0  0  0  0  0  0  0
  150.9310  136.9106  154.5404 H   0  0  0  0  0  0  0  0  0  0  0  0
  152.3385  137.9892  154.5107 H   0  0  0  0  0  0  0  0  0  0  0  0
  151.3852  137.7360  153.0342 H   0  0  0  0  0  0  0  0  0  0  0  0
  1  2  1  0  0  0  0
  1 22  1  0  0  0  0
  1 23  1  0  0  0  0
  1 24  1  0  0  0  0
  2 21  2  0  0  0  0
  2  3  1  0  0  0  0
  3  4  2  0  0  0  0
  3 25  1  0  0  0  0
  4  5  1  0  0  0  0
  4 19  1  0  0  0  0
  5  6  1  0  0  0  0
  5 26  1  0  0  0  0
  6  7  2  0  0  0  0
  6  8  1  0  0  0  0
  8  9  1  0  0  0  0
  8 27  1  0  0  0  0
  9 10  1  0  0  0  0
  9 11  1  0  0  0  0
  9 13  1  0  0  0  0
 10 28  1  0  0  0  0
 10 29  1  0  0  0  0
 10 30  1  0  0  0  0
 11 12  1  0  0  0  0
 11 31  1  0  0  0  0
 11 32  1  0  0  0  0
 12 33  1  0  0  0  0
 13 18  1  0  0  0  0
 13 14  1  0  0  0  0
 13 34  1  0  0  0  0
 14 15  1  0  0  0  0
 14 35  1  0  0  0  0
 14 36  1  0  0  0  0
 15 16  1  0  0  0  0
 15 37  1  0  0  0  0
 15 38  1  0  0  0  0
 16 17  1  0  0  0  0
 16 39  1  0  0  0  0
 16 40  1  0  0  0  0
 17 18  1  0  0  0  0
 17 41  1  0  0  0  0
 17 42  1  0  0  0  0
 18 43  1  0  0  0  0
 18 44  1  0  0  0  0
 19 20  1  0  0  0  0
 19 21  1  0  0  0  0
 20 45  1  0  0  0  0
 20 46  1  0  0  0  0
 20 47  1  0  0  0  0
M  END
> <s_m_source_file>
AV-unprocessed.smi

> <i_m_source_file_index>
799

> <i_lp_mmshare_version>
43012

> <i_f3d_flags>
0

> <s_epik_input>
W0NIM11jMVtjSF1jKG4objEpW0NIM10pW05IXUMoPU8pW05IXVtDQEBdKFtDSDNdKShbQ0gyXVtPSF0pW0NIXTJbQ0gyXVtDSDJdW0NIMl1bQ0gyXVtDSDJdMg==

> <s_epik_cmdline>
J2VwaWtfcHl0aG9uJywgJy1waCcsICc3LjAnLCAnLXRuJywgJzgnLCAnLW1hJywgJzIwMCcsICctbWV0YWxfYmluZGluZycsICctaW1hZScsICc8aW5maWxlLm1hZT4nLCAnLW9tYWUnLCAnPG91dGZpbGUubWFlPic=

> <r_lp_tautomer_probability>
1

> <r_epik_Ionization_Penalty>
9.86025e-05

> <r_epik_Ionization_Penalty_Charging>
0

> <r_epik_Ionization_Penalty_Neutral>
9.86025e-05

> <r_epik_State_Penalty>
-0

> <r_epik_Charging_Adjusted_Penalty>
0

> <i_epik_Tot_Q>
0

> <i_epik_Tot_abs_Q>
0

> <r_epik_Metal_State_Penalty>
-0

> <b_epik_Metal_Only>
0

> <s_lp_Force_Field>
OPLS_2005

> <r_lp_Energy>
22.1545

> <b_lp_Chiralities_Consistent>
1

> <s_lp_Variant>
AV-unprocessed.smi:799-1

> <Gold.Version>
5.8.1

> <Gold.Id.Protein>
6NUR|6NUR_protein|mol2

> <Gold.PLP.Fitness>
45.1950

> <Gold.PLP.PLP>
-34.3278

> <Gold.PLP.part.hbond>
-4.3851

> <Gold.PLP.part.metal>
0.0000

> <Gold.PLP.part.buried>
-3.0674

> <Gold.PLP.part.nonpolar>
-26.9920

> <Gold.PLP.part.repulsive>
0.1188

> <Gold.PLP.ligand.clash>
0.0000

> <Gold.PLP.ligand.torsion>
0.3105

> <Gold.PLP.Chemscore.Hbond>
3.8075

> <Gold.PLP.Chemscore.CHOScore>
0.0000

> <Gold.PLP.Chemscore.Metal>
0.0000

> <Gold.Chemscore.Hbonds>
donor molecule, donor type, donor heavy atom, donor atom, acceptor molecule, acceptor atom, score
      L1  H     5    26       P1  7948  1.00
      L1  H     8    27       P1  7948  1.00
      L1  H    12    33       P1 10175  1.00
      P1  H  7989  7998       L1    21  0.76

> <Gold.PLP.Chemscore.Internal.Correction>
0.0656

> <Gold.Rescore>
     Score         DG    S(hbond)    S(metal)    S(lipo)     H(rot)  DE(clash)    DE(int)     intcor
     17.82     -18.71       2.97        0.00      72.37       2.01       0.06       0.83       ----

> <Gold.Chemscore.Fitness>
17.8218

> <Gold.Chemscore.DG>
-18.7131

> <Gold.Chemscore.ZeroCoef>
-5.4800

> <Gold.Chemscore.Hbond>
2.9709

> <Gold.Chemscore.Metal>
0.0000

> <Gold.Chemscore.Lipo>
72.3677

> <Gold.Chemscore.Internal_Hbond>
0.0000

> <Gold.Chemscore.DEClash>
0.0619

> <Gold.Chemscore.DEInternal>
0.8294

> <Gold.Chemscore.Rot>
2.0144

> <Gold.Chemscore.Internal.Correction>
   9.000000E+99

> <Gold.Chemscore.Hbonds>
donor molecule, donor type, donor heavy atom, donor atom, acceptor molecule, acceptor atom, score
      L1  H     5    26       P1  7948  0.99
      L1  H     8    27       P1  7948  0.98
      L1  H    12    33       P1 10175  1.00
      P1  H  7989  7998       L1    21  0.03

> <Gold.Chemscore.Hbond.Weighted>
-9.9229

> <Gold.Chemscore.Metal.Weighted>
-0.0000

> <Gold.Chemscore.Lipo.Weighted>
-8.4670

> <Gold.Chemscore.Internal_Hbond.Weighted>
0.0000

> <Gold.Chemscore.DEClash.Weighted>
0.0619

> <Gold.Chemscore.DEInternal.Weighted>
0.8294

> <Gold.Chemscore.Rot.Weighted>
5.1568

> <Gold.Chemscore.Internal.Correction.Weighted>
   9.000000E+99

> <Gold.Protein.RotatedTorsions>
[ 6907 6896 6895 6894 ] final -158.34 input  -60.11 | X-H torsion
[ 7974 7965 7964 7962 ] final  159.80 input  175.53 | X-H torsion
[ 8008 7997 7996 7995 ] final  104.55 input   59.86 | X-H torsion
[ 10167 10162 10161 10158 ] final   17.27 input  -65.29 | X-H torsion
[ 10718 10713 10712 10709 ] final  -88.78 input   66.30 | X-H torsion
[ 10763 10752 10751 10750 ] final -167.98 input  -60.55 | X-H torsion
[ 11005 11000 10999 10996 ] final -146.79 input  -57.11 | X-H torsion

> <Gold.Protein.ActiveResidues>
 VAL166  LYS551  ARG553  GLY616  TRP617  ASP618  TYR619  PRO620  LYS621  CYS622 
 ASP623  PHE694  ASN695  SER759  ASP760  ASP761  ALA762  ILE779  LEU786  VAL792 
 PHE793  MET794  SER795  GLU796  ALA797  LYS798  CYS799  TRP800  GLU811  SER814 

> <Gold.Protein.RotatedAtoms>
  151.3167  133.4057  159.2650 H   0  0  0  0  0  0  0  0  0  0  0  0  # atno 6907 bound_to 6896
  151.0069  134.9367  159.7995 H   0  0  0  0  0  0  0  0  0  0  0  0  # atno 6908 bound_to 6896
  152.5290  134.3131  159.9173 H   0  0  0  0  0  0  0  0  0  0  0  0  # atno 6909 bound_to 6896
  144.7771  139.7668  143.6274 H   0  0  0  0  0  0  0  0  0  0  0  0  # atno 7974 bound_to 7965
  156.1582  140.3146  155.8762 H   0  0  0  0  0  0  0  0  0  0  0  0  # atno 8008 bound_to 7997
  155.3835  140.0489  157.3060 H   0  0  0  0  0  0  0  0  0  0  0  0  # atno 8009 bound_to 7997
  154.5121  140.2168  155.9146 H   0  0  0  0  0  0  0  0  0  0  0  0  # atno 8010 bound_to 7997
  140.5738  143.9111  150.6734 H   0  0  0  0  0  0  0  0  0  0  0  0  # atno 10167 bound_to 10162
  155.9983  130.4848  150.5071 H   0  0  0  0  0  0  0  0  0  0  0  0  # atno 10718 bound_to 10713
  154.6676  135.2934  154.9784 H   0  0  0  0  0  0  0  0  0  0  0  0  # atno 10763 bound_to 10752
  154.0822  135.6603  153.4843 H   0  0  0  0  0  0  0  0  0  0  0  0  # atno 10764 bound_to 10752
  153.0467  135.5200  154.7657 H   0  0  0  0  0  0  0  0  0  0  0  0  # atno 10765 bound_to 10752
  140.7784  134.3108  157.5053 H   0  0  0  0  0  0  0  0  0  0  0  0  # atno 11005 bound_to 11000
  146.1956  139.5221  142.9776 LP  0  0  0  0  0  0  0  0  0  0  0  0  # atno 17320 bound_to 7965
  145.6156  141.0332  143.1943 LP  0  0  0  0  0  0  0  0  0  0  0  0  # atno 17321 bound_to 7965
  140.2593  143.3535  152.1337 LP  0  0  0  0  0  0  0  0  0  0  0  0  # atno 17342 bound_to 10162
  139.5131  144.6928  151.5713 LP  0  0  0  0  0  0  0  0  0  0  0  0  # atno 17343 bound_to 10162
  157.3049  131.0652  151.2042 LP  0  0  0  0  0  0  0  0  0  0  0  0  # atno 17370 bound_to 10713
  157.3009  130.6842  149.6163 LP  0  0  0  0  0  0  0  0  0  0  0  0  # atno 17371 bound_to 10713
  139.8746  134.9303  156.3499 LP  0  0  0  0  0  0  0  0  0  0  0  0  # atno 17394 bound_to 11000
  140.9506  133.7453  156.0267 LP  0  0  0  0  0  0  0  0  0  0  0  0  # atno 17395 bound_to 11000

$$$$
