AV-unprocessed.smi:1381|AV-procd|sdf|5619|dock5
  -GOLD-   22720 5233D 1   1.00000     0.00000
 Structure written by MMmdl.
 42 43  0  0  0  0  0  0  0  0  3 V2000
  147.8283  125.4106  150.5626 C   0  0  0  0  0  0  0  0  0  0  0  0
  147.9188  126.5579  151.5092 C   0  0  0  0  0  0  0  0  0  0  0  0
  148.3134  127.8577  151.3611 C   0  0  0  0  0  0  0  0  0  0  0  0
  148.1522  128.3931  152.6669 C   0  0  0  0  0  0  0  0  0  0  0  0
  148.4642  129.7523  152.9348 N   0  0  0  0  0  0  0  0  0  0  0  0
  148.3727  130.4256  154.0965 C   0  0  0  0  0  0  0  0  0  0  0  0
  147.9753  129.8559  155.1195 O   0  0  0  0  0  0  0  0  0  0  0  0
  148.7571  131.7250  153.9678 N   0  5  0  0  0  0  0  0  0  0  0  0
  148.3786  132.5994  152.8568 C   0  0  0  0  0  0  0  0  0  0  0  0
  147.1232  133.4071  153.2337 C   0  0  0  0  0  0  0  0  0  0  0  0
  146.6955  134.3065  152.1258 N   0  3  1  0  0  0  0  0  0  0  0  0
  146.4649  133.6240  150.8266 C   0  0  0  0  0  0  0  0  0  0  0  0
  145.0990  132.9040  150.8053 C   0  0  2  0  0  0  0  0  0  0  0  0
  144.7902  132.2954  149.4329 C   0  0  0  0  0  0  0  0  0  0  0  0
  144.0706  133.8383  151.1184 O   0  0  0  0  0  0  0  0  0  0  0  0
  144.2204  134.4114  152.4136 C   0  0  2  0  0  0  0  0  0  0  0  0
  143.0141  135.3197  152.6765 C   0  0  0  0  0  0  0  0  0  0  0  0
  145.5512  135.1874  152.4638 C   0  0  0  0  0  0  0  0  0  0  0  0
  147.6964  127.4999  153.5327 N   0  0  0  0  0  0  0  0  0  0  0  0
  147.5454  126.3194  152.7956 O   0  0  0  0  0  0  0  0  0  0  0  0
  148.1129  125.7129  149.5546 H   0  0  0  0  0  0  0  0  0  0  0  0
  146.8109  125.0212  150.5243 H   0  0  0  0  0  0  0  0  0  0  0  0
  148.4901  124.6018  150.8725 H   0  0  0  0  0  0  0  0  0  0  0  0
  148.6628  128.3449  150.4630 H   0  0  0  0  0  0  0  0  0  0  0  0
  148.8079  130.2821  152.1479 H   0  0  0  0  0  0  0  0  0  0  0  0
  149.1733  133.2958  152.5863 H   0  0  0  0  0  0  0  0  0  0  0  0
  148.1669  132.0242  151.9553 H   0  0  0  0  0  0  0  0  0  0  0  0
  146.3186  132.7227  153.5033 H   0  0  0  0  0  0  0  0  0  0  0  0
  147.3328  133.9821  154.1373 H   0  0  0  0  0  0  0  0  0  0  0  0
  146.4930  134.3778  150.0386 H   0  0  0  0  0  0  0  0  0  0  0  0
  147.2768  132.9267  150.6146 H   0  0  0  0  0  0  0  0  0  0  0  0
  145.0847  132.1009  151.5436 H   0  0  0  0  0  0  0  0  0  0  0  0
  145.5462  131.5624  149.1498 H   0  0  0  0  0  0  0  0  0  0  0  0
  144.7601  133.0618  148.6576 H   0  0  0  0  0  0  0  0  0  0  0  0
  143.8241  131.7900  149.4392 H   0  0  0  0  0  0  0  0  0  0  0  0
  144.2221  133.6164  153.1612 H   0  0  0  0  0  0  0  0  0  0  0  0
  143.0757  135.7775  153.6641 H   0  0  0  0  0  0  0  0  0  0  0  0
  142.0828  134.7546  152.6300 H   0  0  0  0  0  0  0  0  0  0  0  0
  142.9540  136.1207  151.9389 H   0  0  0  0  0  0  0  0  0  0  0  0
  145.7040  135.6478  153.4410 H   0  0  0  0  0  0  0  0  0  0  0  0
  145.5265  136.0047  151.7417 H   0  0  0  0  0  0  0  0  0  0  0  0
  147.4871  134.9222  151.9967 H   0  0  0  0  0  0  0  0  0  0  0  0
  1  2  1  0  0  0  0
  1 21  1  0  0  0  0
  1 22  1  0  0  0  0
  1 23  1  0  0  0  0
  2 20  1  0  0  0  0
  2  3  2  0  0  0  0
  3  4  1  0  0  0  0
  3 24  1  0  0  0  0
  4  5  1  0  0  0  0
  4 19  2  0  0  0  0
  5  6  1  0  0  0  0
  5 25  1  0  0  0  0
  6  7  2  0  0  0  0
  6  8  1  0  0  0  0
  8  9  1  0  0  0  0
  9 10  1  0  0  0  0
  9 26  1  0  0  0  0
  9 27  1  0  0  0  0
 10 11  1  0  0  0  0
 10 28  1  0  0  0  0
 10 29  1  0  0  0  0
 11 18  1  0  0  0  0
 11 12  1  0  0  0  0
 11 42  1  0  0  0  0
 12 13  1  0  0  0  0
 12 30  1  0  0  0  0
 12 31  1  0  0  0  0
 13 14  1  0  0  0  0
 13 15  1  0  0  0  0
 13 32  1  0  0  0  0
 14 33  1  0  0  0  0
 14 34  1  0  0  0  0
 14 35  1  0  0  0  0
 15 16  1  0  0  0  0
 16 17  1  0  0  0  0
 16 18  1  0  0  0  0
 16 36  1  0  0  0  0
 17 37  1  0  0  0  0
 17 38  1  0  0  0  0
 17 39  1  0  0  0  0
 18 40  1  0  0  0  0
 18 41  1  0  0  0  0
 19 20  1  0  0  0  0
M  CHG  1   8  -1
M  CHG  1  11   1
M  END
> <s_m_source_file>
AV-unprocessed.smi

> <i_m_source_file_index>
1381

> <i_lp_mmshare_version>
43012

> <i_f3d_flags>
0

> <s_epik_input>
W0NIM11jMVtjSF1jKG5vMSlbTkhdQyg9TylbTkhdW0NIMl1bQ0gyXU4yW0NIMl1bQ0BASF0oW0NIM10pT1tDQEBIXShbQ0gzXSlbQ0gyXTI=

> <s_epik_cmdline>
J2VwaWtfcHl0aG9uJywgJy1waCcsICc3LjAnLCAnLXRuJywgJzgnLCAnLW1hJywgJzIwMCcsICctbWV0YWxfYmluZGluZycsICctaW1hZScsICc8aW5maWxlLm1hZT4nLCAnLW9tYWUnLCAnPG91dGZpbGUubWFlPic=

> <r_epik_Ionization_Penalty>
6.8073

> <r_epik_Ionization_Penalty_Charging>
6.80729

> <r_epik_Ionization_Penalty_Neutral>
5.65391e-06

> <r_epik_State_Penalty>
7.47323

> <r_epik_Charging_Adjusted_Penalty>
14.2805

> <i_epik_Tot_Q>
0

> <i_epik_Tot_abs_Q>
2

> <r_epik_Metal_State_Penalty>
3.40035

> <b_epik_Metal_Only>
1

> <s_lp_Force_Field>
OPLS_2005

> <r_lp_Energy>
13.1386

> <b_lp_Chiralities_Consistent>
1

> <s_lp_Variant>
AV-unprocessed.smi:1381-18

> <Gold.Version>
5.8.1

> <Gold.Id.Protein>
6NUR|6NUR_protein|mol2

> <Gold.PLP.Fitness>
42.6927

> <Gold.PLP.PLP>
-34.7448

> <Gold.PLP.part.hbond>
-2.6853

> <Gold.PLP.part.metal>
0.0000

> <Gold.PLP.part.buried>
-4.8336

> <Gold.PLP.part.nonpolar>
-26.4596

> <Gold.PLP.part.repulsive>
0.3443

> <Gold.PLP.ligand.clash>
0.0000

> <Gold.PLP.ligand.torsion>
0.5450

> <Gold.PLP.Chemscore.Hbond>
3.0000

> <Gold.PLP.Chemscore.CHOScore>
0.0000

> <Gold.PLP.Chemscore.Metal>
0.0000

> <Gold.Chemscore.Hbonds>
donor molecule, donor type, donor heavy atom, donor atom, acceptor molecule, acceptor atom, score
      L1  H     5    25       P1 10747  1.00
      L1  H    11    42       P1  7948  2.00

> <Gold.PLP.Chemscore.Internal.Correction>
0.0379

> <Gold.Rescore>
     Score         DG    S(hbond)    S(metal)    S(lipo)     H(rot)  DE(clash)    DE(int)     intcor
     13.74     -15.60       1.52        0.00      77.62       1.58       0.02       1.83       ----

> <Gold.Chemscore.Fitness>
13.7406

> <Gold.Chemscore.DG>
-15.5963

> <Gold.Chemscore.ZeroCoef>
-5.4800

> <Gold.Chemscore.Hbond>
1.5201

> <Gold.Chemscore.Metal>
0.0000

> <Gold.Chemscore.Lipo>
77.6241

> <Gold.Chemscore.Internal_Hbond>
0.0000

> <Gold.Chemscore.DEClash>
0.0222

> <Gold.Chemscore.DEInternal>
1.8335

> <Gold.Chemscore.Rot>
1.5792

> <Gold.Chemscore.Internal.Correction>
   9.000000E+99

> <Gold.Chemscore.Hbonds>
donor molecule, donor type, donor heavy atom, donor atom, acceptor molecule, acceptor atom, score
      L1  H     5    25       P1 10747  0.30
      L1  H    11    42       P1  7948  0.85

> <Gold.Chemscore.Hbond.Weighted>
-5.0771

> <Gold.Chemscore.Metal.Weighted>
-0.0000

> <Gold.Chemscore.Lipo.Weighted>
-9.0820

> <Gold.Chemscore.Internal_Hbond.Weighted>
0.0000

> <Gold.Chemscore.DEClash.Weighted>
0.0222

> <Gold.Chemscore.DEInternal.Weighted>
1.8335

> <Gold.Chemscore.Rot.Weighted>
4.0428

> <Gold.Chemscore.Internal.Correction.Weighted>
   9.000000E+99

> <Gold.Protein.RotatedTorsions>
[ 6907 6896 6895 6894 ] final   29.60 input  -60.11 | X-H torsion
[ 7974 7965 7964 7962 ] final  -86.70 input  175.53 | X-H torsion
[ 8008 7997 7996 7995 ] final -164.33 input   59.86 | X-H torsion
[ 10167 10162 10161 10158 ] final -130.82 input  -65.29 | X-H torsion
[ 10718 10713 10712 10709 ] final  -79.66 input   66.30 | X-H torsion
[ 10763 10752 10751 10750 ] final   27.24 input  -60.55 | X-H torsion
[ 11005 11000 10999 10996 ] final   58.60 input  -57.11 | X-H torsion

> <Gold.Protein.ActiveResidues>
 VAL166  LYS551  ARG553  GLY616  TRP617  ASP618  TYR619  PRO620  LYS621  CYS622 
 ASP623  PHE694  ASN695  SER759  ASP760  ASP761  ALA762  ILE779  LEU786  VAL792 
 PHE793  MET794  SER795  GLU796  ALA797  LYS798  CYS799  TRP800  GLU811  SER814 

> <Gold.Protein.RotatedAtoms>
  152.0338  134.9752  160.0572 H   0  0  0  0  0  0  0  0  0  0  0  0  # atno 6907 bound_to 6896
  152.1217  133.4352  159.4687 H   0  0  0  0  0  0  0  0  0  0  0  0  # atno 6908 bound_to 6896
  150.6849  134.2445  159.4529 H   0  0  0  0  0  0  0  0  0  0  0  0  # atno 6909 bound_to 6896
  145.4763  140.9558  143.1889 H   0  0  0  0  0  0  0  0  0  0  0  0  # atno 7974 bound_to 7965
  155.8341  140.0938  157.1774 H   0  0  0  0  0  0  0  0  0  0  0  0  # atno 8008 bound_to 7997
  154.3980  140.1413  156.3710 H   0  0  0  0  0  0  0  0  0  0  0  0  # atno 8009 bound_to 7997
  155.8134  140.3449  155.5474 H   0  0  0  0  0  0  0  0  0  0  0  0  # atno 8010 bound_to 7997
  139.9253  143.6335  152.2543 H   0  0  0  0  0  0  0  0  0  0  0  0  # atno 10167 bound_to 10162
  156.0087  130.4552  150.3683 H   0  0  0  0  0  0  0  0  0  0  0  0  # atno 10718 bound_to 10713
  153.0569  135.6541  154.0557 H   0  0  0  0  0  0  0  0  0  0  0  0  # atno 10763 bound_to 10752
  154.0233  135.2918  155.3379 H   0  0  0  0  0  0  0  0  0  0  0  0  # atno 10764 bound_to 10752
  154.6888  135.5291  153.8431 H   0  0  0  0  0  0  0  0  0  0  0  0  # atno 10765 bound_to 10752
  140.0365  134.5935  155.9437 H   0  0  0  0  0  0  0  0  0  0  0  0  # atno 11005 bound_to 11000
  144.7915  139.6319  143.7111 LP  0  0  0  0  0  0  0  0  0  0  0  0  # atno 17320 bound_to 7965
  146.2367  139.5919  142.9519 LP  0  0  0  0  0  0  0  0  0  0  0  0  # atno 17321 bound_to 7965
  139.6827  144.7654  151.1579 LP  0  0  0  0  0  0  0  0  0  0  0  0  # atno 17342 bound_to 10162
  140.7652  143.5701  150.9005 LP  0  0  0  0  0  0  0  0  0  0  0  0  # atno 17343 bound_to 10162
  157.1768  131.0382  151.2768 LP  0  0  0  0  0  0  0  0  0  0  0  0  # atno 17370 bound_to 10713
  157.4181  130.7422  149.6891 LP  0  0  0  0  0  0  0  0  0  0  0  0  # atno 17371 bound_to 10713
  141.1860  133.6556  156.5222 LP  0  0  0  0  0  0  0  0  0  0  0  0  # atno 17394 bound_to 11000
  140.4138  134.7248  157.4851 LP  0  0  0  0  0  0  0  0  0  0  0  0  # atno 17395 bound_to 11000

$$$$
