#       Name:                AV-unprocessed.smi:326
#       Creating user name   scv26
#       Creation time:       Thu Mar 26 22:25:39 2020


#       File generated by GOLD software.
#

@<TRIPOS>MOLECULE
AV-unprocessed.smi:326
    51    52     1
SMALL
NO_CHARGES


@<TRIPOS>ATOM
      1 ****        -2.2135   3.3595  -2.4397 C.3            1 S1                 0.0000
      2 ****        -1.7999   2.0182  -2.2491 O.3            1 S1                 0.0000
      3 ****        -2.1675   1.1766  -3.3304 C.3            1 S1                 0.0000
      4 ****        -1.6739  -0.2529  -3.0558 C.3            1 S1                 0.0000
      5 ****        -0.2092  -0.3348  -3.0641 N.am           1 S1                 0.0000
      6 ****         0.3646  -0.2579  -1.8066 N.2            1 S1                 0.0000
      7 ****         1.6504  -0.3132  -1.6732 C.2            1 S1                 0.0000
      8 ****         2.3034  -0.2346  -0.3378 C.2            1 S1                 0.0000
      9 ****         3.5202  -0.3688  -0.1980 O.2            1 S1                 0.0000
     10 ****         1.4679  -0.0178   0.6934 N.am           1 S1                 0.0000
     11 ****         1.8447   0.0496   2.1033 C.3            1 S1                 0.0000
     12 ****         1.8609  -1.3572   2.7358 C.3            1 S1                 0.0000
     13 ****         0.4467  -1.9520   2.8637 C.3            1 S1                 0.0000
     14 ****        -0.4962  -1.0154   3.6437 C.3            1 S1                 0.0000
     15 ****        -1.9066  -1.6094   3.7637 C.3            1 S1                 0.0000
     16 ****        -0.5287   0.3812   2.9941 C.3            1 S1                 0.0000
     17 ****         0.8832   0.9808   2.8657 C.3            1 S1                 0.0000
     18 ****         2.5131  -0.4598  -2.8333 C.2            1 S1                 0.0000
     19 ****         1.9392  -0.5265  -4.0546 C.2            1 S1                 0.0000
     20 ****         0.4879  -0.4582  -4.2336 C.2            1 S1                 0.0000
     21 ****        -0.0575  -0.5049  -5.3359 O.2            1 S1                 0.0000
     22 ****        -1.9078   3.9617  -1.5840 H              1 S1                 0.0000
     23 ****        -3.2983   3.4284  -2.5302 H              1 S1                 0.0000
     24 ****        -1.7591   3.7895  -3.3334 H              1 S1                 0.0000
     25 ****        -3.2534   1.1723  -3.4340 H              1 S1                 0.0000
     26 ****        -1.7546   1.5538  -4.2675 H              1 S1                 0.0000
     27 ****        -2.0680  -0.5987  -2.0983 H              1 S1                 0.0000
     28 ****        -2.0895  -0.9343  -3.8000 H              1 S1                 0.0000
     29 ****         0.4852   0.0851   0.4841 H              1 S1                 0.0000
     30 ****         2.8468   0.4762   2.1747 H              1 S1                 0.0000
     31 ****         2.4968  -2.0273   2.1559 H              1 S1                 0.0000
     32 ****         2.3120  -1.2972   3.7270 H              1 S1                 0.0000
     33 ****         0.0387  -2.1437   1.8702 H              1 S1                 0.0000
     34 ****         0.5046  -2.9205   3.3617 H              1 S1                 0.0000
     35 ****        -0.0994  -0.9063   4.6542 H              1 S1                 0.0000
     36 ****        -2.3649  -1.7444   2.7836 H              1 S1                 0.0000
     37 ****        -2.5574  -0.9591   4.3488 H              1 S1                 0.0000
     38 ****        -1.8830  -2.5813   4.2574 H              1 S1                 0.0000
     39 ****        -0.9930   0.3197   2.0088 H              1 S1                 0.0000
     40 ****        -1.1545   1.0511   3.5846 H              1 S1                 0.0000
     41 ****         1.2821   1.1653   3.8639 H              1 S1                 0.0000
     42 ****         0.8327   1.9541   2.3758 H              1 S1                 0.0000
     43 ****         3.5874  -0.5120  -2.7301 H              1 S1                 0.0000
     44 ****         2.5684  -0.6332  -4.9260 H              1 S1                 0.0000
     45 ****        -2.2220   1.6683  -1.4127 LP             1 S1                 0.0000
     46 ****        -0.8047   2.0002  -2.1529 LP             1 S1                 0.0000
     47 ****        -0.2165  -0.1593  -0.9987 LP             1 S1                 0.0000
     48 ****         4.0997  -0.5360  -0.9956 LP             1 S1                 0.0000
     49 ****         3.9282  -0.3106   0.7131 LP             1 S1                 0.0000
     50 ****        -1.0538  -0.4521  -5.4034 LP             1 S1                 0.0000
     51 ****         0.4956  -0.5958  -6.1640 LP             1 S1                 0.0000
@<TRIPOS>BOND
    1    1    2 1     
    2    1   22 1     
    3    1   23 1     
    4    1   24 1     
    5    2    3 1     
    6    3    4 1     
    7    3   25 1     
    8    3   26 1     
    9    4    5 1     
   10    4   27 1     
   11    4   28 1     
   12    5   20 am    
   13    5    6 1     
   14    6    7 2     
   15    7    8 1     
   16    7   18 1     
   17    8    9 2     
   18    8   10 am    
   19   10   11 1     
   20   10   29 1     
   21   11   17 1     
   22   11   12 1     
   23   11   30 1     
   24   12   13 1     
   25   12   31 1     
   26   12   32 1     
   27   13   14 1     
   28   13   33 1     
   29   13   34 1     
   30   14   15 1     
   31   14   16 1     
   32   14   35 1     
   33   15   36 1     
   34   15   37 1     
   35   15   38 1     
   36   16   17 1     
   37   16   39 1     
   38   16   40 1     
   39   17   41 1     
   40   17   42 1     
   41   18   19 2     
   42   18   43 1     
   43   19   20 1     
   44   19   44 1     
   45   20   21 2     
   46    2   45 1     
   47    2   46 1     
   48    6   47 1     
   49    9   48 1     
   50    9   49 1     
   51   21   50 1     
   52   21   51 1     
@<TRIPOS>SUBSTRUCTURE
      1 S1             1
@<TRIPOS>SET
LONE_PAIRS      STATIC     ATOMS    <user>   **** ""
7 45 46 47 48 49 50 51
DONOR_HYDROGENS      STATIC     ATOMS    <user>   **** ""
1 29
ATOM$BLUE        STATIC     ATOMS    COLORGROUP SYSTEM
7 45 46 47 48 49 50 51
ATOM$RED        STATIC     ATOMS    COLORGROUP SYSTEM
1 29
