AV-unprocessed.smi:1116|AV-procd|sdf|4809|dock9
  -GOLD-   22720 3363D 1   1.00000     0.00000
 Structure written by MMmdl.
 35 36  0  0  0  0  0  0  0  0  2 V2000
  153.4462  142.5427  160.4188 C   0  0  0  0  0  0  0  0  0  0  0  0
  152.6695  143.0424  159.2491 C   0  0  0  0  0  0  0  0  0  0  0  0
  152.0737  142.2430  158.3602 N   0  0  0  0  0  0  0  0  0  0  0  0
  151.4114  142.9549  157.3550 C   0  0  0  0  0  0  0  0  0  0  0  0
  150.6946  142.2207  156.2632 C   0  0  0  0  0  0  0  0  0  0  0  0
  150.0622  140.9113  156.7643 C   0  0  0  0  0  0  0  0  0  0  0  0
  151.0719  139.9031  157.0632 N   0  0  0  0  0  0  0  0  0  0  0  0
  151.8232  139.2655  156.1526 C   0  0  0  0  0  0  0  0  0  0  0  0
  151.7307  139.4618  154.9405 O   0  0  0  0  0  0  0  0  0  0  0  0
  152.8280  138.2475  156.6942 C   0  0  0  0  0  0  0  0  0  0  0  0
  152.4906  137.8025  158.1294 C   0  0  0  0  0  0  0  0  0  0  0  0
  153.7030  137.1999  158.8695 C   0  0  2  0  0  0  0  0  0  0  0  0
  153.3225  136.6723  160.1687 N   0  5  0  0  0  0  0  0  0  0  0  0
  154.0507  137.3044  161.1190 C   0  0  0  0  0  0  0  0  0  0  0  0
  154.0190  137.1238  162.3342 O   0  0  0  0  0  0  0  0  0  0  0  0
  154.8631  138.2117  160.5671 N   0  0  0  0  0  0  0  0  0  0  0  0
  154.7324  138.2489  159.2450 C   0  0  0  0  0  0  0  0  0  0  0  0
  155.3244  138.9835  158.4555 O   0  0  0  0  0  0  0  0  0  0  0  0
  151.5113  144.3162  157.5006 C   0  0  0  0  0  0  0  0  0  0  0  0
  152.4468  144.7530  158.9038 S   0  0  0  0  0  0  0  0  0  0  0  0
  153.5372  141.4565  160.3853 H   0  0  0  0  0  0  0  0  0  0  0  0
  152.9449  142.8232  161.3453 H   0  0  0  0  0  0  0  0  0  0  0  0
  154.4459  142.9772  160.4156 H   0  0  0  0  0  0  0  0  0  0  0  0
  149.9247  142.8618  155.8322 H   0  0  0  0  0  0  0  0  0  0  0  0
  151.3873  142.0000  155.4499 H   0  0  0  0  0  0  0  0  0  0  0  0
  149.4979  141.0996  157.6782 H   0  0  0  0  0  0  0  0  0  0  0  0
  149.3511  140.5226  156.0335 H   0  0  0  0  0  0  0  0  0  0  0  0
  151.2183  139.6772  158.0367 H   0  0  0  0  0  0  0  0  0  0  0  0
  152.8597  137.3811  156.0321 H   0  0  0  0  0  0  0  0  0  0  0  0
  153.8228  138.6932  156.6672 H   0  0  0  0  0  0  0  0  0  0  0  0
  152.1222  138.6652  158.6873 H   0  0  0  0  0  0  0  0  0  0  0  0
  151.6692  137.0833  158.1123 H   0  0  0  0  0  0  0  0  0  0  0  0
  154.1902  136.4525  158.2418 H   0  0  0  0  0  0  0  0  0  0  0  0
  155.4904  138.8022  161.0925 H   0  0  0  0  0  0  0  0  0  0  0  0
  151.0947  145.0852  156.8670 H   0  0  0  0  0  0  0  0  0  0  0  0
  1  2  1  0  0  0  0
  1 21  1  0  0  0  0
  1 22  1  0  0  0  0
  1 23  1  0  0  0  0
  2 20  1  0  0  0  0
  2  3  2  0  0  0  0
  3  4  1  0  0  0  0
  4  5  1  0  0  0  0
  4 19  2  0  0  0  0
  5  6  1  0  0  0  0
  5 24  1  0  0  0  0
  5 25  1  0  0  0  0
  6  7  1  0  0  0  0
  6 26  1  0  0  0  0
  6 27  1  0  0  0  0
  7  8  1  0  0  0  0
  7 28  1  0  0  0  0
  8  9  2  0  0  0  0
  8 10  1  0  0  0  0
 10 11  1  0  0  0  0
 10 29  1  0  0  0  0
 10 30  1  0  0  0  0
 11 12  1  0  0  0  0
 11 31  1  0  0  0  0
 11 32  1  0  0  0  0
 12 17  1  0  0  0  0
 12 13  1  0  0  0  0
 12 33  1  0  0  0  0
 13 14  1  0  0  0  0
 14 15  2  0  0  0  0
 14 16  1  0  0  0  0
 16 17  1  0  0  0  0
 16 34  1  0  0  0  0
 17 18  2  0  0  0  0
 19 20  1  0  0  0  0
 19 35  1  0  0  0  0
M  CHG  1  13  -1
M  END
> <s_m_source_file>
AV-unprocessed.smi

> <i_m_source_file_index>
1116

> <i_lp_mmshare_version>
43012

> <i_f3d_flags>
0

> <s_epik_input>
W0NIM11jMW5jKFtjSF1zMSlbQ0gyXVtDSDJdW05IXUMoPU8pW0NIMl1bQ0gyXVtDQEBIXTJbTkhdQyg9TylbTkhdQzI9Tw==

> <s_epik_cmdline>
J2VwaWtfcHl0aG9uJywgJy1waCcsICc3LjAnLCAnLXRuJywgJzgnLCAnLW1hJywgJzIwMCcsICctbWV0YWxfYmluZGluZycsICctaW1hZScsICc8aW5maWxlLm1hZT4nLCAnLW9tYWUnLCAnPG91dGZpbGUubWFlPic=

> <r_lp_tautomer_probability>
1

> <r_epik_Ionization_Penalty>
5.7962

> <r_epik_Ionization_Penalty_Charging>
5.79516

> <r_epik_Ionization_Penalty_Neutral>
0.00104588

> <r_epik_State_Penalty>
5.80096

> <r_epik_Charging_Adjusted_Penalty>
11.5961

> <i_epik_Tot_Q>
-1

> <i_epik_Tot_abs_Q>
1

> <r_epik_Metal_State_Penalty>
2.1448

> <b_epik_Metal_Only>
1

> <s_lp_Force_Field>
OPLS_2005

> <r_lp_Energy>
4.59195

> <b_lp_Chiralities_Consistent>
1

> <s_lp_Variant>
AV-unprocessed.smi:1116-3

> <Gold.Version>
5.8.1

> <Gold.Id.Protein>
6NUR|6NUR_protein|mol2

> <Gold.PLP.Fitness>
48.1559

> <Gold.PLP.PLP>
-35.3031

> <Gold.PLP.part.hbond>
-2.9862

> <Gold.PLP.part.metal>
0.0000

> <Gold.PLP.part.buried>
-3.9005

> <Gold.PLP.part.nonpolar>
-29.0242

> <Gold.PLP.part.repulsive>
0.0895

> <Gold.PLP.ligand.clash>
0.0014

> <Gold.PLP.ligand.torsion>
0.8303

> <Gold.PLP.Chemscore.Hbond>
3.9760

> <Gold.PLP.Chemscore.CHOScore>
0.8393

> <Gold.PLP.Chemscore.Metal>
0.0000

> <Gold.Chemscore.Hbonds>
donor molecule, donor type, donor heavy atom, donor atom, acceptor molecule, acceptor atom, score
      P1  H  6896  6907       L1    13  1.85
      P1  H  7989  7998       L1     9  1.00
      P1  H  7997  8008       L1    18  0.91
      L1  C    19    35       P1  8028  0.84

> <Gold.PLP.Chemscore.Internal.Correction>
0.0690

> <Gold.Rescore>
     Score         DG    S(hbond)    S(metal)    S(lipo)     H(rot)  DE(clash)    DE(int)     intcor
     17.58     -18.44       2.96        0.00      87.00       2.77       0.05       0.81       ----

> <Gold.Chemscore.Fitness>
17.5843

> <Gold.Chemscore.DG>
-18.4411

> <Gold.Chemscore.ZeroCoef>
-5.4800

> <Gold.Chemscore.Hbond>
2.9554

> <Gold.Chemscore.Metal>
0.0000

> <Gold.Chemscore.Lipo>
87.0001

> <Gold.Chemscore.Internal_Hbond>
0.0000

> <Gold.Chemscore.DEClash>
0.0460

> <Gold.Chemscore.DEInternal>
0.8108

> <Gold.Chemscore.Rot>
2.7691

> <Gold.Chemscore.Internal.Correction>
   9.000000E+99

> <Gold.Chemscore.Hbonds>
donor molecule, donor type, donor heavy atom, donor atom, acceptor molecule, acceptor atom, score
      P1  H  6896  6907       L1    13  0.78
      P1  H  7989  7998       L1     9  0.93
      P1  H  7997  8008       L1    18  0.89

> <Gold.Chemscore.Hbond.Weighted>
-9.8710

> <Gold.Chemscore.Metal.Weighted>
-0.0000

> <Gold.Chemscore.Lipo.Weighted>
-10.1790

> <Gold.Chemscore.Internal_Hbond.Weighted>
0.0000

> <Gold.Chemscore.DEClash.Weighted>
0.0460

> <Gold.Chemscore.DEInternal.Weighted>
0.8108

> <Gold.Chemscore.Rot.Weighted>
7.0889

> <Gold.Chemscore.Internal.Correction.Weighted>
   9.000000E+99

> <Gold.Protein.RotatedTorsions>
[ 6907 6896 6895 6894 ] final   34.58 input  -60.11 | X-H torsion
[ 7974 7965 7964 7962 ] final -174.00 input  175.53 | X-H torsion
[ 8008 7997 7996 7995 ] final -132.54 input   59.86 | X-H torsion
[ 10167 10162 10161 10158 ] final  -45.27 input  -65.29 | X-H torsion
[ 10718 10713 10712 10709 ] final -106.41 input   66.30 | X-H torsion
[ 10763 10752 10751 10750 ] final   28.30 input  -60.55 | X-H torsion
[ 11005 11000 10999 10996 ] final   85.09 input  -57.11 | X-H torsion

> <Gold.Protein.ActiveResidues>
 VAL166  LYS551  ARG553  GLY616  TRP617  ASP618  TYR619  PRO620  LYS621  CYS622 
 ASP623  PHE694  ASN695  SER759  ASP760  ASP761  ALA762  ILE779  LEU786  VAL792 
 PHE793  MET794  SER795  GLU796  ALA797  LYS798  CYS799  TRP800  GLU811  SER814 

> <Gold.Protein.RotatedAtoms>
  152.1043  134.9319  160.0568 H   0  0  0  0  0  0  0  0  0  0  0  0  # atno 6907 bound_to 6896
  152.0522  133.4019  159.4390 H   0  0  0  0  0  0  0  0  0  0  0  0  # atno 6908 bound_to 6896
  150.6840  134.3216  159.4832 H   0  0  0  0  0  0  0  0  0  0  0  0  # atno 6909 bound_to 6896
  144.7134  140.1538  143.6382 H   0  0  0  0  0  0  0  0  0  0  0  0  # atno 7974 bound_to 7965
  155.3306  140.0467  157.3042 H   0  0  0  0  0  0  0  0  0  0  0  0  # atno 8008 bound_to 7997
  154.5330  140.2263  155.8737 H   0  0  0  0  0  0  0  0  0  0  0  0  # atno 8009 bound_to 7997
  156.1807  140.3074  155.9150 H   0  0  0  0  0  0  0  0  0  0  0  0  # atno 8010 bound_to 7997
  140.6864  143.2888  151.3615 H   0  0  0  0  0  0  0  0  0  0  0  0  # atno 10167 bound_to 10162
  156.0389  130.5611  150.7676 H   0  0  0  0  0  0  0  0  0  0  0  0  # atno 10718 bound_to 10713
  153.0500  135.6516  154.0717 H   0  0  0  0  0  0  0  0  0  0  0  0  # atno 10763 bound_to 10752
  154.0407  135.2903  155.3357 H   0  0  0  0  0  0  0  0  0  0  0  0  # atno 10764 bound_to 10752
  154.6783  135.5330  153.8295 H   0  0  0  0  0  0  0  0  0  0  0  0  # atno 10765 bound_to 10752
  139.8981  134.8262  156.2535 H   0  0  0  0  0  0  0  0  0  0  0  0  # atno 11005 bound_to 11000
  145.9092  139.2477  143.1447 LP  0  0  0  0  0  0  0  0  0  0  0  0  # atno 17320 bound_to 7965
  145.9733  140.8742  143.0151 LP  0  0  0  0  0  0  0  0  0  0  0  0  # atno 17321 bound_to 7965
  139.6227  144.0875  152.2406 LP  0  0  0  0  0  0  0  0  0  0  0  0  # atno 17342 bound_to 10162
  140.0325  144.6070  150.7476 LP  0  0  0  0  0  0  0  0  0  0  0  0  # atno 17343 bound_to 10162
  157.5179  131.0929  151.0116 LP  0  0  0  0  0  0  0  0  0  0  0  0  # atno 17370 bound_to 10713
  157.0455  130.5766  149.5362 LP  0  0  0  0  0  0  0  0  0  0  0  0  # atno 17371 bound_to 10713
  141.0208  133.7042  156.1266 LP  0  0  0  0  0  0  0  0  0  0  0  0  # atno 17394 bound_to 11000
  140.7236  134.4332  157.5572 LP  0  0  0  0  0  0  0  0  0  0  0  0  # atno 17395 bound_to 11000

$$$$
