AV-unprocessed.smi:1665|AV-procd|sdf|6669|dock8
  -GOLD-   22720 7383D 1   1.00000     0.00000
 Structure written by MMmdl.
 37 38  0  0  0  0  0  0  0  0  1 V2000
  150.9427  137.7267  154.1779 C   0  0  0  0  0  0  0  0  0  0  0  0
  149.7559  138.5605  154.6862 C   0  0  2  0  0  0  0  0  0  0  0  0
  149.4585  139.7449  153.7470 C   0  0  0  0  0  0  0  0  0  0  0  0
  148.2311  140.4375  154.0986 N   0  0  0  0  0  0  0  0  0  0  0  0
  148.0655  141.7583  154.4579 C   0  0  0  0  0  0  0  0  0  0  0  0
  146.7351  141.9496  154.6979 C   0  0  0  0  0  0  0  0  0  0  0  0
  146.1604  140.6707  154.4550 C   0  0  0  0  0  0  0  0  0  0  0  0
  147.0576  139.7687  154.0934 N   0  0  0  0  0  0  0  0  0  0  0  0
  150.0230  139.0483  156.0374 N   0  0  0  0  0  0  0  0  0  0  0  0
  150.9343  139.9768  156.3623 C   0  0  0  0  0  0  0  0  0  0  0  0
  151.6133  140.5804  155.5316 O   0  0  0  0  0  0  0  0  0  0  0  0
  151.1174  140.2566  157.8571 C   0  0  0  0  0  0  0  0  0  0  0  0
  152.4507  140.9625  158.1879 C   0  0  0  0  0  0  0  0  0  0  0  0
  152.2875  142.3829  158.5076 N   0  0  0  0  0  0  0  0  0  0  0  0
  151.6039  143.2610  157.5679 C   0  0  0  0  0  0  0  0  0  0  0  0
  151.9007  144.7011  157.9887 C   0  0  0  0  0  0  0  0  0  0  0  0
  152.2624  144.6817  159.7560 S   0  0  0  0  0  0  0  0  0  0  0  0
  152.6497  142.9278  159.7320 C   0  0  0  0  0  0  0  0  0  0  0  0
  153.1558  142.3529  160.6940 O   0  0  0  0  0  0  0  0  0  0  0  0
  150.7463  137.3362  153.1792 H   0  0  0  0  0  0  0  0  0  0  0  0
  151.1375  136.8738  154.8289 H   0  0  0  0  0  0  0  0  0  0  0  0
  151.8546  138.3231  154.1289 H   0  0  0  0  0  0  0  0  0  0  0  0
  148.8729  137.9187  154.7089 H   0  0  0  0  0  0  0  0  0  0  0  0
  150.2856  140.4571  153.7514 H   0  0  0  0  0  0  0  0  0  0  0  0
  149.3594  139.3918  152.7198 H   0  0  0  0  0  0  0  0  0  0  0  0
  148.8986  142.4436  154.5112 H   0  0  0  0  0  0  0  0  0  0  0  0
  146.2454  142.8641  154.9980 H   0  0  0  0  0  0  0  0  0  0  0  0
  145.1239  140.3750  154.5235 H   0  0  0  0  0  0  0  0  0  0  0  0
  149.5139  138.6035  156.7879 H   0  0  0  0  0  0  0  0  0  0  0  0
  150.2858  140.8785  158.1895 H   0  0  0  0  0  0  0  0  0  0  0  0
  151.0415  139.3247  158.4191 H   0  0  0  0  0  0  0  0  0  0  0  0
  152.9407  140.4556  159.0206 H   0  0  0  0  0  0  0  0  0  0  0  0
  153.1332  140.8666  157.3423 H   0  0  0  0  0  0  0  0  0  0  0  0
  151.9203  143.0771  156.5408 H   0  0  0  0  0  0  0  0  0  0  0  0
  150.5331  143.0614  157.6265 H   0  0  0  0  0  0  0  0  0  0  0  0
  152.7885  145.0633  157.4693 H   0  0  0  0  0  0  0  0  0  0  0  0
  151.0788  145.3791  157.7585 H   0  0  0  0  0  0  0  0  0  0  0  0
  1  2  1  0  0  0  0
  1 20  1  0  0  0  0
  1 21  1  0  0  0  0
  1 22  1  0  0  0  0
  2  3  1  0  0  0  0
  2  9  1  0  0  0  0
  2 23  1  0  0  0  0
  3  4  1  0  0  0  0
  3 24  1  0  0  0  0
  3 25  1  0  0  0  0
  4  8  1  0  0  0  0
  4  5  1  0  0  0  0
  5  6  2  0  0  0  0
  5 26  1  0  0  0  0
  6  7  1  0  0  0  0
  6 27  1  0  0  0  0
  7  8  2  0  0  0  0
  7 28  1  0  0  0  0
  9 10  1  0  0  0  0
  9 29  1  0  0  0  0
 10 11  2  0  0  0  0
 10 12  1  0  0  0  0
 12 13  1  0  0  0  0
 12 30  1  0  0  0  0
 12 31  1  0  0  0  0
 13 14  1  0  0  0  0
 13 32  1  0  0  0  0
 13 33  1  0  0  0  0
 14 18  1  0  0  0  0
 14 15  1  0  0  0  0
 15 16  1  0  0  0  0
 15 34  1  0  0  0  0
 15 35  1  0  0  0  0
 16 17  1  0  0  0  0
 16 36  1  0  0  0  0
 16 37  1  0  0  0  0
 17 18  1  0  0  0  0
 18 19  2  0  0  0  0
M  END
> <s_m_source_file>
AV-unprocessed.smi

> <i_m_source_file_index>
1665

> <i_lp_mmshare_version>
43012

> <i_f3d_flags>
0

> <s_epik_input>
bjFbY0hdW2NIXVtjSF1uMVtDSDJdW0NAQEhdKFtDSDNdKVtOSF1DKD1PKVtDSDJdW0NIMl1OMltDSDJdW0NIMl1TQzI9Tw==

> <s_epik_cmdline>
J2VwaWtfcHl0aG9uJywgJy1waCcsICc3LjAnLCAnLXRuJywgJzgnLCAnLW1hJywgJzIwMCcsICctbWV0YWxfYmluZGluZycsICctaW1hZScsICc8aW5maWxlLm1hZT4nLCAnLW9tYWUnLCAnPG91dGZpbGUubWFlPic=

> <r_lp_tautomer_probability>
1

> <r_epik_Ionization_Penalty>
0.000300775

> <r_epik_Ionization_Penalty_Charging>
0

> <r_epik_Ionization_Penalty_Neutral>
0.000300775

> <r_epik_State_Penalty>
-0

> <r_epik_Charging_Adjusted_Penalty>
0

> <i_epik_Tot_Q>
0

> <i_epik_Tot_abs_Q>
0

> <r_epik_Metal_State_Penalty>
-0

> <b_epik_Metal_Only>
0

> <s_lp_Force_Field>
OPLS_2005

> <r_lp_Energy>
0.465271

> <b_lp_Chiralities_Consistent>
1

> <s_lp_Variant>
AV-unprocessed.smi:1665-1

> <Gold.Version>
5.8.1

> <Gold.Id.Protein>
6NUR|6NUR_protein|mol2

> <Gold.PLP.Fitness>
43.4627

> <Gold.PLP.PLP>
-37.6104

> <Gold.PLP.part.hbond>
-1.0000

> <Gold.PLP.part.metal>
0.0000

> <Gold.PLP.part.buried>
1.8125

> <Gold.PLP.part.nonpolar>
-37.0291

> <Gold.PLP.part.repulsive>
0.1778

> <Gold.PLP.ligand.clash>
0.0000

> <Gold.PLP.ligand.torsion>
0.6751

> <Gold.PLP.Chemscore.Hbond>
0.5967

> <Gold.PLP.Chemscore.CHOScore>
1.7753

> <Gold.PLP.Chemscore.Metal>
0.0000

> <Gold.Chemscore.Hbonds>
donor molecule, donor type, donor heavy atom, donor atom, acceptor molecule, acceptor atom, score
      P1  H  7989  7998       L1    11  0.73
      L1  C     5    26       P1  8028  0.91
      L1  C     7    28       P1 10175  0.79

> <Gold.PLP.Chemscore.Internal.Correction>
0.0866

> <Gold.Rescore>
     Score         DG    S(hbond)    S(metal)    S(lipo)     H(rot)  DE(clash)    DE(int)     intcor
      9.16     -12.44       0.71        0.00      87.45       2.20       1.55       1.73       ----

> <Gold.Chemscore.Fitness>
9.1636

> <Gold.Chemscore.DG>
-12.4382

> <Gold.Chemscore.ZeroCoef>
-5.4800

> <Gold.Chemscore.Hbond>
0.7083

> <Gold.Chemscore.Metal>
0.0000

> <Gold.Chemscore.Lipo>
87.4459

> <Gold.Chemscore.Internal_Hbond>
0.0000

> <Gold.Chemscore.DEClash>
1.5480

> <Gold.Chemscore.DEInternal>
1.7266

> <Gold.Chemscore.Rot>
2.2026

> <Gold.Chemscore.Internal.Correction>
   9.000000E+99

> <Gold.Chemscore.Hbonds>
donor molecule, donor type, donor heavy atom, donor atom, acceptor molecule, acceptor atom, score
      P1  H  7989  7998       L1    11  0.67

> <Gold.Chemscore.Hbond.Weighted>
-2.3658

> <Gold.Chemscore.Metal.Weighted>
-0.0000

> <Gold.Chemscore.Lipo.Weighted>
-10.2312

> <Gold.Chemscore.Internal_Hbond.Weighted>
0.0000

> <Gold.Chemscore.DEClash.Weighted>
1.5480

> <Gold.Chemscore.DEInternal.Weighted>
1.7266

> <Gold.Chemscore.Rot.Weighted>
5.6387

> <Gold.Chemscore.Internal.Correction.Weighted>
   9.000000E+99

> <Gold.Protein.RotatedTorsions>
[ 6907 6896 6895 6894 ] final -151.18 input  -60.11 | X-H torsion
[ 7974 7965 7964 7962 ] final  -32.37 input  175.53 | X-H torsion
[ 8008 7997 7996 7995 ] final  -51.72 input   59.86 | X-H torsion
[ 10167 10162 10161 10158 ] final   94.72 input  -65.29 | X-H torsion
[ 10718 10713 10712 10709 ] final -131.57 input   66.30 | X-H torsion
[ 10763 10752 10751 10750 ] final -148.82 input  -60.55 | X-H torsion
[ 11005 11000 10999 10996 ] final -118.65 input  -57.11 | X-H torsion

> <Gold.Protein.ActiveResidues>
 VAL166  LYS551  ARG553  GLY616  TRP617  ASP618  TYR619  PRO620  LYS621  CYS622 
 ASP623  PHE694  ASN695  SER759  ASP760  ASP761  ALA762  ILE779  LEU786  VAL792 
 PHE793  MET794  SER795  GLU796  ALA797  LYS798  CYS799  TRP800  GLU811  SER814 

> <Gold.Protein.RotatedAtoms>
  151.2093  133.4565  159.2597 H   0  0  0  0  0  0  0  0  0  0  0  0  # atno 6907 bound_to 6896
  151.0992  134.9962  159.8450 H   0  0  0  0  0  0  0  0  0  0  0  0  # atno 6908 bound_to 6896
  152.5442  134.2021  159.8769 H   0  0  0  0  0  0  0  0  0  0  0  0  # atno 6909 bound_to 6896
  146.0995  140.5783  142.8827 H   0  0  0  0  0  0  0  0  0  0  0  0  # atno 7974 bound_to 7965
  154.4089  140.1241  156.4875 H   0  0  0  0  0  0  0  0  0  0  0  0  # atno 8008 bound_to 7997
  155.7023  140.3494  155.4919 H   0  0  0  0  0  0  0  0  0  0  0  0  # atno 8009 bound_to 7997
  155.9374  140.1081  157.1073 H   0  0  0  0  0  0  0  0  0  0  0  0  # atno 8010 bound_to 7997
  139.8056  144.6795  150.9707 H   0  0  0  0  0  0  0  0  0  0  0  0  # atno 10167 bound_to 10162
  156.2257  130.7006  151.0804 H   0  0  0  0  0  0  0  0  0  0  0  0  # atno 10718 bound_to 10713
  154.8212  135.3324  154.7034 H   0  0  0  0  0  0  0  0  0  0  0  0  # atno 10763 bound_to 10752
  153.7666  135.6928  153.4919 H   0  0  0  0  0  0  0  0  0  0  0  0  # atno 10764 bound_to 10752
  153.2073  135.4494  155.0287 H   0  0  0  0  0  0  0  0  0  0  0  0  # atno 10765 bound_to 10752
  141.0271  134.0038  157.3199 H   0  0  0  0  0  0  0  0  0  0  0  0  # atno 11005 bound_to 11000
  144.7422  140.4972  143.6861 LP  0  0  0  0  0  0  0  0  0  0  0  0  # atno 17320 bound_to 7965
  145.5882  139.1493  143.3197 LP  0  0  0  0  0  0  0  0  0  0  0  0  # atno 17321 bound_to 7965
  140.7819  143.4237  151.0802 LP  0  0  0  0  0  0  0  0  0  0  0  0  # atno 17342 bound_to 10162
  139.7906  143.8224  152.3151 LP  0  0  0  0  0  0  0  0  0  0  0  0  # atno 17343 bound_to 10162
  157.7109  131.0734  150.6503 LP  0  0  0  0  0  0  0  0  0  0  0  0  # atno 17370 bound_to 10713
  156.6568  130.4501  149.5701 LP  0  0  0  0  0  0  0  0  0  0  0  0  # atno 17371 bound_to 10713
  139.9183  135.0199  156.7966 LP  0  0  0  0  0  0  0  0  0  0  0  0  # atno 17394 bound_to 11000
  140.6473  133.9764  155.7737 LP  0  0  0  0  0  0  0  0  0  0  0  0  # atno 17395 bound_to 11000

$$$$
