AV-unprocessed.smi:107|AV-procd|sdf|1022|dock6
  -GOLD-   2262018 23D 1   1.00000     0.00000
 Structure written by MMmdl.
 30 31  0  0  0  0  0  0  0  0  2 V2000
  150.8462  142.9414  158.8594 C   0  0  0  0  0  0  0  0  0  0  0  0
  151.0654  141.9517  157.7286 C   0  0  0  0  0  0  0  0  0  0  0  0
  150.2842  141.9321  156.6256 C   0  0  0  0  0  0  0  0  0  0  0  0
  150.4875  141.0261  155.5996 N   0  0  0  0  0  0  0  0  0  0  0  0
  149.5821  141.0145  154.3917 C   0  0  1  0  0  0  0  0  0  0  0  0
  148.6975  139.7744  154.3820 C   0  0  0  0  0  0  0  0  0  0  0  0
  147.4552  140.2739  153.6540 C   0  0  1  0  0  0  0  0  0  0  0  0
  146.2895  139.8254  154.3210 O   0  0  0  0  0  0  0  0  0  0  0  0
  147.6125  141.8139  153.5989 C   0  0  1  0  0  0  0  0  0  0  0  0
  146.3888  142.6405  154.0374 C   0  0  0  0  0  0  0  0  0  0  0  0
  146.0486  142.3349  155.3732 O   0  0  0  0  0  0  0  0  0  0  0  0
  148.7095  142.0923  154.4607 O   0  0  0  0  0  0  0  0  0  0  0  0
  151.5214  140.0608  155.7081 C   0  0  0  0  0  0  0  0  0  0  0  0
  151.6474  139.2404  154.7986 O   0  0  0  0  0  0  0  0  0  0  0  0
  152.3206  140.0788  156.8129 N   0  5  0  0  0  0  0  0  0  0  0  0
  152.1555  140.9734  157.8296 C   0  0  0  0  0  0  0  0  0  0  0  0
  152.8864  140.9799  158.8200 O   0  0  0  0  0  0  0  0  0  0  0  0
  150.0036  143.6012  158.6516 H   0  0  0  0  0  0  0  0  0  0  0  0
  151.7327  143.5600  159.0014 H   0  0  0  0  0  0  0  0  0  0  0  0
  150.6403  142.4140  159.7913 H   0  0  0  0  0  0  0  0  0  0  0  0
  149.4740  142.6421  156.5504 H   0  0  0  0  0  0  0  0  0  0  0  0
  150.2090  141.1207  153.5043 H   0  0  0  0  0  0  0  0  0  0  0  0
  149.1976  138.9414  153.8873 H   0  0  0  0  0  0  0  0  0  0  0  0
  148.4671  139.4918  155.4110 H   0  0  0  0  0  0  0  0  0  0  0  0
  147.4335  139.8780  152.6379 H   0  0  0  0  0  0  0  0  0  0  0  0
  146.5481  139.3900  155.1186 H   0  0  0  0  0  0  0  0  0  0  0  0
  147.9015  142.0859  152.5817 H   0  0  0  0  0  0  0  0  0  0  0  0
  146.6153  143.7065  154.0077 H   0  0  0  0  0  0  0  0  0  0  0  0
  145.5375  142.4665  153.3783 H   0  0  0  0  0  0  0  0  0  0  0  0
  145.3022  141.7553  155.3679 H   0  0  0  0  0  0  0  0  0  0  0  0
  1  2  1  0  0  0  0
  1 18  1  0  0  0  0
  1 19  1  0  0  0  0
  1 20  1  0  0  0  0
  2 16  1  0  0  0  0
  2  3  2  0  0  0  0
  3  4  1  0  0  0  0
  3 21  1  0  0  0  0
  4  5  1  0  0  0  0
  4 13  1  0  0  0  0
  5 12  1  0  0  0  0
  5  6  1  0  0  0  0
  5 22  1  0  0  0  0
  6  7  1  0  0  0  0
  6 23  1  0  0  0  0
  6 24  1  0  0  0  0
  7  8  1  0  0  0  0
  7  9  1  0  0  0  0
  7 25  1  0  0  0  0
  8 26  1  0  0  0  0
  9 10  1  0  0  0  0
  9 12  1  0  0  0  0
  9 27  1  0  0  0  0
 10 11  1  0  0  0  0
 10 28  1  0  0  0  0
 10 29  1  0  0  0  0
 11 30  1  0  0  0  0
 13 14  2  0  0  0  0
 13 15  1  0  0  0  0
 15 16  1  0  0  0  0
 16 17  2  0  0  0  0
M  CHG  1  15  -1
M  END
> <s_m_source_file>
AV-unprocessed.smi

> <i_m_source_file_index>
107

> <i_lp_mmshare_version>
43012

> <i_f3d_flags>
0

> <s_epik_input>
Tz1jMVtuSF1jKD1PKW4oW2NIXWMxW0NIM10pW0NAQEhdMltDSDJdW0NAQEhdKFtPSF0pW0NASF0oTzIpW0NIMl1bT0hd

> <s_epik_cmdline>
J2VwaWtfcHl0aG9uJywgJy1waCcsICc3LjAnLCAnLXRuJywgJzgnLCAnLW1hJywgJzIwMCcsICctbWV0YWxfYmluZGluZycsICctaW1hZScsICc8aW5maWxlLm1hZT4nLCAnLW9tYWUnLCAnPG91dGZpbGUubWFlPic=

> <r_lp_tautomer_probability>
0.999537

> <r_epik_Ionization_Penalty>
3.66603

> <r_epik_Ionization_Penalty_Charging>
1.09773e-07

> <r_epik_Ionization_Penalty_Neutral>
3.66603

> <r_epik_State_Penalty>
3.66562

> <r_epik_Charging_Adjusted_Penalty>
3.66562

> <i_epik_Tot_Q>
-1

> <i_epik_Tot_abs_Q>
1

> <r_epik_Metal_State_Penalty>
0.234536

> <b_epik_Metal_Only>
1

> <s_epik_Chemistry_Notes>
This compound contains an acetal/aminal-like group ( X-CH(R)-Y where X, Y are N, S, or O) that may be acid/base labile, releasing an aldehyde.

> <s_lp_Force_Field>
OPLS_2005

> <r_lp_Energy>
40.7451

> <b_lp_Chiralities_Consistent>
1

> <s_lp_Variant>
AV-unprocessed.smi:107-10

> <Gold.Version>
5.8.1

> <Gold.Id.Protein>
6NUR|6NUR_protein|mol2

> <Gold.PLP.Fitness>
38.8516

> <Gold.PLP.PLP>
-28.6935

> <Gold.PLP.part.hbond>
-3.1812

> <Gold.PLP.part.metal>
0.0000

> <Gold.PLP.part.buried>
-1.5129

> <Gold.PLP.part.nonpolar>
-23.9763

> <Gold.PLP.part.repulsive>
1.8797

> <Gold.PLP.ligand.clash>
0.0000

> <Gold.PLP.ligand.torsion>
0.1080

> <Gold.PLP.Chemscore.Hbond>
2.4500

> <Gold.PLP.Chemscore.CHOScore>
1.0000

> <Gold.PLP.Chemscore.Metal>
0.0000

> <Gold.Chemscore.Hbonds>
donor molecule, donor type, donor heavy atom, donor atom, acceptor molecule, acceptor atom, score
      P1  H  7989  7998       L1    14  0.31
      P1  H  7997  8010       L1    15  1.92
      L1  C     3    21       P1  8028  1.00

> <Gold.PLP.Chemscore.Internal.Correction>
0.0242

> <Gold.Rescore>
     Score         DG    S(hbond)    S(metal)    S(lipo)     H(rot)  DE(clash)    DE(int)     intcor
      6.31      -8.69       1.44        0.00      45.16       2.69       2.11       0.27       ----

> <Gold.Chemscore.Fitness>
6.3089

> <Gold.Chemscore.DG>
-8.6894

> <Gold.Chemscore.ZeroCoef>
-5.4800

> <Gold.Chemscore.Hbond>
1.4385

> <Gold.Chemscore.Metal>
0.0000

> <Gold.Chemscore.Lipo>
45.1620

> <Gold.Chemscore.Internal_Hbond>
0.0000

> <Gold.Chemscore.DEClash>
2.1133

> <Gold.Chemscore.DEInternal>
0.2671

> <Gold.Chemscore.Rot>
2.6871

> <Gold.Chemscore.Internal.Correction>
   9.000000E+99

> <Gold.Chemscore.Hbonds>
donor molecule, donor type, donor heavy atom, donor atom, acceptor molecule, acceptor atom, score
      P1  H  7989  7998       L1    14  0.01
      P1  H  7997  8010       L1    15  0.30

> <Gold.Chemscore.Hbond.Weighted>
-4.8045

> <Gold.Chemscore.Metal.Weighted>
-0.0000

> <Gold.Chemscore.Lipo.Weighted>
-5.2840

> <Gold.Chemscore.Internal_Hbond.Weighted>
0.0000

> <Gold.Chemscore.DEClash.Weighted>
2.1133

> <Gold.Chemscore.DEInternal.Weighted>
0.2671

> <Gold.Chemscore.Rot.Weighted>
6.8791

> <Gold.Chemscore.Internal.Correction.Weighted>
   9.000000E+99

> <Gold.Protein.RotatedTorsions>
[ 6907 6896 6895 6894 ] final  143.47 input  -60.11 | X-H torsion
[ 7974 7965 7964 7962 ] final   13.37 input  175.53 | X-H torsion
[ 8008 7997 7996 7995 ] final   64.39 input   59.86 | X-H torsion
[ 10167 10162 10161 10158 ] final  158.22 input  -65.29 | X-H torsion
[ 10718 10713 10712 10709 ] final   80.46 input   66.30 | X-H torsion
[ 10763 10752 10751 10750 ] final   78.77 input  -60.55 | X-H torsion
[ 11005 11000 10999 10996 ] final  -82.75 input  -57.11 | X-H torsion

> <Gold.Protein.ActiveResidues>
 VAL166  LYS551  ARG553  GLY616  TRP617  ASP618  TYR619  PRO620  LYS621  CYS622 
 ASP623  PHE694  ASN695  SER759  ASP760  ASP761  ALA762  ILE779  LEU786  VAL792 
 PHE793  MET794  SER795  GLU796  ALA797  LYS798  CYS799  TRP800  GLU811  SER814 

> <Gold.Protein.RotatedAtoms>
  152.2059  133.4875  159.5083 H   0  0  0  0  0  0  0  0  0  0  0  0  # atno 6907 bound_to 6896
  150.6979  134.1530  159.4157 H   0  0  0  0  0  0  0  0  0  0  0  0  # atno 6908 bound_to 6896
  151.9449  135.0196  160.0589 H   0  0  0  0  0  0  0  0  0  0  0  0  # atno 6909 bound_to 6896
  146.2331  139.9199  142.8511 H   0  0  0  0  0  0  0  0  0  0  0  0  # atno 7974 bound_to 7965
  155.6453  140.3497  155.4729 H   0  0  0  0  0  0  0  0  0  0  0  0  # atno 8008 bound_to 7997
  155.9892  140.1190  157.0677 H   0  0  0  0  0  0  0  0  0  0  0  0  # atno 8009 bound_to 7997
  154.4214  140.1123  156.5529 H   0  0  0  0  0  0  0  0  0  0  0  0  # atno 8010 bound_to 7997
  139.4826  144.4844  151.8398 H   0  0  0  0  0  0  0  0  0  0  0  0  # atno 10167 bound_to 10162
  157.6806  130.9960  150.2082 H   0  0  0  0  0  0  0  0  0  0  0  0  # atno 10718 bound_to 10713
  153.0900  135.4865  154.8671 H   0  0  0  0  0  0  0  0  0  0  0  0  # atno 10763 bound_to 10752
  154.7257  135.3049  154.8976 H   0  0  0  0  0  0  0  0  0  0  0  0  # atno 10764 bound_to 10752
  153.9627  135.6810  153.4798 H   0  0  0  0  0  0  0  0  0  0  0  0  # atno 10765 bound_to 10752
  141.1661  133.7260  156.8618 H   0  0  0  0  0  0  0  0  0  0  0  0  # atno 11005 bound_to 11000
  145.2147  140.9910  143.4080 LP  0  0  0  0  0  0  0  0  0  0  0  0  # atno 17320 bound_to 7965
  144.9661  139.3928  143.6332 LP  0  0  0  0  0  0  0  0  0  0  0  0  # atno 17321 bound_to 7965
  140.4323  144.2099  150.5888 LP  0  0  0  0  0  0  0  0  0  0  0  0  # atno 17342 bound_to 10162
  140.4767  143.2393  151.9013 LP  0  0  0  0  0  0  0  0  0  0  0  0  # atno 17343 bound_to 10162
  156.2758  130.3727  149.7985 LP  0  0  0  0  0  0  0  0  0  0  0  0  # atno 17370 bound_to 10713
  156.5688  130.8415  151.3350 LP  0  0  0  0  0  0  0  0  0  0  0  0  # atno 17371 bound_to 10713
  140.1843  134.9011  157.2986 LP  0  0  0  0  0  0  0  0  0  0  0  0  # atno 17394 bound_to 11000
  140.2360  134.3852  155.7501 LP  0  0  0  0  0  0  0  0  0  0  0  0  # atno 17395 bound_to 11000

$$$$
