AV-unprocessed.smi:17|AV-procd|sdf|105|dock8
  -GOLD-   2262015263D 1   1.00000     0.00000
 Structure written by MMmdl.
 57 59  0  0  0  0  0  0  0  0  1 V2000
  146.3435  138.8176  156.1555 C   0  0  0  0  0  0  0  0  0  0  0  0
  147.6072  138.7953  155.2796 C   0  0  0  0  0  0  0  0  0  0  0  0
  148.4637  139.9706  155.4680 N   0  0  0  0  0  0  0  0  0  0  0  0
  149.7770  139.7550  155.7566 C   0  0  0  0  0  0  0  0  0  0  0  0
  150.7238  140.1298  154.8548 N   0  0  0  0  0  0  0  0  0  0  0  0
  152.0192  139.9119  155.0963 C   0  0  0  0  0  0  0  0  0  0  0  0
  152.5838  139.3402  156.1604 N   0  0  0  0  0  0  0  0  0  0  0  0
  151.6440  138.9651  157.0735 C   0  0  0  0  0  0  0  0  0  0  0  0
  150.2339  139.1319  156.9553 C   0  0  0  0  0  0  0  0  0  0  0  0
  149.6098  138.6337  158.0939 N   0  0  0  0  0  0  0  0  0  0  0  0
  150.5889  138.1929  158.8347 C   0  0  0  0  0  0  0  0  0  0  0  0
  151.8442  138.3463  158.2938 N   0  0  0  0  0  0  0  0  0  0  0  0
  153.1056  137.9454  158.8909 C   0  0  0  0  0  0  0  0  0  0  0  0
  154.0707  139.1392  159.1141 C   0  0  2  0  0  0  0  0  0  0  0  0
  155.4744  138.7095  159.6023 C   0  0  0  0  0  0  0  0  0  0  0  0
  156.4988  139.4792  159.0073 O   0  0  0  0  0  0  0  0  0  0  0  0
  153.4871  140.3015  159.9624 C   0  0  1  0  0  0  0  0  0  0  0  0
  154.3590  141.5381  160.0822 C   0  0  0  0  0  0  0  0  0  0  0  0
  153.3716  142.5500  160.6528 C   0  0  0  0  0  0  0  0  0  0  0  0
  152.1110  142.2182  160.0790 O   0  0  0  0  0  0  0  0  0  0  0  0
  152.1574  140.9134  159.5062 C   0  0  0  0  0  0  0  0  0  0  0  0
  148.0479  141.2893  154.9679 C   0  0  1  0  0  0  0  0  0  0  0  0
  147.3791  141.1905  153.5859 C   0  0  0  0  0  0  0  0  0  0  0  0
  147.1606  142.0545  155.9742 C   0  0  0  0  0  0  0  0  0  0  0  0
  147.6962  141.8352  157.7337 S   0  0  0  0  0  0  0  0  0  0  0  0
  146.6108  143.0114  158.6427 C   0  0  0  0  0  0  0  0  0  0  0  0
  147.3652  140.4721  158.1770 O   0  0  0  0  0  0  0  0  0  0  0  0
  149.0775  142.3270  157.8501 O   0  0  0  0  0  0  0  0  0  0  0  0
  145.7657  137.9040  156.0169 H   0  0  0  0  0  0  0  0  0  0  0  0
  145.6935  139.6560  155.9037 H   0  0  0  0  0  0  0  0  0  0  0  0
  146.5913  138.8937  157.2141 H   0  0  0  0  0  0  0  0  0  0  0  0
  148.1723  137.8962  155.5211 H   0  0  0  0  0  0  0  0  0  0  0  0
  147.3362  138.6885  154.2307 H   0  0  0  0  0  0  0  0  0  0  0  0
  152.7000  140.2405  154.3251 H   0  0  0  0  0  0  0  0  0  0  0  0
  150.4217  137.7348  159.7988 H   0  0  0  0  0  0  0  0  0  0  0  0
  152.8773  137.4453  159.8312 H   0  0  0  0  0  0  0  0  0  0  0  0
  153.5584  137.1952  158.2432 H   0  0  0  0  0  0  0  0  0  0  0  0
  154.2400  139.5728  158.1275 H   0  0  0  0  0  0  0  0  0  0  0  0
  155.5541  138.8077  160.6853 H   0  0  0  0  0  0  0  0  0  0  0  0
  155.6513  137.6572  159.3788 H   0  0  0  0  0  0  0  0  0  0  0  0
  157.2105  138.9029  158.7732 H   0  0  0  0  0  0  0  0  0  0  0  0
  153.3407  139.9281  160.9775 H   0  0  0  0  0  0  0  0  0  0  0  0
  155.2286  141.3894  160.7227 H   0  0  0  0  0  0  0  0  0  0  0  0
  154.7061  141.8809  159.1078 H   0  0  0  0  0  0  0  0  0  0  0  0
  153.3000  142.4412  161.7358 H   0  0  0  0  0  0  0  0  0  0  0  0
  153.6526  143.5803  160.4335 H   0  0  0  0  0  0  0  0  0  0  0  0
  152.1098  141.0253  158.4240 H   0  0  0  0  0  0  0  0  0  0  0  0
  151.2986  140.3201  159.8205 H   0  0  0  0  0  0  0  0  0  0  0  0
  148.9334  141.9102  154.8320 H   0  0  0  0  0  0  0  0  0  0  0  0
  147.1705  142.1814  153.1823 H   0  0  0  0  0  0  0  0  0  0  0  0
  146.4341  140.6491  153.6330 H   0  0  0  0  0  0  0  0  0  0  0  0
  148.0235  140.6778  152.8713 H   0  0  0  0  0  0  0  0  0  0  0  0
  147.2366  143.1223  155.7676 H   0  0  0  0  0  0  0  0  0  0  0  0
  146.1050  141.8000  155.8901 H   0  0  0  0  0  0  0  0  0  0  0  0
  146.9266  143.0581  159.6846 H   0  0  0  0  0  0  0  0  0  0  0  0
  145.5780  142.6729  158.6048 H   0  0  0  0  0  0  0  0  0  0  0  0
  146.6890  144.0034  158.1986 H   0  0  0  0  0  0  0  0  0  0  0  0
  1  2  1  0  0  0  0
  1 29  1  0  0  0  0
  1 30  1  0  0  0  0
  1 31  1  0  0  0  0
  2  3  1  0  0  0  0
  2 32  1  0  0  0  0
  2 33  1  0  0  0  0
  3  4  1  0  0  0  0
  3 22  1  0  0  0  0
  4  9  1  0  0  0  0
  4  5  2  0  0  0  0
  5  6  1  0  0  0  0
  6  7  2  0  0  0  0
  6 34  1  0  0  0  0
  7  8  1  0  0  0  0
  8 12  1  0  0  0  0
  8  9  2  0  0  0  0
  9 10  1  0  0  0  0
 10 11  2  0  0  0  0
 11 12  1  0  0  0  0
 11 35  1  0  0  0  0
 12 13  1  0  0  0  0
 13 14  1  0  0  0  0
 13 36  1  0  0  0  0
 13 37  1  0  0  0  0
 14 15  1  0  0  0  0
 14 17  1  0  0  0  0
 14 38  1  0  0  0  0
 15 16  1  0  0  0  0
 15 39  1  0  0  0  0
 15 40  1  0  0  0  0
 16 41  1  0  0  0  0
 17 21  1  0  0  0  0
 17 18  1  0  0  0  0
 17 42  1  0  0  0  0
 18 19  1  0  0  0  0
 18 43  1  0  0  0  0
 18 44  1  0  0  0  0
 19 20  1  0  0  0  0
 19 45  1  0  0  0  0
 19 46  1  0  0  0  0
 20 21  1  0  0  0  0
 21 47  1  0  0  0  0
 21 48  1  0  0  0  0
 22 23  1  0  0  0  0
 22 24  1  0  0  0  0
 22 49  1  0  0  0  0
 23 50  1  0  0  0  0
 23 51  1  0  0  0  0
 23 52  1  0  0  0  0
 24 25  1  0  0  0  0
 24 53  1  0  0  0  0
 24 54  1  0  0  0  0
 25 26  1  0  0  0  0
 25 27  2  0  0  0  0
 25 28  2  0  0  0  0
 26 55  1  0  0  0  0
 26 56  1  0  0  0  0
 26 57  1  0  0  0  0
M  END
> <s_m_source_file>
AV-unprocessed.smi

> <i_m_source_file_index>
17

> <i_lp_mmshare_version>
43012

> <i_f3d_flags>
0

> <s_epik_input>
W0NIM11TKD1PKSg9TylbQ0gyXVtDQEBIXShbQ0gzXSlOKFtDSDJdW0NIM10pYyhuW2NIXW4xKWMoYzEyKW5bY0hdbjJbQ0gyXVtDQEhdKFtDSDJdW09IXSlbQ0BASF0zW0NIMl1bQ0gyXU9bQ0gyXTM=

> <s_epik_cmdline>
J2VwaWtfcHl0aG9uJywgJy1waCcsICc3LjAnLCAnLXRuJywgJzgnLCAnLW1hJywgJzIwMCcsICctbWV0YWxfYmluZGluZycsICctaW1hZScsICc8aW5maWxlLm1hZT4nLCAnLW9tYWUnLCAnPG91dGZpbGUubWFlPic=

> <r_lp_tautomer_probability>
1

> <r_epik_Ionization_Penalty>
0.00119955

> <r_epik_Ionization_Penalty_Charging>
0

> <r_epik_Ionization_Penalty_Neutral>
0.00119955

> <r_epik_State_Penalty>
0.000665399

> <r_epik_Charging_Adjusted_Penalty>
0.000665399

> <i_epik_Tot_Q>
0

> <i_epik_Tot_abs_Q>
0

> <r_epik_Metal_State_Penalty>
-0

> <b_epik_Metal_Only>
0

> <s_lp_Force_Field>
OPLS_2005

> <r_lp_Energy>
34.6832

> <b_lp_Chiralities_Consistent>
1

> <s_lp_Variant>
AV-unprocessed.smi:17-7

> <Gold.Version>
5.8.1

> <Gold.Id.Protein>
6NUR|6NUR_protein|mol2

> <Gold.PLP.Fitness>
38.7036

> <Gold.PLP.PLP>
-35.9543

> <Gold.PLP.part.hbond>
-4.1462

> <Gold.PLP.part.metal>
0.0000

> <Gold.PLP.part.buried>
-4.6207

> <Gold.PLP.part.nonpolar>
-27.1334

> <Gold.PLP.part.repulsive>
0.2363

> <Gold.PLP.ligand.clash>
0.0000

> <Gold.PLP.ligand.torsion>
2.1835

> <Gold.PLP.Chemscore.Hbond>
2.0000

> <Gold.PLP.Chemscore.CHOScore>
0.0000

> <Gold.PLP.Chemscore.Metal>
0.0000

> <Gold.Chemscore.Hbonds>
donor molecule, donor type, donor heavy atom, donor atom, acceptor molecule, acceptor atom, score
      P1  H  7997  8008       L1     7  1.00
      P1  H  7997  8010       L1    16  1.00

> <Gold.PLP.Chemscore.Internal.Correction>
1.1163

> <Gold.Rescore>
     Score         DG    S(hbond)    S(metal)    S(lipo)     H(rot)  DE(clash)    DE(int)     intcor
      3.72     -10.65       1.59        0.00      75.51       3.51       1.51       5.41       ----

> <Gold.Chemscore.Fitness>
3.7238

> <Gold.Chemscore.DG>
-10.6480

> <Gold.Chemscore.ZeroCoef>
-5.4800

> <Gold.Chemscore.Hbond>
1.5892

> <Gold.Chemscore.Metal>
0.0000

> <Gold.Chemscore.Lipo>
75.5142

> <Gold.Chemscore.Internal_Hbond>
0.0000

> <Gold.Chemscore.DEClash>
1.5111

> <Gold.Chemscore.DEInternal>
5.4131

> <Gold.Chemscore.Rot>
3.5059

> <Gold.Chemscore.Internal.Correction>
   9.000000E+99

> <Gold.Chemscore.Hbonds>
donor molecule, donor type, donor heavy atom, donor atom, acceptor molecule, acceptor atom, score
      P1  H  7997  8008       L1     7  0.29
      P1  H  7997  8010       L1    16  0.18

> <Gold.Chemscore.Hbond.Weighted>
-5.3078

> <Gold.Chemscore.Metal.Weighted>
-0.0000

> <Gold.Chemscore.Lipo.Weighted>
-8.8352

> <Gold.Chemscore.Internal_Hbond.Weighted>
0.0000

> <Gold.Chemscore.DEClash.Weighted>
1.5111

> <Gold.Chemscore.DEInternal.Weighted>
5.4131

> <Gold.Chemscore.Rot.Weighted>
8.9750

> <Gold.Chemscore.Internal.Correction.Weighted>
   9.000000E+99

> <Gold.Protein.RotatedTorsions>
[ 6907 6896 6895 6894 ] final  -47.75 input  -60.11 | X-H torsion
[ 7974 7965 7964 7962 ] final   45.59 input  175.53 | X-H torsion
[ 8008 7997 7996 7995 ] final  -28.95 input   59.86 | X-H torsion
[ 10167 10162 10161 10158 ] final  135.42 input  -65.29 | X-H torsion
[ 10718 10713 10712 10709 ] final  110.78 input   66.30 | X-H torsion
[ 10763 10752 10751 10750 ] final  -73.87 input  -60.55 | X-H torsion
[ 11005 11000 10999 10996 ] final   -6.75 input  -57.11 | X-H torsion

> <Gold.Protein.ActiveResidues>
 VAL166  LYS551  ARG553  GLY616  TRP617  ASP618  TYR619  PRO620  LYS621  CYS622 
 ASP623  PHE694  ASN695  SER759  ASP760  ASP761  ALA762  ILE779  LEU786  VAL792 
 PHE793  MET794  SER795  GLU796  ALA797  LYS798  CYS799  TRP800  GLU811  SER814 

> <Gold.Protein.RotatedAtoms>
  150.8975  134.8385  159.7336 H   0  0  0  0  0  0  0  0  0  0  0  0  # atno 6907 bound_to 6896
  152.4873  134.4553  159.9597 H   0  0  0  0  0  0  0  0  0  0  0  0  # atno 6908 bound_to 6896
  151.4608  133.3554  159.2844 H   0  0  0  0  0  0  0  0  0  0  0  0  # atno 6909 bound_to 6896
  146.0466  139.4948  142.9744 H   0  0  0  0  0  0  0  0  0  0  0  0  # atno 7974 bound_to 7965
  154.4310  140.1831  156.1171 H   0  0  0  0  0  0  0  0  0  0  0  0  # atno 8008 bound_to 7997
  156.0172  140.3344  155.6976 H   0  0  0  0  0  0  0  0  0  0  0  0  # atno 8009 bound_to 7997
  155.6027  140.0642  157.2719 H   0  0  0  0  0  0  0  0  0  0  0  0  # atno 8010 bound_to 7997
  139.5218  144.6518  151.5280 H   0  0  0  0  0  0  0  0  0  0  0  0  # atno 10167 bound_to 10162
  157.6477  131.0939  150.6652 H   0  0  0  0  0  0  0  0  0  0  0  0  # atno 10718 bound_to 10713
  154.4653  135.5883  153.6284 H   0  0  0  0  0  0  0  0  0  0  0  0  # atno 10763 bound_to 10752
  152.9828  135.6054  154.3434 H   0  0  0  0  0  0  0  0  0  0  0  0  # atno 10764 bound_to 10752
  154.3311  135.2842  155.2450 H   0  0  0  0  0  0  0  0  0  0  0  0  # atno 10765 bound_to 10752
  140.7053  133.8954  155.8712 H   0  0  0  0  0  0  0  0  0  0  0  0  # atno 11005 bound_to 11000
  145.6795  141.0195  143.1614 LP  0  0  0  0  0  0  0  0  0  0  0  0  # atno 17320 bound_to 7965
  144.7101  139.8404  143.7417 LP  0  0  0  0  0  0  0  0  0  0  0  0  # atno 17321 bound_to 7965
  140.6326  143.9046  150.6619 LP  0  0  0  0  0  0  0  0  0  0  0  0  # atno 17342 bound_to 10162
  140.2355  143.3703  152.1530 LP  0  0  0  0  0  0  0  0  0  0  0  0  # atno 17343 bound_to 10162
  156.6967  130.4611  149.5584 LP  0  0  0  0  0  0  0  0  0  0  0  0  # atno 17370 bound_to 10713
  156.1823  130.6507  151.0966 LP  0  0  0  0  0  0  0  0  0  0  0  0  # atno 17371 bound_to 10713
  141.0129  134.0995  157.4202 LP  0  0  0  0  0  0  0  0  0  0  0  0  # atno 17394 bound_to 11000
  139.8886  135.0098  156.6628 LP  0  0  0  0  0  0  0  0  0  0  0  0  # atno 17395 bound_to 11000

$$$$
