AV-unprocessed.smi:901|AV-procd|sdf|4090|dock8
  -GOLD-   22720 1583D 1   1.00000     0.00000
 Structure written by MMmdl.
 43 44  0  0  0  0  0  0  0  0  1 V2000
  154.8933  141.0971  160.4041 C   0  0  0  0  0  0  0  0  0  0  0  0
  153.5750  140.8296  159.7054 C   0  0  0  0  0  0  0  0  0  0  0  0
  153.2228  139.3589  159.5639 C   0  0  0  0  0  0  0  0  0  0  0  0
  152.7988  141.8342  159.2548 C   0  0  0  0  0  0  0  0  0  0  0  0
  151.4986  141.7132  158.5428 C   0  0  2  0  0  0  0  0  0  0  0  0
  151.3546  142.0928  157.0789 C   0  0  1  0  0  0  0  0  0  0  0  0
  150.4920  141.2400  156.1999 C   0  0  0  0  0  0  0  0  0  0  0  0
  150.6868  140.0349  156.0403 O   0  0  0  0  0  0  0  0  0  0  0  0
  149.5063  141.9335  155.6024 N   0  0  0  0  0  0  0  0  0  0  0  0
  148.5073  141.4666  154.7093 C   0  0  0  0  0  0  0  0  0  0  0  0
  147.4602  142.2471  154.1332 C   0  0  0  0  0  0  0  0  0  0  0  0
  146.7836  141.3442  153.3641 C   0  0  0  0  0  0  0  0  0  0  0  0
  147.4163  140.1247  153.4996 N   0  0  0  0  0  0  0  0  0  0  0  0
  147.0750  138.8583  152.8765 C   0  0  0  0  0  0  0  0  0  0  0  0
  146.7361  137.7996  153.9271 C   0  0  0  0  0  0  0  0  0  0  0  0
  147.4707  136.6840  153.9284 N   0  0  0  0  0  0  0  0  0  0  0  0
  145.8228  137.9857  154.7282 O   0  0  0  0  0  0  0  0  0  0  0  0
  148.4787  140.2000  154.3316 N   0  0  0  0  0  0  0  0  0  0  0  0
  150.7059  142.9515  158.1600 C   0  0  0  0  0  0  0  0  0  0  0  0
  149.2032  142.9702  158.4168 C   0  0  0  0  0  0  0  0  0  0  0  0
  151.2695  144.3478  158.3785 C   0  0  0  0  0  0  0  0  0  0  0  0
  154.8757  140.6881  161.4146 H   0  0  0  0  0  0  0  0  0  0  0  0
  155.1022  142.1653  160.4744 H   0  0  0  0  0  0  0  0  0  0  0  0
  155.7116  140.6272  159.8578 H   0  0  0  0  0  0  0  0  0  0  0  0
  153.9449  138.8605  158.9169 H   0  0  0  0  0  0  0  0  0  0  0  0
  152.2291  139.2030  159.1464 H   0  0  0  0  0  0  0  0  0  0  0  0
  153.2480  138.8735  160.5397 H   0  0  0  0  0  0  0  0  0  0  0  0
  153.1316  142.8487  159.4191 H   0  0  0  0  0  0  0  0  0  0  0  0
  150.9205  140.8709  158.9189 H   0  0  0  0  0  0  0  0  0  0  0  0
  152.2298  142.5242  156.5941 H   0  0  0  0  0  0  0  0  0  0  0  0
  149.4630  142.9188  155.8185 H   0  0  0  0  0  0  0  0  0  0  0  0
  147.2275  143.2942  154.2516 H   0  0  0  0  0  0  0  0  0  0  0  0
  145.9140  141.4670  152.7354 H   0  0  0  0  0  0  0  0  0  0  0  0
  146.2256  138.9993  152.2058 H   0  0  0  0  0  0  0  0  0  0  0  0
  147.9153  138.5302  152.2635 H   0  0  0  0  0  0  0  0  0  0  0  0
  147.2835  135.9553  154.6013 H   0  0  0  0  0  0  0  0  0  0  0  0
  148.2120  136.5734  153.2515 H   0  0  0  0  0  0  0  0  0  0  0  0
  148.6899  143.5070  157.6185 H   0  0  0  0  0  0  0  0  0  0  0  0
  148.9858  143.4672  159.3624 H   0  0  0  0  0  0  0  0  0  0  0  0
  148.7916  141.9636  158.4785 H   0  0  0  0  0  0  0  0  0  0  0  0
  150.7632  145.0655  157.7324 H   0  0  0  0  0  0  0  0  0  0  0  0
  152.3353  144.3822  158.1510 H   0  0  0  0  0  0  0  0  0  0  0  0
  151.1323  144.6555  159.4155 H   0  0  0  0  0  0  0  0  0  0  0  0
  1  2  1  0  0  0  0
  1 22  1  0  0  0  0
  1 23  1  0  0  0  0
  1 24  1  0  0  0  0
  2  3  1  0  0  0  0
  2  4  2  0  0  0  0
  3 25  1  0  0  0  0
  3 26  1  0  0  0  0
  3 27  1  0  0  0  0
  4  5  1  0  0  0  0
  4 28  1  0  0  0  0
  5 19  1  0  0  0  0
  5  6  1  0  0  0  0
  5 29  1  0  0  0  0
  6  7  1  0  0  0  0
  6 19  1  0  0  0  0
  6 30  1  0  0  0  0
  7  8  2  0  0  0  0
  7  9  1  0  0  0  0
  9 10  1  0  0  0  0
  9 31  1  0  0  0  0
 10 18  2  0  0  0  0
 10 11  1  0  0  0  0
 11 12  2  0  0  0  0
 11 32  1  0  0  0  0
 12 13  1  0  0  0  0
 12 33  1  0  0  0  0
 13 14  1  0  0  0  0
 13 18  1  0  0  0  0
 14 15  1  0  0  0  0
 14 34  1  0  0  0  0
 14 35  1  0  0  0  0
 15 16  1  0  0  0  0
 15 17  2  0  0  0  0
 16 36  1  0  0  0  0
 16 37  1  0  0  0  0
 19 20  1  0  0  0  0
 19 21  1  0  0  0  0
 20 38  1  0  0  0  0
 20 39  1  0  0  0  0
 20 40  1  0  0  0  0
 21 41  1  0  0  0  0
 21 42  1  0  0  0  0
 21 43  1  0  0  0  0
M  END
> <s_m_source_file>
AV-unprocessed.smi

> <i_m_source_file_index>
901

> <i_lp_mmshare_version>
43012

> <i_f3d_flags>
0

> <s_epik_input>
W0NIM11DKFtDSDNdKT1bQ0hdW0NAQEhdKEMxKFtDSDNdKVtDSDNdKVtDQEhdMUMoPU8pW05IXWMyW2NIXVtjSF1uKG4yKVtDSDJdQyg9TylbTkgyXQ==

> <s_epik_cmdline>
J2VwaWtfcHl0aG9uJywgJy1waCcsICc3LjAnLCAnLXRuJywgJzgnLCAnLW1hJywgJzIwMCcsICctbWV0YWxfYmluZGluZycsICctaW1hZScsICc8aW5maWxlLm1hZT4nLCAnLW9tYWUnLCAnPG91dGZpbGUubWFlPic=

> <r_lp_tautomer_probability>
1

> <r_epik_Ionization_Penalty>
1.01454e-05

> <r_epik_Ionization_Penalty_Charging>
0

> <r_epik_Ionization_Penalty_Neutral>
1.01454e-05

> <r_epik_State_Penalty>
-0

> <r_epik_Charging_Adjusted_Penalty>
0

> <i_epik_Tot_Q>
0

> <i_epik_Tot_abs_Q>
0

> <r_epik_Metal_State_Penalty>
-0

> <b_epik_Metal_Only>
0

> <s_lp_Force_Field>
OPLS_2005

> <r_lp_Energy>
20.5353

> <b_lp_Chiralities_Consistent>
1

> <s_lp_Variant>
AV-unprocessed.smi:901-1

> <Gold.Version>
5.8.1

> <Gold.Id.Protein>
6NUR|6NUR_protein|mol2

> <Gold.PLP.Fitness>
45.7465

> <Gold.PLP.PLP>
-38.3888

> <Gold.PLP.part.hbond>
-2.0000

> <Gold.PLP.part.metal>
0.0000

> <Gold.PLP.part.buried>
-4.4161

> <Gold.PLP.part.nonpolar>
-31.9412

> <Gold.PLP.part.repulsive>
0.3316

> <Gold.PLP.ligand.clash>
0.0000

> <Gold.PLP.ligand.torsion>
0.1008

> <Gold.PLP.Chemscore.Hbond>
2.0000

> <Gold.PLP.Chemscore.CHOScore>
0.4625

> <Gold.PLP.Chemscore.Metal>
0.0000

> <Gold.Chemscore.Hbonds>
donor molecule, donor type, donor heavy atom, donor atom, acceptor molecule, acceptor atom, score
      L1  H     9    31       P1  8028  1.00
      L1  H    16    37       P1  7948  1.00
      L1  C    12    33       P1 10175  0.46

> <Gold.PLP.Chemscore.Internal.Correction>
0.1719

> <Gold.Rescore>
     Score         DG    S(hbond)    S(metal)    S(lipo)     H(rot)  DE(clash)    DE(int)     intcor
     15.55     -17.87       1.98        0.00      95.88       2.13       0.10       2.22       ----

> <Gold.Chemscore.Fitness>
15.5473

> <Gold.Chemscore.DG>
-17.8667

> <Gold.Chemscore.ZeroCoef>
-5.4800

> <Gold.Chemscore.Hbond>
1.9830

> <Gold.Chemscore.Metal>
0.0000

> <Gold.Chemscore.Lipo>
95.8846

> <Gold.Chemscore.Internal_Hbond>
0.0000

> <Gold.Chemscore.DEClash>
0.0988

> <Gold.Chemscore.DEInternal>
2.2206

> <Gold.Chemscore.Rot>
2.1309

> <Gold.Chemscore.Internal.Correction>
   9.000000E+99

> <Gold.Chemscore.Hbonds>
donor molecule, donor type, donor heavy atom, donor atom, acceptor molecule, acceptor atom, score
      L1  H     9    31       P1  8028  0.99
      L1  H    16    37       P1  7948  0.98

> <Gold.Chemscore.Hbond.Weighted>
-6.6234

> <Gold.Chemscore.Metal.Weighted>
-0.0000

> <Gold.Chemscore.Lipo.Weighted>
-11.2185

> <Gold.Chemscore.Internal_Hbond.Weighted>
0.0000

> <Gold.Chemscore.DEClash.Weighted>
0.0988

> <Gold.Chemscore.DEInternal.Weighted>
2.2206

> <Gold.Chemscore.Rot.Weighted>
5.4552

> <Gold.Chemscore.Internal.Correction.Weighted>
   9.000000E+99

> <Gold.Protein.RotatedTorsions>
[ 6907 6896 6895 6894 ] final  -28.32 input  -60.11 | X-H torsion
[ 7974 7965 7964 7962 ] final  -98.35 input  175.53 | X-H torsion
[ 8008 7997 7996 7995 ] final -162.17 input   59.86 | X-H torsion
[ 10167 10162 10161 10158 ] final   13.52 input  -65.29 | X-H torsion
[ 10718 10713 10712 10709 ] final  122.49 input   66.30 | X-H torsion
[ 10763 10752 10751 10750 ] final  -61.12 input  -60.55 | X-H torsion
[ 11005 11000 10999 10996 ] final   36.57 input  -57.11 | X-H torsion

> <Gold.Protein.ActiveResidues>
 VAL166  LYS551  ARG553  GLY616  TRP617  ASP618  TYR619  PRO620  LYS621  CYS622 
 ASP623  PHE694  ASN695  SER759  ASP760  ASP761  ALA762  ILE779  LEU786  VAL792 
 PHE793  MET794  SER795  GLU796  ALA797  LYS798  CYS799  TRP800  GLU811  SER814 

> <Gold.Protein.RotatedAtoms>
  151.1346  135.0148  159.8597 H   0  0  0  0  0  0  0  0  0  0  0  0  # atno 6907 bound_to 6896
  152.5451  134.1570  159.8552 H   0  0  0  0  0  0  0  0  0  0  0  0  # atno 6908 bound_to 6896
  151.1640  133.4781  159.2627 H   0  0  0  0  0  0  0  0  0  0  0  0  # atno 6909 bound_to 6896
  145.3218  140.9423  143.2711 H   0  0  0  0  0  0  0  0  0  0  0  0  # atno 7974 bound_to 7965
  155.8028  140.0894  157.1947 H   0  0  0  0  0  0  0  0  0  0  0  0  # atno 8008 bound_to 7997
  154.3981  140.1469  156.3354 H   0  0  0  0  0  0  0  0  0  0  0  0  # atno 8009 bound_to 7997
  155.8445  140.3437  155.5655 H   0  0  0  0  0  0  0  0  0  0  0  0  # atno 8010 bound_to 7997
  140.5997  143.8630  150.6952 H   0  0  0  0  0  0  0  0  0  0  0  0  # atno 10167 bound_to 10162
  157.5738  131.1081  150.8317 H   0  0  0  0  0  0  0  0  0  0  0  0  # atno 10718 bound_to 10713
  154.2797  135.6274  153.5342 H   0  0  0  0  0  0  0  0  0  0  0  0  # atno 10763 bound_to 10752
  152.9867  135.5630  154.5509 H   0  0  0  0  0  0  0  0  0  0  0  0  # atno 10764 bound_to 10752
  154.5097  135.2876  155.1329 H   0  0  0  0  0  0  0  0  0  0  0  0  # atno 10765 bound_to 10752
  140.2313  134.3524  155.7963 H   0  0  0  0  0  0  0  0  0  0  0  0  # atno 11005 bound_to 11000
  144.8933  139.4745  143.6667 LP  0  0  0  0  0  0  0  0  0  0  0  0  # atno 17320 bound_to 7965
  146.3079  139.7644  142.9042 LP  0  0  0  0  0  0  0  0  0  0  0  0  # atno 17321 bound_to 7965
  140.2173  143.3836  152.1671 LP  0  0  0  0  0  0  0  0  0  0  0  0  # atno 17342 bound_to 10162
  139.5282  144.7128  151.5151 LP  0  0  0  0  0  0  0  0  0  0  0  0  # atno 17343 bound_to 10162
  156.8781  130.5169  149.5292 LP  0  0  0  0  0  0  0  0  0  0  0  0  # atno 17370 bound_to 10713
  156.0783  130.5800  150.9516 LP  0  0  0  0  0  0  0  0  0  0  0  0  # atno 17371 bound_to 10713
  141.2217  133.7247  156.8735 LP  0  0  0  0  0  0  0  0  0  0  0  0  # atno 17394 bound_to 11000
  140.1748  134.9075  157.2877 LP  0  0  0  0  0  0  0  0  0  0  0  0  # atno 17395 bound_to 11000

$$$$
