#       Name:                AV-unprocessed.smi:74
#       Creating user name   scv26
#       Creation time:       Thu Mar 26 17:10:30 2020


#       File generated by GOLD software.
#

@<TRIPOS>MOLECULE
AV-unprocessed.smi:74
    70    74     1
SMALL
NO_CHARGES


@<TRIPOS>ATOM
      1 ****        -7.0147  -2.8110  -3.5972 O.3            1 S1                 0.0000
      2 ****        -6.4585  -2.5751  -2.3197 C.3            1 S1                 0.0000
      3 ****        -5.8927  -1.1494  -2.2136 C.3            1 S1                 0.0000
      4 ****        -7.0558  -0.1378  -2.2682 C.3            1 S1                 0.0000
      5 ****        -7.8849  -0.2421  -1.1284 O.3            1 S1                 0.0000
      6 ****        -4.8737  -0.9205  -1.0742 C.3            1 S1                 0.0000
      7 ****        -4.0187  -0.0749  -2.0204 C.3            1 S1                 0.0000
      8 ****        -2.5911  -0.0453  -1.8978 N.pl3          1 S1                 0.0000
      9 ****        -1.6724  -0.1034  -2.9212 C.2            1 S1                 0.0000
     10 ****        -0.4238  -0.0062  -2.5540 N.2            1 S1                 0.0000
     11 ****        -0.4858   0.1615  -1.1754 C.ar           1 S1                 0.0000
     12 ****         0.4882   0.3484  -0.1535 C.ar           1 S1                 0.0000
     13 ****         1.8225   0.3703  -0.4043 N.3            1 S1                 0.0000
     14 ****         2.3659  -0.8590  -0.9733 C.3            1 S1                 0.0000
     15 ****         3.7864  -0.6120  -1.5077 C.3            1 S1                 0.0000
     16 ****         4.6069  -0.0819  -0.4715 O.3            1 S1                 0.0000
     17 ****         4.1160   1.1609   0.0247 C.3            1 S1                 0.0000
     18 ****         5.1117   1.7113   1.0551 C.3            1 S1                 0.0000
     19 ****         5.1188   0.8819   2.2059 O.3            1 S1                 0.0000
     20 ****         6.0209   1.3298   3.2014 C.3            1 S1                 0.0000
     21 ****         5.9336   0.4003   4.3929 C.3            1 S1                 0.0000
     22 ****         4.9701   0.6837   5.5234 C.3            1 S1                 0.0000
     23 ****         6.4533   0.8386   5.7432 C.3            1 S1                 0.0000
     24 ****         2.6978   0.9728   0.5984 C.3            1 S1                 0.0000
     25 ****         0.0331   0.5193   1.1171 N.ar           1 S1                 0.0000
     26 ****        -1.2775   0.5002   1.3754 C.ar           1 S1                 0.0000
     27 ****        -2.2921   0.3282   0.5267 N.ar           1 S1                 0.0000
     28 ****        -1.8449   0.1600  -0.7506 C.ar           1 S1                 0.0000
     29 ****        -4.7064  -0.8401  -3.1539 C.3            1 S1                 0.0000
     30 ****        -6.3343  -2.7066  -4.2445 H              1 S1                 0.0000
     31 ****        -7.2183  -2.7642  -1.5613 H              1 S1                 0.0000
     32 ****        -5.6751  -3.3161  -2.1568 H              1 S1                 0.0000
     33 ****        -6.6859   0.8866  -2.3162 H              1 S1                 0.0000
     34 ****        -7.6667  -0.2787  -3.1601 H              1 S1                 0.0000
     35 ****        -8.5812   0.3923  -1.2042 H              1 S1                 0.0000
     36 ****        -5.2571  -0.3774  -0.2097 H              1 S1                 0.0000
     37 ****        -4.3662  -1.8357  -0.7630 H              1 S1                 0.0000
     38 ****        -4.3425   0.9672  -2.0047 H              1 S1                 0.0000
     39 ****        -1.9568  -0.2251  -3.9562 H              1 S1                 0.0000
     40 ****         2.3886  -1.6267  -0.1988 H              1 S1                 0.0000
     41 ****         1.7394  -1.2411  -1.7780 H              1 S1                 0.0000
     42 ****         4.2223  -1.5463  -1.8612 H              1 S1                 0.0000
     43 ****         3.7670   0.0721  -2.3576 H              1 S1                 0.0000
     44 ****         4.0735   1.8663  -0.8074 H              1 S1                 0.0000
     45 ****         6.1103   1.7668   0.6193 H              1 S1                 0.0000
     46 ****         4.8227   2.7247   1.3378 H              1 S1                 0.0000
     47 ****         7.0422   1.3218   2.8184 H              1 S1                 0.0000
     48 ****         5.7831   2.3498   3.5083 H              1 S1                 0.0000
     49 ****         6.0928  -0.6476   4.1455 H              1 S1                 0.0000
     50 ****         4.3730   1.5917   5.4653 H              1 S1                 0.0000
     51 ****         4.4782  -0.1684   5.9883 H              1 S1                 0.0000
     52 ****         6.9514   0.0901   6.3562 H              1 S1                 0.0000
     53 ****         6.8443   1.8502   5.8331 H              1 S1                 0.0000
     54 ****         2.2988   1.9381   0.9130 H              1 S1                 0.0000
     55 ****         2.7275   0.3291   1.4789 H              1 S1                 0.0000
     56 ****        -1.5518   0.6428   2.4102 H              1 S1                 0.0000
     57 ****        -4.1553  -1.7354  -3.4490 H              1 S1                 0.0000
     58 ****        -4.9566  -0.2311  -4.0232 H              1 S1                 0.0000
     59 ****        -7.7495  -2.1554  -3.7715 LP             1 S1                 0.0000
     60 ****        -7.3805  -3.7407  -3.6394 LP             1 S1                 0.0000
     61 ****        -7.3495  -0.0581  -0.3041 LP             1 S1                 0.0000
     62 ****        -8.2718  -1.1627  -1.0761 LP             1 S1                 0.0000
     63 ****         0.3912  -0.0437  -3.1322 LP             1 S1                 0.0000
     64 ****         1.8396   1.0500  -1.1376 LP             1 S1                 0.0000
     65 ****         5.5295   0.0573  -0.8313 LP             1 S1                 0.0000
     66 ****         4.6385  -0.7390   0.2816 LP             1 S1                 0.0000
     67 ****         5.3804  -0.0433   1.9310 LP             1 S1                 0.0000
     68 ****         4.1973   0.8664   2.5938 LP             1 S1                 0.0000
     69 ****         0.6842   0.6602   1.8629 LP             1 S1                 0.0000
     70 ****        -3.2561   0.3233   0.7927 LP             1 S1                 0.0000
@<TRIPOS>BOND
    1    1    2 1     
    2    1   30 1     
    3    2    3 1     
    4    2   31 1     
    5    2   32 1     
    6    3   29 1     
    7    3    4 1     
    8    3    6 1     
    9    4    5 1     
   10    4   33 1     
   11    4   34 1     
   12    5   35 1     
   13    6    7 1     
   14    6   36 1     
   15    6   37 1     
   16    7    8 1     
   17    7   29 1     
   18    7   38 1     
   19    8   28 1     
   20    8    9 1     
   21    9   10 2     
   22    9   39 1     
   23   10   11 1     
   24   11   28 ar    
   25   11   12 ar    
   26   12   13 1     
   27   12   25 ar    
   28   13   24 1     
   29   13   14 1     
   30   14   15 1     
   31   14   40 1     
   32   14   41 1     
   33   15   16 1     
   34   15   42 1     
   35   15   43 1     
   36   16   17 1     
   37   17   18 1     
   38   17   24 1     
   39   17   44 1     
   40   18   19 1     
   41   18   45 1     
   42   18   46 1     
   43   19   20 1     
   44   20   21 1     
   45   20   47 1     
   46   20   48 1     
   47   21   23 1     
   48   21   22 1     
   49   21   49 1     
   50   22   23 1     
   51   22   50 1     
   52   22   51 1     
   53   23   52 1     
   54   23   53 1     
   55   24   54 1     
   56   24   55 1     
   57   25   26 ar    
   58   26   27 ar    
   59   26   56 1     
   60   27   28 ar    
   61   29   57 1     
   62   29   58 1     
   63    1   59 1     
   64    1   60 1     
   65    5   61 1     
   66    5   62 1     
   67   10   63 1     
   68   13   64 1     
   69   16   65 1     
   70   16   66 1     
   71   19   67 1     
   72   19   68 1     
   73   25   69 1     
   74   27   70 1     
@<TRIPOS>SUBSTRUCTURE
      1 S1             1
@<TRIPOS>SET
LONE_PAIRS      STATIC     ATOMS    <user>   **** ""
12 59 60 61 62 63 64 65 66 67 68 69 70
DONOR_HYDROGENS      STATIC     ATOMS    <user>   **** ""
2 30 35
ATOM$BLUE        STATIC     ATOMS    COLORGROUP SYSTEM
12 59 60 61 62 63 64 65 66 67 68 69 70
ATOM$RED        STATIC     ATOMS    COLORGROUP SYSTEM
2 30 35
