AV-unprocessed.smi:2266|AV-procd|sdf|9147|dock3
  -GOLD-   2272012353D 1   1.00000     0.00000
 Structure written by MMmdl.
 33 34  0  0  0  0  0  0  0  0  1 V2000
  146.7968  139.5306  153.4170 C   0  0  0  0  0  0  0  0  0  0  0  0
  148.1254  139.7725  153.9799 N   0  0  0  0  0  0  0  0  0  0  0  0
  149.1155  138.7964  153.7998 C   0  0  0  0  0  0  0  0  0  0  0  0
  150.3523  138.9732  154.2980 C   0  0  0  0  0  0  0  0  0  0  0  0
  150.6803  140.1303  155.0045 N   0  0  0  0  0  0  0  0  0  0  0  0
  149.8099  141.0792  155.2100 C   0  0  0  0  0  0  0  0  0  0  0  0
  150.1048  142.2534  155.9149 N   0  0  0  0  0  0  0  0  0  0  0  0
  150.9569  142.4133  156.9472 C   0  0  0  0  0  0  0  0  0  0  0  0
  151.6434  141.5285  157.4621 O   0  0  0  0  0  0  0  0  0  0  0  0
  150.9700  143.6910  157.3606 N   0  0  0  0  0  0  0  0  0  0  0  0
  151.7705  144.2440  158.4556 C   0  0  0  0  0  0  0  0  0  0  0  0
  153.1030  144.7746  157.9161 C   0  0  0  0  0  0  0  0  0  0  0  0
  150.9375  145.1456  159.3922 C   0  0  0  0  0  0  0  0  0  0  0  0
  151.5990  144.4347  160.5758 C   0  0  0  0  0  0  0  0  0  0  0  0
  151.8195  143.2497  159.6313 C   0  0  0  0  0  0  0  0  0  0  0  0
  148.3884  140.9199  154.6624 C   0  0  0  0  0  0  0  0  0  0  0  0
  147.5504  141.8047  154.8477 O   0  0  0  0  0  0  0  0  0  0  0  0
  146.7348  138.5797  152.8866 H   0  0  0  0  0  0  0  0  0  0  0  0
  146.5319  140.3173  152.7092 H   0  0  0  0  0  0  0  0  0  0  0  0
  146.0441  139.5156  154.2062 H   0  0  0  0  0  0  0  0  0  0  0  0
  148.8148  137.9185  153.2469 H   0  0  0  0  0  0  0  0  0  0  0  0
  151.1355  138.2396  154.1760 H   0  0  0  0  0  0  0  0  0  0  0  0
  149.6226  143.0880  155.6147 H   0  0  0  0  0  0  0  0  0  0  0  0
  150.3721  144.3437  156.8750 H   0  0  0  0  0  0  0  0  0  0  0  0
  153.7529  145.1168  158.7216 H   0  0  0  0  0  0  0  0  0  0  0  0
  152.9590  145.6191  157.2418 H   0  0  0  0  0  0  0  0  0  0  0  0
  153.6458  144.0039  157.3683 H   0  0  0  0  0  0  0  0  0  0  0  0
  151.1619  146.2102  159.3207 H   0  0  0  0  0  0  0  0  0  0  0  0
  149.8623  144.9602  159.3448 H   0  0  0  0  0  0  0  0  0  0  0  0
  152.5289  144.9081  160.8945 H   0  0  0  0  0  0  0  0  0  0  0  0
  150.9358  144.2328  161.4172 H   0  0  0  0  0  0  0  0  0  0  0  0
  150.9859  142.5447  159.6485 H   0  0  0  0  0  0  0  0  0  0  0  0
  152.7745  142.7401  159.7622 H   0  0  0  0  0  0  0  0  0  0  0  0
  1  2  1  0  0  0  0
  1 18  1  0  0  0  0
  1 19  1  0  0  0  0
  1 20  1  0  0  0  0
  2 16  1  0  0  0  0
  2  3  1  0  0  0  0
  3  4  2  0  0  0  0
  3 21  1  0  0  0  0
  4  5  1  0  0  0  0
  4 22  1  0  0  0  0
  5  6  2  0  0  0  0
  6  7  1  0  0  0  0
  6 16  1  0  0  0  0
  7  8  1  0  0  0  0
  7 23  1  0  0  0  0
  8  9  2  0  0  0  0
  8 10  1  0  0  0  0
 10 11  1  0  0  0  0
 10 24  1  0  0  0  0
 11 15  1  0  0  0  0
 11 12  1  0  0  0  0
 11 13  1  0  0  0  0
 12 25  1  0  0  0  0
 12 26  1  0  0  0  0
 12 27  1  0  0  0  0
 13 14  1  0  0  0  0
 13 28  1  0  0  0  0
 13 29  1  0  0  0  0
 14 15  1  0  0  0  0
 14 30  1  0  0  0  0
 14 31  1  0  0  0  0
 15 32  1  0  0  0  0
 15 33  1  0  0  0  0
 16 17  2  0  0  0  0
M  END
> <s_m_source_file>
AV-unprocessed.smi

> <i_m_source_file_index>
2266

> <i_lp_mmshare_version>
43012

> <i_f3d_flags>
0

> <s_epik_input>
W0NIM11uMVtjSF1bY0hdbmMoYzE9TylbTkhdQyg9TylbTkhdQzIoW0NIM10pW0NIMl1bQ0gyXVtDSDJdMg==

> <s_epik_cmdline>
J2VwaWtfcHl0aG9uJywgJy1waCcsICc3LjAnLCAnLXRuJywgJzgnLCAnLW1hJywgJzIwMCcsICctbWV0YWxfYmluZGluZycsICctaW1hZScsICc8aW5maWxlLm1hZT4nLCAnLW9tYWUnLCAnPG91dGZpbGUubWFlPic=

> <r_lp_tautomer_probability>
1

> <r_epik_Ionization_Penalty>
0.000856168

> <r_epik_Ionization_Penalty_Charging>
1.7225e-07

> <r_epik_Ionization_Penalty_Neutral>
0.000855996

> <r_epik_State_Penalty>
-0

> <r_epik_Charging_Adjusted_Penalty>
1.7225e-07

> <i_epik_Tot_Q>
0

> <i_epik_Tot_abs_Q>
0

> <r_epik_Metal_State_Penalty>
-0

> <b_epik_Metal_Only>
0

> <s_lp_Force_Field>
OPLS_2005

> <r_lp_Energy>
29.342

> <b_lp_Chiralities_Consistent>
1

> <s_lp_Variant>
AV-unprocessed.smi:2266-1

> <Gold.Version>
5.8.1

> <Gold.Id.Protein>
6NUR|6NUR_protein|mol2

> <Gold.PLP.Fitness>
46.5112

> <Gold.PLP.PLP>
-36.5190

> <Gold.PLP.part.hbond>
-3.0000

> <Gold.PLP.part.metal>
0.0000

> <Gold.PLP.part.buried>
-3.4651

> <Gold.PLP.part.nonpolar>
-30.9811

> <Gold.PLP.part.repulsive>
0.3407

> <Gold.PLP.ligand.clash>
0.0000

> <Gold.PLP.ligand.torsion>
0.6275

> <Gold.PLP.Chemscore.Hbond>
2.6500

> <Gold.PLP.Chemscore.CHOScore>
1.0000

> <Gold.PLP.Chemscore.Metal>
0.0000

> <Gold.Chemscore.Hbonds>
donor molecule, donor type, donor heavy atom, donor atom, acceptor molecule, acceptor atom, score
      L1  H     7    23       P1  8028  1.00
      L1  H    10    24       P1  8028  1.00
      P1  H  7989  7998       L1     5  0.60
      L1  C     3    21       P1  7948  1.00

> <Gold.PLP.Chemscore.Internal.Correction>
0.2972

> <Gold.Rescore>
     Score         DG    S(hbond)    S(metal)    S(lipo)     H(rot)  DE(clash)    DE(int)     intcor
     17.12     -19.48       2.13        0.00      80.88       1.00       0.09       2.27       ----

> <Gold.Chemscore.Fitness>
17.1205

> <Gold.Chemscore.DG>
-19.4811

> <Gold.Chemscore.ZeroCoef>
-5.4800

> <Gold.Chemscore.Hbond>
2.1253

> <Gold.Chemscore.Metal>
0.0000

> <Gold.Chemscore.Lipo>
80.8781

> <Gold.Chemscore.Internal_Hbond>
0.0000

> <Gold.Chemscore.DEClash>
0.0888

> <Gold.Chemscore.DEInternal>
2.2719

> <Gold.Chemscore.Rot>
1.0000

> <Gold.Chemscore.Internal.Correction>
   9.000000E+99

> <Gold.Chemscore.Hbonds>
donor molecule, donor type, donor heavy atom, donor atom, acceptor molecule, acceptor atom, score
      L1  H     7    23       P1  8028  1.00
      L1  H    10    24       P1  8028  0.90
      P1  H  7989  7998       L1     5  0.01

> <Gold.Chemscore.Hbond.Weighted>
-7.0984

> <Gold.Chemscore.Metal.Weighted>
-0.0000

> <Gold.Chemscore.Lipo.Weighted>
-9.4627

> <Gold.Chemscore.Internal_Hbond.Weighted>
0.0000

> <Gold.Chemscore.DEClash.Weighted>
0.0888

> <Gold.Chemscore.DEInternal.Weighted>
2.2719

> <Gold.Chemscore.Rot.Weighted>
2.5600

> <Gold.Chemscore.Internal.Correction.Weighted>
   9.000000E+99

> <Gold.Protein.RotatedTorsions>
[ 6907 6896 6895 6894 ] final   13.12 input  -60.11 | X-H torsion
[ 7974 7965 7964 7962 ] final  111.68 input  175.53 | X-H torsion
[ 8008 7997 7996 7995 ] final    5.51 input   59.86 | X-H torsion
[ 10167 10162 10161 10158 ] final  117.89 input  -65.29 | X-H torsion
[ 10718 10713 10712 10709 ] final  -87.93 input   66.30 | X-H torsion
[ 10763 10752 10751 10750 ] final   -6.77 input  -60.55 | X-H torsion
[ 11005 11000 10999 10996 ] final  -15.80 input  -57.11 | X-H torsion

> <Gold.Protein.ActiveResidues>
 VAL166  LYS551  ARG553  GLY616  TRP617  ASP618  TYR619  PRO620  LYS621  CYS622 
 ASP623  PHE694  ASN695  SER759  ASP760  ASP761  ALA762  ILE779  LEU786  VAL792 
 PHE793  MET794  SER795  GLU796  ALA797  LYS798  CYS799  TRP800  GLU811  SER814 

> <Gold.Protein.RotatedAtoms>
  151.7812  135.0761  160.0373 H   0  0  0  0  0  0  0  0  0  0  0  0  # atno 6907 bound_to 6896
  152.3221  133.5861  159.5760 H   0  0  0  0  0  0  0  0  0  0  0  0  # atno 6908 bound_to 6896
  150.7375  133.9911  159.3649 H   0  0  0  0  0  0  0  0  0  0  0  0  # atno 6909 bound_to 6896
  145.2392  139.2786  143.4127 H   0  0  0  0  0  0  0  0  0  0  0  0  # atno 7974 bound_to 7965
  154.7293  140.2727  155.6470 H   0  0  0  0  0  0  0  0  0  0  0  0  # atno 8008 bound_to 7997
  156.2845  140.2719  156.1914 H   0  0  0  0  0  0  0  0  0  0  0  0  # atno 8009 bound_to 7997
  155.0403  140.0371  157.2497 H   0  0  0  0  0  0  0  0  0  0  0  0  # atno 8010 bound_to 7997
  139.6148  144.7089  151.2763 H   0  0  0  0  0  0  0  0  0  0  0  0  # atno 10167 bound_to 10162
  155.9984  130.4817  150.4942 H   0  0  0  0  0  0  0  0  0  0  0  0  # atno 10718 bound_to 10713
  153.4170  135.7009  153.6320 H   0  0  0  0  0  0  0  0  0  0  0  0  # atno 10763 bound_to 10752
  153.4791  135.3697  155.2432 H   0  0  0  0  0  0  0  0  0  0  0  0  # atno 10764 bound_to 10752
  154.8720  135.4061  154.3531 H   0  0  0  0  0  0  0  0  0  0  0  0  # atno 10765 bound_to 10752
  140.8003  133.8219  155.9464 H   0  0  0  0  0  0  0  0  0  0  0  0  # atno 11005 bound_to 11000
  146.3333  140.2750  142.8607 LP  0  0  0  0  0  0  0  0  0  0  0  0  # atno 17320 bound_to 7965
  144.9605  140.8270  143.5516 LP  0  0  0  0  0  0  0  0  0  0  0  0  # atno 17321 bound_to 7965
  140.7343  143.6768  150.8034 LP  0  0  0  0  0  0  0  0  0  0  0  0  # atno 17342 bound_to 10162
  140.0369  143.5386  152.2735 LP  0  0  0  0  0  0  0  0  0  0  0  0  # atno 17343 bound_to 10162
  157.2933  131.0630  151.2118 LP  0  0  0  0  0  0  0  0  0  0  0  0  # atno 17370 bound_to 10713
  157.3123  130.6896  149.6223 LP  0  0  0  0  0  0  0  0  0  0  0  0  # atno 17371 bound_to 10713
  140.9301  134.2033  157.4869 LP  0  0  0  0  0  0  0  0  0  0  0  0  # atno 17394 bound_to 11000
  139.8722  134.9829  156.5176 LP  0  0  0  0  0  0  0  0  0  0  0  0  # atno 17395 bound_to 11000

$$$$
