#       Name:                AV-unprocessed.smi:1949
#       Creating user name   scv26
#       Creation time:       Fri Mar 27 10:02:57 2020


#       File generated by GOLD software.
#

@<TRIPOS>MOLECULE
AV-unprocessed.smi:1949
    33    34     1
SMALL
NO_CHARGES


@<TRIPOS>ATOM
      1 ****         0.2734   7.1737  -2.2564 C.3            1 S1                 0.0000
      2 ****         0.6720   5.7844  -1.8921 C.2            1 S1                 0.0000
      3 ****         1.9494   5.3965  -1.8000 N.2            1 S1                 0.0000
      4 ****         2.0683   4.0599  -1.4481 N.2            1 S1                 0.0000
      5 ****         0.8738   3.4721  -1.2871 C.2            1 S1                 0.0000
      6 ****         0.6819   2.1067  -0.9239 N.am           1 S1                 0.0000
      7 ****         1.5573   1.1056  -0.6881 C.2            1 S1                 0.0000
      8 ****         2.7699   1.2942  -0.7695 O.2            1 S1                 0.0000
      9 ****         1.0302  -0.0855  -0.3605 N.am           1 S1                 0.0000
     10 ****         1.7878  -1.2984  -0.0663 C.3            1 S1                 0.0000
     11 ****         0.8923  -2.5452  -0.2051 C.3            1 S1                 0.0000
     12 ****         1.0892  -3.3571   1.0767 C.3            1 S1                 0.0000
     13 ****         1.4399  -2.3165   2.1351 C.3            1 S1                 0.0000
     14 ****         2.3044  -1.3025   1.3862 C.3            1 S1                 0.0000
     15 ****        -0.5071   4.5238  -1.5536 S.3            1 S1                 0.0000
     16 ****         1.1263   7.8495  -2.1851 H              1 S1                 0.0000
     17 ****        -0.5076   7.5272  -1.5833 H              1 S1                 0.0000
     18 ****        -0.1066   7.1956  -3.2776 H              1 S1                 0.0000
     19 ****        -0.2865   1.8391  -0.8245 H              1 S1                 0.0000
     20 ****         0.0236  -0.1565  -0.3130 H              1 S1                 0.0000
     21 ****         2.6313  -1.3770  -0.7548 H              1 S1                 0.0000
     22 ****        -0.1579  -2.2590  -0.2857 H              1 S1                 0.0000
     23 ****         1.1342  -3.1280  -1.0945 H              1 S1                 0.0000
     24 ****         0.2099  -3.9455   1.3402 H              1 S1                 0.0000
     25 ****         1.9257  -4.0458   0.9507 H              1 S1                 0.0000
     26 ****         0.5295  -1.8326   2.4913 H              1 S1                 0.0000
     27 ****         1.9494  -2.7474   2.9973 H              1 S1                 0.0000
     28 ****         3.3413  -1.6405   1.3949 H              1 S1                 0.0000
     29 ****         2.2858  -0.3200   1.8598 H              1 S1                 0.0000
     30 ****         2.7288   6.0007  -1.9657 LP             1 S1                 0.0000
     31 ****         2.9427   3.5897  -1.3286 LP             1 S1                 0.0000
     32 ****         3.1200   2.1987  -1.0132 LP             1 S1                 0.0000
     33 ****         3.4058   0.5431  -0.5920 LP             1 S1                 0.0000
@<TRIPOS>BOND
    1    1    2 1     
    2    1   16 1     
    3    1   17 1     
    4    1   18 1     
    5    2   15 1     
    6    2    3 2     
    7    3    4 1     
    8    4    5 2     
    9    5    6 1     
   10    5   15 1     
   11    6    7 am    
   12    6   19 1     
   13    7    8 2     
   14    7    9 am    
   15    9   10 1     
   16    9   20 1     
   17   10   14 1     
   18   10   11 1     
   19   10   21 1     
   20   11   12 1     
   21   11   22 1     
   22   11   23 1     
   23   12   13 1     
   24   12   24 1     
   25   12   25 1     
   26   13   14 1     
   27   13   26 1     
   28   13   27 1     
   29   14   28 1     
   30   14   29 1     
   31    3   30 1     
   32    4   31 1     
   33    8   32 1     
   34    8   33 1     
@<TRIPOS>SUBSTRUCTURE
      1 S1             1
@<TRIPOS>SET
LONE_PAIRS      STATIC     ATOMS    <user>   **** ""
4 30 31 32 33
DONOR_HYDROGENS      STATIC     ATOMS    <user>   **** ""
2 19 20
ATOM$BLUE        STATIC     ATOMS    COLORGROUP SYSTEM
4 30 31 32 33
ATOM$RED        STATIC     ATOMS    COLORGROUP SYSTEM
2 19 20
