#       Name:                AV-unprocessed.smi:3322
#       Creating user name   scv26
#       Creation time:       Fri Mar 27 19:11:50 2020


#       File generated by GOLD software.
#

@<TRIPOS>MOLECULE
AV-unprocessed.smi:3322
    44    45     1
SMALL
NO_CHARGES


@<TRIPOS>ATOM
      1 ****        -0.6833  -0.9541   2.5902 C.3            1 S1                 0.0000
      2 ****        -0.2567  -0.2911   1.2696 C.3            1 S1                 0.0000
      3 ****         1.2186  -0.3681   1.1434 N.4            1 S1                 1.0000
      4 ****         1.8171   0.5751   0.1746 C.3            1 S1                 0.0000
      5 ****         3.3390   0.3917   0.0986 C.3            1 S1                 0.0000
      6 ****         3.9390   1.2962  -0.8624 N.pl3          1 S1                 0.0000
      7 ****         4.4408   1.0093  -2.1144 C.2            1 S1                 0.0000
      8 ****         4.8991   2.1807  -2.6456 C.2            1 S1                 0.0000
      9 ****         4.6326   3.1405  -1.6293 C.2            1 S1                 0.0000
     10 ****         4.0578   2.6075  -0.5629 N.2            1 S1                 0.0000
     11 ****        -0.9711  -0.9647   0.0769 C.2            1 S1                 0.0000
     12 ****        -0.3588  -1.8342  -0.5465 O.2            1 S1                 0.0000
     13 ****        -2.2358  -0.6033  -0.2562 N.am           1 S1                 0.0000
     14 ****        -3.0996   0.3431   0.4599 C.3            1 S1                 0.0000
     15 ****        -4.3393  -0.4136   0.9725 C.3            1 S1                 0.0000
     16 ****        -5.0168  -1.0287  -0.1192 O.3            1 S1                 0.0000
     17 ****        -4.1946  -1.9416  -0.8403 C.3            1 S1                 0.0000
     18 ****        -2.9610  -1.2000  -1.3837 C.3            1 S1                 0.0000
     19 ****        -1.7597  -0.8886   2.7492 H              1 S1                 0.0000
     20 ****        -0.2019  -0.4720   3.4417 H              1 S1                 0.0000
     21 ****        -0.4117  -2.0104   2.6124 H              1 S1                 0.0000
     22 ****        -0.5033   0.7695   1.3074 H              1 S1                 0.0000
     23 ****         1.6205  -0.1692   2.0483 H              1 S1                 0.0000
     24 ****         1.3802   0.4191  -0.8125 H              1 S1                 0.0000
     25 ****         1.5764   1.5957   0.4752 H              1 S1                 0.0000
     26 ****         3.7977   0.5658   1.0732 H              1 S1                 0.0000
     27 ****         3.5836  -0.6316  -0.1898 H              1 S1                 0.0000
     28 ****         4.4297   0.0080  -2.5198 H              1 S1                 0.0000
     29 ****         5.3560   2.3293  -3.6128 H              1 S1                 0.0000
     30 ****         4.8381   4.2009  -1.6349 H              1 S1                 0.0000
     31 ****        -2.6210   0.8394   1.3004 H              1 S1                 0.0000
     32 ****        -3.4025   1.1381  -0.2231 H              1 S1                 0.0000
     33 ****        -4.0582  -1.1691   1.7079 H              1 S1                 0.0000
     34 ****        -5.0237   0.2751   1.4679 H              1 S1                 0.0000
     35 ****        -3.8991  -2.7705  -0.1949 H              1 S1                 0.0000
     36 ****        -4.7733  -2.3653  -1.6611 H              1 S1                 0.0000
     37 ****        -3.2706  -0.4112  -2.0709 H              1 S1                 0.0000
     38 ****        -2.3517  -1.8874  -1.9717 H              1 S1                 0.0000
     39 ****         1.4657  -1.3119   0.8812 H              1 S1                 0.0000
     40 ****         3.7750   3.0718   0.2764 LP             1 S1                 0.0000
     41 ****         0.5708  -2.0832  -0.2747 LP             1 S1                 0.0000
     42 ****        -0.7916  -2.2905  -1.3239 LP             1 S1                 0.0000
     43 ****        -5.3254  -0.3137  -0.7465 LP             1 S1                 0.0000
     44 ****        -5.8088  -1.5251   0.2361 LP             1 S1                 0.0000
@<TRIPOS>BOND
    1    1    2 1     
    2    1   19 1     
    3    1   20 1     
    4    1   21 1     
    5    2    3 1     
    6    2   11 1     
    7    2   22 1     
    8    3    4 1     
    9    3   23 1     
   10    3   39 1     
   11    4    5 1     
   12    4   24 1     
   13    4   25 1     
   14    5    6 1     
   15    5   26 1     
   16    5   27 1     
   17    6   10 1     
   18    6    7 1     
   19    7    8 2     
   20    7   28 1     
   21    8    9 1     
   22    8   29 1     
   23    9   10 2     
   24    9   30 1     
   25   11   12 2     
   26   11   13 am    
   27   13   18 1     
   28   13   14 1     
   29   14   15 1     
   30   14   31 1     
   31   14   32 1     
   32   15   16 1     
   33   15   33 1     
   34   15   34 1     
   35   16   17 1     
   36   17   18 1     
   37   17   35 1     
   38   17   36 1     
   39   18   37 1     
   40   18   38 1     
   41   10   40 1     
   42   12   41 1     
   43   12   42 1     
   44   16   43 1     
   45   16   44 1     
@<TRIPOS>SUBSTRUCTURE
      1 S1             1
@<TRIPOS>SET
LONE_PAIRS      STATIC     ATOMS    <user>   **** ""
5 40 41 42 43 44
DONOR_HYDROGENS      STATIC     ATOMS    <user>   **** ""
2 23 39
ATOM$BLUE        STATIC     ATOMS    COLORGROUP SYSTEM
5 40 41 42 43 44
ATOM$RED        STATIC     ATOMS    COLORGROUP SYSTEM
2 23 39
