AV-unprocessed.smi:3183|AV-procd|sdf|12157|dock3
  -GOLD-   2272017593D 1   1.00000     0.00000
 Structure written by MMmdl.
 43 44  0  0  0  0  0  0  0  0  2 V2000
  152.7875  143.6732  162.3541 C   0  0  0  0  0  0  0  0  0  0  0  0
  152.1654  143.3797  160.9790 C   0  0  2  0  0  0  0  0  0  0  0  0
  153.2331  142.9860  159.9398 C   0  0  0  0  0  0  0  0  0  0  0  0
  152.5938  142.6106  158.5940 C   0  0  0  0  0  0  0  0  0  0  0  0
  151.7027  143.7411  158.0487 C   0  0  1  0  0  0  0  0  0  0  0  0
  151.0835  143.3147  156.7739 N   0  3  0  0  0  0  0  0  0  0  0  0
  150.6837  141.8933  156.7083 C   0  0  0  0  0  0  0  0  0  0  0  0
  150.0019  141.5755  155.3695 C   0  0  0  0  0  0  0  0  0  0  0  0
  149.5638  140.1497  155.2254 C   0  0  0  0  0  0  0  0  0  0  0  0
  149.9665  139.1645  154.3650 C   0  0  0  0  0  0  0  0  0  0  0  0
  149.1778  138.0390  154.7299 C   0  0  0  0  0  0  0  0  0  0  0  0
  148.3553  138.3000  155.7304 N   0  0  0  0  0  0  0  0  0  0  0  0
  148.5893  139.5938  156.0349 N   0  0  0  0  0  0  0  0  0  0  0  0
  147.8432  140.2135  157.1133 C   0  0  0  0  0  0  0  0  0  0  0  0
  150.6377  144.1348  159.0976 C   0  0  0  0  0  0  0  0  0  0  0  0
  151.2579  144.5228  160.4571 C   0  0  2  0  0  0  0  0  0  0  0  0
  151.9490  145.9002  160.3941 C   0  0  0  0  0  0  0  0  0  0  0  0
  153.5208  144.4783  162.3037 H   0  0  0  0  0  0  0  0  0  0  0  0
  153.2988  142.7927  162.7446 H   0  0  0  0  0  0  0  0  0  0  0  0
  152.0248  143.9578  163.0794 H   0  0  0  0  0  0  0  0  0  0  0  0
  151.5227  142.5086  161.1174 H   0  0  0  0  0  0  0  0  0  0  0  0
  153.9410  143.8031  159.7975 H   0  0  0  0  0  0  0  0  0  0  0  0
  153.8158  142.1413  160.3095 H   0  0  0  0  0  0  0  0  0  0  0  0
  153.3775  142.3714  157.8739 H   0  0  0  0  0  0  0  0  0  0  0  0
  152.0029  141.7018  158.7184 H   0  0  0  0  0  0  0  0  0  0  0  0
  152.3409  144.6003  157.8377 H   0  0  0  0  0  0  0  0  0  0  0  0
  150.2474  143.8665  156.6444 H   0  0  0  0  0  0  0  0  0  0  0  0
  151.5616  141.2596  156.8326 H   0  0  0  0  0  0  0  0  0  0  0  0
  150.0025  141.6730  157.5314 H   0  0  0  0  0  0  0  0  0  0  0  0
  149.1351  142.2259  155.2463 H   0  0  0  0  0  0  0  0  0  0  0  0
  150.6837  141.8198  154.5540 H   0  0  0  0  0  0  0  0  0  0  0  0
  150.7139  139.2327  153.5885 H   0  0  0  0  0  0  0  0  0  0  0  0
  149.1792  137.0475  154.3014 H   0  0  0  0  0  0  0  0  0  0  0  0
  147.4184  141.1582  156.7740 H   0  0  0  0  0  0  0  0  0  0  0  0
  148.5082  140.4027  157.9561 H   0  0  0  0  0  0  0  0  0  0  0  0
  147.0312  139.5639  157.4429 H   0  0  0  0  0  0  0  0  0  0  0  0
  150.0245  144.9604  158.7364 H   0  0  0  0  0  0  0  0  0  0  0  0
  149.9543  143.2974  159.2459 H   0  0  0  0  0  0  0  0  0  0  0  0
  150.4319  144.6292  161.1617 H   0  0  0  0  0  0  0  0  0  0  0  0
  152.8358  145.8897  159.7613 H   0  0  0  0  0  0  0  0  0  0  0  0
  152.2542  146.2395  161.3838 H   0  0  0  0  0  0  0  0  0  0  0  0
  151.2722  146.6568  159.9965 H   0  0  0  0  0  0  0  0  0  0  0  0
  151.7203  143.5176  156.0165 H   0  0  0  0  0  0  0  0  0  0  0  0
  1  2  1  0  0  0  0
  1 18  1  0  0  0  0
  1 19  1  0  0  0  0
  1 20  1  0  0  0  0
  2 16  1  0  0  0  0
  2  3  1  0  0  0  0
  2 21  1  0  0  0  0
  3  4  1  0  0  0  0
  3 22  1  0  0  0  0
  3 23  1  0  0  0  0
  4  5  1  0  0  0  0
  4 24  1  0  0  0  0
  4 25  1  0  0  0  0
  5  6  1  0  0  0  0
  5 15  1  0  0  0  0
  5 26  1  0  0  0  0
  6  7  1  0  0  0  0
  6 27  1  0  0  0  0
  6 43  1  0  0  0  0
  7  8  1  0  0  0  0
  7 28  1  0  0  0  0
  7 29  1  0  0  0  0
  8  9  1  0  0  0  0
  8 30  1  0  0  0  0
  8 31  1  0  0  0  0
  9 13  1  0  0  0  0
  9 10  2  0  0  0  0
 10 11  1  0  0  0  0
 10 32  1  0  0  0  0
 11 12  2  0  0  0  0
 11 33  1  0  0  0  0
 12 13  1  0  0  0  0
 13 14  1  0  0  0  0
 14 34  1  0  0  0  0
 14 35  1  0  0  0  0
 14 36  1  0  0  0  0
 15 16  1  0  0  0  0
 15 37  1  0  0  0  0
 15 38  1  0  0  0  0
 16 17  1  0  0  0  0
 16 39  1  0  0  0  0
 17 40  1  0  0  0  0
 17 41  1  0  0  0  0
 17 42  1  0  0  0  0
M  CHG  1   6   1
M  END
> <s_m_source_file>
AV-unprocessed.smi

> <i_m_source_file_index>
3183

> <i_lp_mmshare_version>
43012

> <i_f3d_flags>
0

> <s_epik_input>
W0NIM11bQ0BASF0xW0NIMl1bQ0gyXVtDQEhdKFtDSDJdW0NASF0xW0NIM10pW05IXVtDSDJdW0NIMl1jMltjSF1bY0hdbm4yW0NIM10=

> <s_epik_cmdline>
J2VwaWtfcHl0aG9uJywgJy1waCcsICc3LjAnLCAnLXRuJywgJzgnLCAnLW1hJywgJzIwMCcsICctbWV0YWxfYmluZGluZycsICctaW1hZScsICc8aW5maWxlLm1hZT4nLCAnLW9tYWUnLCAnPG91dGZpbGUubWFlPic=

> <r_lp_tautomer_probability>
1

> <r_epik_Ionization_Penalty>
0.000327718

> <r_epik_Ionization_Penalty_Charging>
0.000294043

> <r_epik_Ionization_Penalty_Neutral>
3.36755e-05

> <r_epik_State_Penalty>
-0

> <r_epik_Charging_Adjusted_Penalty>
0.000294043

> <i_epik_Tot_Q>
1

> <i_epik_Tot_abs_Q>
1

> <r_epik_Metal_State_Penalty>
-0

> <b_epik_Metal_Only>
0

> <s_lp_Force_Field>
OPLS_2005

> <r_lp_Energy>
13.9597

> <b_lp_Chiralities_Consistent>
1

> <s_lp_Variant>
AV-unprocessed.smi:3183-5

> <Gold.Version>
5.8.1

> <Gold.Id.Protein>
6NUR|6NUR_protein|mol2

> <Gold.PLP.Fitness>
46.2480

> <Gold.PLP.PLP>
-37.8311

> <Gold.PLP.part.hbond>
-1.0000

> <Gold.PLP.part.metal>
0.0000

> <Gold.PLP.part.buried>
-4.2437

> <Gold.PLP.part.nonpolar>
-32.7961

> <Gold.PLP.part.repulsive>
0.0724

> <Gold.PLP.ligand.clash>
0.0000

> <Gold.PLP.ligand.torsion>
0.2810

> <Gold.PLP.Chemscore.Hbond>
2.0000

> <Gold.PLP.Chemscore.CHOScore>
0.9905

> <Gold.PLP.Chemscore.Metal>
0.0000

> <Gold.Chemscore.Hbonds>
donor molecule, donor type, donor heavy atom, donor atom, acceptor molecule, acceptor atom, score
      L1  H     6    27       P1  8028  2.00
      L1  C    11    33       P1  7948  0.92

> <Gold.PLP.Chemscore.Internal.Correction>
0.0074

> <Gold.Rescore>
     Score         DG    S(hbond)    S(metal)    S(lipo)     H(rot)  DE(clash)    DE(int)     intcor
     19.50     -19.77       1.00        0.00     123.82       1.38       0.07       0.19       ----

> <Gold.Chemscore.Fitness>
19.5029

> <Gold.Chemscore.DG>
-19.7666

> <Gold.Chemscore.ZeroCoef>
-5.4800

> <Gold.Chemscore.Hbond>
0.9955

> <Gold.Chemscore.Metal>
0.0000

> <Gold.Chemscore.Lipo>
123.8154

> <Gold.Chemscore.Internal_Hbond>
0.0000

> <Gold.Chemscore.DEClash>
0.0705

> <Gold.Chemscore.DEInternal>
0.1931

> <Gold.Chemscore.Rot>
1.3768

> <Gold.Chemscore.Internal.Correction>
   9.000000E+99

> <Gold.Chemscore.Hbonds>
donor molecule, donor type, donor heavy atom, donor atom, acceptor molecule, acceptor atom, score
      L1  H     6    27       P1  8028  0.98

> <Gold.Chemscore.Hbond.Weighted>
-3.3249

> <Gold.Chemscore.Metal.Weighted>
-0.0000

> <Gold.Chemscore.Lipo.Weighted>
-14.4864

> <Gold.Chemscore.Internal_Hbond.Weighted>
0.0000

> <Gold.Chemscore.DEClash.Weighted>
0.0705

> <Gold.Chemscore.DEInternal.Weighted>
0.1931

> <Gold.Chemscore.Rot.Weighted>
3.5247

> <Gold.Chemscore.Internal.Correction.Weighted>
   9.000000E+99

> <Gold.Protein.RotatedTorsions>
[ 6907 6896 6895 6894 ] final -125.47 input  -60.11 | X-H torsion
[ 7974 7965 7964 7962 ] final    8.04 input  175.53 | X-H torsion
[ 8008 7997 7996 7995 ] final -124.47 input   59.86 | X-H torsion
[ 10167 10162 10161 10158 ] final   49.91 input  -65.29 | X-H torsion
[ 10718 10713 10712 10709 ] final  146.49 input   66.30 | X-H torsion
[ 10763 10752 10751 10750 ] final  -81.22 input  -60.55 | X-H torsion
[ 11005 11000 10999 10996 ] final   14.22 input  -57.11 | X-H torsion

> <Gold.Protein.ActiveResidues>
 VAL166  LYS551  ARG553  GLY616  TRP617  ASP618  TYR619  PRO620  LYS621  CYS622 
 ASP623  PHE694  ASN695  SER759  ASP760  ASP761  ALA762  ILE779  LEU786  VAL792 
 PHE793  MET794  SER795  GLU796  ALA797  LYS798  CYS799  TRP800  GLU811  SER814 

> <Gold.Protein.RotatedAtoms>
  150.8871  133.7293  159.2915 H   0  0  0  0  0  0  0  0  0  0  0  0  # atno 6907 bound_to 6896
  151.4855  135.1053  159.9799 H   0  0  0  0  0  0  0  0  0  0  0  0  # atno 6908 bound_to 6896
  152.4797  133.8177  159.7092 H   0  0  0  0  0  0  0  0  0  0  0  0  # atno 6909 bound_to 6896
  146.2420  139.9993  142.8417 H   0  0  0  0  0  0  0  0  0  0  0  0  # atno 7974 bound_to 7965
  155.1975  140.0415  157.2911 H   0  0  0  0  0  0  0  0  0  0  0  0  # atno 8008 bound_to 7997
  154.6097  140.2473  155.7656 H   0  0  0  0  0  0  0  0  0  0  0  0  # atno 8009 bound_to 7997
  156.2371  140.2917  156.0353 H   0  0  0  0  0  0  0  0  0  0  0  0  # atno 8010 bound_to 7997
  140.2779  144.3190  150.6272 H   0  0  0  0  0  0  0  0  0  0  0  0  # atno 10167 bound_to 10162
  157.3326  131.0923  151.1150 H   0  0  0  0  0  0  0  0  0  0  0  0  # atno 10718 bound_to 10713
  154.5609  135.5634  153.7007 H   0  0  0  0  0  0  0  0  0  0  0  0  # atno 10763 bound_to 10752
  153.0018  135.6274  154.2245 H   0  0  0  0  0  0  0  0  0  0  0  0  # atno 10764 bound_to 10752
  154.2183  135.2870  155.2913 H   0  0  0  0  0  0  0  0  0  0  0  0  # atno 10765 bound_to 10752
  140.4720  134.1021  155.7734 H   0  0  0  0  0  0  0  0  0  0  0  0  # atno 11005 bound_to 11000
  145.1430  140.9582  143.4477 LP  0  0  0  0  0  0  0  0  0  0  0  0  # atno 17320 bound_to 7965
  145.0277  139.3368  143.6040 LP  0  0  0  0  0  0  0  0  0  0  0  0  # atno 17321 bound_to 7965
  140.5836  143.2171  151.7384 LP  0  0  0  0  0  0  0  0  0  0  0  0  # atno 17342 bound_to 10162
  139.4970  144.4044  152.0147 LP  0  0  0  0  0  0  0  0  0  0  0  0  # atno 17343 bound_to 10162
  157.2392  130.6561  149.5882 LP  0  0  0  0  0  0  0  0  0  0  0  0  # atno 17370 bound_to 10713
  155.9697  130.4574  150.5960 LP  0  0  0  0  0  0  0  0  0  0  0  0  # atno 17371 bound_to 10713
  141.1572  133.8860  157.1945 LP  0  0  0  0  0  0  0  0  0  0  0  0  # atno 17394 bound_to 11000
  139.9879  135.0075  156.9906 LP  0  0  0  0  0  0  0  0  0  0  0  0  # atno 17395 bound_to 11000

$$$$
