AV-unprocessed.smi:2832|AV-procd|sdf|10913|dock1
  -GOLD-   2272015363D 1   1.00000     0.00000
 Structure written by MMmdl.
 33 33  0  0  0  0  0  0  0  0  2 V2000
  147.3643  139.9475  153.4319 C   0  0  0  0  0  0  0  0  0  0  0  0
  148.4238  140.1860  154.5133 C   0  0  0  0  0  0  0  0  0  0  0  0
  149.6288  139.2284  154.3756 C   0  0  0  0  0  0  0  0  0  0  0  0
  150.7214  139.3269  155.4806 C   0  0  2  0  0  0  0  0  0  0  0  0
  150.2333  138.5653  156.7389 C   0  0  0  0  0  0  0  0  0  0  0  0
  151.0247  140.7494  155.7167 N   0  0  0  0  0  0  0  0  0  0  0  0
  151.0307  141.4916  156.8395 C   0  0  0  0  0  0  0  0  0  0  0  0
  150.6396  141.1110  157.9419 O   0  0  0  0  0  0  0  0  0  0  0  0
  151.5724  142.9131  156.6827 C   0  0  0  0  0  0  0  0  0  0  0  0
  151.6811  143.5792  157.9704 N   0  0  0  0  0  0  0  0  0  0  0  0
  150.9614  144.6574  158.4466 C   0  0  0  0  0  0  0  0  0  0  0  0
  151.4096  144.9217  159.7087 C   0  0  0  0  0  0  0  0  0  0  0  0
  152.4133  143.9366  159.9236 C   0  0  0  0  0  0  0  0  0  0  0  0
  152.5696  143.1317  158.8851 N   0  0  0  0  0  0  0  0  0  0  0  0
  152.0493  138.6499  155.0585 C   0  0  0  0  0  0  0  0  0  0  0  0
  153.0782  139.3551  154.9600 O   0  0  0  0  0  0  0  0  0  0  0  0
  152.0131  137.4217  154.8165 O   0  5  0  0  0  0  0  0  0  0  0  0
  146.5226  140.6290  153.5565 H   0  0  0  0  0  0  0  0  0  0  0  0
  146.9781  138.9289  153.4769 H   0  0  0  0  0  0  0  0  0  0  0  0
  147.7772  140.1075  152.4354 H   0  0  0  0  0  0  0  0  0  0  0  0
  148.7493  141.2245  154.4604 H   0  0  0  0  0  0  0  0  0  0  0  0
  147.9568  140.0619  155.4905 H   0  0  0  0  0  0  0  0  0  0  0  0
  149.2434  138.2080  154.3618 H   0  0  0  0  0  0  0  0  0  0  0  0
  150.0870  139.3696  153.3954 H   0  0  0  0  0  0  0  0  0  0  0  0
  150.1324  137.4976  156.5389 H   0  0  0  0  0  0  0  0  0  0  0  0
  149.2532  138.9120  157.0672 H   0  0  0  0  0  0  0  0  0  0  0  0
  150.9241  138.6720  157.5768 H   0  0  0  0  0  0  0  0  0  0  0  0
  151.3664  141.2246  154.8943 H   0  0  0  0  0  0  0  0  0  0  0  0
  152.5580  142.8925  156.2154 H   0  0  0  0  0  0  0  0  0  0  0  0
  150.9180  143.4876  156.0247 H   0  0  0  0  0  0  0  0  0  0  0  0
  150.2023  145.1450  157.8519 H   0  0  0  0  0  0  0  0  0  0  0  0
  151.0722  145.7013  160.3755 H   0  0  0  0  0  0  0  0  0  0  0  0
  153.0276  143.7824  160.7987 H   0  0  0  0  0  0  0  0  0  0  0  0
  1  2  1  0  0  0  0
  1 18  1  0  0  0  0
  1 19  1  0  0  0  0
  1 20  1  0  0  0  0
  2  3  1  0  0  0  0
  2 21  1  0  0  0  0
  2 22  1  0  0  0  0
  3  4  1  0  0  0  0
  3 23  1  0  0  0  0
  3 24  1  0  0  0  0
  4  5  1  0  0  0  0
  4  6  1  0  0  0  0
  4 15  1  0  0  0  0
  5 25  1  0  0  0  0
  5 26  1  0  0  0  0
  5 27  1  0  0  0  0
  6  7  1  0  0  0  0
  6 28  1  0  0  0  0
  7  8  2  0  0  0  0
  7  9  1  0  0  0  0
  9 10  1  0  0  0  0
  9 29  1  0  0  0  0
  9 30  1  0  0  0  0
 10 14  1  0  0  0  0
 10 11  1  0  0  0  0
 11 12  2  0  0  0  0
 11 31  1  0  0  0  0
 12 13  1  0  0  0  0
 12 32  1  0  0  0  0
 13 14  2  0  0  0  0
 13 33  1  0  0  0  0
 15 16  2  0  0  0  0
 15 17  1  0  0  0  0
M  CHG  1  17  -1
M  END
> <s_m_source_file>
AV-unprocessed.smi

> <i_m_source_file_index>
2832

> <i_lp_mmshare_version>
43012

> <i_f3d_flags>
0

> <s_epik_input>
W0NIM11bQ0gyXVtDSDJdW0NAXShbQ0gzXSkoQyg9TylbT0hdKVtOSF1DKD1PKVtDSDJdbjFbY0hdW2NIXVtjSF1uMQ==

> <s_epik_cmdline>
J2VwaWtfcHl0aG9uJywgJy1waCcsICc3LjAnLCAnLXRuJywgJzgnLCAnLW1hJywgJzIwMCcsICctbWV0YWxfYmluZGluZycsICctaW1hZScsICc8aW5maWxlLm1hZT4nLCAnLW9tYWUnLCAnPG91dGZpbGUubWFlPic=

> <r_lp_tautomer_probability>
1

> <r_epik_Ionization_Penalty>
0.000287256

> <r_epik_Ionization_Penalty_Charging>
0.00026921

> <r_epik_Ionization_Penalty_Neutral>
1.80463e-05

> <r_epik_State_Penalty>
-0

> <r_epik_Charging_Adjusted_Penalty>
0.00026921

> <i_epik_Tot_Q>
-1

> <i_epik_Tot_abs_Q>
1

> <r_epik_Metal_State_Penalty>
-0

> <b_epik_Metal_Only>
0

> <s_lp_Force_Field>
OPLS_2005

> <r_lp_Energy>
2.74442

> <b_lp_Chiralities_Consistent>
1

> <s_lp_Variant>
AV-unprocessed.smi:2832-2

> <Gold.Version>
5.8.1

> <Gold.Id.Protein>
6NUR|6NUR_protein|mol2

> <Gold.PLP.Fitness>
46.6506

> <Gold.PLP.PLP>
-33.4512

> <Gold.PLP.part.hbond>
-2.8024

> <Gold.PLP.part.metal>
0.0000

> <Gold.PLP.part.buried>
-7.1972

> <Gold.PLP.part.nonpolar>
-25.4777

> <Gold.PLP.part.repulsive>
0.6108

> <Gold.PLP.ligand.clash>
0.0000

> <Gold.PLP.ligand.torsion>
0.3725

> <Gold.PLP.Chemscore.Hbond>
3.6494

> <Gold.PLP.Chemscore.CHOScore>
0.9516

> <Gold.PLP.Chemscore.Metal>
0.0000

> <Gold.Chemscore.Hbonds>
donor molecule, donor type, donor heavy atom, donor atom, acceptor molecule, acceptor atom, score
      P1  H  7997  8009       L1    16  2.00
      P1  H 10752 10764       L1    17  1.65
      L1  C    11    31       P1  8028  0.41
      L1  C    11    31       P1  8029  0.54

> <Gold.PLP.Chemscore.Internal.Correction>
0.1412

> <Gold.Rescore>
     Score         DG    S(hbond)    S(metal)    S(lipo)     H(rot)  DE(clash)    DE(int)     intcor
     10.97     -13.89       1.85        0.00      73.06       2.47       1.09       1.83       ----

> <Gold.Chemscore.Fitness>
10.9697

> <Gold.Chemscore.DG>
-13.8878

> <Gold.Chemscore.ZeroCoef>
-5.4800

> <Gold.Chemscore.Hbond>
1.8531

> <Gold.Chemscore.Metal>
0.0000

> <Gold.Chemscore.Lipo>
73.0622

> <Gold.Chemscore.Internal_Hbond>
0.0000

> <Gold.Chemscore.DEClash>
1.0860

> <Gold.Chemscore.DEInternal>
1.8321

> <Gold.Chemscore.Rot>
2.4726

> <Gold.Chemscore.Internal.Correction>
   9.000000E+99

> <Gold.Chemscore.Hbonds>
donor molecule, donor type, donor heavy atom, donor atom, acceptor molecule, acceptor atom, score
      P1  H  7997  8009       L1    16  1.00
      P1  H 10752 10764       L1    17  0.78

> <Gold.Chemscore.Hbond.Weighted>
-6.1893

> <Gold.Chemscore.Metal.Weighted>
-0.0000

> <Gold.Chemscore.Lipo.Weighted>
-8.5483

> <Gold.Chemscore.Internal_Hbond.Weighted>
0.0000

> <Gold.Chemscore.DEClash.Weighted>
1.0860

> <Gold.Chemscore.DEInternal.Weighted>
1.8321

> <Gold.Chemscore.Rot.Weighted>
6.3297

> <Gold.Chemscore.Internal.Correction.Weighted>
   9.000000E+99

> <Gold.Protein.RotatedTorsions>
[ 6907 6896 6895 6894 ] final  121.34 input  -60.11 | X-H torsion
[ 7974 7965 7964 7962 ] final   18.05 input  175.53 | X-H torsion
[ 8008 7997 7996 7995 ] final -141.98 input   59.86 | X-H torsion
[ 10167 10162 10161 10158 ] final   -0.38 input  -65.29 | X-H torsion
[ 10718 10713 10712 10709 ] final   86.51 input   66.30 | X-H torsion
[ 10763 10752 10751 10750 ] final  -66.76 input  -60.55 | X-H torsion
[ 11005 11000 10999 10996 ] final  140.72 input  -57.11 | X-H torsion

> <Gold.Protein.ActiveResidues>
 VAL166  LYS551  ARG553  GLY616  TRP617  ASP618  TYR619  PRO620  LYS621  CYS622 
 ASP623  PHE694  ASN695  SER759  ASP760  ASP761  ALA762  ILE779  LEU786  VAL792 
 PHE793  MET794  SER795  GLU796  ALA797  LYS798  CYS799  TRP800  GLU811  SER814 

> <Gold.Protein.RotatedAtoms>
  152.4329  133.7309  159.6586 H   0  0  0  0  0  0  0  0  0  0  0  0  # atno 6907 bound_to 6896
  150.8210  133.8243  159.3145 H   0  0  0  0  0  0  0  0  0  0  0  0  # atno 6908 bound_to 6896
  151.5925  135.1055  160.0094 H   0  0  0  0  0  0  0  0  0  0  0  0  # atno 6909 bound_to 6896
  146.2198  139.8513  142.8622 H   0  0  0  0  0  0  0  0  0  0  0  0  # atno 7974 bound_to 7965
  155.4868  140.0564  157.2959 H   0  0  0  0  0  0  0  0  0  0  0  0  # atno 8008 bound_to 7997
  154.4639  140.2009  156.0123 H   0  0  0  0  0  0  0  0  0  0  0  0  # atno 8009 bound_to 7997
  156.0939  140.3229  155.7856 H   0  0  0  0  0  0  0  0  0  0  0  0  # atno 8010 bound_to 7997
  140.6765  143.6901  150.8035 H   0  0  0  0  0  0  0  0  0  0  0  0  # atno 10167 bound_to 10162
  157.6929  131.0218  150.2983 H   0  0  0  0  0  0  0  0  0  0  0  0  # atno 10718 bound_to 10713
  154.3646  135.6108  153.5708 H   0  0  0  0  0  0  0  0  0  0  0  0  # atno 10763 bound_to 10752
  152.9792  135.5823  154.4593 H   0  0  0  0  0  0  0  0  0  0  0  0  # atno 10764 bound_to 10752
  154.4337  135.2848  155.1873 H   0  0  0  0  0  0  0  0  0  0  0  0  # atno 10765 bound_to 10752
  140.0348  134.9334  157.0732 H   0  0  0  0  0  0  0  0  0  0  0  0  # atno 11005 bound_to 11000
  145.2799  141.0135  143.3723 LP  0  0  0  0  0  0  0  0  0  0  0  0  # atno 17320 bound_to 7965
  144.9158  139.4472  143.6565 LP  0  0  0  0  0  0  0  0  0  0  0  0  # atno 17321 bound_to 7965
  140.0595  143.5169  152.2635 LP  0  0  0  0  0  0  0  0  0  0  0  0  # atno 17342 bound_to 10162
  139.6060  144.7596  151.3060 LP  0  0  0  0  0  0  0  0  0  0  0  0  # atno 17343 bound_to 10162
  156.3503  130.3830  149.7334 LP  0  0  0  0  0  0  0  0  0  0  0  0  # atno 17370 bound_to 10713
  156.4814  130.8043  151.3057 LP  0  0  0  0  0  0  0  0  0  0  0  0  # atno 17371 bound_to 10713
  140.4165  134.1925  155.7163 LP  0  0  0  0  0  0  0  0  0  0  0  0  # atno 17394 bound_to 11000
  141.1851  133.8330  157.1116 LP  0  0  0  0  0  0  0  0  0  0  0  0  # atno 17395 bound_to 11000

$$$$
