#       Name:                AV-unprocessed.smi:3283
#       Creating user name   scv26
#       Creation time:       Fri Mar 27 18:48:57 2020


#       File generated by GOLD software.
#

@<TRIPOS>MOLECULE
AV-unprocessed.smi:3283
    45    46     1
SMALL
NO_CHARGES


@<TRIPOS>ATOM
      1 ****        -0.5909   0.7969  -2.3810 C.3            1 S1                 0.0000
      2 ****        -1.7234   1.0397  -1.3972 C.2            1 S1                 0.0000
      3 ****        -2.8666   1.6101  -1.8232 C.2            1 S1                 0.0000
      4 ****        -4.0267   1.9687  -0.9239 C.3            1 S1                 0.0000
      5 ****        -3.5748   2.0850   0.5337 C.3            1 S1                 0.0000
      6 ****        -2.7569   0.8578   0.9679 C.3            1 S1                 0.0000
      7 ****        -2.4053   0.9802   2.4636 C.3            1 S1                 0.0000
      8 ****        -1.4964   0.6382   0.0751 C.3            1 S1                 0.0000
      9 ****        -0.9838  -0.8186   0.2279 C.3            1 S1                 0.0000
     10 ****         0.4358  -0.9687  -0.1501 N.4            1 S1                 1.0000
     11 ****         0.9420  -2.3532  -0.0741 C.3            1 S1                 0.0000
     12 ****         2.4236  -2.4388  -0.4710 C.3            1 S1                 0.0000
     13 ****         3.3347  -1.6730   0.4394 C.2            1 S1                 0.0000
     14 ****         3.8718  -2.0421   1.6409 C.2            1 S1                 0.0000
     15 ****         4.6333  -0.9114   2.0446 C.2            1 S1                 0.0000
     16 ****         4.5723   0.0772   1.1701 N.2            1 S1                 0.0000
     17 ****         3.7818  -0.3874   0.1795 N.pl3          1 S1                 0.0000
     18 ****         3.5119   0.4703  -0.9597 C.3            1 S1                 0.0000
     19 ****         0.3405   1.2152  -2.0003 H              1 S1                 0.0000
     20 ****        -0.7940   1.2698  -3.3425 H              1 S1                 0.0000
     21 ****        -0.4546  -0.2682  -2.5664 H              1 S1                 0.0000
     22 ****        -2.9908   1.8549  -2.8683 H              1 S1                 0.0000
     23 ****        -4.4554   2.9156  -1.2532 H              1 S1                 0.0000
     24 ****        -4.8018   1.2096  -1.0327 H              1 S1                 0.0000
     25 ****        -2.9728   2.9869   0.6569 H              1 S1                 0.0000
     26 ****        -4.4491   2.2084   1.1739 H              1 S1                 0.0000
     27 ****        -3.4081  -0.0102   0.8510 H              1 S1                 0.0000
     28 ****        -1.7443   1.8284   2.6453 H              1 S1                 0.0000
     29 ****        -1.9133   0.0898   2.8518 H              1 S1                 0.0000
     30 ****        -3.3033   1.1310   3.0638 H              1 S1                 0.0000
     31 ****        -0.7216   1.3130   0.4423 H              1 S1                 0.0000
     32 ****        -1.0748  -1.1617   1.2572 H              1 S1                 0.0000
     33 ****        -1.5979  -1.4909  -0.3733 H              1 S1                 0.0000
     34 ****         0.5486  -0.6384  -1.0980 H              1 S1                 0.0000
     35 ****         0.8048  -2.7354   0.9384 H              1 S1                 0.0000
     36 ****         0.3488  -2.9838  -0.7376 H              1 S1                 0.0000
     37 ****         2.7260  -3.4865  -0.4661 H              1 S1                 0.0000
     38 ****         2.5468  -2.1082  -1.5022 H              1 S1                 0.0000
     39 ****         3.7388  -2.9814   2.1572 H              1 S1                 0.0000
     40 ****         5.2216  -0.7799   2.9409 H              1 S1                 0.0000
     41 ****         3.6300  -0.0898  -1.8874 H              1 S1                 0.0000
     42 ****         4.2044   1.3134  -0.9766 H              1 S1                 0.0000
     43 ****         2.4947   0.8550  -0.8966 H              1 S1                 0.0000
     44 ****         0.9928  -0.3890   0.4616 H              1 S1                 0.0000
     45 ****         5.0143   0.9723   1.2291 LP             1 S1                 0.0000
@<TRIPOS>BOND
    1    1    2 1     
    2    1   19 1     
    3    1   20 1     
    4    1   21 1     
    5    2    8 1     
    6    2    3 2     
    7    3    4 1     
    8    3   22 1     
    9    4    5 1     
   10    4   23 1     
   11    4   24 1     
   12    5    6 1     
   13    5   25 1     
   14    5   26 1     
   15    6    7 1     
   16    6    8 1     
   17    6   27 1     
   18    7   28 1     
   19    7   29 1     
   20    7   30 1     
   21    8    9 1     
   22    8   31 1     
   23    9   10 1     
   24    9   32 1     
   25    9   33 1     
   26   10   11 1     
   27   10   34 1     
   28   10   44 1     
   29   11   12 1     
   30   11   35 1     
   31   11   36 1     
   32   12   13 1     
   33   12   37 1     
   34   12   38 1     
   35   13   17 1     
   36   13   14 2     
   37   14   15 1     
   38   14   39 1     
   39   15   16 2     
   40   15   40 1     
   41   16   17 1     
   42   17   18 1     
   43   18   41 1     
   44   18   42 1     
   45   18   43 1     
   46   16   45 1     
@<TRIPOS>SUBSTRUCTURE
      1 S1             1
@<TRIPOS>SET
LONE_PAIRS      STATIC     ATOMS    <user>   **** ""
1 45
DONOR_HYDROGENS      STATIC     ATOMS    <user>   **** ""
2 34 44
ATOM$BLUE        STATIC     ATOMS    COLORGROUP SYSTEM
1 45
ATOM$RED        STATIC     ATOMS    COLORGROUP SYSTEM
2 34 44
