AV-unprocessed.smi:898|AV-procd|sdf|4084|dock1
  -GOLD-   22720 1573D 1   1.00000     0.00000
 Structure written by MMmdl.
 34 36  0  0  0  0  0  0  0  0  1 V2000
  151.4053  141.1489  157.0545 O   0  0  0  0  0  0  0  0  0  0  0  0
  150.6649  142.0739  156.7194 C   0  0  0  0  0  0  0  0  0  0  0  0
  149.7251  142.0097  155.7600 N   0  0  0  0  0  0  0  0  0  0  0  0
  149.3806  140.9048  154.9373 C   0  0  0  0  0  0  0  0  0  0  0  0
  150.2295  139.9167  154.6226 N   0  0  0  0  0  0  0  0  0  0  0  0
  149.6359  138.9648  153.8055 N   0  0  0  0  0  0  0  0  0  0  0  0
  148.3596  139.2576  153.5277 C   0  0  0  0  0  0  0  0  0  0  0  0
  147.5109  138.3815  152.6677 C   0  0  0  0  0  0  0  0  0  0  0  0
  146.8086  138.9167  151.4387 C   0  0  0  0  0  0  0  0  0  0  0  0
  146.0071  138.5335  152.6564 C   0  0  0  0  0  0  0  0  0  0  0  0
  147.7714  140.7502  154.2537 S   0  0  0  0  0  0  0  0  0  0  0  0
  150.6998  143.2905  157.2827 N   0  0  0  0  0  0  0  0  0  0  0  0
  151.6060  143.7003  158.3521 C   0  0  1  0  0  0  0  0  0  0  0  0
  151.0696  144.9900  159.0021 C   0  0  0  0  0  0  0  0  0  0  0  0
  152.0051  145.5365  160.0926 C   0  0  0  0  0  0  0  0  0  0  0  0
  152.1967  144.5443  161.2481 C   0  0  0  0  0  0  0  0  0  0  0  0
  152.9671  143.0072  160.6721 S   0  0  0  0  0  0  0  0  0  0  0  0
  151.7685  142.5662  159.3834 C   0  0  0  0  0  0  0  0  0  0  0  0
  149.1923  142.8515  155.5986 H   0  0  0  0  0  0  0  0  0  0  0  0
  147.9224  137.3753  152.6201 H   0  0  0  0  0  0  0  0  0  0  0  0
  146.8951  139.9783  151.2157 H   0  0  0  0  0  0  0  0  0  0  0  0
  146.7478  138.2626  150.5713 H   0  0  0  0  0  0  0  0  0  0  0  0
  145.4117  137.6245  152.6021 H   0  0  0  0  0  0  0  0  0  0  0  0
  145.5756  139.3398  153.2465 H   0  0  0  0  0  0  0  0  0  0  0  0
  150.0539  143.9888  156.9451 H   0  0  0  0  0  0  0  0  0  0  0  0
  152.5817  143.9216  157.9147 H   0  0  0  0  0  0  0  0  0  0  0  0
  150.9377  145.7551  158.2358 H   0  0  0  0  0  0  0  0  0  0  0  0
  150.0810  144.8098  159.4267 H   0  0  0  0  0  0  0  0  0  0  0  0
  152.9733  145.7881  159.6577 H   0  0  0  0  0  0  0  0  0  0  0  0
  151.5950  146.4681  160.4836 H   0  0  0  0  0  0  0  0  0  0  0  0
  152.8277  144.9826  162.0216 H   0  0  0  0  0  0  0  0  0  0  0  0
  151.2380  144.3101  161.7121 H   0  0  0  0  0  0  0  0  0  0  0  0
  150.8122  142.3358  159.8542 H   0  0  0  0  0  0  0  0  0  0  0  0
  152.1144  141.6520  158.9002 H   0  0  0  0  0  0  0  0  0  0  0  0
  1  2  2  0  0  0  0
  2  3  1  0  0  0  0
  2 12  1  0  0  0  0
  3  4  1  0  0  0  0
  3 19  1  0  0  0  0
  4 11  1  0  0  0  0
  4  5  2  0  0  0  0
  5  6  1  0  0  0  0
  6  7  2  0  0  0  0
  7  8  1  0  0  0  0
  7 11  1  0  0  0  0
  8 10  1  0  0  0  0
  8  9  1  0  0  0  0
  8 20  1  0  0  0  0
  9 10  1  0  0  0  0
  9 21  1  0  0  0  0
  9 22  1  0  0  0  0
 10 23  1  0  0  0  0
 10 24  1  0  0  0  0
 12 13  1  0  0  0  0
 12 25  1  0  0  0  0
 13 18  1  0  0  0  0
 13 14  1  0  0  0  0
 13 26  1  0  0  0  0
 14 15  1  0  0  0  0
 14 27  1  0  0  0  0
 14 28  1  0  0  0  0
 15 16  1  0  0  0  0
 15 29  1  0  0  0  0
 15 30  1  0  0  0  0
 16 17  1  0  0  0  0
 16 31  1  0  0  0  0
 16 32  1  0  0  0  0
 17 18  1  0  0  0  0
 18 33  1  0  0  0  0
 18 34  1  0  0  0  0
M  END
> <s_m_source_file>
AV-unprocessed.smi

> <i_m_source_file_index>
898

> <i_lp_mmshare_version>
43012

> <i_f3d_flags>
0

> <s_epik_input>
W0NIMl0xU1tDSDJdW0NIMl1bQ0gyXVtDQEhdMVtOSF1DKD1PKVtOSF1jMm5uYyhzMilbQ0hdM1tDSDJdW0NIMl0z

> <s_epik_cmdline>
J2VwaWtfcHl0aG9uJywgJy1waCcsICc3LjAnLCAnLXRuJywgJzgnLCAnLW1hJywgJzIwMCcsICctbWV0YWxfYmluZGluZycsICctaW1hZScsICc8aW5maWxlLm1hZT4nLCAnLW9tYWUnLCAnPG91dGZpbGUubWFlPic=

> <r_lp_tautomer_probability>
1

> <r_epik_Ionization_Penalty>
0.000291725

> <r_epik_Ionization_Penalty_Charging>
0

> <r_epik_Ionization_Penalty_Neutral>
0.000291725

> <r_epik_State_Penalty>
-0

> <r_epik_Charging_Adjusted_Penalty>
0

> <i_epik_Tot_Q>
0

> <i_epik_Tot_abs_Q>
0

> <r_epik_Metal_State_Penalty>
0.160962

> <b_epik_Metal_Only>
0

> <s_lp_Force_Field>
OPLS_2005

> <r_lp_Energy>
2.40818

> <b_lp_Chiralities_Consistent>
1

> <s_lp_Variant>
AV-unprocessed.smi:898-2

> <Gold.Version>
5.8.1

> <Gold.Id.Protein>
6NUR|6NUR_protein|mol2

> <Gold.PLP.Fitness>
42.0146

> <Gold.PLP.PLP>
-34.1257

> <Gold.PLP.part.hbond>
-3.0000

> <Gold.PLP.part.metal>
0.0000

> <Gold.PLP.part.buried>
4.8013

> <Gold.PLP.part.nonpolar>
-37.5272

> <Gold.PLP.part.repulsive>
2.3004

> <Gold.PLP.ligand.clash>
0.0000

> <Gold.PLP.ligand.torsion>
0.6244

> <Gold.PLP.Chemscore.Hbond>
3.0000

> <Gold.PLP.Chemscore.CHOScore>
0.0000

> <Gold.PLP.Chemscore.Metal>
0.0000

> <Gold.Chemscore.Hbonds>
donor molecule, donor type, donor heavy atom, donor atom, acceptor molecule, acceptor atom, score
      L1  H     3    19       P1  8028  1.00
      L1  H    12    25       P1  8028  1.00
      P1  H  7989  7998       L1     5  0.99

> <Gold.PLP.Chemscore.Internal.Correction>
0.1377

> <Gold.Rescore>
     Score         DG    S(hbond)    S(metal)    S(lipo)     H(rot)  DE(clash)    DE(int)     intcor
     16.14     -21.13       1.92        0.00     105.24       1.20       1.79       3.20       ----

> <Gold.Chemscore.Fitness>
16.1371

> <Gold.Chemscore.DG>
-21.1331

> <Gold.Chemscore.ZeroCoef>
-5.4800

> <Gold.Chemscore.Hbond>
1.9235

> <Gold.Chemscore.Metal>
0.0000

> <Gold.Chemscore.Lipo>
105.2405

> <Gold.Chemscore.Internal_Hbond>
0.0000

> <Gold.Chemscore.DEClash>
1.7920

> <Gold.Chemscore.DEInternal>
3.2040

> <Gold.Chemscore.Rot>
1.2050

> <Gold.Chemscore.Internal.Correction>
   9.000000E+99

> <Gold.Chemscore.Hbonds>
donor molecule, donor type, donor heavy atom, donor atom, acceptor molecule, acceptor atom, score
      L1  H     3    19       P1  8028  0.98
      L1  H    12    25       P1  8028  0.94
      P1  H  7989  7998       L1     5  0.22

> <Gold.Chemscore.Hbond.Weighted>
-6.4246

> <Gold.Chemscore.Metal.Weighted>
-0.0000

> <Gold.Chemscore.Lipo.Weighted>
-12.3131

> <Gold.Chemscore.Internal_Hbond.Weighted>
0.0000

> <Gold.Chemscore.DEClash.Weighted>
1.7920

> <Gold.Chemscore.DEInternal.Weighted>
3.2040

> <Gold.Chemscore.Rot.Weighted>
3.0847

> <Gold.Chemscore.Internal.Correction.Weighted>
   9.000000E+99

> <Gold.Protein.RotatedTorsions>
[ 6907 6896 6895 6894 ] final  140.96 input  -60.11 | X-H torsion
[ 7974 7965 7964 7962 ] final   95.34 input  175.53 | X-H torsion
[ 8008 7997 7996 7995 ] final   -1.46 input   59.86 | X-H torsion
[ 10167 10162 10161 10158 ] final  -80.43 input  -65.29 | X-H torsion
[ 10718 10713 10712 10709 ] final   33.99 input   66.30 | X-H torsion
[ 10763 10752 10751 10750 ] final   -1.03 input  -60.55 | X-H torsion
[ 11005 11000 10999 10996 ] final  177.21 input  -57.11 | X-H torsion

> <Gold.Protein.ActiveResidues>
 VAL166  LYS551  ARG553  GLY616  TRP617  ASP618  TYR619  PRO620  LYS621  CYS622 
 ASP623  PHE694  ASN695  SER759  ASP760  ASP761  ALA762  ILE779  LEU786  VAL792 
 PHE793  MET794  SER795  GLU796  ALA797  LYS798  CYS799  TRP800  GLU811  SER814 

> <Gold.Protein.RotatedAtoms>
  152.2367  133.5102  159.5246 H   0  0  0  0  0  0  0  0  0  0  0  0  # atno 6907 bound_to 6896
  150.7052  134.1144  159.4021 H   0  0  0  0  0  0  0  0  0  0  0  0  # atno 6908 bound_to 6896
  151.9065  135.0357  160.0561 H   0  0  0  0  0  0  0  0  0  0  0  0  # atno 6909 bound_to 6896
  145.4535  139.2291  143.3027 H   0  0  0  0  0  0  0  0  0  0  0  0  # atno 7974 bound_to 7965
  154.6465  140.2559  155.7262 H   0  0  0  0  0  0  0  0  0  0  0  0  # atno 8008 bound_to 7997
  156.2554  140.2876  156.0802 H   0  0  0  0  0  0  0  0  0  0  0  0  # atno 8009 bound_to 7997
  155.1516  140.0382  157.2812 H   0  0  0  0  0  0  0  0  0  0  0  0  # atno 8010 bound_to 7997
  140.4504  143.2485  151.8497 H   0  0  0  0  0  0  0  0  0  0  0  0  # atno 10167 bound_to 10162
  157.3047  130.7368  149.6688 H   0  0  0  0  0  0  0  0  0  0  0  0  # atno 10718 bound_to 10713
  153.3396  135.6980  153.6878 H   0  0  0  0  0  0  0  0  0  0  0  0  # atno 10763 bound_to 10752
  153.5648  135.3528  155.2814 H   0  0  0  0  0  0  0  0  0  0  0  0  # atno 10764 bound_to 10752
  154.8634  135.4258  154.2606 H   0  0  0  0  0  0  0  0  0  0  0  0  # atno 10765 bound_to 10752
  140.3816  134.6941  157.4454 H   0  0  0  0  0  0  0  0  0  0  0  0  # atno 11005 bound_to 11000
  146.2491  140.5296  142.8901 LP  0  0  0  0  0  0  0  0  0  0  0  0  # atno 17320 bound_to 7965
  144.8047  140.6277  143.6455 LP  0  0  0  0  0  0  0  0  0  0  0  0  # atno 17321 bound_to 7965
  139.4796  144.5126  151.8911 LP  0  0  0  0  0  0  0  0  0  0  0  0  # atno 17342 bound_to 10162
  140.4214  144.2238  150.5887 LP  0  0  0  0  0  0  0  0  0  0  0  0  # atno 17343 bound_to 10162
  155.9673  130.4269  150.4721 LP  0  0  0  0  0  0  0  0  0  0  0  0  # atno 17370 bound_to 10713
  157.2708  131.0586  151.2261 LP  0  0  0  0  0  0  0  0  0  0  0  0  # atno 17371 bound_to 10713
  140.0474  134.6180  155.8904 LP  0  0  0  0  0  0  0  0  0  0  0  0  # atno 17394 bound_to 11000
  141.1921  133.6574  156.5488 LP  0  0  0  0  0  0  0  0  0  0  0  0  # atno 17395 bound_to 11000

$$$$
