AV-unprocessed.smi:1538|AV-procd|sdf|6193|dock2
  -GOLD-   22720 6363D 1   1.00000     0.00000
 Structure written by MMmdl.
 37 38  0  0  0  0  0  0  0  0  2 V2000
  152.9541  142.2781  160.1992 C   0  0  0  0  0  0  0  0  0  0  0  0
  152.2304  141.9961  158.9585 N   0  0  0  0  0  0  0  0  0  0  0  0
  151.2909  143.0452  158.5384 C   0  0  0  0  0  0  0  0  0  0  0  0
  150.2601  142.5694  157.5067 C   0  0  0  0  0  0  0  0  0  0  0  0
  150.9606  141.7973  156.3815 C   0  0  2  0  0  0  0  0  0  0  0  0
  149.9511  141.3733  155.3057 C   0  0  0  0  0  0  0  0  0  0  0  0
  150.1191  140.3336  154.6675 O   0  0  0  0  0  0  0  0  0  0  0  0
  148.9004  142.1845  155.1164 N   0  0  0  0  0  0  0  0  0  0  0  0
  147.8394  141.9380  154.1504 C   0  0  0  0  0  0  0  0  0  0  0  0
  146.7255  141.0863  154.7734 C   0  0  0  0  0  0  0  0  0  0  0  0
  146.6617  139.7546  154.1681 N   0  0  0  0  0  0  0  0  0  0  0  0
  145.7442  138.7685  154.4258 C   0  0  0  0  0  0  0  0  0  0  0  0
  146.0766  137.7068  153.6243 C   0  0  0  0  0  0  0  0  0  0  0  0
  147.1819  138.0894  152.9123 N   0  3  0  0  0  0  0  0  0  0  0  0
  147.5356  139.3356  153.2437 C   0  0  0  0  0  0  0  0  0  0  0  0
  151.6916  140.5743  156.9714 C   0  0  0  0  0  0  0  0  0  0  0  0
  152.4918  140.8701  158.2512 C   0  0  0  0  0  0  0  0  0  0  0  0
  153.3341  140.0461  158.6090 O   0  0  0  0  0  0  0  0  0  0  0  0
  154.0323  142.1997  160.0507 H   0  0  0  0  0  0  0  0  0  0  0  0
  152.6636  141.5698  160.9761 H   0  0  0  0  0  0  0  0  0  0  0  0
  152.7532  143.2828  160.5730 H   0  0  0  0  0  0  0  0  0  0  0  0
  150.7649  143.4464  159.4060 H   0  0  0  0  0  0  0  0  0  0  0  0
  151.8726  143.8671  158.1190 H   0  0  0  0  0  0  0  0  0  0  0  0
  149.5236  141.9320  157.9991 H   0  0  0  0  0  0  0  0  0  0  0  0
  149.7140  143.4259  157.1092 H   0  0  0  0  0  0  0  0  0  0  0  0
  151.7016  142.4548  155.9224 H   0  0  0  0  0  0  0  0  0  0  0  0
  148.8322  143.0201  155.6792 H   0  0  0  0  0  0  0  0  0  0  0  0
  147.4348  142.8915  153.8066 H   0  0  0  0  0  0  0  0  0  0  0  0
  148.2565  141.4308  153.2788 H   0  0  0  0  0  0  0  0  0  0  0  0
  146.8789  140.9696  155.8475 H   0  0  0  0  0  0  0  0  0  0  0  0
  145.7531  141.5613  154.6361 H   0  0  0  0  0  0  0  0  0  0  0  0
  144.9431  138.8928  155.1401 H   0  0  0  0  0  0  0  0  0  0  0  0
  145.6208  136.7339  153.5099 H   0  0  0  0  0  0  0  0  0  0  0  0
  148.3636  139.8929  152.8424 H   0  0  0  0  0  0  0  0  0  0  0  0
  150.9787  139.7861  157.2192 H   0  0  0  0  0  0  0  0  0  0  0  0
  152.3671  140.1543  156.2247 H   0  0  0  0  0  0  0  0  0  0  0  0
  147.6631  137.5146  152.2319 H   0  0  0  0  0  0  0  0  0  0  0  0
  1  2  1  0  0  0  0
  1 19  1  0  0  0  0
  1 20  1  0  0  0  0
  1 21  1  0  0  0  0
  2 17  1  0  0  0  0
  2  3  1  0  0  0  0
  3  4  1  0  0  0  0
  3 22  1  0  0  0  0
  3 23  1  0  0  0  0
  4  5  1  0  0  0  0
  4 24  1  0  0  0  0
  4 25  1  0  0  0  0
  5  6  1  0  0  0  0
  5 16  1  0  0  0  0
  5 26  1  0  0  0  0
  6  7  2  0  0  0  0
  6  8  1  0  0  0  0
  8  9  1  0  0  0  0
  8 27  1  0  0  0  0
  9 10  1  0  0  0  0
  9 28  1  0  0  0  0
  9 29  1  0  0  0  0
 10 11  1  0  0  0  0
 10 30  1  0  0  0  0
 10 31  1  0  0  0  0
 11 15  1  0  0  0  0
 11 12  1  0  0  0  0
 12 13  2  0  0  0  0
 12 32  1  0  0  0  0
 13 14  1  0  0  0  0
 13 33  1  0  0  0  0
 14 15  2  0  0  0  0
 14 37  1  0  0  0  0
 15 34  1  0  0  0  0
 16 17  1  0  0  0  0
 16 35  1  0  0  0  0
 16 36  1  0  0  0  0
 17 18  2  0  0  0  0
M  CHG  1  14   1
M  END
> <s_m_source_file>
AV-unprocessed.smi

> <i_m_source_file_index>
1538

> <i_lp_mmshare_version>
43012

> <i_f3d_flags>
0

> <s_epik_input>
W0NIM11OMVtDSDJdW0NIMl1bQ0BIXShbQ0gyXUMxPU8pQyg9TylbTkhdW0NIMl1bQ0gyXW4yW2NIXVtjSF1uW2NIXTI=

> <s_epik_cmdline>
J2VwaWtfcHl0aG9uJywgJy1waCcsICc3LjAnLCAnLXRuJywgJzgnLCAnLW1hJywgJzIwMCcsICctbWV0YWxfYmluZGluZycsICctaW1hZScsICc8aW5maWxlLm1hZT4nLCAnLW9tYWUnLCAnPG91dGZpbGUubWFlPic=

> <r_lp_tautomer_probability>
1

> <r_epik_Ionization_Penalty>
0.272873

> <r_epik_Ionization_Penalty_Charging>
0

> <r_epik_Ionization_Penalty_Neutral>
0.272873

> <r_epik_State_Penalty>
0.265096

> <r_epik_Charging_Adjusted_Penalty>
0.265096

> <i_epik_Tot_Q>
1

> <i_epik_Tot_abs_Q>
1

> <r_epik_Metal_State_Penalty>
0.549113

> <b_epik_Metal_Only>
0

> <s_lp_Force_Field>
OPLS_2005

> <r_lp_Energy>
17.9959

> <b_lp_Chiralities_Consistent>
1

> <s_lp_Variant>
AV-unprocessed.smi:1538-2

> <Gold.Version>
5.8.1

> <Gold.Id.Protein>
6NUR|6NUR_protein|mol2

> <Gold.PLP.Fitness>
47.0524

> <Gold.PLP.PLP>
-31.9429

> <Gold.PLP.part.hbond>
-4.0000

> <Gold.PLP.part.metal>
0.0000

> <Gold.PLP.part.buried>
-2.4914

> <Gold.PLP.part.nonpolar>
-24.9925

> <Gold.PLP.part.repulsive>
0.3279

> <Gold.PLP.ligand.clash>
0.0000

> <Gold.PLP.ligand.torsion>
1.2985

> <Gold.PLP.Chemscore.Hbond>
4.8960

> <Gold.PLP.Chemscore.CHOScore>
1.0000

> <Gold.PLP.Chemscore.Metal>
0.0000

> <Gold.Chemscore.Hbonds>
donor molecule, donor type, donor heavy atom, donor atom, acceptor molecule, acceptor atom, score
      L1  H     8    27       P1  8028  0.90
      L1  H    14    37       P1  7948  2.00
      P1  H  7989  7998       L1     7  1.00
      P1  H  7997  8008       L1    18  1.00
      L1  C    15    34       P1  7957  1.00

> <Gold.PLP.Chemscore.Internal.Correction>
0.0186

> <Gold.Rescore>
     Score         DG    S(hbond)    S(metal)    S(lipo)     H(rot)  DE(clash)    DE(int)     intcor
     15.64     -16.92       3.07        0.00      54.87       2.05       0.05       1.23       ----

> <Gold.Chemscore.Fitness>
15.6356

> <Gold.Chemscore.DG>
-16.9182

> <Gold.Chemscore.ZeroCoef>
-5.4800

> <Gold.Chemscore.Hbond>
3.0721

> <Gold.Chemscore.Metal>
0.0000

> <Gold.Chemscore.Lipo>
54.8687

> <Gold.Chemscore.Internal_Hbond>
0.0000

> <Gold.Chemscore.DEClash>
0.0495

> <Gold.Chemscore.DEInternal>
1.2331

> <Gold.Chemscore.Rot>
2.0478

> <Gold.Chemscore.Internal.Correction>
   9.000000E+99

> <Gold.Chemscore.Hbonds>
donor molecule, donor type, donor heavy atom, donor atom, acceptor molecule, acceptor atom, score
      L1  H     8    27       P1  8028  0.88
      L1  H    14    37       P1  7948  0.94
      P1  H  7989  7998       L1     7  0.24
      P1  H  7997  8008       L1    18  0.41

> <Gold.Chemscore.Hbond.Weighted>
-10.2609

> <Gold.Chemscore.Metal.Weighted>
-0.0000

> <Gold.Chemscore.Lipo.Weighted>
-6.4196

> <Gold.Chemscore.Internal_Hbond.Weighted>
0.0000

> <Gold.Chemscore.DEClash.Weighted>
0.0495

> <Gold.Chemscore.DEInternal.Weighted>
1.2331

> <Gold.Chemscore.Rot.Weighted>
5.2423

> <Gold.Chemscore.Internal.Correction.Weighted>
   9.000000E+99

> <Gold.Protein.RotatedTorsions>
[ 6907 6896 6895 6894 ] final  -86.73 input  -60.11 | X-H torsion
[ 7974 7965 7964 7962 ] final -168.54 input  175.53 | X-H torsion
[ 8008 7997 7996 7995 ] final  -92.88 input   59.86 | X-H torsion
[ 10167 10162 10161 10158 ] final  -45.72 input  -65.29 | X-H torsion
[ 10718 10713 10712 10709 ] final  169.63 input   66.30 | X-H torsion
[ 10763 10752 10751 10750 ] final  -36.40 input  -60.55 | X-H torsion
[ 11005 11000 10999 10996 ] final   -4.92 input  -57.11 | X-H torsion

> <Gold.Protein.ActiveResidues>
 VAL166  LYS551  ARG553  GLY616  TRP617  ASP618  TYR619  PRO620  LYS621  CYS622 
 ASP623  PHE694  ASN695  SER759  ASP760  ASP761  ALA762  ILE779  LEU786  VAL792 
 PHE793  MET794  SER795  GLU796  ALA797  LYS798  CYS799  TRP800  GLU811  SER814 

> <Gold.Protein.RotatedAtoms>
  150.6866  134.3005  159.4704 H   0  0  0  0  0  0  0  0  0  0  0  0  # atno 6907 bound_to 6896
  152.0901  134.9410  160.0581 H   0  0  0  0  0  0  0  0  0  0  0  0  # atno 6908 bound_to 6896
  152.0729  133.4080  159.4504 H   0  0  0  0  0  0  0  0  0  0  0  0  # atno 6909 bound_to 6896
  144.7201  140.2355  143.6298 H   0  0  0  0  0  0  0  0  0  0  0  0  # atno 7974 bound_to 7965
  154.7286  140.0504  157.0706 H   0  0  0  0  0  0  0  0  0  0  0  0  # atno 8008 bound_to 7997
  155.0331  140.3160  155.4732 H   0  0  0  0  0  0  0  0  0  0  0  0  # atno 8009 bound_to 7997
  156.2835  140.2146  156.5453 H   0  0  0  0  0  0  0  0  0  0  0  0  # atno 8010 bound_to 7997
  140.6847  143.2866  151.3679 H   0  0  0  0  0  0  0  0  0  0  0  0  # atno 10167 bound_to 10162
  157.0198  131.0228  151.2778 H   0  0  0  0  0  0  0  0  0  0  0  0  # atno 10718 bound_to 10713
  153.8791  135.6823  153.4768 H   0  0  0  0  0  0  0  0  0  0  0  0  # atno 10763 bound_to 10752
  153.1244  135.4725  154.9245 H   0  0  0  0  0  0  0  0  0  0  0  0  # atno 10764 bound_to 10752
  154.7677  135.3229  154.8204 H   0  0  0  0  0  0  0  0  0  0  0  0  # atno 10765 bound_to 10752
  140.6855  133.9117  155.8583 H   0  0  0  0  0  0  0  0  0  0  0  0  # atno 11005 bound_to 11000
  145.8370  139.2112  143.1850 LP  0  0  0  0  0  0  0  0  0  0  0  0  # atno 17320 bound_to 7965
  146.0381  140.8192  142.9842 LP  0  0  0  0  0  0  0  0  0  0  0  0  # atno 17321 bound_to 7965
  139.6195  144.0935  152.2378 LP  0  0  0  0  0  0  0  0  0  0  0  0  # atno 17342 bound_to 10162
  140.0375  144.6033  150.7438 LP  0  0  0  0  0  0  0  0  0  0  0  0  # atno 17343 bound_to 10162
  157.5258  130.8027  149.7860 LP  0  0  0  0  0  0  0  0  0  0  0  0  # atno 17370 bound_to 10713
  156.0106  130.3835  150.2277 LP  0  0  0  0  0  0  0  0  0  0  0  0  # atno 17371 bound_to 10713
  141.0284  134.0791  157.4043 LP  0  0  0  0  0  0  0  0  0  0  0  0  # atno 17394 bound_to 11000
  139.8939  135.0133  156.6922 LP  0  0  0  0  0  0  0  0  0  0  0  0  # atno 17395 bound_to 11000

$$$$
