AV-unprocessed.smi:72|AV-procd|sdf|730|dock1
  -GOLD-   2262017 53D 1   1.00000     0.00000
 Structure written by MMmdl.
 28 29  0  0  0  0  0  0  0  0  2 V2000
  155.0070  137.6766  155.4241 N   0  0  0  0  0  0  0  0  0  0  0  0
  153.7696  137.8930  155.5361 C   0  0  0  0  0  0  0  0  0  0  0  0
  153.1870  139.0797  154.9485 N   0  0  0  0  0  0  0  0  0  0  0  0
  151.9106  139.2620  155.0946 C   0  0  0  0  0  0  0  0  0  0  0  0
  151.0768  138.3170  155.8246 N   0  0  0  0  0  0  0  0  0  0  0  0
  149.5844  138.5463  155.9751 C   0  0  1  0  0  0  0  0  0  0  0  0
  149.2853  139.8598  155.6027 O   0  0  0  0  0  0  0  0  0  0  0  0
  148.0849  139.8806  154.8374 C   0  0  1  0  0  0  0  0  0  0  0  0
  147.9969  141.1506  153.9729 C   0  0  0  0  0  0  0  0  0  0  0  0
  149.2001  141.3369  153.2579 O   0  0  0  0  0  0  0  0  0  0  0  0
  148.1345  138.5560  154.0639 C   0  0  1  0  0  0  0  0  0  0  0  0
  148.9377  138.6754  152.9009 O   0  0  0  0  0  0  0  0  0  0  0  0
  148.7339  137.6048  155.0945 C   0  0  1  0  0  0  0  0  0  0  0  0
  149.4199  136.5103  154.5104 O   0  0  0  0  0  0  0  0  0  0  0  0
  151.6726  137.1518  156.3777 C   0  0  0  0  0  0  0  0  0  0  0  0
  150.9473  136.3480  156.9638 O   0  0  0  0  0  0  0  0  0  0  0  0
  153.0144  136.9695  156.2250 N   0  5  0  0  0  0  0  0  0  0  0  0
  149.3601  138.4450  157.0377 H   0  0  0  0  0  0  0  0  0  0  0  0
  147.2387  139.8359  155.5261 H   0  0  0  0  0  0  0  0  0  0  0  0
  147.1396  138.2349  153.7539 H   0  0  0  0  0  0  0  0  0  0  0  0
  147.9330  137.2142  155.7237 H   0  0  0  0  0  0  0  0  0  0  0  0
  155.2954  136.8193  155.8725 H   0  0  0  0  0  0  0  0  0  0  0  0
  151.3857  140.1239  154.6814 H   0  0  0  0  0  0  0  0  0  0  0  0
  147.1510  141.1059  153.2860 H   0  0  0  0  0  0  0  0  0  0  0  0
  147.8570  142.0268  154.6064 H   0  0  0  0  0  0  0  0  0  0  0  0
  149.3582  140.5686  152.7309 H   0  0  0  0  0  0  0  0  0  0  0  0
  149.0119  137.8210  152.5035 H   0  0  0  0  0  0  0  0  0  0  0  0
  149.0547  136.3557  153.6522 H   0  0  0  0  0  0  0  0  0  0  0  0
  1  2  2  0  0  0  0
  1 22  1  0  0  0  0
  2 17  1  0  0  0  0
  2  3  1  0  0  0  0
  3  4  2  0  0  0  0
  4  5  1  0  0  0  0
  4 23  1  0  0  0  0
  5  6  1  0  0  0  0
  5 15  1  0  0  0  0
  6 18  1  0  0  0  0
  6 13  1  0  0  0  0
  6  7  1  0  0  0  0
  7  8  1  0  0  0  0
  8 19  1  0  0  0  0
  8  9  1  0  0  0  0
  8 11  1  0  0  0  0
  9 10  1  0  0  0  0
  9 24  1  0  0  0  0
  9 25  1  0  0  0  0
 10 26  1  0  0  0  0
 11 20  1  0  0  0  0
 11 12  1  0  0  0  0
 11 13  1  0  0  0  0
 12 27  1  0  0  0  0
 13 21  1  0  0  0  0
 13 14  1  0  0  0  0
 14 28  1  0  0  0  0
 15 16  2  0  0  0  0
 15 17  1  0  0  0  0
M  CHG  1  17  -1
M  END
> <s_m_source_file>
AV-unprocessed.smi

> <i_m_source_file_index>
72

> <i_lp_mmshare_version>
43012

> <i_f3d_flags>
0

> <s_epik_input>
W05IMl1jMW5bY0hdbihjKD1PKW4xKVtDQEBIXTJPW0NASF0oW0NIMl1bT0hdKVtDQEBIXShbT0hdKVtDQEhdMltPSF0=

> <s_epik_cmdline>
J2VwaWtfcHl0aG9uJywgJy1waCcsICc3LjAnLCAnLXRuJywgJzgnLCAnLW1hJywgJzIwMCcsICctbWV0YWxfYmluZGluZycsICctaW1hZScsICc8aW5maWxlLm1hZT4nLCAnLW9tYWUnLCAnPG91dGZpbGUubWFlPic=

> <r_lp_tautomer_probability>
7.17554e-07

> <r_epik_Ionization_Penalty>
12.8705

> <r_epik_Ionization_Penalty_Charging>
5.64144

> <r_epik_Ionization_Penalty_Neutral>
7.22905

> <r_epik_State_Penalty>
3.30104

> <r_epik_Charging_Adjusted_Penalty>
8.94249

> <i_epik_Tot_Q>
-1

> <i_epik_Tot_abs_Q>
1

> <r_epik_Metal_State_Penalty>
0.529074

> <b_epik_Metal_Only>
1

> <s_epik_Chemistry_Notes>
This compound contains an acetal/aminal-like group ( X-CH(R)-Y where X, Y are N, S, or O) that may be acid/base labile, releasing an aldehyde.

> <s_lp_Force_Field>
OPLS_2005

> <r_lp_Energy>
43.5676

> <b_lp_Chiralities_Consistent>
1

> <s_lp_Variant>
AV-unprocessed.smi:72-68

> <Gold.Version>
5.8.1

> <Gold.Id.Protein>
6NUR|6NUR_protein|mol2

> <Gold.PLP.Fitness>
37.3865

> <Gold.PLP.PLP>
-20.2440

> <Gold.PLP.part.hbond>
-8.9303

> <Gold.PLP.part.metal>
0.0000

> <Gold.PLP.part.buried>
1.0189

> <Gold.PLP.part.nonpolar>
-11.3916

> <Gold.PLP.part.repulsive>
0.0293

> <Gold.PLP.ligand.clash>
0.1526

> <Gold.PLP.ligand.torsion>
0.3312

> <Gold.PLP.Chemscore.Hbond>
5.9840

> <Gold.PLP.Chemscore.CHOScore>
0.0000

> <Gold.PLP.Chemscore.Metal>
0.0000

> <Gold.Chemscore.Hbonds>
donor molecule, donor type, donor heavy atom, donor atom, acceptor molecule, acceptor atom, score
      L1  H    10    26       P1  7957  0.85
      L1  H    12    27       P1  7948  1.00
      L1  H    14    28       P1  7948  1.00
      P1  H  7997  8008       L1     3  0.55
      P1  H  8011  8017       L1    10  1.00
      P1  H 10752 10765       L1    17  1.50

> <Gold.PLP.Chemscore.Internal.Correction>
0.0055

> <Gold.Rescore>
     Score         DG    S(hbond)    S(metal)    S(lipo)     H(rot)  DE(clash)    DE(int)     intcor
      7.12      -8.23       3.28        0.00      18.34       4.04       0.45       0.66       ----

> <Gold.Chemscore.Fitness>
7.1200

> <Gold.Chemscore.DG>
-8.2318

> <Gold.Chemscore.ZeroCoef>
-5.4800

> <Gold.Chemscore.Hbond>
3.2780

> <Gold.Chemscore.Metal>
0.0000

> <Gold.Chemscore.Lipo>
18.3443

> <Gold.Chemscore.Internal_Hbond>
0.0000

> <Gold.Chemscore.DEClash>
0.4493

> <Gold.Chemscore.DEInternal>
0.6625

> <Gold.Chemscore.Rot>
4.0403

> <Gold.Chemscore.Internal.Correction>
   9.000000E+99

> <Gold.Chemscore.Hbonds>
donor molecule, donor type, donor heavy atom, donor atom, acceptor molecule, acceptor atom, score
      L1  H    10    26       P1  7957  0.85
      L1  H    12    27       P1  7948  0.99
      L1  H    14    28       P1  7948  0.98
      P1  H  7997  8008       L1     3  0.03
      P1  H  8011  8017       L1    10  0.23
      P1  H 10752 10765       L1    17  0.14

> <Gold.Chemscore.Hbond.Weighted>
-10.9486

> <Gold.Chemscore.Metal.Weighted>
-0.0000

> <Gold.Chemscore.Lipo.Weighted>
-2.1463

> <Gold.Chemscore.Internal_Hbond.Weighted>
0.0000

> <Gold.Chemscore.DEClash.Weighted>
0.4493

> <Gold.Chemscore.DEInternal.Weighted>
0.6625

> <Gold.Chemscore.Rot.Weighted>
10.3431

> <Gold.Chemscore.Internal.Correction.Weighted>
   9.000000E+99

> <Gold.Protein.RotatedTorsions>
[ 6907 6896 6895 6894 ] final  109.45 input  -60.11 | X-H torsion
[ 7974 7965 7964 7962 ] final   89.25 input  175.53 | X-H torsion
[ 8008 7997 7996 7995 ] final   -6.50 input   59.86 | X-H torsion
[ 10167 10162 10161 10158 ] final -114.34 input  -65.29 | X-H torsion
[ 10718 10713 10712 10709 ] final -161.14 input   66.30 | X-H torsion
[ 10763 10752 10751 10750 ] final -135.98 input  -60.55 | X-H torsion
[ 11005 11000 10999 10996 ] final  164.53 input  -57.11 | X-H torsion

> <Gold.Protein.ActiveResidues>
 VAL166  LYS551  ARG553  GLY616  TRP617  ASP618  TYR619  PRO620  LYS621  CYS622 
 ASP623  PHE694  ASN695  SER759  ASP760  ASP761  ALA762  ILE779  LEU786  VAL792 
 PHE793  MET794  SER795  GLU796  ALA797  LYS798  CYS799  TRP800  GLU811  SER814 

> <Gold.Protein.RotatedAtoms>
  152.5066  133.8942  159.7408 H   0  0  0  0  0  0  0  0  0  0  0  0  # atno 6907 bound_to 6896
  150.9373  133.6688  159.2805 H   0  0  0  0  0  0  0  0  0  0  0  0  # atno 6908 bound_to 6896
  151.4012  135.0976  159.9609 H   0  0  0  0  0  0  0  0  0  0  0  0  # atno 6909 bound_to 6896
  145.5348  139.2285  143.2599 H   0  0  0  0  0  0  0  0  0  0  0  0  # atno 7974 bound_to 7965
  154.5931  140.2431  155.7893 H   0  0  0  0  0  0  0  0  0  0  0  0  # atno 8008 bound_to 7997
  156.2261  140.2982  156.0024 H   0  0  0  0  0  0  0  0  0  0  0  0  # atno 8009 bound_to 7997
  155.2339  140.0404  157.2956 H   0  0  0  0  0  0  0  0  0  0  0  0  # atno 8010 bound_to 7997
  140.1020  143.4604  152.1806 H   0  0  0  0  0  0  0  0  0  0  0  0  # atno 10167 bound_to 10162
  156.5921  130.8774  151.2892 H   0  0  0  0  0  0  0  0  0  0  0  0  # atno 10718 bound_to 10713
  154.8693  135.3686  154.4987 H   0  0  0  0  0  0  0  0  0  0  0  0  # atno 10763 bound_to 10752
  153.5629  135.7022  153.5544 H   0  0  0  0  0  0  0  0  0  0  0  0  # atno 10764 bound_to 10752
  153.3612  135.4046  155.1683 H   0  0  0  0  0  0  0  0  0  0  0  0  # atno 10765 bound_to 10752
  140.2469  134.8007  157.3464 H   0  0  0  0  0  0  0  0  0  0  0  0  # atno 11005 bound_to 11000
  146.2020  140.6166  142.9098 LP  0  0  0  0  0  0  0  0  0  0  0  0  # atno 17320 bound_to 7965
  144.7607  140.5415  143.6737 LP  0  0  0  0  0  0  0  0  0  0  0  0  # atno 17321 bound_to 7965
  139.5666  144.7438  151.4006 LP  0  0  0  0  0  0  0  0  0  0  0  0  # atno 17342 bound_to 10162
  140.6972  143.7719  150.7346 LP  0  0  0  0  0  0  0  0  0  0  0  0  # atno 17343 bound_to 10162
  157.7301  130.9680  150.1817 LP  0  0  0  0  0  0  0  0  0  0  0  0  # atno 17370 bound_to 10713
  156.2541  130.3703  149.8201 LP  0  0  0  0  0  0  0  0  0  0  0  0  # atno 17371 bound_to 10713
  140.1597  134.4744  155.7903 LP  0  0  0  0  0  0  0  0  0  0  0  0  # atno 17394 bound_to 11000
  141.2205  133.6896  156.7523 LP  0  0  0  0  0  0  0  0  0  0  0  0  # atno 17395 bound_to 11000

$$$$
