AV-unprocessed.smi:2986|AV-procd|sdf|11381|dock2
  -GOLD-   2272016303D 1   1.00000     0.00000
 Structure written by MMmdl.
 42 44  0  0  0  0  0  0  0  0  1 V2000
  147.8319  141.0391  153.7686 C   0  0  0  0  0  0  0  0  0  0  0  0
  147.7737  141.8146  154.9526 O   0  0  0  0  0  0  0  0  0  0  0  0
  148.6481  141.3341  155.9588 C   0  0  0  0  0  0  0  0  0  0  0  0
  150.0759  141.3149  155.4018 C   0  0  0  0  0  0  0  0  0  0  0  0
  151.0542  141.0447  156.4428 N   0  0  0  0  0  0  0  0  0  0  0  0
  151.8170  139.9362  156.6031 C   0  0  0  0  0  0  0  0  0  0  0  0
  151.7218  138.5705  155.4904 S   0  0  0  0  0  0  0  0  0  0  0  0
  150.6925  137.4650  156.5070 C   0  0  0  0  0  0  0  0  0  0  0  0
  150.7556  135.9968  156.0786 C   0  0  0  0  0  0  0  0  0  0  0  0
  151.7901  135.3592  156.2684 O   0  0  0  0  0  0  0  0  0  0  0  0
  149.6393  135.4994  155.5155 N   0  0  0  0  0  0  0  0  0  0  0  0
  149.4285  134.2139  154.9558 C   0  0  0  0  0  0  0  0  0  0  0  0
  150.2288  133.0551  155.1747 C   0  0  0  0  0  0  0  0  0  0  0  0
  149.6059  132.1053  154.4153 C   0  0  0  0  0  0  0  0  0  0  0  0
  149.8855  130.6634  154.1645 C   0  0  0  0  0  0  0  0  0  0  0  0
  148.5220  132.6361  153.7878 O   0  0  0  0  0  0  0  0  0  0  0  0
  148.4154  133.9864  154.1404 N   0  0  0  0  0  0  0  0  0  0  0  0
  152.6454  139.9496  157.6473 N   0  0  0  0  0  0  0  0  0  0  0  0
  152.3940  141.1813  158.2196 C   0  0  0  0  0  0  0  0  0  0  0  0
  152.9548  141.7957  159.3621 C   0  0  0  0  0  0  0  0  0  0  0  0
  152.5300  143.0795  159.7629 C   0  0  0  0  0  0  0  0  0  0  0  0
  151.5405  143.7656  159.0292 C   0  0  0  0  0  0  0  0  0  0  0  0
  150.9697  143.1723  157.8868 C   0  0  0  0  0  0  0  0  0  0  0  0
  151.3983  141.8914  157.4907 C   0  0  0  0  0  0  0  0  0  0  0  0
  147.1499  141.4531  153.0259 H   0  0  0  0  0  0  0  0  0  0  0  0
  147.5362  140.0065  153.9593 H   0  0  0  0  0  0  0  0  0  0  0  0
  148.8360  141.0434  153.3427 H   0  0  0  0  0  0  0  0  0  0  0  0
  148.5971  141.9772  156.8392 H   0  0  0  0  0  0  0  0  0  0  0  0
  148.3481  140.3302  156.2642 H   0  0  0  0  0  0  0  0  0  0  0  0
  150.1693  140.5672  154.6146 H   0  0  0  0  0  0  0  0  0  0  0  0
  150.3124  142.2739  154.9398 H   0  0  0  0  0  0  0  0  0  0  0  0
  150.9976  137.5574  157.5502 H   0  0  0  0  0  0  0  0  0  0  0  0
  149.6579  137.8039  156.4509 H   0  0  0  0  0  0  0  0  0  0  0  0
  148.8614  136.1379  155.4335 H   0  0  0  0  0  0  0  0  0  0  0  0
  151.1116  132.9235  155.7816 H   0  0  0  0  0  0  0  0  0  0  0  0
  150.7333  130.3222  154.7588 H   0  0  0  0  0  0  0  0  0  0  0  0
  150.1186  130.4920  153.1135 H   0  0  0  0  0  0  0  0  0  0  0  0
  149.0217  130.0512  154.4242 H   0  0  0  0  0  0  0  0  0  0  0  0
  153.7131  141.2785  159.9313 H   0  0  0  0  0  0  0  0  0  0  0  0
  152.9656  143.5399  160.6376 H   0  0  0  0  0  0  0  0  0  0  0  0
  151.2203  144.7482  159.3436 H   0  0  0  0  0  0  0  0  0  0  0  0
  150.2116  143.6954  157.3229 H   0  0  0  0  0  0  0  0  0  0  0  0
  1  2  1  0  0  0  0
  1 25  1  0  0  0  0
  1 26  1  0  0  0  0
  1 27  1  0  0  0  0
  2  3  1  0  0  0  0
  3  4  1  0  0  0  0
  3 28  1  0  0  0  0
  3 29  1  0  0  0  0
  4  5  1  0  0  0  0
  4 30  1  0  0  0  0
  4 31  1  0  0  0  0
  5 24  1  0  0  0  0
  5  6  1  0  0  0  0
  6  7  1  0  0  0  0
  6 18  2  0  0  0  0
  7  8  1  0  0  0  0
  8  9  1  0  0  0  0
  8 32  1  0  0  0  0
  8 33  1  0  0  0  0
  9 10  2  0  0  0  0
  9 11  1  0  0  0  0
 11 12  1  0  0  0  0
 11 34  1  0  0  0  0
 12 17  2  0  0  0  0
 12 13  1  0  0  0  0
 13 14  2  0  0  0  0
 13 35  1  0  0  0  0
 14 15  1  0  0  0  0
 14 16  1  0  0  0  0
 15 36  1  0  0  0  0
 15 37  1  0  0  0  0
 15 38  1  0  0  0  0
 16 17  1  0  0  0  0
 18 19  1  0  0  0  0
 19 24  2  0  0  0  0
 19 20  1  0  0  0  0
 20 21  2  0  0  0  0
 20 39  1  0  0  0  0
 21 22  1  0  0  0  0
 21 40  1  0  0  0  0
 22 23  2  0  0  0  0
 22 41  1  0  0  0  0
 23 24  1  0  0  0  0
 23 42  1  0  0  0  0
M  END
> <s_m_source_file>
AV-unprocessed.smi

> <i_m_source_file_index>
2986

> <i_lp_mmshare_version>
43012

> <i_f3d_flags>
0

> <s_epik_input>
W2NIXTFbY0hdW2NIXVtjSF1jKGMxMiluKFtDSDJdW0NIMl1PW0NIM10pYyhuMilTW0NIMl1DKD1PKVtOSF1jM1tjSF1jKFtDSDNdKW9uMw==

> <s_epik_cmdline>
J2VwaWtfcHl0aG9uJywgJy1waCcsICc3LjAnLCAnLXRuJywgJzgnLCAnLW1hJywgJzIwMCcsICctbWV0YWxfYmluZGluZycsICctaW1hZScsICc8aW5maWxlLm1hZT4nLCAnLW9tYWUnLCAnPG91dGZpbGUubWFlPic=

> <r_epik_Ionization_Penalty>
0.0256487

> <r_epik_Ionization_Penalty_Charging>
0

> <r_epik_Ionization_Penalty_Neutral>
0.0256487

> <r_epik_State_Penalty>
0.0204505

> <r_epik_Charging_Adjusted_Penalty>
0.0204505

> <i_epik_Tot_Q>
0

> <i_epik_Tot_abs_Q>
0

> <r_epik_Metal_State_Penalty>
0.237509

> <b_epik_Metal_Only>
0

> <s_lp_Force_Field>
OPLS_2005

> <r_lp_Energy>
8.97746

> <b_lp_Chiralities_Consistent>
1

> <s_lp_Variant>
AV-unprocessed.smi:2986-1

> <Gold.Version>
5.8.1

> <Gold.Id.Protein>
6NUR|6NUR_protein|mol2

> <Gold.PLP.Fitness>
48.2243

> <Gold.PLP.PLP>
-43.2477

> <Gold.PLP.part.hbond>
-2.0000

> <Gold.PLP.part.metal>
0.0000

> <Gold.PLP.part.buried>
-7.3625

> <Gold.PLP.part.nonpolar>
-35.7344

> <Gold.PLP.part.repulsive>
0.6792

> <Gold.PLP.ligand.clash>
0.0000

> <Gold.PLP.ligand.torsion>
0.6027

> <Gold.PLP.Chemscore.Hbond>
2.0000

> <Gold.PLP.Chemscore.CHOScore>
0.0000

> <Gold.PLP.Chemscore.Metal>
0.0000

> <Gold.Chemscore.Hbonds>
donor molecule, donor type, donor heavy atom, donor atom, acceptor molecule, acceptor atom, score
      P1  H  7997  8010       L1    18  1.00
      P1  H 10752 10765       L1    10  1.00

> <Gold.PLP.Chemscore.Internal.Correction>
0.1820

> <Gold.Rescore>
     Score         DG    S(hbond)    S(metal)    S(lipo)     H(rot)  DE(clash)    DE(int)     intcor
     15.65     -17.25       1.50        0.00     107.74       2.28       0.01       1.59       ----

> <Gold.Chemscore.Fitness>
15.6517

> <Gold.Chemscore.DG>
-17.2485

> <Gold.Chemscore.ZeroCoef>
-5.4800

> <Gold.Chemscore.Hbond>
1.4972

> <Gold.Chemscore.Metal>
0.0000

> <Gold.Chemscore.Lipo>
107.7415

> <Gold.Chemscore.Internal_Hbond>
0.0000

> <Gold.Chemscore.DEClash>
0.0067

> <Gold.Chemscore.DEInternal>
1.5901

> <Gold.Chemscore.Rot>
2.2804

> <Gold.Chemscore.Internal.Correction>
   9.000000E+99

> <Gold.Chemscore.Hbonds>
donor molecule, donor type, donor heavy atom, donor atom, acceptor molecule, acceptor atom, score
      P1  H  7997  8010       L1    18  0.24
      P1  H 10752 10765       L1    10  0.98

> <Gold.Chemscore.Hbond.Weighted>
-5.0006

> <Gold.Chemscore.Metal.Weighted>
-0.0000

> <Gold.Chemscore.Lipo.Weighted>
-12.6058

> <Gold.Chemscore.Internal_Hbond.Weighted>
0.0000

> <Gold.Chemscore.DEClash.Weighted>
0.0067

> <Gold.Chemscore.DEInternal.Weighted>
1.5901

> <Gold.Chemscore.Rot.Weighted>
5.8379

> <Gold.Chemscore.Internal.Correction.Weighted>
   9.000000E+99

> <Gold.Protein.RotatedTorsions>
[ 6907 6896 6895 6894 ] final  166.41 input  -60.11 | X-H torsion
[ 7974 7965 7964 7962 ] final   33.24 input  175.53 | X-H torsion
[ 8008 7997 7996 7995 ] final   49.29 input   59.86 | X-H torsion
[ 10167 10162 10161 10158 ] final  129.80 input  -65.29 | X-H torsion
[ 10718 10713 10712 10709 ] final   42.45 input   66.30 | X-H torsion
[ 10763 10752 10751 10750 ] final -147.95 input  -60.55 | X-H torsion
[ 11005 11000 10999 10996 ] final   22.29 input  -57.11 | X-H torsion

> <Gold.Protein.ActiveResidues>
 VAL166  LYS551  ARG553  GLY616  TRP617  ASP618  TYR619  PRO620  LYS621  CYS622 
 ASP623  PHE694  ASN695  SER759  ASP760  ASP761  ALA762  ILE779  LEU786  VAL792 
 PHE793  MET794  SER795  GLU796  ALA797  LYS798  CYS799  TRP800  GLU811  SER814 

> <Gold.Protein.RotatedAtoms>
  151.8793  133.3492  159.3760 H   0  0  0  0  0  0  0  0  0  0  0  0  # atno 6907 bound_to 6896
  150.7132  134.5035  159.5582 H   0  0  0  0  0  0  0  0  0  0  0  0  # atno 6908 bound_to 6896
  152.2583  134.8061  160.0486 H   0  0  0  0  0  0  0  0  0  0  0  0  # atno 6909 bound_to 6896
  146.1433  139.6422  142.9148 H   0  0  0  0  0  0  0  0  0  0  0  0  # atno 7974 bound_to 7965
  155.3998  140.3437  155.4256 H   0  0  0  0  0  0  0  0  0  0  0  0  # atno 8008 bound_to 7997
  156.1510  140.1571  156.8802 H   0  0  0  0  0  0  0  0  0  0  0  0  # atno 8009 bound_to 7997
  154.5052  140.0804  156.7862 H   0  0  0  0  0  0  0  0  0  0  0  0  # atno 8010 bound_to 7997
  139.5460  144.6774  151.4471 H   0  0  0  0  0  0  0  0  0  0  0  0  # atno 10167 bound_to 10162
  157.4050  130.7881  149.7381 H   0  0  0  0  0  0  0  0  0  0  0  0  # atno 10718 bound_to 10713
  154.8259  135.3347  154.6897 H   0  0  0  0  0  0  0  0  0  0  0  0  # atno 10763 bound_to 10752
  153.7524  135.6938  153.4947 H   0  0  0  0  0  0  0  0  0  0  0  0  # atno 10764 bound_to 10752
  153.2167  135.4463  155.0393 H   0  0  0  0  0  0  0  0  0  0  0  0  # atno 10765 bound_to 10752
  140.3822  134.1909  155.7663 H   0  0  0  0  0  0  0  0  0  0  0  0  # atno 11005 bound_to 11000
  145.4995  141.0438  143.2548 LP  0  0  0  0  0  0  0  0  0  0  0  0  # atno 17320 bound_to 7965
  144.7818  139.6511  143.7151 LP  0  0  0  0  0  0  0  0  0  0  0  0  # atno 17321 bound_to 7965
  140.6708  143.8297  150.6997 LP  0  0  0  0  0  0  0  0  0  0  0  0  # atno 17342 bound_to 10162
  140.1721  143.4186  152.1993 LP  0  0  0  0  0  0  0  0  0  0  0  0  # atno 17343 bound_to 10162
  155.9834  130.4001  150.3367 LP  0  0  0  0  0  0  0  0  0  0  0  0  # atno 17370 bound_to 10713
  157.1498  131.0318  151.2890 LP  0  0  0  0  0  0  0  0  0  0  0  0  # atno 17371 bound_to 10713
  141.1920  133.8183  157.0858 LP  0  0  0  0  0  0  0  0  0  0  0  0  # atno 17394 bound_to 11000
  140.0470  134.9825  157.1067 LP  0  0  0  0  0  0  0  0  0  0  0  0  # atno 17395 bound_to 11000

$$$$
