AV-unprocessed.smi:1715|AV-procd|sdf|6910|dock7
  -GOLD-   22720 8113D 1   1.00000     0.00000
 Structure written by MMmdl.
 40 41  0  0  0  0  0  0  0  0  1 V2000
  150.9183  142.0752  157.2666 C   0  0  0  0  0  0  0  0  0  0  0  0
  150.6769  141.4313  155.8973 C   0  0  2  0  0  0  0  0  0  0  0  0
  149.1801  141.1966  155.6191 C   0  0  0  0  0  0  0  0  0  0  0  0
  148.9589  140.5169  154.3476 N   0  0  0  0  0  0  0  0  0  0  0  0
  147.5315  140.3153  154.1057 C   0  0  0  0  0  0  0  0  0  0  0  0
  147.1967  139.2701  153.0250 C   0  0  0  0  0  0  0  0  0  0  0  0
  145.7869  138.9011  153.0635 N   0  0  0  0  0  0  0  0  0  0  0  0
  145.3154  137.7023  153.4339 C   0  0  0  0  0  0  0  0  0  0  0  0
  146.0341  136.7670  153.7869 O   0  0  0  0  0  0  0  0  0  0  0  0
  143.9745  137.6630  153.3658 N   0  0  0  0  0  0  0  0  0  0  0  0
  143.1281  136.5703  153.6815 C   0  0  0  0  0  0  0  0  0  0  0  0
  141.7532  136.6844  154.0230 C   0  0  0  0  0  0  0  0  0  0  0  0
  141.2156  135.4982  154.2691 N   0  0  0  0  0  0  0  0  0  0  0  0
  142.2347  134.6280  154.0884 N   0  0  0  0  0  0  0  0  0  0  0  0
  143.4177  135.2354  153.7293 C   0  0  0  0  0  0  0  0  0  0  0  0
  149.7127  139.2655  154.3435 C   0  0  0  0  0  0  0  0  0  0  0  0
  151.2109  139.4929  154.6239 C   0  0  2  0  0  0  0  0  0  0  0  0
  151.9913  138.1768  154.7077 C   0  0  0  0  0  0  0  0  0  0  0  0
  151.3562  140.1791  155.8642 O   0  0  0  0  0  0  0  0  0  0  0  0
  142.1086  133.6333  154.2126 H   0  0  0  0  0  0  0  0  0  0  0  0
  150.4247  143.0448  157.3364 H   0  0  0  0  0  0  0  0  0  0  0  0
  151.9831  142.2309  157.4415 H   0  0  0  0  0  0  0  0  0  0  0  0
  150.5366  141.4463  158.0714 H   0  0  0  0  0  0  0  0  0  0  0  0
  151.0945  142.0811  155.1262 H   0  0  0  0  0  0  0  0  0  0  0  0
  148.7482  140.6087  156.4309 H   0  0  0  0  0  0  0  0  0  0  0  0
  148.6602  142.1554  155.6189 H   0  0  0  0  0  0  0  0  0  0  0  0
  147.0340  140.0483  155.0394 H   0  0  0  0  0  0  0  0  0  0  0  0
  147.0954  141.2663  153.7965 H   0  0  0  0  0  0  0  0  0  0  0  0
  147.4598  139.6456  152.0346 H   0  0  0  0  0  0  0  0  0  0  0  0
  147.7722  138.3577  153.1764 H   0  0  0  0  0  0  0  0  0  0  0  0
  145.1234  139.6105  152.7888 H   0  0  0  0  0  0  0  0  0  0  0  0
  143.5095  138.5036  153.0560 H   0  0  0  0  0  0  0  0  0  0  0  0
  141.1400  137.5702  154.0988 H   0  0  0  0  0  0  0  0  0  0  0  0
  144.3235  134.6761  153.5483 H   0  0  0  0  0  0  0  0  0  0  0  0
  149.3019  138.5855  155.0916 H   0  0  0  0  0  0  0  0  0  0  0  0
  149.6124  138.7676  153.3796 H   0  0  0  0  0  0  0  0  0  0  0  0
  151.6416  140.1051  153.8297 H   0  0  0  0  0  0  0  0  0  0  0  0
  151.9211  137.6180  153.7741 H   0  0  0  0  0  0  0  0  0  0  0  0
  151.6100  137.5421  155.5081 H   0  0  0  0  0  0  0  0  0  0  0  0
  153.0473  138.3628  154.9047 H   0  0  0  0  0  0  0  0  0  0  0  0
  1  2  1  0  0  0  0
  1 21  1  0  0  0  0
  1 22  1  0  0  0  0
  1 23  1  0  0  0  0
  2 19  1  0  0  0  0
  2  3  1  0  0  0  0
  2 24  1  0  0  0  0
  3  4  1  0  0  0  0
  3 25  1  0  0  0  0
  3 26  1  0  0  0  0
  4  5  1  0  0  0  0
  4 16  1  0  0  0  0
  5  6  1  0  0  0  0
  5 27  1  0  0  0  0
  5 28  1  0  0  0  0
  6  7  1  0  0  0  0
  6 29  1  0  0  0  0
  6 30  1  0  0  0  0
  7  8  1  0  0  0  0
  7 31  1  0  0  0  0
  8  9  2  0  0  0  0
  8 10  1  0  0  0  0
 10 11  1  0  0  0  0
 10 32  1  0  0  0  0
 11 15  2  0  0  0  0
 11 12  1  0  0  0  0
 12 13  2  0  0  0  0
 12 33  1  0  0  0  0
 13 14  1  0  0  0  0
 14 20  1  0  0  0  0
 14 15  1  0  0  0  0
 15 34  1  0  0  0  0
 16 17  1  0  0  0  0
 16 35  1  0  0  0  0
 16 36  1  0  0  0  0
 17 18  1  0  0  0  0
 17 19  1  0  0  0  0
 17 37  1  0  0  0  0
 18 38  1  0  0  0  0
 18 39  1  0  0  0  0
 18 40  1  0  0  0  0
M  END
> <s_m_source_file>
AV-unprocessed.smi

> <i_m_source_file_index>
1715

> <i_lp_mmshare_version>
43012

> <i_f3d_flags>
0

> <s_epik_input>
W0NIM11bQ0BASF0xW0NIMl1OKFtDSDJdW0NASF0oTzEpW0NIM10pW0NIMl1bQ0gyXVtOSF1DKD1PKVtOSF1jMltjSF1uW25IXVtjSF0y

> <s_epik_cmdline>
J2VwaWtfcHl0aG9uJywgJy1waCcsICc3LjAnLCAnLXRuJywgJzgnLCAnLW1hJywgJzIwMCcsICctbWV0YWxfYmluZGluZycsICctaW1hZScsICc8aW5maWxlLm1hZT4nLCAnLW9tYWUnLCAnPG91dGZpbGUubWFlPic=

> <r_lp_tautomer_probability>
0.5

> <r_epik_Ionization_Penalty>
0.242771

> <r_epik_Ionization_Penalty_Charging>
0

> <r_epik_Ionization_Penalty_Neutral>
0.242771

> <r_epik_State_Penalty>
0.233765

> <r_epik_Charging_Adjusted_Penalty>
0.233765

> <i_epik_Tot_Q>
0

> <i_epik_Tot_abs_Q>
0

> <r_epik_Metal_State_Penalty>
0.233764

> <b_epik_Metal_Only>
0

> <s_lp_Force_Field>
OPLS_2005

> <r_lp_Energy>
21.5882

> <b_lp_Chiralities_Consistent>
1

> <s_lp_Variant>
AV-unprocessed.smi:1715-2

> <Gold.Version>
5.8.1

> <Gold.Id.Protein>
6NUR|6NUR_protein|mol2

> <Gold.PLP.Fitness>
40.4926

> <Gold.PLP.PLP>
-30.5656

> <Gold.PLP.part.hbond>
-4.3734

> <Gold.PLP.part.metal>
0.0000

> <Gold.PLP.part.buried>
-3.8188

> <Gold.PLP.part.nonpolar>
-22.5095

> <Gold.PLP.part.repulsive>
0.3757

> <Gold.PLP.ligand.clash>
0.0000

> <Gold.PLP.ligand.torsion>
0.3401

> <Gold.PLP.Chemscore.Hbond>
3.5322

> <Gold.PLP.Chemscore.CHOScore>
0.0000

> <Gold.PLP.Chemscore.Metal>
0.0000

> <Gold.Chemscore.Hbonds>
donor molecule, donor type, donor heavy atom, donor atom, acceptor molecule, acceptor atom, score
      L1  H     7    31       P1 10175  1.00
      L1  H    10    32       P1 10175  0.99
      L1  H    14    20       P1 10957  1.00
      P1  H 11000 11005       L1    13  0.49

> <Gold.PLP.Chemscore.Internal.Correction>
0.0106

> <Gold.Rescore>
     Score         DG    S(hbond)    S(metal)    S(lipo)     H(rot)  DE(clash)    DE(int)     intcor
     17.09     -18.37       3.02        0.00      59.52       1.63       0.01       1.26       ----

> <Gold.Chemscore.Fitness>
17.0899

> <Gold.Chemscore.DG>
-18.3692

> <Gold.Chemscore.ZeroCoef>
-5.4800

> <Gold.Chemscore.Hbond>
3.0225

> <Gold.Chemscore.Metal>
0.0000

> <Gold.Chemscore.Lipo>
59.5181

> <Gold.Chemscore.Internal_Hbond>
0.0000

> <Gold.Chemscore.DEClash>
0.0149

> <Gold.Chemscore.DEInternal>
1.2644

> <Gold.Chemscore.Rot>
1.6287

> <Gold.Chemscore.Internal.Correction>
   9.000000E+99

> <Gold.Chemscore.Hbonds>
donor molecule, donor type, donor heavy atom, donor atom, acceptor molecule, acceptor atom, score
      L1  H     7    31       P1 10175  1.00
      L1  H    10    32       P1 10175  0.87
      L1  H    14    20       P1 10957  0.93
      P1  H 11000 11005       L1    13  0.04

> <Gold.Chemscore.Hbond.Weighted>
-10.0951

> <Gold.Chemscore.Metal.Weighted>
-0.0000

> <Gold.Chemscore.Lipo.Weighted>
-6.9636

> <Gold.Chemscore.Internal_Hbond.Weighted>
0.0000

> <Gold.Chemscore.DEClash.Weighted>
0.0149

> <Gold.Chemscore.DEInternal.Weighted>
1.2644

> <Gold.Chemscore.Rot.Weighted>
4.1695

> <Gold.Chemscore.Internal.Correction.Weighted>
   9.000000E+99

> <Gold.Protein.RotatedTorsions>
[ 6907 6896 6895 6894 ] final -142.49 input  -60.11 | X-H torsion
[ 7974 7965 7964 7962 ] final  -10.06 input  175.53 | X-H torsion
[ 8008 7997 7996 7995 ] final   87.89 input   59.86 | X-H torsion
[ 10167 10162 10161 10158 ] final   98.98 input  -65.29 | X-H torsion
[ 10718 10713 10712 10709 ] final -100.80 input   66.30 | X-H torsion
[ 10763 10752 10751 10750 ] final   42.27 input  -60.55 | X-H torsion
[ 11005 11000 10999 10996 ] final   31.33 input  -57.11 | X-H torsion

> <Gold.Protein.ActiveResidues>
 VAL166  LYS551  ARG553  GLY616  TRP617  ASP618  TYR619  PRO620  LYS621  CYS622 
 ASP623  PHE694  ASN695  SER759  ASP760  ASP761  ALA762  ILE779  LEU786  VAL792 
 PHE793  MET794  SER795  GLU796  ALA797  LYS798  CYS799  TRP800  GLU811  SER814 

> <Gold.Protein.RotatedAtoms>
  151.0877  133.5340  159.2616 H   0  0  0  0  0  0  0  0  0  0  0  0  # atno 6907 bound_to 6896
  151.2219  135.0521  159.8963 H   0  0  0  0  0  0  0  0  0  0  0  0  # atno 6908 bound_to 6896
  152.5431  134.0678  159.8234 H   0  0  0  0  0  0  0  0  0  0  0  0  # atno 6909 bound_to 6896
  146.2232  140.2709  142.8356 H   0  0  0  0  0  0  0  0  0  0  0  0  # atno 7974 bound_to 7965
  155.9810  140.3377  155.6663 H   0  0  0  0  0  0  0  0  0  0  0  0  # atno 8008 bound_to 7997
  155.6548  140.0709  157.2592 H   0  0  0  0  0  0  0  0  0  0  0  0  # atno 8009 bound_to 7997
  154.4192  140.1719  156.1701 H   0  0  0  0  0  0  0  0  0  0  0  0  # atno 8010 bound_to 7997
  139.7659  144.6939  151.0225 H   0  0  0  0  0  0  0  0  0  0  0  0  # atno 10167 bound_to 10162
  156.0174  130.5344  150.6870 H   0  0  0  0  0  0  0  0  0  0  0  0  # atno 10718 bound_to 10713
  152.9887  135.6137  154.2922 H   0  0  0  0  0  0  0  0  0  0  0  0  # atno 10763 bound_to 10752
  154.2647  135.2781  155.2765 H   0  0  0  0  0  0  0  0  0  0  0  0  # atno 10764 bound_to 10752
  154.5175  135.5824  153.6711 H   0  0  0  0  0  0  0  0  0  0  0  0  # atno 10765 bound_to 10752
  140.2850  134.2930  155.7790 H   0  0  0  0  0  0  0  0  0  0  0  0  # atno 11005 bound_to 11000
  144.9269  140.7931  143.5713 LP  0  0  0  0  0  0  0  0  0  0  0  0  # atno 17320 bound_to 7965
  145.2649  139.1977  143.4872 LP  0  0  0  0  0  0  0  0  0  0  0  0  # atno 17321 bound_to 7965
  140.7811  143.4644  151.0233 LP  0  0  0  0  0  0  0  0  0  0  0  0  # atno 17342 bound_to 10162
  139.8329  143.7667  152.3180 LP  0  0  0  0  0  0  0  0  0  0  0  0  # atno 17343 bound_to 10162
  157.4560  131.0878  151.0796 LP  0  0  0  0  0  0  0  0  0  0  0  0  # atno 17370 bound_to 10713
  157.1298  130.6097  149.5526 LP  0  0  0  0  0  0  0  0  0  0  0  0  # atno 17371 bound_to 10713
  141.2156  133.7549  156.9538 LP  0  0  0  0  0  0  0  0  0  0  0  0  # atno 17394 bound_to 11000
  140.1248  134.9394  157.2255 LP  0  0  0  0  0  0  0  0  0  0  0  0  # atno 17395 bound_to 11000

$$$$
