AV-unprocessed.smi:290|AV-procd|sdf|2229|dock5
  -GOLD-   2262022 83D 1   1.00000     0.00000
 Structure written by MMmdl.
 59 62  0  0  0  0  0  0  0  0  2 V2000
  149.8712  137.8311  154.2448 C   0  0  0  0  0  0  0  0  0  0  0  0
  149.9573  139.3615  154.1086 C   0  0  2  0  0  0  0  0  0  0  0  0
  151.1689  139.8407  154.6904 O   0  0  0  0  0  0  0  0  0  0  0  0
  150.8786  140.7606  155.7315 C   0  0  0  0  0  0  0  0  0  0  0  0
  149.5475  141.3756  155.3208 C   0  0  0  0  0  0  0  0  0  0  0  0
  148.8024  140.1871  154.7316 C   0  0  2  0  0  0  0  0  0  0  0  0
  148.1887  139.4811  155.7989 O   0  0  0  0  0  0  0  0  0  0  0  0
  147.7018  140.6145  153.7309 C   0  0  0  0  0  0  0  0  0  0  0  0
  146.9142  139.4999  153.2275 N   0  0  0  0  0  0  0  0  0  0  0  0
  146.9525  138.9695  151.9580 C   0  0  0  0  0  0  0  0  0  0  0  0
  146.1366  137.9734  151.7465 N   0  0  0  0  0  0  0  0  0  0  0  0
  145.4875  137.7991  152.9636 C   0  0  0  0  0  0  0  0  0  0  0  0
  144.4845  136.9035  153.4346 C   0  0  0  0  0  0  0  0  0  0  0  0
  143.9093  135.9568  152.6463 N   0  0  0  0  0  0  0  0  0  0  0  0
  142.6150  135.4343  153.0792 C   0  0  0  0  0  0  0  0  0  0  0  0
  142.5959  133.9487  152.7048 C   0  0  0  0  0  0  0  0  0  0  0  0
  143.6444  133.8632  151.5906 C   0  0  2  0  0  0  0  0  0  0  0  0
  144.1851  132.5025  151.3085 N   0  3  2  0  0  0  0  0  0  0  0  0
  145.3051  132.1525  152.2139 C   0  0  0  0  0  0  0  0  0  0  0  0
  144.4908  132.2133  149.8806 C   0  0  0  0  0  0  0  0  0  0  0  0
  145.9651  132.4893  149.5459 C   0  0  0  0  0  0  0  0  0  0  0  0
  146.6779  131.2728  149.4651 O   0  0  0  0  0  0  0  0  0  0  0  0
  144.6973  134.8915  152.0270 C   0  0  1  0  0  0  0  0  0  0  0  0
  145.5616  135.3968  150.8578 C   0  0  0  0  0  0  0  0  0  0  0  0
  144.0999  137.0287  154.7328 N   0  0  0  0  0  0  0  0  0  0  0  0
  144.6484  137.9619  155.5158 C   0  0  0  0  0  0  0  0  0  0  0  0
  145.5827  138.8627  155.2095 N   0  0  0  0  0  0  0  0  0  0  0  0
  145.9772  138.7436  153.9099 C   0  0  0  0  0  0  0  0  0  0  0  0
  143.1848  134.2423  150.6754 H   0  0  0  0  0  0  0  0  0  0  0  0
  145.3472  134.4638  152.7891 H   0  0  0  0  0  0  0  0  0  0  0  0
  148.9508  137.4439  153.8084 H   0  0  0  0  0  0  0  0  0  0  0  0
  149.9075  137.5185  155.2885 H   0  0  0  0  0  0  0  0  0  0  0  0
  150.7052  137.3520  153.7322 H   0  0  0  0  0  0  0  0  0  0  0  0
  150.0350  139.6063  153.0492 H   0  0  0  0  0  0  0  0  0  0  0  0
  150.7806  140.2178  156.6726 H   0  0  0  0  0  0  0  0  0  0  0  0
  151.6700  141.5017  155.8442 H   0  0  0  0  0  0  0  0  0  0  0  0
  149.0246  141.8583  156.1476 H   0  0  0  0  0  0  0  0  0  0  0  0
  149.7257  142.1302  154.5533 H   0  0  0  0  0  0  0  0  0  0  0  0
  147.7552  138.7199  155.4449 H   0  0  0  0  0  0  0  0  0  0  0  0
  147.0240  141.3323  154.1949 H   0  0  0  0  0  0  0  0  0  0  0  0
  148.1481  141.1274  152.8781 H   0  0  0  0  0  0  0  0  0  0  0  0
  147.6038  139.3521  151.1856 H   0  0  0  0  0  0  0  0  0  0  0  0
  142.4464  135.5696  154.1487 H   0  0  0  0  0  0  0  0  0  0  0  0
  141.8298  135.9697  152.5445 H   0  0  0  0  0  0  0  0  0  0  0  0
  142.8848  133.3638  153.5778 H   0  0  0  0  0  0  0  0  0  0  0  0
  141.6092  133.6098  152.3880 H   0  0  0  0  0  0  0  0  0  0  0  0
  146.1623  132.8055  152.0459 H   0  0  0  0  0  0  0  0  0  0  0  0
  145.6297  131.1232  152.0654 H   0  0  0  0  0  0  0  0  0  0  0  0
  145.0040  132.2482  153.2575 H   0  0  0  0  0  0  0  0  0  0  0  0
  144.2735  131.1774  149.6239 H   0  0  0  0  0  0  0  0  0  0  0  0
  143.8435  132.8176  149.2431 H   0  0  0  0  0  0  0  0  0  0  0  0
  146.0412  132.9952  148.5833 H   0  0  0  0  0  0  0  0  0  0  0  0
  146.4342  133.1397  150.2836 H   0  0  0  0  0  0  0  0  0  0  0  0
  147.5919  131.4435  149.6363 H   0  0  0  0  0  0  0  0  0  0  0  0
  146.1092  134.5750  150.3961 H   0  0  0  0  0  0  0  0  0  0  0  0
  146.2966  136.1319  151.1851 H   0  0  0  0  0  0  0  0  0  0  0  0
  144.9500  135.8642  150.0853 H   0  0  0  0  0  0  0  0  0  0  0  0
  144.2854  137.9920  156.5327 H   0  0  0  0  0  0  0  0  0  0  0  0
  143.4326  131.8736  151.5514 H   0  0  0  0  0  0  0  0  0  0  0  0
  1  2  1  0  0  0  0
  1 31  1  0  0  0  0
  1 32  1  0  0  0  0
  1 33  1  0  0  0  0
  2  6  1  0  0  0  0
  2  3  1  0  0  0  0
  2 34  1  0  0  0  0
  3  4  1  0  0  0  0
  4  5  1  0  0  0  0
  4 35  1  0  0  0  0
  4 36  1  0  0  0  0
  5  6  1  0  0  0  0
  5 37  1  0  0  0  0
  5 38  1  0  0  0  0
  6  7  1  0  0  0  0
  6  8  1  0  0  0  0
  7 39  1  0  0  0  0
  8  9  1  0  0  0  0
  8 40  1  0  0  0  0
  8 41  1  0  0  0  0
  9 28  1  0  0  0  0
  9 10  1  0  0  0  0
 10 11  2  0  0  0  0
 10 42  1  0  0  0  0
 11 12  1  0  0  0  0
 12 28  2  0  0  0  0
 12 13  1  0  0  0  0
 13 14  1  0  0  0  0
 13 25  2  0  0  0  0
 14 23  1  0  0  0  0
 14 15  1  0  0  0  0
 15 16  1  0  0  0  0
 15 43  1  0  0  0  0
 15 44  1  0  0  0  0
 16 17  1  0  0  0  0
 16 45  1  0  0  0  0
 16 46  1  0  0  0  0
 17 29  1  0  0  0  0
 17 18  1  0  0  0  0
 17 23  1  0  0  0  0
 18 19  1  0  0  0  0
 18 20  1  0  0  0  0
 18 59  1  0  0  0  0
 19 47  1  0  0  0  0
 19 48  1  0  0  0  0
 19 49  1  0  0  0  0
 20 21  1  0  0  0  0
 20 50  1  0  0  0  0
 20 51  1  0  0  0  0
 21 22  1  0  0  0  0
 21 52  1  0  0  0  0
 21 53  1  0  0  0  0
 22 54  1  0  0  0  0
 23 30  1  0  0  0  0
 23 24  1  0  0  0  0
 24 55  1  0  0  0  0
 24 56  1  0  0  0  0
 24 57  1  0  0  0  0
 25 26  1  0  0  0  0
 26 27  2  0  0  0  0
 26 58  1  0  0  0  0
 27 28  1  0  0  0  0
M  CHG  1  18   1
M  END
> <s_m_source_file>
AV-unprocessed.smi

> <i_m_source_file_index>
290

> <i_lp_mmshare_version>
43012

> <i_f3d_flags>
0

> <s_epik_input>
W0NIMl0xW0NIMl1PW0NAQEhdKFtDSDNdKVtDQEBdMShbT0hdKVtDSDJdbihbY0hdbjIpYyhjMjMpbltjSF1uYzNONFtDSDJdW0NIMl1bQ0BIXShbQ0BIXTRbQ0gzXSlOKFtDSDNdKVtDSDJdW0NIMl1bT0hd

> <s_epik_cmdline>
J2VwaWtfcHl0aG9uJywgJy1waCcsICc3LjAnLCAnLXRuJywgJzgnLCAnLW1hJywgJzIwMCcsICctbWV0YWxfYmluZGluZycsICctaW1hZScsICc8aW5maWxlLm1hZT4nLCAnLW9tYWUnLCAnPG91dGZpbGUubWFlPic=

> <r_lp_tautomer_probability>
1

> <r_epik_Ionization_Penalty>
0.0036983

> <r_epik_Ionization_Penalty_Charging>
0.0032725

> <r_epik_Ionization_Penalty_Neutral>
0.000425798

> <r_epik_State_Penalty>
-0

> <r_epik_Charging_Adjusted_Penalty>
0.0032725

> <i_epik_Tot_Q>
1

> <i_epik_Tot_abs_Q>
1

> <r_epik_Metal_State_Penalty>
-0

> <b_epik_Metal_Only>
0

> <s_lp_Force_Field>
OPLS_2005

> <r_lp_Energy>
60.087

> <b_lp_Chiralities_Consistent>
1

> <s_lp_Variant>
AV-unprocessed.smi:290-15

> <Gold.Version>
5.8.1

> <Gold.Id.Protein>
6NUR|6NUR_protein|mol2

> <Gold.PLP.Fitness>
44.9616

> <Gold.PLP.PLP>
-39.3101

> <Gold.PLP.part.hbond>
-1.5566

> <Gold.PLP.part.metal>
0.0000

> <Gold.PLP.part.buried>
0.8407

> <Gold.PLP.part.nonpolar>
-40.1422

> <Gold.PLP.part.repulsive>
1.1716

> <Gold.PLP.ligand.clash>
0.0000

> <Gold.PLP.ligand.torsion>
1.8582

> <Gold.PLP.Chemscore.Hbond>
1.9500

> <Gold.PLP.Chemscore.CHOScore>
1.0000

> <Gold.PLP.Chemscore.Metal>
0.0000

> <Gold.Chemscore.Hbonds>
donor molecule, donor type, donor heavy atom, donor atom, acceptor molecule, acceptor atom, score
      L1  H    22    54       P1 10747  0.93
      P1  H  7989  7998       L1     3  0.95
      L1  C    10    42       P1  7957  1.00

> <Gold.PLP.Chemscore.Internal.Correction>
0.5180

> <Gold.Rescore>
     Score         DG    S(hbond)    S(metal)    S(lipo)     H(rot)  DE(clash)    DE(int)     intcor
      3.38     -11.03       1.00        0.00      99.06       3.67       1.91       5.74       ----

> <Gold.Chemscore.Fitness>
3.3801

> <Gold.Chemscore.DG>
-11.0252

> <Gold.Chemscore.ZeroCoef>
-5.4800

> <Gold.Chemscore.Hbond>
0.9999

> <Gold.Chemscore.Metal>
0.0000

> <Gold.Chemscore.Lipo>
99.0597

> <Gold.Chemscore.Internal_Hbond>
0.0000

> <Gold.Chemscore.DEClash>
1.9098

> <Gold.Chemscore.DEInternal>
5.7353

> <Gold.Chemscore.Rot>
3.6658

> <Gold.Chemscore.Internal.Correction>
   9.000000E+99

> <Gold.Chemscore.Hbonds>
donor molecule, donor type, donor heavy atom, donor atom, acceptor molecule, acceptor atom, score
      L1  H    22    54       P1 10747  0.89
      P1  H  7989  7998       L1     3  0.06

> <Gold.Chemscore.Hbond.Weighted>
-3.3396

> <Gold.Chemscore.Metal.Weighted>
-0.0000

> <Gold.Chemscore.Lipo.Weighted>
-11.5900

> <Gold.Chemscore.Internal_Hbond.Weighted>
0.0000

> <Gold.Chemscore.DEClash.Weighted>
1.9098

> <Gold.Chemscore.DEInternal.Weighted>
5.7353

> <Gold.Chemscore.Rot.Weighted>
9.3844

> <Gold.Chemscore.Internal.Correction.Weighted>
   9.000000E+99

> <Gold.Protein.RotatedTorsions>
[ 6907 6896 6895 6894 ] final  -70.95 input  -60.11 | X-H torsion
[ 7974 7965 7964 7962 ] final  134.70 input  175.53 | X-H torsion
[ 8008 7997 7996 7995 ] final   35.58 input   59.86 | X-H torsion
[ 10167 10162 10161 10158 ] final  -38.71 input  -65.29 | X-H torsion
[ 10718 10713 10712 10709 ] final   77.44 input   66.30 | X-H torsion
[ 10763 10752 10751 10750 ] final -141.98 input  -60.55 | X-H torsion
[ 11005 11000 10999 10996 ] final   68.99 input  -57.11 | X-H torsion

> <Gold.Protein.ActiveResidues>
 VAL166  LYS551  ARG553  GLY616  TRP617  ASP618  TYR619  PRO620  LYS621  CYS622 
 ASP623  PHE694  ASN695  SER759  ASP760  ASP761  ALA762  ILE779  LEU786  VAL792 
 PHE793  MET794  SER795  GLU796  ALA797  LYS798  CYS799  TRP800  GLU811  SER814 

> <Gold.Protein.RotatedAtoms>
  150.7234  134.5379  159.5732 H   0  0  0  0  0  0  0  0  0  0  0  0  # atno 6907 bound_to 6896
  152.2897  134.7733  160.0389 H   0  0  0  0  0  0  0  0  0  0  0  0  # atno 6908 bound_to 6896
  151.8351  133.3379  159.3662 H   0  0  0  0  0  0  0  0  0  0  0  0  # atno 6909 bound_to 6896
  144.9737  139.4578  143.5420 H   0  0  0  0  0  0  0  0  0  0  0  0  # atno 7974 bound_to 7965
  155.1734  140.3293  155.4388 H   0  0  0  0  0  0  0  0  0  0  0  0  # atno 8008 bound_to 7997
  156.2502  140.1939  156.6786 H   0  0  0  0  0  0  0  0  0  0  0  0  # atno 8009 bound_to 7997
  154.6322  140.0581  156.9732 H   0  0  0  0  0  0  0  0  0  0  0  0  # atno 8010 bound_to 7997
  140.7084  143.3260  151.2680 H   0  0  0  0  0  0  0  0  0  0  0  0  # atno 10167 bound_to 10162
  157.6710  130.9822  150.1642 H   0  0  0  0  0  0  0  0  0  0  0  0  # atno 10718 bound_to 10713
  154.8525  135.3509  154.5955 H   0  0  0  0  0  0  0  0  0  0  0  0  # atno 10763 bound_to 10752
  153.6565  135.6991  153.5196 H   0  0  0  0  0  0  0  0  0  0  0  0  # atno 10764 bound_to 10752
  153.2852  135.4251  155.1074 H   0  0  0  0  0  0  0  0  0  0  0  0  # atno 10765 bound_to 10752
  139.9679  134.6949  156.0506 H   0  0  0  0  0  0  0  0  0  0  0  0  # atno 11005 bound_to 11000
  146.3389  139.8966  142.8801 LP  0  0  0  0  0  0  0  0  0  0  0  0  # atno 17320 bound_to 7965
  145.2521  141.0047  143.3875 LP  0  0  0  0  0  0  0  0  0  0  0  0  # atno 17321 bound_to 7965
  139.6728  143.9990  152.2763 LP  0  0  0  0  0  0  0  0  0  0  0  0  # atno 17342 bound_to 10162
  139.9595  144.6567  150.8094 LP  0  0  0  0  0  0  0  0  0  0  0  0  # atno 17343 bound_to 10162
  156.2411  130.3691  149.8336 LP  0  0  0  0  0  0  0  0  0  0  0  0  # atno 17370 bound_to 10713
  156.6135  130.8596  151.3459 LP  0  0  0  0  0  0  0  0  0  0  0  0  # atno 17371 bound_to 10713
  141.1359  133.6575  156.3593 LP  0  0  0  0  0  0  0  0  0  0  0  0  # atno 17394 bound_to 11000
  140.5355  134.6171  157.5364 LP  0  0  0  0  0  0  0  0  0  0  0  0  # atno 17395 bound_to 11000

$$$$
