AV-unprocessed.smi:2516|AV-procd|sdf|9899|dock1
  -GOLD-   2272013533D 1   1.00000     0.00000
 Structure written by MMmdl.
 47 48  0  0  0  0  0  0  0  0  1 V2000
  147.1021  128.6625  151.5184 C   0  0  0  0  0  0  0  0  0  0  0  0
  145.9389  129.4934  152.0720 C   0  0  0  0  0  0  0  0  0  0  0  0
  146.2690  130.9069  152.1257 N   0  0  0  0  0  0  0  0  0  0  0  0
  145.5052  131.7834  151.4306 N   0  0  0  0  0  0  0  0  0  0  0  0
  146.0272  132.9782  151.6659 C   0  0  0  0  0  0  0  0  0  0  0  0
  145.3517  134.1906  151.0873 C   0  0  0  0  0  0  0  0  0  0  0  0
  147.1790  132.8607  152.5001 C   0  0  0  0  0  0  0  0  0  0  0  0
  148.0161  133.8806  153.0184 N   0  0  0  0  0  0  0  0  0  0  0  0
  148.5242  133.9510  154.2583 C   0  0  0  0  0  0  0  0  0  0  0  0
  148.3341  133.1194  155.1451 O   0  0  0  0  0  0  0  0  0  0  0  0
  149.2542  135.0635  154.4236 N   0  0  0  0  0  0  0  0  0  0  0  0
  149.9212  135.4682  155.6610 C   0  0  1  0  0  0  0  0  0  0  0  0
  151.1098  134.5219  155.9143 C   0  0  0  0  0  0  0  0  0  0  0  0
  150.3315  136.9623  155.5822 C   0  0  0  0  0  0  0  0  0  0  0  0
  149.1866  137.8689  155.0852 C   0  0  0  0  0  0  0  0  0  0  0  0
  149.6494  139.3279  154.9403 C   0  0  0  0  0  0  0  0  0  0  0  0
  150.7661  139.4024  154.0632 O   0  0  0  0  0  0  0  0  0  0  0  0
  151.8933  138.6855  154.5510 C   0  0  0  0  0  0  0  0  0  0  0  0
  151.5541  137.1909  154.6671 C   0  0  0  0  0  0  0  0  0  0  0  0
  147.2962  131.5361  152.8074 C   0  0  0  0  0  0  0  0  0  0  0  0
  148.2769  130.8023  153.6646 C   0  0  0  0  0  0  0  0  0  0  0  0
  146.8425  127.6043  151.4867 H   0  0  0  0  0  0  0  0  0  0  0  0
  147.9929  128.7683  152.1381 H   0  0  0  0  0  0  0  0  0  0  0  0
  147.3601  128.9724  150.5053 H   0  0  0  0  0  0  0  0  0  0  0  0
  145.0527  129.3610  151.4497 H   0  0  0  0  0  0  0  0  0  0  0  0
  145.6702  129.1517  153.0717 H   0  0  0  0  0  0  0  0  0  0  0  0
  145.4431  135.0487  151.7528 H   0  0  0  0  0  0  0  0  0  0  0  0
  144.2870  134.0165  150.9287 H   0  0  0  0  0  0  0  0  0  0  0  0
  145.7881  134.4611  150.1261 H   0  0  0  0  0  0  0  0  0  0  0  0
  148.1495  134.6872  152.4269 H   0  0  0  0  0  0  0  0  0  0  0  0
  149.3495  135.6870  153.6356 H   0  0  0  0  0  0  0  0  0  0  0  0
  149.2198  135.3603  156.4906 H   0  0  0  0  0  0  0  0  0  0  0  0
  151.5676  134.6983  156.8868 H   0  0  0  0  0  0  0  0  0  0  0  0
  151.8813  134.6404  155.1526 H   0  0  0  0  0  0  0  0  0  0  0  0
  150.7911  133.4790  155.9030 H   0  0  0  0  0  0  0  0  0  0  0  0
  150.6042  137.2906  156.5868 H   0  0  0  0  0  0  0  0  0  0  0  0
  148.8206  137.5090  154.1227 H   0  0  0  0  0  0  0  0  0  0  0  0
  148.3417  137.8379  155.7724 H   0  0  0  0  0  0  0  0  0  0  0  0
  148.8425  139.9371  154.5323 H   0  0  0  0  0  0  0  0  0  0  0  0
  149.9070  139.7526  155.9118 H   0  0  0  0  0  0  0  0  0  0  0  0
  152.7252  138.8279  153.8609 H   0  0  0  0  0  0  0  0  0  0  0  0
  152.2070  139.0895  155.5148 H   0  0  0  0  0  0  0  0  0  0  0  0
  152.4282  136.6593  155.0439 H   0  0  0  0  0  0  0  0  0  0  0  0
  151.3511  136.7885  153.6737 H   0  0  0  0  0  0  0  0  0  0  0  0
  149.0829  131.4583  153.9928 H   0  0  0  0  0  0  0  0  0  0  0  0
  148.7257  129.9719  153.1194 H   0  0  0  0  0  0  0  0  0  0  0  0
  147.7885  130.4012  154.5526 H   0  0  0  0  0  0  0  0  0  0  0  0
  1  2  1  0  0  0  0
  1 22  1  0  0  0  0
  1 23  1  0  0  0  0
  1 24  1  0  0  0  0
  2  3  1  0  0  0  0
  2 25  1  0  0  0  0
  2 26  1  0  0  0  0
  3 20  1  0  0  0  0
  3  4  1  0  0  0  0
  4  5  2  0  0  0  0
  5  6  1  0  0  0  0
  5  7  1  0  0  0  0
  6 27  1  0  0  0  0
  6 28  1  0  0  0  0
  6 29  1  0  0  0  0
  7  8  1  0  0  0  0
  7 20  2  0  0  0  0
  8  9  1  0  0  0  0
  8 30  1  0  0  0  0
  9 10  2  0  0  0  0
  9 11  1  0  0  0  0
 11 12  1  0  0  0  0
 11 31  1  0  0  0  0
 12 13  1  0  0  0  0
 12 14  1  0  0  0  0
 12 32  1  0  0  0  0
 13 33  1  0  0  0  0
 13 34  1  0  0  0  0
 13 35  1  0  0  0  0
 14 19  1  0  0  0  0
 14 15  1  0  0  0  0
 14 36  1  0  0  0  0
 15 16  1  0  0  0  0
 15 37  1  0  0  0  0
 15 38  1  0  0  0  0
 16 17  1  0  0  0  0
 16 39  1  0  0  0  0
 16 40  1  0  0  0  0
 17 18  1  0  0  0  0
 18 19  1  0  0  0  0
 18 41  1  0  0  0  0
 18 42  1  0  0  0  0
 19 43  1  0  0  0  0
 19 44  1  0  0  0  0
 20 21  1  0  0  0  0
 21 45  1  0  0  0  0
 21 46  1  0  0  0  0
 21 47  1  0  0  0  0
M  END
> <s_m_source_file>
AV-unprocessed.smi

> <i_m_source_file_index>
2516

> <i_lp_mmshare_version>
43012

> <i_f3d_flags>
0

> <s_epik_input>
W0NIM11bQ0gyXW4xbmMoW0NIM10pYyhjMVtDSDNdKVtOSF1DKD1PKVtOSF1bQ0BIXShbQ0gzXSlbQ0hdMltDSDJdW0NIMl1PW0NIMl1bQ0gyXTI=

> <s_epik_cmdline>
J2VwaWtfcHl0aG9uJywgJy1waCcsICc3LjAnLCAnLXRuJywgJzgnLCAnLW1hJywgJzIwMCcsICctbWV0YWxfYmluZGluZycsICctaW1hZScsICc8aW5maWxlLm1hZT4nLCAnLW9tYWUnLCAnPG91dGZpbGUubWFlPic=

> <r_lp_tautomer_probability>
1

> <r_epik_Ionization_Penalty>
0.00383358

> <r_epik_Ionization_Penalty_Charging>
0

> <r_epik_Ionization_Penalty_Neutral>
0.00383358

> <r_epik_State_Penalty>
0.00270714

> <r_epik_Charging_Adjusted_Penalty>
0.00270714

> <i_epik_Tot_Q>
0

> <i_epik_Tot_abs_Q>
0

> <r_epik_Metal_State_Penalty>
-0

> <b_epik_Metal_Only>
0

> <s_lp_Force_Field>
OPLS_2005

> <r_lp_Energy>
15.2282

> <b_lp_Chiralities_Consistent>
1

> <s_lp_Variant>
AV-unprocessed.smi:2516-2

> <Gold.Version>
5.8.1

> <Gold.Id.Protein>
6NUR|6NUR_protein|mol2

> <Gold.PLP.Fitness>
42.9456

> <Gold.PLP.PLP>
-34.7068

> <Gold.PLP.part.hbond>
-3.0000

> <Gold.PLP.part.metal>
0.0000

> <Gold.PLP.part.buried>
-2.0594

> <Gold.PLP.part.nonpolar>
-29.2812

> <Gold.PLP.part.repulsive>
0.3391

> <Gold.PLP.ligand.clash>
0.0000

> <Gold.PLP.ligand.torsion>
0.6018

> <Gold.PLP.Chemscore.Hbond>
3.0000

> <Gold.PLP.Chemscore.CHOScore>
0.0000

> <Gold.PLP.Chemscore.Metal>
0.0000

> <Gold.Chemscore.Hbonds>
donor molecule, donor type, donor heavy atom, donor atom, acceptor molecule, acceptor atom, score
      L1  H     8    30       P1  7948  1.00
      L1  H    11    31       P1  7948  1.00
      P1  H  7989  7998       L1    17  0.90

> <Gold.PLP.Chemscore.Internal.Correction>
0.4423

> <Gold.Rescore>
     Score         DG    S(hbond)    S(metal)    S(lipo)     H(rot)  DE(clash)    DE(int)     intcor
     17.21     -20.40       2.60        0.00      81.68       1.30       0.01       3.17       ----

> <Gold.Chemscore.Fitness>
17.2142

> <Gold.Chemscore.DG>
-20.3975

> <Gold.Chemscore.ZeroCoef>
-5.4800

> <Gold.Chemscore.Hbond>
2.6005

> <Gold.Chemscore.Metal>
0.0000

> <Gold.Chemscore.Lipo>
81.6849

> <Gold.Chemscore.Internal_Hbond>
0.0000

> <Gold.Chemscore.DEClash>
0.0102

> <Gold.Chemscore.DEInternal>
3.1731

> <Gold.Chemscore.Rot>
1.2990

> <Gold.Chemscore.Internal.Correction>
   9.000000E+99

> <Gold.Chemscore.Hbonds>
donor molecule, donor type, donor heavy atom, donor atom, acceptor molecule, acceptor atom, score
      L1  H     8    30       P1  7948  0.39
      L1  H    11    31       P1  7948  0.43
      P1  H  7989  7998       L1    17  0.18

> <Gold.Chemscore.Hbond.Weighted>
-8.6858

> <Gold.Chemscore.Metal.Weighted>
-0.0000

> <Gold.Chemscore.Lipo.Weighted>
-9.5571

> <Gold.Chemscore.Internal_Hbond.Weighted>
0.0000

> <Gold.Chemscore.DEClash.Weighted>
0.0102

> <Gold.Chemscore.DEInternal.Weighted>
3.1731

> <Gold.Chemscore.Rot.Weighted>
3.3254

> <Gold.Chemscore.Internal.Correction.Weighted>
   9.000000E+99

> <Gold.Protein.RotatedTorsions>
[ 6907 6896 6895 6894 ] final   49.77 input  -60.11 | X-H torsion
[ 7974 7965 7964 7962 ] final  134.10 input  175.53 | X-H torsion
[ 8008 7997 7996 7995 ] final  105.24 input   59.86 | X-H torsion
[ 10167 10162 10161 10158 ] final  -46.54 input  -65.29 | X-H torsion
[ 10718 10713 10712 10709 ] final   22.30 input   66.30 | X-H torsion
[ 10763 10752 10751 10750 ] final -107.00 input  -60.55 | X-H torsion
[ 11005 11000 10999 10996 ] final   76.05 input  -57.11 | X-H torsion

> <Gold.Protein.ActiveResidues>
 VAL166  LYS551  ARG553  GLY616  TRP617  ASP618  TYR619  PRO620  LYS621  CYS622 
 ASP623  PHE694  ASN695  SER759  ASP760  ASP761  ALA762  ILE779  LEU786  VAL792 
 PHE793  MET794  SER795  GLU796  ALA797  LYS798  CYS799  TRP800  GLU811  SER814 

> <Gold.Protein.RotatedAtoms>
  152.2944  134.7684  160.0370 H   0  0  0  0  0  0  0  0  0  0  0  0  # atno 6907 bound_to 6896
  151.8219  133.3390  159.3595 H   0  0  0  0  0  0  0  0  0  0  0  0  # atno 6908 bound_to 6896
  150.7245  134.5495  159.5832 H   0  0  0  0  0  0  0  0  0  0  0  0  # atno 6909 bound_to 6896
  144.9797  139.4517  143.5392 H   0  0  0  0  0  0  0  0  0  0  0  0  # atno 7974 bound_to 7965
  156.1642  140.3134  155.8860 H   0  0  0  0  0  0  0  0  0  0  0  0  # atno 8008 bound_to 7997
  155.3720  140.0482  157.3062 H   0  0  0  0  0  0  0  0  0  0  0  0  # atno 8009 bound_to 7997
  154.5176  140.2187  155.9047 H   0  0  0  0  0  0  0  0  0  0  0  0  # atno 8010 bound_to 7997
  140.6813  143.2826  151.3797 H   0  0  0  0  0  0  0  0  0  0  0  0  # atno 10167 bound_to 10162
  157.1504  130.6672  149.6010 H   0  0  0  0  0  0  0  0  0  0  0  0  # atno 10718 bound_to 10713
  154.8048  135.4691  154.0365 H   0  0  0  0  0  0  0  0  0  0  0  0  # atno 10763 bound_to 10752
  153.1842  135.6845  153.8444 H   0  0  0  0  0  0  0  0  0  0  0  0  # atno 10764 bound_to 10752
  153.7984  135.3233  155.3364 H   0  0  0  0  0  0  0  0  0  0  0  0  # atno 10765 bound_to 10752
  139.9315  134.7569  156.1347 H   0  0  0  0  0  0  0  0  0  0  0  0  # atno 11005 bound_to 11000
  146.3405  139.9062  142.8787 LP  0  0  0  0  0  0  0  0  0  0  0  0  # atno 17320 bound_to 7965
  145.2438  141.0019  143.3920 LP  0  0  0  0  0  0  0  0  0  0  0  0  # atno 17321 bound_to 7965
  139.6138  144.1045  152.2325 LP  0  0  0  0  0  0  0  0  0  0  0  0  # atno 17342 bound_to 10162
  140.0467  144.5965  150.7368 LP  0  0  0  0  0  0  0  0  0  0  0  0  # atno 17343 bound_to 10162
  155.9771  130.4746  150.6575 LP  0  0  0  0  0  0  0  0  0  0  0  0  # atno 17370 bound_to 10713
  157.4226  131.0839  151.1116 LP  0  0  0  0  0  0  0  0  0  0  0  0  # atno 17371 bound_to 10713
  141.0907  133.6715  156.2534 LP  0  0  0  0  0  0  0  0  0  0  0  0  # atno 17394 bound_to 11000
  140.6188  134.5383  157.5544 LP  0  0  0  0  0  0  0  0  0  0  0  0  # atno 17395 bound_to 11000

$$$$
