#       Name:                AV-unprocessed.smi:1995
#       Creating user name   scv26
#       Creation time:       Fri Mar 27 10:29:24 2020


#       File generated by GOLD software.
#

@<TRIPOS>MOLECULE
AV-unprocessed.smi:1995
    48    49     1
SMALL
NO_CHARGES


@<TRIPOS>ATOM
      1 ****        -2.7560  -0.2839   0.8289 C.3            1 S1                 0.0000
      2 ****        -1.2228  -0.2290   0.6979 C.3            1 S1                 0.0000
      3 ****        -0.6782   0.4161  -0.6162 C.3            1 S1                 0.0000
      4 ****        -1.0388   1.9246  -0.5432 C.3            1 S1                 0.0000
      5 ****         0.8803   0.2902  -0.6334 C.3            1 S1                 0.0000
      6 ****         1.5435   0.9675   0.4819 N.am           1 S1                 0.0000
      7 ****         2.0441   0.3921   1.5850 C.2            1 S1                 0.0000
      8 ****         1.9784  -0.8309   1.7286 O.2            1 S1                 0.0000
      9 ****         2.5795   1.2732   2.4603 N.pl3          1 S1                -1.0000
     10 ****         3.0816   0.8393   3.6278 C.2            1 S1                 0.0000
     11 ****         4.3921   0.6793   3.8447 N.2            1 S1                 0.0000
     12 ****         4.6905   0.2263   5.1310 C.2            1 S1                 0.0000
     13 ****         3.5819   0.0444   5.9145 C.2            1 S1                 0.0000
     14 ****         2.1209   0.4399   5.0550 S.3            1 S1                 0.0000
     15 ****        -1.3029  -0.2149  -1.8143 N.3            1 S1                 0.0000
     16 ****        -0.9817   0.4201  -3.0975 C.3            1 S1                 0.0000
     17 ****        -1.7793  -0.1969  -4.2592 C.3            1 S1                 0.0000
     18 ****        -1.5351  -1.5971  -4.3203 O.3            1 S1                 0.0000
     19 ****        -1.8822  -2.2624  -3.1115 C.3            1 S1                 0.0000
     20 ****        -1.0849  -1.6612  -1.9416 C.3            1 S1                 0.0000
     21 ****        -3.0400  -0.7467   1.7741 H              1 S1                 0.0000
     22 ****        -3.2121  -0.8700   0.0313 H              1 S1                 0.0000
     23 ****        -3.1993   0.7111   0.8107 H              1 S1                 0.0000
     24 ****        -0.8472   0.3170   1.5637 H              1 S1                 0.0000
     25 ****        -0.8222  -1.2356   0.8185 H              1 S1                 0.0000
     26 ****        -0.7984   2.3563   0.4290 H              1 S1                 0.0000
     27 ****        -2.1017   2.0947  -0.7157 H              1 S1                 0.0000
     28 ****        -0.4913   2.5105  -1.2816 H              1 S1                 0.0000
     29 ****         1.1888  -0.7547  -0.6659 H              1 S1                 0.0000
     30 ****         1.2878   0.7431  -1.5364 H              1 S1                 0.0000
     31 ****         1.6221   1.9716   0.4152 H              1 S1                 0.0000
     32 ****         5.7218   0.0610   5.4046 H              1 S1                 0.0000
     33 ****         3.5352  -0.2938   6.9386 H              1 S1                 0.0000
     34 ****        -1.2043   1.4853  -3.0724 H              1 S1                 0.0000
     35 ****         0.0820   0.3222  -3.3133 H              1 S1                 0.0000
     36 ****        -2.8474  -0.0118  -4.1344 H              1 S1                 0.0000
     37 ****        -1.4839   0.2575  -5.2049 H              1 S1                 0.0000
     38 ****        -2.9549  -2.1743  -2.9333 H              1 S1                 0.0000
     39 ****        -1.6607  -3.3247  -3.2141 H              1 S1                 0.0000
     40 ****        -0.0272  -1.8724  -2.0981 H              1 S1                 0.0000
     41 ****        -1.3793  -2.1835  -1.0334 H              1 S1                 0.0000
     42 ****         1.5514  -1.3951   1.0219 LP             1 S1                 0.0000
     43 ****         2.3522  -1.2585   2.5517 LP             1 S1                 0.0000
     44 ****         2.6015   2.2480   2.2381 LP             1 S1                 0.0000
     45 ****         5.0897   0.8660   3.1529 LP             1 S1                 0.0000
     46 ****        -2.2708  -0.0558  -1.6200 LP             1 S1                 0.0000
     47 ****        -0.5628  -1.7458  -4.5008 LP             1 S1                 0.0000
     48 ****        -2.0757  -1.9849  -5.0668 LP             1 S1                 0.0000
@<TRIPOS>BOND
    1    1    2 1     
    2    1   21 1     
    3    1   22 1     
    4    1   23 1     
    5    2    3 1     
    6    2   24 1     
    7    2   25 1     
    8    3    4 1     
    9    3    5 1     
   10    3   15 1     
   11    4   26 1     
   12    4   27 1     
   13    4   28 1     
   14    5    6 1     
   15    5   29 1     
   16    5   30 1     
   17    6    7 am    
   18    6   31 1     
   19    7    8 2     
   20    7    9 1     
   21    9   10 1     
   22   10   14 1     
   23   10   11 2     
   24   11   12 1     
   25   12   13 2     
   26   12   32 1     
   27   13   14 1     
   28   13   33 1     
   29   15   20 1     
   30   15   16 1     
   31   16   17 1     
   32   16   34 1     
   33   16   35 1     
   34   17   18 1     
   35   17   36 1     
   36   17   37 1     
   37   18   19 1     
   38   19   20 1     
   39   19   38 1     
   40   19   39 1     
   41   20   40 1     
   42   20   41 1     
   43    8   42 1     
   44    8   43 1     
   45    9   44 1     
   46   11   45 1     
   47   15   46 1     
   48   18   47 1     
   49   18   48 1     
@<TRIPOS>SUBSTRUCTURE
      1 S1             1
@<TRIPOS>SET
LONE_PAIRS      STATIC     ATOMS    <user>   **** ""
7 42 43 44 45 46 47 48
DONOR_HYDROGENS      STATIC     ATOMS    <user>   **** ""
1 31
ATOM$BLUE        STATIC     ATOMS    COLORGROUP SYSTEM
7 42 43 44 45 46 47 48
ATOM$RED        STATIC     ATOMS    COLORGROUP SYSTEM
1 31
