AV-unprocessed.smi:771|AV-procd|sdf|3682|dock6
  -GOLD-   22720 1 93D 1   1.00000     0.00000
 Structure written by MMmdl.
 41 42  0  0  0  0  0  0  0  0  3 V2000
  148.3382  133.5186  155.8665 O   0  0  0  0  0  0  0  0  0  0  0  0
  148.6467  134.1820  154.8756 C   0  0  0  0  0  0  0  0  0  0  0  0
  150.0987  134.6271  154.6549 C   0  0  0  0  0  0  0  0  0  0  0  0
  150.5038  135.7204  155.5548 N   0  0  0  0  0  0  0  0  0  0  0  0
  150.9671  136.9086  154.9561 C   0  0  0  0  0  0  0  0  0  0  0  0
  151.3587  137.9720  155.6853 C   0  0  0  0  0  0  0  0  0  0  0  0
  151.8296  139.1854  155.0541 N   0  3  0  0  0  0  0  0  0  0  0  0
  153.0378  139.3433  154.9110 O   0  0  0  0  0  0  0  0  0  0  0  0
  151.0098  140.0188  154.6797 O   0  5  0  0  0  0  0  0  0  0  0  0
  151.2900  137.8616  157.1297 C   0  0  0  0  0  0  0  0  0  0  0  0
  150.8451  136.7287  157.7082 C   0  0  0  0  0  0  0  0  0  0  0  0
  150.4187  135.5730  156.9128 C   0  0  0  0  0  0  0  0  0  0  0  0
  150.0095  134.5356  157.4350 O   0  0  0  0  0  0  0  0  0  0  0  0
  147.7637  134.5641  153.9411 N   0  0  0  0  0  0  0  0  0  0  0  0
  146.3489  134.2061  153.9265 C   0  0  0  0  0  0  0  0  0  0  0  0
  145.9487  133.4069  152.6638 C   0  0  1  0  0  0  0  0  0  0  0  0
  144.4174  133.3786  152.4784 C   0  0  0  0  0  0  0  0  0  0  0  0
  144.0084  132.5240  151.2682 C   0  0  0  0  0  0  0  0  0  0  0  0
  144.6940  133.0124  149.9836 C   0  0  0  0  0  0  0  0  0  0  0  0
  146.2233  133.0485  150.1468 C   0  0  0  0  0  0  0  0  0  0  0  0
  146.6602  133.8799  151.3685 C   0  0  1  0  0  0  0  0  0  0  0  0
  146.4027  135.2489  151.1169 O   0  0  0  0  0  0  0  0  0  0  0  0
  150.7698  133.7755  154.7840 H   0  0  0  0  0  0  0  0  0  0  0  0
  150.2077  134.9208  153.6101 H   0  0  0  0  0  0  0  0  0  0  0  0
  150.9739  136.8941  153.8757 H   0  0  0  0  0  0  0  0  0  0  0  0
  151.5929  138.6864  157.7579 H   0  0  0  0  0  0  0  0  0  0  0  0
  150.8006  136.6687  158.7857 H   0  0  0  0  0  0  0  0  0  0  0  0
  148.1021  135.1177  153.1671 H   0  0  0  0  0  0  0  0  0  0  0  0
  146.1093  133.6362  154.8254 H   0  0  0  0  0  0  0  0  0  0  0  0
  145.7679  135.1264  153.9891 H   0  0  0  0  0  0  0  0  0  0  0  0
  146.2578  132.3737  152.8307 H   0  0  0  0  0  0  0  0  0  0  0  0
  143.9417  132.9832  153.3765 H   0  0  0  0  0  0  0  0  0  0  0  0
  144.0386  134.3938  152.3534 H   0  0  0  0  0  0  0  0  0  0  0  0
  144.2730  131.4815  151.4503 H   0  0  0  0  0  0  0  0  0  0  0  0
  142.9255  132.5503  151.1439 H   0  0  0  0  0  0  0  0  0  0  0  0
  144.4254  132.3636  149.1496 H   0  0  0  0  0  0  0  0  0  0  0  0
  144.3264  134.0074  149.7294 H   0  0  0  0  0  0  0  0  0  0  0  0
  146.5909  132.0281  150.2620 H   0  0  0  0  0  0  0  0  0  0  0  0
  146.6878  133.4365  149.2395 H   0  0  0  0  0  0  0  0  0  0  0  0
  147.7394  133.7728  151.4827 H   0  0  0  0  0  0  0  0  0  0  0  0
  147.0922  135.7616  151.5098 H   0  0  0  0  0  0  0  0  0  0  0  0
  1  2  2  0  0  0  0
  2  3  1  0  0  0  0
  2 14  1  0  0  0  0
  3  4  1  0  0  0  0
  3 23  1  0  0  0  0
  3 24  1  0  0  0  0
  4 12  1  0  0  0  0
  4  5  1  0  0  0  0
  5  6  2  0  0  0  0
  5 25  1  0  0  0  0
  6  7  1  0  0  0  0
  6 10  1  0  0  0  0
  7  8  2  0  0  0  0
  7  9  1  0  0  0  0
 10 11  2  0  0  0  0
 10 26  1  0  0  0  0
 11 12  1  0  0  0  0
 11 27  1  0  0  0  0
 12 13  2  0  0  0  0
 14 15  1  0  0  0  0
 14 28  1  0  0  0  0
 15 16  1  0  0  0  0
 15 29  1  0  0  0  0
 15 30  1  0  0  0  0
 16 21  1  0  0  0  0
 16 17  1  0  0  0  0
 16 31  1  0  0  0  0
 17 18  1  0  0  0  0
 17 32  1  0  0  0  0
 17 33  1  0  0  0  0
 18 19  1  0  0  0  0
 18 34  1  0  0  0  0
 18 35  1  0  0  0  0
 19 20  1  0  0  0  0
 19 36  1  0  0  0  0
 19 37  1  0  0  0  0
 20 21  1  0  0  0  0
 20 38  1  0  0  0  0
 20 39  1  0  0  0  0
 21 22  1  0  0  0  0
 21 40  1  0  0  0  0
 22 41  1  0  0  0  0
M  CHG  1   7   1
M  CHG  1   9  -1
M  END
> <s_m_source_file>
AV-unprocessed.smi

> <i_m_source_file_index>
771

> <i_lp_mmshare_version>
43012

> <i_f3d_flags>
0

> <s_epik_input>
Tz1jMVtjSF1bY0hdYyhbTitdKD1PKVtPLV0pW2NIXW4xW0NIMl1DKD1PKVtOSF1bQ0gyXVtDQEBIXTJbQ0gyXVtDSDJdW0NIMl1bQ0gyXVtDQEhdMltPSF0=

> <s_epik_cmdline>
J2VwaWtfcHl0aG9uJywgJy1waCcsICc3LjAnLCAnLXRuJywgJzgnLCAnLW1hJywgJzIwMCcsICctbWV0YWxfYmluZGluZycsICctaW1hZScsICc8aW5maWxlLm1hZT4nLCAnLW9tYWUnLCAnPG91dGZpbGUubWFlPic=

> <r_lp_tautomer_probability>
1

> <r_epik_Ionization_Penalty>
3.77175e-07

> <r_epik_Ionization_Penalty_Charging>
7.70067e-11

> <r_epik_Ionization_Penalty_Neutral>
3.77098e-07

> <r_epik_State_Penalty>
-0

> <r_epik_Charging_Adjusted_Penalty>
7.70067e-11

> <i_epik_Tot_Q>
0

> <i_epik_Tot_abs_Q>
2

> <r_epik_Metal_State_Penalty>
-0

> <b_epik_Metal_Only>
0

> <s_lp_Force_Field>
OPLS_2005

> <r_lp_Energy>
25.2575

> <b_lp_Chiralities_Consistent>
1

> <s_lp_Variant>
AV-unprocessed.smi:771-2

> <Gold.Version>
5.8.1

> <Gold.Id.Protein>
6NUR|6NUR_protein|mol2

> <Gold.PLP.Fitness>
45.5677

> <Gold.PLP.PLP>
-31.5391

> <Gold.PLP.part.hbond>
-5.8058

> <Gold.PLP.part.metal>
0.0000

> <Gold.PLP.part.buried>
-3.4900

> <Gold.PLP.part.nonpolar>
-23.1304

> <Gold.PLP.part.repulsive>
0.1016

> <Gold.PLP.ligand.clash>
0.0000

> <Gold.PLP.ligand.torsion>
1.8349

> <Gold.PLP.Chemscore.Hbond>
4.8268

> <Gold.PLP.Chemscore.CHOScore>
1.0566

> <Gold.PLP.Chemscore.Metal>
0.0000

> <Gold.Chemscore.Hbonds>
donor molecule, donor type, donor heavy atom, donor atom, acceptor molecule, acceptor atom, score
      L1  H    14    28       P1  7948  1.00
      L1  H    22    41       P1  7948  1.00
      P1  H  6896  6907       L1    13  0.79
      P1  H  7989  7998       L1     9  1.00
      P1  H  7997  8008       L1     8  1.00
      L1  C     5    25       P1  7948  0.04
      L1  C     5    25       P1  7949  0.93

> <Gold.PLP.Chemscore.Internal.Correction>
0.0482

> <Gold.Rescore>
     Score         DG    S(hbond)    S(metal)    S(lipo)     H(rot)  DE(clash)    DE(int)     intcor
     17.07     -22.16       4.63        0.00      64.57       2.48       0.20       4.90       ----

> <Gold.Chemscore.Fitness>
17.0655

> <Gold.Chemscore.DG>
-22.1646

> <Gold.Chemscore.ZeroCoef>
-5.4800

> <Gold.Chemscore.Hbond>
4.6307

> <Gold.Chemscore.Metal>
0.0000

> <Gold.Chemscore.Lipo>
64.5734

> <Gold.Chemscore.Internal_Hbond>
0.0000

> <Gold.Chemscore.DEClash>
0.1974

> <Gold.Chemscore.DEInternal>
4.9017

> <Gold.Chemscore.Rot>
2.4753

> <Gold.Chemscore.Internal.Correction>
   9.000000E+99

> <Gold.Chemscore.Hbonds>
donor molecule, donor type, donor heavy atom, donor atom, acceptor molecule, acceptor atom, score
      L1  H    14    28       P1  7948  0.98
      L1  H    22    41       P1  7948  0.97
      P1  H  6896  6907       L1    13  0.71
      P1  H  7989  7998       L1     9  0.68
      P1  H  7997  8008       L1     8  0.93

> <Gold.Chemscore.Hbond.Weighted>
-15.4664

> <Gold.Chemscore.Metal.Weighted>
-0.0000

> <Gold.Chemscore.Lipo.Weighted>
-7.5551

> <Gold.Chemscore.Internal_Hbond.Weighted>
0.0000

> <Gold.Chemscore.DEClash.Weighted>
0.1974

> <Gold.Chemscore.DEInternal.Weighted>
4.9017

> <Gold.Chemscore.Rot.Weighted>
6.3369

> <Gold.Chemscore.Internal.Correction.Weighted>
   9.000000E+99

> <Gold.Protein.RotatedTorsions>
[ 6907 6896 6895 6894 ] final -103.32 input  -60.11 | X-H torsion
[ 7974 7965 7964 7962 ] final   49.68 input  175.53 | X-H torsion
[ 8008 7997 7996 7995 ] final    4.89 input   59.86 | X-H torsion
[ 10167 10162 10161 10158 ] final   74.71 input  -65.29 | X-H torsion
[ 10718 10713 10712 10709 ] final   -4.73 input   66.30 | X-H torsion
[ 10763 10752 10751 10750 ] final   80.77 input  -60.55 | X-H torsion
[ 11005 11000 10999 10996 ] final   -6.00 input  -57.11 | X-H torsion

> <Gold.Protein.ActiveResidues>
 VAL166  LYS551  ARG553  GLY616  TRP617  ASP618  TYR619  PRO620  LYS621  CYS622 
 ASP623  PHE694  ASN695  SER759  ASP760  ASP761  ALA762  ILE779  LEU786  VAL792 
 PHE793  MET794  SER795  GLU796  ALA797  LYS798  CYS799  TRP800  GLU811  SER814 

> <Gold.Protein.RotatedAtoms>
  150.7235  134.0447  159.3777 H   0  0  0  0  0  0  0  0  0  0  0  0  # atno 6907 bound_to 6896
  151.8422  135.0584  160.0458 H   0  0  0  0  0  0  0  0  0  0  0  0  # atno 6908 bound_to 6896
  152.2854  133.5474  159.5560 H   0  0  0  0  0  0  0  0  0  0  0  0  # atno 6909 bound_to 6896
  146.0085  139.4517  142.9971 H   0  0  0  0  0  0  0  0  0  0  0  0  # atno 7974 bound_to 7965
  154.7215  140.2712  155.6537 H   0  0  0  0  0  0  0  0  0  0  0  0  # atno 8008 bound_to 7997
  156.2825  140.2733  156.1813 H   0  0  0  0  0  0  0  0  0  0  0  0  # atno 8009 bound_to 7997
  155.0501  140.0371  157.2530 H   0  0  0  0  0  0  0  0  0  0  0  0  # atno 8010 bound_to 7997
  140.0107  144.5616  150.7660 H   0  0  0  0  0  0  0  0  0  0  0  0  # atno 10167 bound_to 10162
  156.7570  130.5257  149.5792 H   0  0  0  0  0  0  0  0  0  0  0  0  # atno 10718 bound_to 10713
  153.1061  135.4790  154.8953 H   0  0  0  0  0  0  0  0  0  0  0  0  # atno 10763 bound_to 10752
  154.7431  135.3087  154.8695 H   0  0  0  0  0  0  0  0  0  0  0  0  # atno 10764 bound_to 10752
  153.9298  135.6846  153.4799 H   0  0  0  0  0  0  0  0  0  0  0  0  # atno 10765 bound_to 10752
  140.6972  133.9020  155.8658 H   0  0  0  0  0  0  0  0  0  0  0  0  # atno 11005 bound_to 11000
  145.7378  141.0019  143.1317 LP  0  0  0  0  0  0  0  0  0  0  0  0  # atno 17320 bound_to 7965
  144.6944  139.9062  143.7461 LP  0  0  0  0  0  0  0  0  0  0  0  0  # atno 17321 bound_to 7965
  140.7382  143.2775  151.3696 LP  0  0  0  0  0  0  0  0  0  0  0  0  # atno 17342 bound_to 10162
  139.6207  144.0913  152.2388 LP  0  0  0  0  0  0  0  0  0  0  0  0  # atno 17343 bound_to 10162
  156.1364  130.6214  151.0406 LP  0  0  0  0  0  0  0  0  0  0  0  0  # atno 17370 bound_to 10713
  157.6752  131.0852  150.7513 LP  0  0  0  0  0  0  0  0  0  0  0  0  # atno 17371 bound_to 10713
  141.0193  134.0911  157.4138 LP  0  0  0  0  0  0  0  0  0  0  0  0  # atno 17394 bound_to 11000
  139.8907  135.0113  156.6749 LP  0  0  0  0  0  0  0  0  0  0  0  0  # atno 17395 bound_to 11000

$$$$
