AV-unprocessed.smi:976|AV-procd|sdf|4302|dock3
  -GOLD-   22720 2203D 1   1.00000     0.00000
 Structure written by MMmdl.
 41 42  0  0  0  0  0  0  0  0  1 V2000
  151.5283  140.2099  158.1909 C   0  0  0  0  0  0  0  0  0  0  0  0
  150.9715  141.6174  157.9303 C   0  0  2  0  0  0  0  0  0  0  0  0
  150.7320  142.2259  159.1971 O   0  0  0  0  0  0  0  0  0  0  0  0
  151.8676  142.8202  159.8185 C   0  0  0  0  0  0  0  0  0  0  0  0
  151.7515  144.3469  159.7358 C   0  0  0  0  0  0  0  0  0  0  0  0
  152.2119  144.8834  160.8653 F   0  0  0  0  0  0  0  0  0  0  0  0
  152.4747  144.8104  158.7167 F   0  0  0  0  0  0  0  0  0  0  0  0
  150.4771  144.7046  159.5806 F   0  0  0  0  0  0  0  0  0  0  0  0
  149.6737  141.5629  157.1080 C   0  0  0  0  0  0  0  0  0  0  0  0
  148.6495  142.0877  157.5449 O   0  0  0  0  0  0  0  0  0  0  0  0
  149.7570  140.9197  155.9295 N   0  0  0  0  0  0  0  0  0  0  0  0
  148.7312  140.7069  154.9652 C   0  0  0  0  0  0  0  0  0  0  0  0
  147.7613  141.6928  154.6617 C   0  0  0  0  0  0  0  0  0  0  0  0
  146.8074  141.4331  153.6616 C   0  0  0  0  0  0  0  0  0  0  0  0
  146.8630  140.1991  152.9907 C   0  0  0  0  0  0  0  0  0  0  0  0
  147.7890  139.2558  153.2572 N   0  0  0  0  0  0  0  0  0  0  0  0
  148.7108  139.4957  154.2218 C   0  0  0  0  0  0  0  0  0  0  0  0
  149.6501  138.4794  154.4884 N   0  0  0  0  0  0  0  0  0  0  0  0
  151.0197  138.8483  154.1499 C   0  0  0  0  0  0  0  0  0  0  0  0
  151.9290  137.6100  154.2194 C   0  0  0  0  0  0  0  0  0  0  0  0
  151.8277  137.0116  155.5086 O   0  0  0  0  0  0  0  0  0  0  0  0
  150.4993  136.5876  155.8018 C   0  0  0  0  0  0  0  0  0  0  0  0
  149.5533  137.8005  155.7769 C   0  0  0  0  0  0  0  0  0  0  0  0
  151.7232  139.6814  157.2571 H   0  0  0  0  0  0  0  0  0  0  0  0
  150.8365  139.6067  158.7803 H   0  0  0  0  0  0  0  0  0  0  0  0
  152.4678  140.2627  158.7413 H   0  0  0  0  0  0  0  0  0  0  0  0
  151.7296  142.1895  157.3913 H   0  0  0  0  0  0  0  0  0  0  0  0
  151.9243  142.5109  160.8631 H   0  0  0  0  0  0  0  0  0  0  0  0
  152.7911  142.5012  159.3339 H   0  0  0  0  0  0  0  0  0  0  0  0
  150.6315  140.4512  155.7408 H   0  0  0  0  0  0  0  0  0  0  0  0
  147.7454  142.6485  155.1629 H   0  0  0  0  0  0  0  0  0  0  0  0
  146.0565  142.1670  153.4092 H   0  0  0  0  0  0  0  0  0  0  0  0
  146.1491  139.9649  152.2150 H   0  0  0  0  0  0  0  0  0  0  0  0
  151.0713  139.2908  153.1551 H   0  0  0  0  0  0  0  0  0  0  0  0
  151.3678  139.6065  154.8526 H   0  0  0  0  0  0  0  0  0  0  0  0
  151.6588  136.8868  153.4481 H   0  0  0  0  0  0  0  0  0  0  0  0
  152.9656  137.8949  154.0402 H   0  0  0  0  0  0  0  0  0  0  0  0
  150.1806  135.8302  155.0838 H   0  0  0  0  0  0  0  0  0  0  0  0
  150.4851  136.1197  156.7862 H   0  0  0  0  0  0  0  0  0  0  0  0
  149.8203  138.4907  156.5785 H   0  0  0  0  0  0  0  0  0  0  0  0
  148.5261  137.4780  155.9517 H   0  0  0  0  0  0  0  0  0  0  0  0
  1  2  1  0  0  0  0
  1 24  1  0  0  0  0
  1 25  1  0  0  0  0
  1 26  1  0  0  0  0
  2  3  1  0  0  0  0
  2  9  1  0  0  0  0
  2 27  1  0  0  0  0
  3  4  1  0  0  0  0
  4  5  1  0  0  0  0
  4 28  1  0  0  0  0
  4 29  1  0  0  0  0
  5  6  1  0  0  0  0
  5  7  1  0  0  0  0
  5  8  1  0  0  0  0
  9 10  2  0  0  0  0
  9 11  1  0  0  0  0
 11 12  1  0  0  0  0
 11 30  1  0  0  0  0
 12 17  1  0  0  0  0
 12 13  2  0  0  0  0
 13 14  1  0  0  0  0
 13 31  1  0  0  0  0
 14 15  2  0  0  0  0
 14 32  1  0  0  0  0
 15 16  1  0  0  0  0
 15 33  1  0  0  0  0
 16 17  2  0  0  0  0
 17 18  1  0  0  0  0
 18 23  1  0  0  0  0
 18 19  1  0  0  0  0
 19 20  1  0  0  0  0
 19 34  1  0  0  0  0
 19 35  1  0  0  0  0
 20 21  1  0  0  0  0
 20 36  1  0  0  0  0
 20 37  1  0  0  0  0
 21 22  1  0  0  0  0
 22 23  1  0  0  0  0
 22 38  1  0  0  0  0
 22 39  1  0  0  0  0
 23 40  1  0  0  0  0
 23 41  1  0  0  0  0
M  END
> <s_m_source_file>
AV-unprocessed.smi

> <i_m_source_file_index>
976

> <i_lp_mmshare_version>
43012

> <i_f3d_flags>
0

> <s_epik_input>
RkMoRikoRilbQ0gyXU9bQ0BASF0oW0NIM10pQyg9TylbTkhdYzFbY0hdW2NIXVtjSF1uYzFOMltDSDJdW0NIMl1PW0NIMl1bQ0gyXTI=

> <s_epik_cmdline>
J2VwaWtfcHl0aG9uJywgJy1waCcsICc3LjAnLCAnLXRuJywgJzgnLCAnLW1hJywgJzIwMCcsICctbWV0YWxfYmluZGluZycsICctaW1hZScsICc8aW5maWxlLm1hZT4nLCAnLW9tYWUnLCAnPG91dGZpbGUubWFlPic=

> <r_lp_tautomer_probability>
1

> <r_epik_Ionization_Penalty>
0.000443367

> <r_epik_Ionization_Penalty_Charging>
0

> <r_epik_Ionization_Penalty_Neutral>
0.000443367

> <r_epik_State_Penalty>
0.00027288

> <r_epik_Charging_Adjusted_Penalty>
0.00027288

> <i_epik_Tot_Q>
0

> <i_epik_Tot_abs_Q>
0

> <r_epik_Metal_State_Penalty>
-0

> <b_epik_Metal_Only>
0

> <s_lp_Force_Field>
OPLS_2005

> <r_lp_Energy>
26.1193

> <b_lp_Chiralities_Consistent>
1

> <s_lp_Variant>
AV-unprocessed.smi:976-1

> <Gold.Version>
5.8.1

> <Gold.Id.Protein>
6NUR|6NUR_protein|mol2

> <Gold.PLP.Fitness>
40.4662

> <Gold.PLP.PLP>
-41.1981

> <Gold.PLP.part.hbond>
-1.5463

> <Gold.PLP.part.metal>
0.0000

> <Gold.PLP.part.buried>
-6.0275

> <Gold.PLP.part.nonpolar>
-36.7340

> <Gold.PLP.part.repulsive>
2.1607

> <Gold.PLP.ligand.clash>
0.0000

> <Gold.PLP.ligand.torsion>
1.7744

> <Gold.PLP.Chemscore.Hbond>
0.0000

> <Gold.PLP.Chemscore.CHOScore>
0.8304

> <Gold.PLP.Chemscore.Metal>
0.0000

> <Gold.Chemscore.Hbonds>
donor molecule, donor type, donor heavy atom, donor atom, acceptor molecule, acceptor atom, score
      L1  C    15    33       P1 10175  0.85

> <Gold.PLP.Chemscore.Internal.Correction>
0.3256

> <Gold.Rescore>
     Score         DG    S(hbond)    S(metal)    S(lipo)     H(rot)  DE(clash)    DE(int)     intcor
      6.42     -10.11       0.00        0.00      82.18       1.95       0.62       3.06       ----

> <Gold.Chemscore.Fitness>
6.4230

> <Gold.Chemscore.DG>
-10.1055

> <Gold.Chemscore.ZeroCoef>
-5.4800

> <Gold.Chemscore.Hbond>
0.0000

> <Gold.Chemscore.Metal>
0.0000

> <Gold.Chemscore.Lipo>
82.1810

> <Gold.Chemscore.Internal_Hbond>
0.0000

> <Gold.Chemscore.DEClash>
0.6229

> <Gold.Chemscore.DEInternal>
3.0596

> <Gold.Chemscore.Rot>
1.9491

> <Gold.Chemscore.Internal.Correction>
   9.000000E+99

> <Gold.Chemscore.Hbond.Weighted>
-0.0000

> <Gold.Chemscore.Metal.Weighted>
-0.0000

> <Gold.Chemscore.Lipo.Weighted>
-9.6152

> <Gold.Chemscore.Internal_Hbond.Weighted>
0.0000

> <Gold.Chemscore.DEClash.Weighted>
0.6229

> <Gold.Chemscore.DEInternal.Weighted>
3.0596

> <Gold.Chemscore.Rot.Weighted>
4.9897

> <Gold.Chemscore.Internal.Correction.Weighted>
   9.000000E+99

> <Gold.Protein.RotatedTorsions>
[ 6907 6896 6895 6894 ] final  -48.09 input  -60.11 | X-H torsion
[ 7974 7965 7964 7962 ] final -158.88 input  175.53 | X-H torsion
[ 8008 7997 7996 7995 ] final  153.05 input   59.86 | X-H torsion
[ 10167 10162 10161 10158 ] final   55.27 input  -65.29 | X-H torsion
[ 10718 10713 10712 10709 ] final  102.08 input   66.30 | X-H torsion
[ 10763 10752 10751 10750 ] final   45.32 input  -60.55 | X-H torsion
[ 11005 11000 10999 10996 ] final  177.97 input  -57.11 | X-H torsion

> <Gold.Protein.ActiveResidues>
 VAL166  LYS551  ARG553  GLY616  TRP617  ASP618  TYR619  PRO620  LYS621  CYS622 
 ASP623  PHE694  ASN695  SER759  ASP760  ASP761  ALA762  ILE779  LEU786  VAL792 
 PHE793  MET794  SER795  GLU796  ALA797  LYS798  CYS799  TRP800  GLU811  SER814 

> <Gold.Protein.RotatedAtoms>
  150.8941  134.8348  159.7314 H   0  0  0  0  0  0  0  0  0  0  0  0  # atno 6907 bound_to 6896
  152.4855  134.4602  159.9612 H   0  0  0  0  0  0  0  0  0  0  0  0  # atno 6908 bound_to 6896
  151.4661  133.3541  159.2852 H   0  0  0  0  0  0  0  0  0  0  0  0  # atno 6909 bound_to 6896
  144.7488  140.3765  143.6064 H   0  0  0  0  0  0  0  0  0  0  0  0  # atno 7974 bound_to 7965
  156.2600  140.2004  156.6430 H   0  0  0  0  0  0  0  0  0  0  0  0  # atno 8008 bound_to 7997
  154.6595  140.0562  157.0071 H   0  0  0  0  0  0  0  0  0  0  0  0  # atno 8009 bound_to 7997
  155.1297  140.3232  155.4480 H   0  0  0  0  0  0  0  0  0  0  0  0  # atno 8010 bound_to 7997
  140.2212  144.3786  150.6450 H   0  0  0  0  0  0  0  0  0  0  0  0  # atno 10167 bound_to 10162
  157.6812  131.0743  150.5349 H   0  0  0  0  0  0  0  0  0  0  0  0  # atno 10718 bound_to 10713
  152.9826  135.6043  154.3418 H   0  0  0  0  0  0  0  0  0  0  0  0  # atno 10763 bound_to 10752
  154.3114  135.2771  155.2566 H   0  0  0  0  0  0  0  0  0  0  0  0  # atno 10764 bound_to 10752
  154.4774  135.5926  153.6420 H   0  0  0  0  0  0  0  0  0  0  0  0  # atno 10765 bound_to 10752
  140.3900  134.6871  157.4502 H   0  0  0  0  0  0  0  0  0  0  0  0  # atno 11005 bound_to 11000
  145.7022  139.1664  143.2586 LP  0  0  0  0  0  0  0  0  0  0  0  0  # atno 17320 bound_to 7965
  146.1407  140.7061  142.9368 LP  0  0  0  0  0  0  0  0  0  0  0  0  # atno 17321 bound_to 7965
  140.6253  143.2180  151.6609 LP  0  0  0  0  0  0  0  0  0  0  0  0  # atno 17342 bound_to 10162
  139.5143  144.3414  152.0737 LP  0  0  0  0  0  0  0  0  0  0  0  0  # atno 17343 bound_to 10162
  156.5658  130.4267  149.6042 LP  0  0  0  0  0  0  0  0  0  0  0  0  # atno 17370 bound_to 10713
  156.2782  130.7056  151.1873 LP  0  0  0  0  0  0  0  0  0  0  0  0  # atno 17371 bound_to 10713
  140.0414  134.6262  155.8976 LP  0  0  0  0  0  0  0  0  0  0  0  0  # atno 17394 bound_to 11000
  141.1894  133.6565  156.5366 LP  0  0  0  0  0  0  0  0  0  0  0  0  # atno 17395 bound_to 11000

$$$$
