AV-unprocessed.smi:2391|AV-procd|sdf|9482|dock6
  -GOLD-   2272013113D 1   1.00000     0.00000
 Structure written by MMmdl.
 35 36  0  0  0  0  0  0  0  0  1 V2000
  145.4009  137.1294  154.3695 O   0  0  0  0  0  0  0  0  0  0  0  0
  146.4549  136.9587  153.7568 C   0  0  0  0  0  0  0  0  0  0  0  0
  147.3582  137.9166  153.4848 N   0  0  0  0  0  0  0  0  0  0  0  0
  147.3019  139.2941  153.8240 C   0  0  0  0  0  0  0  0  0  0  0  0
  148.5191  139.9970  153.6982 C   0  0  0  0  0  0  0  0  0  0  0  0
  148.5344  141.3660  154.0154 C   0  0  0  0  0  0  0  0  0  0  0  0
  147.3247  141.9416  154.4400 C   0  0  0  0  0  0  0  0  0  0  0  0
  146.1820  141.2298  154.5469 N   0  0  0  0  0  0  0  0  0  0  0  0
  146.1748  139.9274  154.2427 N   0  0  0  0  0  0  0  0  0  0  0  0
  146.8467  135.7732  153.2670 N   0  0  0  0  0  0  0  0  0  0  0  0
  146.1197  134.5074  153.3892 C   0  0  1  0  0  0  0  0  0  0  0  0
  145.7356  133.9892  151.9786 C   0  0  0  0  0  0  0  0  0  0  0  0
  145.0118  135.0188  151.1010 C   0  0  0  0  0  0  0  0  0  0  0  0
  144.3722  134.1949  149.9833 C   0  0  0  0  0  0  0  0  0  0  0  0
  144.0719  132.8223  150.5984 C   0  0  0  0  0  0  0  0  0  0  0  0
  144.7685  132.7968  151.9662 C   0  0  0  0  0  0  0  0  0  0  0  0
  146.9842  133.5196  154.2054 C   0  0  0  0  0  0  0  0  0  0  0  0
  147.3951  134.1045  155.3315 F   0  0  0  0  0  0  0  0  0  0  0  0
  146.2860  132.4363  154.5430 F   0  0  0  0  0  0  0  0  0  0  0  0
  148.0551  133.1435  153.5051 F   0  0  0  0  0  0  0  0  0  0  0  0
  148.1795  137.6283  152.9742 H   0  0  0  0  0  0  0  0  0  0  0  0
  149.4204  139.5025  153.3662 H   0  0  0  0  0  0  0  0  0  0  0  0
  149.4379  141.9520  153.9359 H   0  0  0  0  0  0  0  0  0  0  0  0
  147.2709  142.9888  154.6979 H   0  0  0  0  0  0  0  0  0  0  0  0
  147.7295  135.7339  152.7792 H   0  0  0  0  0  0  0  0  0  0  0  0
  145.1983  134.6699  153.9514 H   0  0  0  0  0  0  0  0  0  0  0  0
  146.6439  133.6897  151.4531 H   0  0  0  0  0  0  0  0  0  0  0  0
  144.2325  135.5184  151.6785 H   0  0  0  0  0  0  0  0  0  0  0  0
  145.6798  135.7878  150.7118 H   0  0  0  0  0  0  0  0  0  0  0  0
  143.4800  134.6743  149.5796 H   0  0  0  0  0  0  0  0  0  0  0  0
  145.0819  134.0791  149.1632 H   0  0  0  0  0  0  0  0  0  0  0  0
  142.9986  132.6664  150.7133 H   0  0  0  0  0  0  0  0  0  0  0  0
  144.4483  132.0281  149.9525 H   0  0  0  0  0  0  0  0  0  0  0  0
  145.2787  131.8493  152.1412 H   0  0  0  0  0  0  0  0  0  0  0  0
  144.0203  132.9166  152.7510 H   0  0  0  0  0  0  0  0  0  0  0  0
  1  2  2  0  0  0  0
  2  3  1  0  0  0  0
  2 10  1  0  0  0  0
  3  4  1  0  0  0  0
  3 21  1  0  0  0  0
  4  9  1  0  0  0  0
  4  5  2  0  0  0  0
  5  6  1  0  0  0  0
  5 22  1  0  0  0  0
  6  7  2  0  0  0  0
  6 23  1  0  0  0  0
  7  8  1  0  0  0  0
  7 24  1  0  0  0  0
  8  9  2  0  0  0  0
 10 11  1  0  0  0  0
 10 25  1  0  0  0  0
 11 12  1  0  0  0  0
 11 17  1  0  0  0  0
 11 26  1  0  0  0  0
 12 16  1  0  0  0  0
 12 13  1  0  0  0  0
 12 27  1  0  0  0  0
 13 14  1  0  0  0  0
 13 28  1  0  0  0  0
 13 29  1  0  0  0  0
 14 15  1  0  0  0  0
 14 30  1  0  0  0  0
 14 31  1  0  0  0  0
 15 16  1  0  0  0  0
 15 32  1  0  0  0  0
 15 33  1  0  0  0  0
 16 34  1  0  0  0  0
 16 35  1  0  0  0  0
 17 18  1  0  0  0  0
 17 19  1  0  0  0  0
 17 20  1  0  0  0  0
M  END
> <s_m_source_file>
AV-unprocessed.smi

> <i_m_source_file_index>
2391

> <i_lp_mmshare_version>
43012

> <i_f3d_flags>
0

> <s_epik_input>
W0NIMl0xW0NIMl1bQ0gyXVtDSDJdW0NIXTFbQ0BIXShDKEYpKEYpRilbTkhdQyg9TylbTkhdYzJbY0hdW2NIXVtjSF1ubjI=

> <s_epik_cmdline>
J2VwaWtfcHl0aG9uJywgJy1waCcsICc3LjAnLCAnLXRuJywgJzgnLCAnLW1hJywgJzIwMCcsICctbWV0YWxfYmluZGluZycsICctaW1hZScsICc8aW5maWxlLm1hZT4nLCAnLW9tYWUnLCAnPG91dGZpbGUubWFlPic=

> <r_lp_tautomer_probability>
1

> <r_epik_Ionization_Penalty>
0.00359591

> <r_epik_Ionization_Penalty_Charging>
0

> <r_epik_Ionization_Penalty_Neutral>
0.00359591

> <r_epik_State_Penalty>
0.0123658

> <r_epik_Charging_Adjusted_Penalty>
0.0123658

> <i_epik_Tot_Q>
0

> <i_epik_Tot_abs_Q>
0

> <r_epik_Metal_State_Penalty>
0.0410426

> <b_epik_Metal_Only>
0

> <s_lp_Force_Field>
OPLS_2005

> <r_lp_Energy>
31.4034

> <b_lp_Chiralities_Consistent>
1

> <s_lp_Variant>
AV-unprocessed.smi:2391-2

> <Gold.Version>
5.8.1

> <Gold.Id.Protein>
6NUR|6NUR_protein|mol2

> <Gold.PLP.Fitness>
35.3062

> <Gold.PLP.PLP>
-26.7439

> <Gold.PLP.part.hbond>
-2.0000

> <Gold.PLP.part.metal>
0.0000

> <Gold.PLP.part.buried>
-0.3549

> <Gold.PLP.part.nonpolar>
-24.4767

> <Gold.PLP.part.repulsive>
0.3174

> <Gold.PLP.ligand.clash>
0.0000

> <Gold.PLP.ligand.torsion>
0.2394

> <Gold.PLP.Chemscore.Hbond>
1.9120

> <Gold.PLP.Chemscore.CHOScore>
1.0000

> <Gold.PLP.Chemscore.Metal>
0.0000

> <Gold.Chemscore.Hbonds>
donor molecule, donor type, donor heavy atom, donor atom, acceptor molecule, acceptor atom, score
      L1  H     3    21       P1  7948  0.91
      L1  H    10    25       P1  7948  1.00
      L1  C     7    24       P1  8028  1.00

> <Gold.PLP.Chemscore.Internal.Correction>
0.3051

> <Gold.Rescore>
     Score         DG    S(hbond)    S(metal)    S(lipo)     H(rot)  DE(clash)    DE(int)     intcor
     12.47     -15.16       1.92        0.00      56.89       1.33       0.40       2.29       ----

> <Gold.Chemscore.Fitness>
12.4708

> <Gold.Chemscore.DG>
-15.1558

> <Gold.Chemscore.ZeroCoef>
-5.4800

> <Gold.Chemscore.Hbond>
1.9237

> <Gold.Chemscore.Metal>
0.0000

> <Gold.Chemscore.Lipo>
56.8914

> <Gold.Chemscore.Internal_Hbond>
0.0000

> <Gold.Chemscore.DEClash>
0.3967

> <Gold.Chemscore.DEInternal>
2.2883

> <Gold.Chemscore.Rot>
1.3304

> <Gold.Chemscore.Internal.Correction>
   9.000000E+99

> <Gold.Chemscore.Hbonds>
donor molecule, donor type, donor heavy atom, donor atom, acceptor molecule, acceptor atom, score
      L1  H     3    21       P1  7948  0.89
      L1  H    10    25       P1  7948  0.98

> <Gold.Chemscore.Hbond.Weighted>
-6.4252

> <Gold.Chemscore.Metal.Weighted>
-0.0000

> <Gold.Chemscore.Lipo.Weighted>
-6.6563

> <Gold.Chemscore.Internal_Hbond.Weighted>
0.0000

> <Gold.Chemscore.DEClash.Weighted>
0.3967

> <Gold.Chemscore.DEInternal.Weighted>
2.2883

> <Gold.Chemscore.Rot.Weighted>
3.4057

> <Gold.Chemscore.Internal.Correction.Weighted>
   9.000000E+99

> <Gold.Protein.RotatedTorsions>
[ 6907 6896 6895 6894 ] final   70.12 input  -60.11 | X-H torsion
[ 7974 7965 7964 7962 ] final   93.89 input  175.53 | X-H torsion
[ 8008 7997 7996 7995 ] final  173.87 input   59.86 | X-H torsion
[ 10167 10162 10161 10158 ] final  -53.10 input  -65.29 | X-H torsion
[ 10718 10713 10712 10709 ] final   49.39 input   66.30 | X-H torsion
[ 10763 10752 10751 10750 ] final  163.90 input  -60.55 | X-H torsion
[ 11005 11000 10999 10996 ] final   24.79 input  -57.11 | X-H torsion

> <Gold.Protein.ActiveResidues>
 VAL166  LYS551  ARG553  GLY616  TRP617  ASP618  TYR619  PRO620  LYS621  CYS622 
 ASP623  PHE694  ASN695  SER759  ASP760  ASP761  ALA762  ILE779  LEU786  VAL792 
 PHE793  MET794  SER795  GLU796  ALA797  LYS798  CYS799  TRP800  GLU811  SER814 

> <Gold.Protein.RotatedAtoms>
  152.4729  134.4916  159.9696 H   0  0  0  0  0  0  0  0  0  0  0  0  # atno 6907 bound_to 6896
  151.4938  133.3513  159.2865 H   0  0  0  0  0  0  0  0  0  0  0  0  # atno 6908 bound_to 6896
  150.8750  134.8158  159.7244 H   0  0  0  0  0  0  0  0  0  0  0  0  # atno 6909 bound_to 6896
  145.4729  139.2281  143.2925 H   0  0  0  0  0  0  0  0  0  0  0  0  # atno 7974 bound_to 7965
  156.1032  140.1449  156.9439 H   0  0  0  0  0  0  0  0  0  0  0  0  # atno 8008 bound_to 7997
  154.4716  140.0908  156.7204 H   0  0  0  0  0  0  0  0  0  0  0  0  # atno 8009 bound_to 7997
  155.4724  140.3442  155.4330 H   0  0  0  0  0  0  0  0  0  0  0  0  # atno 8010 bound_to 7997
  140.6502  143.2561  151.4744 H   0  0  0  0  0  0  0  0  0  0  0  0  # atno 10167 bound_to 10162
  157.4782  130.8298  149.8063 H   0  0  0  0  0  0  0  0  0  0  0  0  # atno 10718 bound_to 10713
  154.3008  135.2759  155.2612 H   0  0  0  0  0  0  0  0  0  0  0  0  # atno 10763 bound_to 10752
  154.5050  135.5798  153.6564 H   0  0  0  0  0  0  0  0  0  0  0  0  # atno 10764 bound_to 10752
  152.9901  135.6167  154.3178 H   0  0  0  0  0  0  0  0  0  0  0  0  # atno 10765 bound_to 10752
  140.3549  134.2189  155.7677 H   0  0  0  0  0  0  0  0  0  0  0  0  # atno 11005 bound_to 11000
  146.2386  140.5509  142.8944 LP  0  0  0  0  0  0  0  0  0  0  0  0  # atno 17320 bound_to 7965
  144.7934  140.6077  143.6526 LP  0  0  0  0  0  0  0  0  0  0  0  0  # atno 17321 bound_to 7965
  139.5717  144.1913  152.1845 LP  0  0  0  0  0  0  0  0  0  0  0  0  # atno 17342 bound_to 10162
  140.1212  144.5372  150.6862 LP  0  0  0  0  0  0  0  0  0  0  0  0  # atno 17343 bound_to 10162
  156.0108  130.3834  150.2272 LP  0  0  0  0  0  0  0  0  0  0  0  0  # atno 17370 bound_to 10713
  157.0458  131.0048  151.3269 LP  0  0  0  0  0  0  0  0  0  0  0  0  # atno 17371 bound_to 10713
  141.2001  133.7995  157.0504 LP  0  0  0  0  0  0  0  0  0  0  0  0  # atno 17394 bound_to 11000
  140.0673  134.9722  157.1408 LP  0  0  0  0  0  0  0  0  0  0  0  0  # atno 17395 bound_to 11000

$$$$
