#       Name:                AV-unprocessed.smi:2947
#       Creating user name   scv26
#       Creation time:       Fri Mar 27 16:17:26 2020


#       File generated by GOLD software.
#

@<TRIPOS>MOLECULE
AV-unprocessed.smi:2947
    36    37     1
SMALL
NO_CHARGES


@<TRIPOS>ATOM
      1 ****         1.2173   1.1811   0.5328 O.2            1 S1                 0.0000
      2 ****         0.9017   0.1218  -0.0101 C.2            1 S1                 0.0000
      3 ****         1.7417  -0.8911  -0.2874 N.am           1 S1                 0.0000
      4 ****         3.1369  -0.9701  -0.0322 C.ar           1 S1                 0.0000
      5 ****         3.7530  -2.1738  -0.4432 C.ar           1 S1                 0.0000
      6 ****         5.1347  -2.3513  -0.2355 C.ar           1 S1                 0.0000
      7 ****         5.8661  -1.3189   0.3785 C.ar           1 S1                 0.0000
      8 ****         5.1762  -0.1527   0.7576 C.ar           1 S1                 0.0000
      9 ****         3.8521   0.0194   0.5597 N.ar           1 S1                 0.0000
     10 ****        -0.3487  -0.1647  -0.4018 N.am           1 S1                 0.0000
     11 ****        -1.5027   0.7171  -0.2521 C.3            1 S1                 0.0000
     12 ****        -2.0943   0.6035   1.1685 C.3            1 S1                 0.0000
     13 ****        -3.3581   1.4651   1.3220 C.3            1 S1                 0.0000
     14 ****        -4.4086   1.1101   0.2581 C.3            1 S1                 0.0000
     15 ****        -3.8246   1.2289  -1.1583 C.3            1 S1                 0.0000
     16 ****        -2.5616   0.3663  -1.3148 C.3            1 S1                 0.0000
     17 ****         1.3361  -1.7000  -0.7343 H              1 S1                 0.0000
     18 ****         3.1762  -2.9566  -0.9139 H              1 S1                 0.0000
     19 ****         5.6238  -3.2637  -0.5429 H              1 S1                 0.0000
     20 ****         6.9270  -1.4176   0.5546 H              1 S1                 0.0000
     21 ****         5.7007   0.6636   1.2320 H              1 S1                 0.0000
     22 ****        -0.5165  -1.0592  -0.8384 H              1 S1                 0.0000
     23 ****        -1.1851   1.7484  -0.4198 H              1 S1                 0.0000
     24 ****        -2.3385  -0.4376   1.3850 H              1 S1                 0.0000
     25 ****        -1.3552   0.9073   1.9108 H              1 S1                 0.0000
     26 ****        -3.7788   1.3330   2.3192 H              1 S1                 0.0000
     27 ****        -3.0928   2.5195   1.2360 H              1 S1                 0.0000
     28 ****        -4.7661   0.0928   0.4223 H              1 S1                 0.0000
     29 ****        -5.2759   1.7634   0.3591 H              1 S1                 0.0000
     30 ****        -4.5718   0.9313  -1.8945 H              1 S1                 0.0000
     31 ****        -3.5827   2.2718  -1.3677 H              1 S1                 0.0000
     32 ****        -2.1477   0.5018  -2.3147 H              1 S1                 0.0000
     33 ****        -2.8335  -0.6873  -1.2331 H              1 S1                 0.0000
     34 ****         2.1663   1.3400   0.8052 LP             1 S1                 0.0000
     35 ****         0.5246   1.8823   0.7012 LP             1 S1                 0.0000
     36 ****         3.4036   0.8661   0.8459 LP             1 S1                 0.0000
@<TRIPOS>BOND
    1    1    2 2     
    2    2    3 am    
    3    2   10 am    
    4    3    4 1     
    5    3   17 1     
    6    4    9 ar    
    7    4    5 ar    
    8    5    6 ar    
    9    5   18 1     
   10    6    7 ar    
   11    6   19 1     
   12    7    8 ar    
   13    7   20 1     
   14    8    9 ar    
   15    8   21 1     
   16   10   11 1     
   17   10   22 1     
   18   11   16 1     
   19   11   12 1     
   20   11   23 1     
   21   12   13 1     
   22   12   24 1     
   23   12   25 1     
   24   13   14 1     
   25   13   26 1     
   26   13   27 1     
   27   14   15 1     
   28   14   28 1     
   29   14   29 1     
   30   15   16 1     
   31   15   30 1     
   32   15   31 1     
   33   16   32 1     
   34   16   33 1     
   35    1   34 1     
   36    1   35 1     
   37    9   36 1     
@<TRIPOS>SUBSTRUCTURE
      1 S1             1
@<TRIPOS>SET
LONE_PAIRS      STATIC     ATOMS    <user>   **** ""
3 34 35 36
DONOR_HYDROGENS      STATIC     ATOMS    <user>   **** ""
2 17 22
ATOM$BLUE        STATIC     ATOMS    COLORGROUP SYSTEM
3 34 35 36
ATOM$RED        STATIC     ATOMS    COLORGROUP SYSTEM
2 17 22
