AV-unprocessed.smi:2356|AV-procd|sdf|9398|dock7
  -GOLD-   2272013 33D 1   1.00000     0.00000
 Structure written by MMmdl.
 54 57  0  0  0  0  0  0  0  0  2 V2000
  151.6386  138.0742  154.3364 C   0  0  0  0  0  0  0  0  0  0  0  0
  150.7662  139.0226  155.1430 C   0  0  0  0  0  0  0  0  0  0  0  0
  151.4167  139.9282  155.9075 N   0  3  0  0  0  0  0  0  0  0  0  0
  150.7952  140.8434  156.6808 C   0  0  0  0  0  0  0  0  0  0  0  0
  151.6101  141.7146  157.4169 N   0  0  0  0  0  0  0  0  0  0  0  0
  152.3930  141.0832  158.4662 C   0  0  0  0  0  0  0  0  0  0  0  0
  152.8501  142.2229  159.3807 C   0  0  0  0  0  0  0  0  0  0  0  0
  151.8727  143.3706  159.1004 C   0  0  0  0  0  0  0  0  0  0  0  0
  150.9055  142.8156  158.0518 C   0  0  0  0  0  0  0  0  0  0  0  0
  149.3834  140.8803  156.6997 C   0  0  0  0  0  0  0  0  0  0  0  0
  148.6576  139.9575  155.9209 C   0  0  0  0  0  0  0  0  0  0  0  0
  149.3478  138.9977  155.1376 C   0  0  0  0  0  0  0  0  0  0  0  0
  148.6774  138.0472  154.3181 N   0  0  0  0  0  0  0  0  0  0  0  0
  147.4163  137.5826  154.4181 C   0  0  0  0  0  0  0  0  0  0  0  0
  146.6165  137.9143  155.2902 O   0  0  0  0  0  0  0  0  0  0  0  0
  147.0810  136.6875  153.4713 N   0  0  0  0  0  0  0  0  0  0  0  0
  145.8057  135.9910  153.2864 C   0  0  1  0  0  0  0  0  0  0  0  0
  144.7000  137.0129  152.9818 C   0  0  0  0  0  0  0  0  0  0  0  0
  143.3790  136.3033  152.6439 C   0  0  0  0  0  0  0  0  0  0  0  0
  143.5733  135.4059  151.5560 O   0  0  0  0  0  0  0  0  0  0  0  0
  144.5007  134.3649  151.8472 C   0  0  1  0  0  0  0  0  0  0  0  0
  144.5359  133.4170  150.6650 C   0  0  0  0  0  0  0  0  0  0  0  0
  143.5178  132.3090  150.5311 C   0  0  0  0  0  0  0  0  0  0  0  0
  144.9567  131.9769  150.8449 C   0  0  0  0  0  0  0  0  0  0  0  0
  145.8848  134.9768  152.1311 C   0  0  0  0  0  0  0  0  0  0  0  0
  151.0660  137.3942  153.7067 H   0  0  0  0  0  0  0  0  0  0  0  0
  152.2517  137.4714  155.0068 H   0  0  0  0  0  0  0  0  0  0  0  0
  152.3063  138.6419  153.6879 H   0  0  0  0  0  0  0  0  0  0  0  0
  151.7842  140.3739  159.0281 H   0  0  0  0  0  0  0  0  0  0  0  0
  153.2413  140.5399  158.0489 H   0  0  0  0  0  0  0  0  0  0  0  0
  152.8460  141.9208  160.4286 H   0  0  0  0  0  0  0  0  0  0  0  0
  153.8659  142.5295  159.1279 H   0  0  0  0  0  0  0  0  0  0  0  0
  151.3474  143.6984  159.9977 H   0  0  0  0  0  0  0  0  0  0  0  0
  152.4141  144.2286  158.7000 H   0  0  0  0  0  0  0  0  0  0  0  0
  150.6264  143.5758  157.3215 H   0  0  0  0  0  0  0  0  0  0  0  0
  149.9935  142.4608  158.5336 H   0  0  0  0  0  0  0  0  0  0  0  0
  148.8550  141.6085  157.2976 H   0  0  0  0  0  0  0  0  0  0  0  0
  147.5806  140.0165  155.9301 H   0  0  0  0  0  0  0  0  0  0  0  0
  149.2449  137.6191  153.6011 H   0  0  0  0  0  0  0  0  0  0  0  0
  147.7920  136.4790  152.7851 H   0  0  0  0  0  0  0  0  0  0  0  0
  145.5366  135.4699  154.2070 H   0  0  0  0  0  0  0  0  0  0  0  0
  144.5572  137.6822  153.8310 H   0  0  0  0  0  0  0  0  0  0  0  0
  144.9941  137.6379  152.1371 H   0  0  0  0  0  0  0  0  0  0  0  0
  142.9936  135.7641  153.5106 H   0  0  0  0  0  0  0  0  0  0  0  0
  142.6218  137.0361  152.3642 H   0  0  0  0  0  0  0  0  0  0  0  0
  144.1563  133.8127  152.7238 H   0  0  0  0  0  0  0  0  0  0  0  0
  144.8490  133.8881  149.7349 H   0  0  0  0  0  0  0  0  0  0  0  0
  142.7889  132.1908  151.3304 H   0  0  0  0  0  0  0  0  0  0  0  0
  143.1543  132.0814  149.5312 H   0  0  0  0  0  0  0  0  0  0  0  0
  145.5537  131.5261  150.0548 H   0  0  0  0  0  0  0  0  0  0  0  0
  145.1849  131.6374  151.8534 H   0  0  0  0  0  0  0  0  0  0  0  0
  146.2552  135.4709  151.2315 H   0  0  0  0  0  0  0  0  0  0  0  0
  146.5959  134.1842  152.3653 H   0  0  0  0  0  0  0  0  0  0  0  0
  152.4369  139.9199  155.8994 H   0  0  0  0  0  0  0  0  0  0  0  0
  1  2  1  0  0  0  0
  1 26  1  0  0  0  0
  1 27  1  0  0  0  0
  1 28  1  0  0  0  0
  2 12  1  0  0  0  0
  2  3  2  0  0  0  0
  3  4  1  0  0  0  0
  3 54  1  0  0  0  0
  4  5  1  0  0  0  0
  4 10  2  0  0  0  0
  5  9  1  0  0  0  0
  5  6  1  0  0  0  0
  6  7  1  0  0  0  0
  6 29  1  0  0  0  0
  6 30  1  0  0  0  0
  7  8  1  0  0  0  0
  7 31  1  0  0  0  0
  7 32  1  0  0  0  0
  8  9  1  0  0  0  0
  8 33  1  0  0  0  0
  8 34  1  0  0  0  0
  9 35  1  0  0  0  0
  9 36  1  0  0  0  0
 10 11  1  0  0  0  0
 10 37  1  0  0  0  0
 11 12  2  0  0  0  0
 11 38  1  0  0  0  0
 12 13  1  0  0  0  0
 13 14  1  0  0  0  0
 13 39  1  0  0  0  0
 14 15  2  0  0  0  0
 14 16  1  0  0  0  0
 16 17  1  0  0  0  0
 16 40  1  0  0  0  0
 17 25  1  0  0  0  0
 17 18  1  0  0  0  0
 17 41  1  0  0  0  0
 18 19  1  0  0  0  0
 18 42  1  0  0  0  0
 18 43  1  0  0  0  0
 19 20  1  0  0  0  0
 19 44  1  0  0  0  0
 19 45  1  0  0  0  0
 20 21  1  0  0  0  0
 21 22  1  0  0  0  0
 21 25  1  0  0  0  0
 21 46  1  0  0  0  0
 22 24  1  0  0  0  0
 22 23  1  0  0  0  0
 22 47  1  0  0  0  0
 23 24  1  0  0  0  0
 23 48  1  0  0  0  0
 23 49  1  0  0  0  0
 24 50  1  0  0  0  0
 24 51  1  0  0  0  0
 25 52  1  0  0  0  0
 25 53  1  0  0  0  0
M  CHG  1   3   1
M  END
> <s_m_source_file>
AV-unprocessed.smi

> <i_m_source_file_index>
2356

> <i_lp_mmshare_version>
43012

> <i_f3d_flags>
0

> <s_epik_input>
W0NIMl0xW0NIMl1bQ0gyXVtDSDJdTjFjKG5jMltDSDNdKVtjSF1bY0hdYzJbTkhdQyg9TylbTkhdW0NAQEhdM1tDSDJdW0NIMl1PW0NASF0oW0NIMl0zKVtDSF00W0NIMl1bQ0gyXTQ=

> <s_epik_cmdline>
J2VwaWtfcHl0aG9uJywgJy1waCcsICc3LjAnLCAnLXRuJywgJzgnLCAnLW1hJywgJzIwMCcsICctbWV0YWxfYmluZGluZycsICctaW1hZScsICc8aW5maWxlLm1hZT4nLCAnLW9tYWUnLCAnPG91dGZpbGUubWFlPic=

> <r_lp_tautomer_probability>
0.999994

> <r_epik_Ionization_Penalty>
0.534681

> <r_epik_Ionization_Penalty_Charging>
0.534661

> <r_epik_Ionization_Penalty_Neutral>
1.99132e-05

> <r_epik_State_Penalty>
0.543738

> <r_epik_Charging_Adjusted_Penalty>
1.0784

> <i_epik_Tot_Q>
1

> <i_epik_Tot_abs_Q>
1

> <r_epik_Metal_State_Penalty>
0.74699

> <b_epik_Metal_Only>
0

> <s_lp_Force_Field>
OPLS_2005

> <r_lp_Energy>
63.5996

> <b_lp_Chiralities_Consistent>
1

> <s_lp_Variant>
AV-unprocessed.smi:2356-6

> <Gold.Version>
5.8.1

> <Gold.Id.Protein>
6NUR|6NUR_protein|mol2

> <Gold.PLP.Fitness>
42.8198

> <Gold.PLP.PLP>
-39.2093

> <Gold.PLP.part.hbond>
-1.8649

> <Gold.PLP.part.metal>
0.0000

> <Gold.PLP.part.buried>
-6.9738

> <Gold.PLP.part.nonpolar>
-32.0833

> <Gold.PLP.part.repulsive>
0.4112

> <Gold.PLP.ligand.clash>
0.0000

> <Gold.PLP.ligand.torsion>
0.7784

> <Gold.PLP.Chemscore.Hbond>
1.3594

> <Gold.PLP.Chemscore.CHOScore>
0.0000

> <Gold.PLP.Chemscore.Metal>
0.0000

> <Gold.Chemscore.Hbonds>
donor molecule, donor type, donor heavy atom, donor atom, acceptor molecule, acceptor atom, score
      L1  H    13    39       P1  7948  0.41
      L1  H    16    40       P1  7948  0.93

> <Gold.PLP.Chemscore.Internal.Correction>
1.0890

> <Gold.Rescore>
     Score         DG    S(hbond)    S(metal)    S(lipo)     H(rot)  DE(clash)    DE(int)     intcor
     18.71     -20.84       1.79        0.00     108.93       1.31       0.24       1.89       ----

> <Gold.Chemscore.Fitness>
18.7068

> <Gold.Chemscore.DG>
-20.8446

> <Gold.Chemscore.ZeroCoef>
-5.4800

> <Gold.Chemscore.Hbond>
1.7852

> <Gold.Chemscore.Metal>
0.0000

> <Gold.Chemscore.Lipo>
108.9347

> <Gold.Chemscore.Internal_Hbond>
0.0000

> <Gold.Chemscore.DEClash>
0.2446

> <Gold.Chemscore.DEInternal>
1.8931

> <Gold.Chemscore.Rot>
1.3060

> <Gold.Chemscore.Internal.Correction>
   9.000000E+99

> <Gold.Chemscore.Hbonds>
donor molecule, donor type, donor heavy atom, donor atom, acceptor molecule, acceptor atom, score
      L1  H    13    39       P1  7948  0.40
      L1  H    16    40       P1  7948  0.89

> <Gold.Chemscore.Hbond.Weighted>
-5.9625

> <Gold.Chemscore.Metal.Weighted>
-0.0000

> <Gold.Chemscore.Lipo.Weighted>
-12.7454

> <Gold.Chemscore.Internal_Hbond.Weighted>
0.0000

> <Gold.Chemscore.DEClash.Weighted>
0.2446

> <Gold.Chemscore.DEInternal.Weighted>
1.8931

> <Gold.Chemscore.Rot.Weighted>
3.3433

> <Gold.Chemscore.Internal.Correction.Weighted>
   9.000000E+99

> <Gold.Protein.RotatedTorsions>
[ 6907 6896 6895 6894 ] final  154.77 input  -60.11 | X-H torsion
[ 7974 7965 7964 7962 ] final  127.29 input  175.53 | X-H torsion
[ 8008 7997 7996 7995 ] final  133.52 input   59.86 | X-H torsion
[ 10167 10162 10161 10158 ] final -116.27 input  -65.29 | X-H torsion
[ 10718 10713 10712 10709 ] final  131.09 input   66.30 | X-H torsion
[ 10763 10752 10751 10750 ] final -135.82 input  -60.55 | X-H torsion
[ 11005 11000 10999 10996 ] final   -6.48 input  -57.11 | X-H torsion

> <Gold.Protein.ActiveResidues>
 VAL166  LYS551  ARG553  GLY616  TRP617  ASP618  TYR619  PRO620  LYS621  CYS622 
 ASP623  PHE694  ASN695  SER759  ASP760  ASP761  ALA762  ILE779  LEU786  VAL792 
 PHE793  MET794  SER795  GLU796  ALA797  LYS798  CYS799  TRP800  GLU811  SER814 

> <Gold.Protein.RotatedAtoms>
  152.0537  133.4030  159.4387 H   0  0  0  0  0  0  0  0  0  0  0  0  # atno 6907 bound_to 6896
  150.6869  134.3279  159.4823 H   0  0  0  0  0  0  0  0  0  0  0  0  # atno 6908 bound_to 6896
  152.1092  134.9286  160.0618 H   0  0  0  0  0  0  0  0  0  0  0  0  # atno 6909 bound_to 6896
  145.0522  139.3873  143.5048 H   0  0  0  0  0  0  0  0  0  0  0  0  # atno 7974 bound_to 7965
  156.2993  140.2519  156.3267 H   0  0  0  0  0  0  0  0  0  0  0  0  # atno 8008 bound_to 7997
  154.9184  140.0401  157.2003 H   0  0  0  0  0  0  0  0  0  0  0  0  # atno 8009 bound_to 7997
  154.8336  140.2879  155.5710 H   0  0  0  0  0  0  0  0  0  0  0  0  # atno 8010 bound_to 7997
  140.0810  143.4787  152.1925 H   0  0  0  0  0  0  0  0  0  0  0  0  # atno 10167 bound_to 10162
  157.5000  131.1094  150.9440 H   0  0  0  0  0  0  0  0  0  0  0  0  # atno 10718 bound_to 10713
  154.8696  135.3691  154.4961 H   0  0  0  0  0  0  0  0  0  0  0  0  # atno 10763 bound_to 10752
  153.5605  135.7023  153.5554 H   0  0  0  0  0  0  0  0  0  0  0  0  # atno 10764 bound_to 10752
  153.3632  135.4041  155.1698 H   0  0  0  0  0  0  0  0  0  0  0  0  # atno 10765 bound_to 10752
  140.7025  133.8977  155.8693 H   0  0  0  0  0  0  0  0  0  0  0  0  # atno 11005 bound_to 11000
  146.3519  140.0178  142.8661 LP  0  0  0  0  0  0  0  0  0  0  0  0  # atno 17320 bound_to 7965
  145.1513  140.9624  143.4431 LP  0  0  0  0  0  0  0  0  0  0  0  0  # atno 17321 bound_to 7965
  139.5779  144.7496  151.3716 LP  0  0  0  0  0  0  0  0  0  0  0  0  # atno 17342 bound_to 10162
  140.7077  143.7470  150.7512 LP  0  0  0  0  0  0  0  0  0  0  0  0  # atno 17343 bound_to 10162
  157.0113  130.5638  149.5321 LP  0  0  0  0  0  0  0  0  0  0  0  0  # atno 17370 bound_to 10713
  156.0223  130.5318  150.8311 LP  0  0  0  0  0  0  0  0  0  0  0  0  # atno 17371 bound_to 10713
  141.0152  134.0965  157.4180 LP  0  0  0  0  0  0  0  0  0  0  0  0  # atno 17394 bound_to 11000
  139.8893  135.0104  156.6670 LP  0  0  0  0  0  0  0  0  0  0  0  0  # atno 17395 bound_to 11000

$$$$
