#       Name:                AV-unprocessed.smi:956
#       Creating user name   scv26
#       Creation time:       Fri Mar 27 02:17:17 2020


#       File generated by GOLD software.
#

@<TRIPOS>MOLECULE
AV-unprocessed.smi:956
    46    47     1
SMALL
NO_CHARGES


@<TRIPOS>ATOM
      1 ****        -2.1316  -0.3447  -2.4588 C.3            1 S1                 0.0000
      2 ****        -3.2223  -1.3677  -1.3606 S.o            1 S1                 0.0000
      3 ****        -4.6646  -0.9335  -1.6279 O.2            1 S1                 0.0000
      4 ****        -2.7678  -0.5043   0.1852 C.2            1 S1                 0.0000
      5 ****        -3.0298   0.7846   0.4225 N.2            1 S1                 0.0000
      6 ****        -2.5134   1.0279   1.6809 N.2            1 S1                 0.0000
      7 ****        -2.0018  -0.1417   2.0690 C.2            1 S1                 0.0000
      8 ****        -2.1240  -1.1420   1.1812 N.pl3          1 S1                 0.0000
      9 ****        -1.6509  -2.5128   1.2888 C.3            1 S1                 0.0000
     10 ****        -0.1534  -2.5729   0.9950 C.2            1 S1                 0.0000
     11 ****         0.6471  -2.7064   1.9196 O.2            1 S1                 0.0000
     12 ****         0.2065  -2.4170  -0.2888 N.am           1 S1                 0.0000
     13 ****         1.5636  -2.1608  -0.7598 C.3            1 S1                 0.0000
     14 ****         1.6908  -0.7398  -1.3455 C.3            1 S1                 0.0000
     15 ****         1.2514   0.4087  -0.4074 C.3            1 S1                 0.0000
     16 ****         1.2145   1.7566  -1.1545 C.3            1 S1                 0.0000
     17 ****         0.7183   2.8893  -0.2417 C.3            1 S1                 0.0000
     18 ****         1.5857   3.0031   1.0210 C.3            1 S1                 0.0000
     19 ****         1.6550   1.6633   1.7696 C.3            1 S1                 0.0000
     20 ****         2.1392   0.5311   0.8489 C.3            1 S1                 0.0000
     21 ****        -1.3553   0.1621  -1.8884 H              1 S1                 0.0000
     22 ****        -2.7224   0.4088  -2.9794 H              1 S1                 0.0000
     23 ****        -1.6493  -0.9797  -3.2013 H              1 S1                 0.0000
     24 ****        -1.5119  -0.2690   3.0233 H              1 S1                 0.0000
     25 ****        -1.8496  -2.8739   2.2987 H              1 S1                 0.0000
     26 ****        -2.2015  -3.1568   0.6031 H              1 S1                 0.0000
     27 ****        -0.5289  -2.3421  -0.9764 H              1 S1                 0.0000
     28 ****         2.3005  -2.3105   0.0302 H              1 S1                 0.0000
     29 ****         1.7992  -2.8945  -1.5309 H              1 S1                 0.0000
     30 ****         2.7207  -0.5760  -1.6644 H              1 S1                 0.0000
     31 ****         1.0906  -0.6963  -2.2552 H              1 S1                 0.0000
     32 ****         0.2327   0.2103  -0.0755 H              1 S1                 0.0000
     33 ****         2.2098   1.9988  -1.5297 H              1 S1                 0.0000
     34 ****         0.5652   1.6863  -2.0276 H              1 S1                 0.0000
     35 ****         0.7260   3.8350  -0.7844 H              1 S1                 0.0000
     36 ****        -0.3189   2.7031   0.0412 H              1 S1                 0.0000
     37 ****         2.5925   3.3185   0.7442 H              1 S1                 0.0000
     38 ****         1.1876   3.7769   1.6778 H              1 S1                 0.0000
     39 ****         2.3193   1.7524   2.6297 H              1 S1                 0.0000
     40 ****         0.6694   1.4147   2.1654 H              1 S1                 0.0000
     41 ****         2.1403  -0.4027   1.4099 H              1 S1                 0.0000
     42 ****         3.1732   0.7147   0.5544 H              1 S1                 0.0000
     43 ****        -3.4976   1.4318  -0.1794 LP             1 S1                 0.0000
     44 ****        -2.5214   1.8896   2.1882 LP             1 S1                 0.0000
     45 ****         0.3167  -2.7753   2.8609 LP             1 S1                 0.0000
     46 ****         1.6281  -2.7460   1.7298 LP             1 S1                 0.0000
@<TRIPOS>BOND
    1    1    2 1     
    2    1   21 1     
    3    1   22 1     
    4    1   23 1     
    5    2    3 2     
    6    2    4 1     
    7    4    8 1     
    8    4    5 2     
    9    5    6 1     
   10    6    7 2     
   11    7    8 1     
   12    7   24 1     
   13    8    9 1     
   14    9   10 1     
   15    9   25 1     
   16    9   26 1     
   17   10   11 2     
   18   10   12 am    
   19   12   13 1     
   20   12   27 1     
   21   13   14 1     
   22   13   28 1     
   23   13   29 1     
   24   14   15 1     
   25   14   30 1     
   26   14   31 1     
   27   15   20 1     
   28   15   16 1     
   29   15   32 1     
   30   16   17 1     
   31   16   33 1     
   32   16   34 1     
   33   17   18 1     
   34   17   35 1     
   35   17   36 1     
   36   18   19 1     
   37   18   37 1     
   38   18   38 1     
   39   19   20 1     
   40   19   39 1     
   41   19   40 1     
   42   20   41 1     
   43   20   42 1     
   44    5   43 1     
   45    6   44 1     
   46   11   45 1     
   47   11   46 1     
@<TRIPOS>SUBSTRUCTURE
      1 S1             1
@<TRIPOS>SET
LONE_PAIRS      STATIC     ATOMS    <user>   **** ""
5 3 43 44 45 46
DONOR_HYDROGENS      STATIC     ATOMS    <user>   **** ""
1 27
ATOM$BLUE        STATIC     ATOMS    COLORGROUP SYSTEM
5 3 43 44 45 46
ATOM$RED        STATIC     ATOMS    COLORGROUP SYSTEM
1 27
