AV-unprocessed.smi:3210|AV-procd|sdf|12273|dock6
  -GOLD-   2272018113D 1   1.00000     0.00000
 Structure written by MMmdl.
 34 35  0  0  0  0  0  0  0  0  1 V2000
  146.3740  139.5681  153.9446 O   0  0  0  0  0  0  0  0  0  0  0  0
  147.0246  138.8105  153.2242 C   0  0  0  0  0  0  0  0  0  0  0  0
  146.4371  138.3239  151.9002 C   0  0  0  0  0  0  0  0  0  0  0  0
  145.1094  137.7338  152.0891 N   0  0  0  0  0  0  0  0  0  0  0  0
  145.1822  136.2801  152.0573 C   0  0  0  0  0  0  0  0  0  0  0  0
  144.8310  135.7555  150.6550 C   0  0  0  0  0  0  0  0  0  0  0  0
  144.8555  134.3047  150.5878 N   0  0  0  0  0  0  0  0  0  0  0  0
  143.8374  133.4483  150.2247 C   0  0  0  0  0  0  0  0  0  0  0  0
  144.3223  132.1756  150.3227 C   0  0  0  0  0  0  0  0  0  0  0  0
  145.6648  132.3584  150.7581 C   0  0  0  0  0  0  0  0  0  0  0  0
  145.9809  133.6335  150.9155 N   0  0  0  0  0  0  0  0  0  0  0  0
  148.2534  138.3703  153.5343 N   0  0  0  0  0  0  0  0  0  0  0  0
  148.9871  138.7203  154.7437 C   0  0  0  0  0  0  0  0  0  0  0  0
  149.4103  140.1741  154.8399 C   0  0  0  0  0  0  0  0  0  0  0  0
  149.4959  140.8750  156.1753 C   0  0  0  0  0  0  0  0  0  0  0  0
  148.4034  141.2410  155.1994 C   0  0  0  0  0  0  0  0  0  0  0  0
  146.3701  139.1747  151.2206 H   0  0  0  0  0  0  0  0  0  0  0  0
  147.1038  137.5925  151.4398 H   0  0  0  0  0  0  0  0  0  0  0  0
  144.4650  138.0478  151.3765 H   0  0  0  0  0  0  0  0  0  0  0  0
  146.1810  135.9438  152.3404 H   0  0  0  0  0  0  0  0  0  0  0  0
  144.4839  135.8701  152.7881 H   0  0  0  0  0  0  0  0  0  0  0  0
  143.8284  136.0857  150.3807 H   0  0  0  0  0  0  0  0  0  0  0  0
  145.5088  136.1661  149.9043 H   0  0  0  0  0  0  0  0  0  0  0  0
  142.8630  133.8119  149.9332 H   0  0  0  0  0  0  0  0  0  0  0  0
  143.7981  131.2545  150.1159 H   0  0  0  0  0  0  0  0  0  0  0  0
  146.4134  131.6074  150.9636 H   0  0  0  0  0  0  0  0  0  0  0  0
  148.7119  137.7471  152.8854 H   0  0  0  0  0  0  0  0  0  0  0  0
  148.3837  138.4742  155.6186 H   0  0  0  0  0  0  0  0  0  0  0  0
  149.8723  138.0858  154.7967 H   0  0  0  0  0  0  0  0  0  0  0  0
  150.1497  140.4668  154.0965 H   0  0  0  0  0  0  0  0  0  0  0  0
  149.2099  140.3134  157.0624 H   0  0  0  0  0  0  0  0  0  0  0  0
  150.3055  141.5885  156.3158 H   0  0  0  0  0  0  0  0  0  0  0  0
  148.4839  142.1993  154.6902 H   0  0  0  0  0  0  0  0  0  0  0  0
  147.3903  140.9236  155.4388 H   0  0  0  0  0  0  0  0  0  0  0  0
  1  2  2  0  0  0  0
  2  3  1  0  0  0  0
  2 12  1  0  0  0  0
  3  4  1  0  0  0  0
  3 17  1  0  0  0  0
  3 18  1  0  0  0  0
  4  5  1  0  0  0  0
  4 19  1  0  0  0  0
  5  6  1  0  0  0  0
  5 20  1  0  0  0  0
  5 21  1  0  0  0  0
  6  7  1  0  0  0  0
  6 22  1  0  0  0  0
  6 23  1  0  0  0  0
  7 11  1  0  0  0  0
  7  8  1  0  0  0  0
  8  9  2  0  0  0  0
  8 24  1  0  0  0  0
  9 10  1  0  0  0  0
  9 25  1  0  0  0  0
 10 11  2  0  0  0  0
 10 26  1  0  0  0  0
 12 13  1  0  0  0  0
 12 27  1  0  0  0  0
 13 14  1  0  0  0  0
 13 28  1  0  0  0  0
 13 29  1  0  0  0  0
 14 16  1  0  0  0  0
 14 15  1  0  0  0  0
 14 30  1  0  0  0  0
 15 16  1  0  0  0  0
 15 31  1  0  0  0  0
 15 32  1  0  0  0  0
 16 33  1  0  0  0  0
 16 34  1  0  0  0  0
M  END
> <s_m_source_file>
AV-unprocessed.smi

> <i_m_source_file_index>
3210

> <i_lp_mmshare_version>
43012

> <i_f3d_flags>
0

> <s_epik_input>
W0NIMl0xW0NIMl1bQ0hdMVtDSDJdW05IXUMoPU8pW0NIMl1bTkhdW0NIMl1bQ0gyXW4yW2NIXVtjSF1bY0hdbjI=

> <s_epik_cmdline>
J2VwaWtfcHl0aG9uJywgJy1waCcsICc3LjAnLCAnLXRuJywgJzgnLCAnLW1hJywgJzIwMCcsICctbWV0YWxfYmluZGluZycsICctaW1hZScsICc8aW5maWxlLm1hZT4nLCAnLW9tYWUnLCAnPG91dGZpbGUubWFlPic=

> <r_lp_tautomer_probability>
1

> <r_epik_Ionization_Penalty>
0.724936

> <r_epik_Ionization_Penalty_Charging>
0

> <r_epik_Ionization_Penalty_Neutral>
0.724936

> <r_epik_State_Penalty>
0.747957

> <r_epik_Charging_Adjusted_Penalty>
0.747957

> <i_epik_Tot_Q>
0

> <i_epik_Tot_abs_Q>
0

> <r_epik_Metal_State_Penalty>
0.746186

> <b_epik_Metal_Only>
0

> <s_lp_Force_Field>
OPLS_2005

> <r_lp_Energy>
13.4578

> <b_lp_Chiralities_Consistent>
1

> <s_lp_Variant>
AV-unprocessed.smi:3210-2

> <Gold.Version>
5.8.1

> <Gold.Id.Protein>
6NUR|6NUR_protein|mol2

> <Gold.PLP.Fitness>
46.8576

> <Gold.PLP.PLP>
-36.0503

> <Gold.PLP.part.hbond>
-3.6660

> <Gold.PLP.part.metal>
0.0000

> <Gold.PLP.part.buried>
-2.6018

> <Gold.PLP.part.nonpolar>
-30.6994

> <Gold.PLP.part.repulsive>
0.5007

> <Gold.PLP.ligand.clash>
0.0000

> <Gold.PLP.ligand.torsion>
0.9163

> <Gold.PLP.Chemscore.Hbond>
2.0000

> <Gold.PLP.Chemscore.CHOScore>
2.0000

> <Gold.PLP.Chemscore.Metal>
0.0000

> <Gold.Chemscore.Hbonds>
donor molecule, donor type, donor heavy atom, donor atom, acceptor molecule, acceptor atom, score
      L1  H     4    19       P1 10171  1.00
      L1  H    12    27       P1  7948  1.00
      L1  C     8    24       P1 10186  0.90
      L1  C    10    26       P1 10747  0.44

> <Gold.PLP.Chemscore.Internal.Correction>
0.6399

> <Gold.Rescore>
     Score         DG    S(hbond)    S(metal)    S(lipo)     H(rot)  DE(clash)    DE(int)     intcor
     13.60     -15.26       1.99        0.00      76.60       2.27       0.56       1.11       ----

> <Gold.Chemscore.Fitness>
13.6010

> <Gold.Chemscore.DG>
-15.2644

> <Gold.Chemscore.ZeroCoef>
-5.4800

> <Gold.Chemscore.Hbond>
1.9886

> <Gold.Chemscore.Metal>
0.0000

> <Gold.Chemscore.Lipo>
76.6030

> <Gold.Chemscore.Internal_Hbond>
0.0000

> <Gold.Chemscore.DEClash>
0.5555

> <Gold.Chemscore.DEInternal>
1.1080

> <Gold.Chemscore.Rot>
2.2734

> <Gold.Chemscore.Internal.Correction>
   9.000000E+99

> <Gold.Chemscore.Hbonds>
donor molecule, donor type, donor heavy atom, donor atom, acceptor molecule, acceptor atom, score
      L1  H     4    19       P1 10171  1.00
      L1  H    12    27       P1  7948  0.99

> <Gold.Chemscore.Hbond.Weighted>
-6.6418

> <Gold.Chemscore.Metal.Weighted>
-0.0000

> <Gold.Chemscore.Lipo.Weighted>
-8.9626

> <Gold.Chemscore.Internal_Hbond.Weighted>
0.0000

> <Gold.Chemscore.DEClash.Weighted>
0.5555

> <Gold.Chemscore.DEInternal.Weighted>
1.1080

> <Gold.Chemscore.Rot.Weighted>
5.8199

> <Gold.Chemscore.Internal.Correction.Weighted>
   9.000000E+99

> <Gold.Protein.RotatedTorsions>
[ 6907 6896 6895 6894 ] final  122.91 input  -60.11 | X-H torsion
[ 7974 7965 7964 7962 ] final   94.32 input  175.53 | X-H torsion
[ 8008 7997 7996 7995 ] final  119.34 input   59.86 | X-H torsion
[ 10167 10162 10161 10158 ] final  -72.63 input  -65.29 | X-H torsion
[ 10718 10713 10712 10709 ] final   23.71 input   66.30 | X-H torsion
[ 10763 10752 10751 10750 ] final -115.35 input  -60.55 | X-H torsion
[ 11005 11000 10999 10996 ] final  -48.48 input  -57.11 | X-H torsion

> <Gold.Protein.ActiveResidues>
 VAL166  LYS551  ARG553  GLY616  TRP617  ASP618  TYR619  PRO620  LYS621  CYS622 
 ASP623  PHE694  ASN695  SER759  ASP760  ASP761  ALA762  ILE779  LEU786  VAL792 
 PHE793  MET794  SER795  GLU796  ALA797  LYS798  CYS799  TRP800  GLU811  SER814 

> <Gold.Protein.RotatedAtoms>
  152.4205  133.7108  159.6477 H   0  0  0  0  0  0  0  0  0  0  0  0  # atno 6907 bound_to 6896
  150.8081  133.8462  159.3201 H   0  0  0  0  0  0  0  0  0  0  0  0  # atno 6908 bound_to 6896
  151.6180  135.1036  160.0147 H   0  0  0  0  0  0  0  0  0  0  0  0  # atno 6909 bound_to 6896
  145.4672  139.2284  143.2955 H   0  0  0  0  0  0  0  0  0  0  0  0  # atno 7974 bound_to 7965
  156.2591  140.2855  156.0976 H   0  0  0  0  0  0  0  0  0  0  0  0  # atno 8008 bound_to 7997
  155.1394  140.0395  157.2812 H   0  0  0  0  0  0  0  0  0  0  0  0  # atno 8009 bound_to 7997
  154.6541  140.2551  155.7188 H   0  0  0  0  0  0  0  0  0  0  0  0  # atno 8010 bound_to 7997
  140.5177  143.2336  151.7485 H   0  0  0  0  0  0  0  0  0  0  0  0  # atno 10167 bound_to 10162
  157.1699  130.6755  149.6074 H   0  0  0  0  0  0  0  0  0  0  0  0  # atno 10718 bound_to 10713
  154.8477  135.4385  154.1649 H   0  0  0  0  0  0  0  0  0  0  0  0  # atno 10763 bound_to 10752
  153.2776  135.6951  153.7423 H   0  0  0  0  0  0  0  0  0  0  0  0  # atno 10764 bound_to 10752
  153.6639  135.3430  155.3110 H   0  0  0  0  0  0  0  0  0  0  0  0  # atno 10765 bound_to 10752
  141.0703  133.6681  156.3447 H   0  0  0  0  0  0  0  0  0  0  0  0  # atno 11005 bound_to 11000
  146.2418  140.5446  142.8931 LP  0  0  0  0  0  0  0  0  0  0  0  0  # atno 17320 bound_to 7965
  144.7967  140.6136  143.6505 LP  0  0  0  0  0  0  0  0  0  0  0  0  # atno 17321 bound_to 7965
  139.4914  144.4300  151.9882 LP  0  0  0  0  0  0  0  0  0  0  0  0  # atno 17342 bound_to 10162
  140.3395  144.3220  150.5970 LP  0  0  0  0  0  0  0  0  0  0  0  0  # atno 17343 bound_to 10162
  155.9740  130.4683  150.6354 LP  0  0  0  0  0  0  0  0  0  0  0  0  # atno 17370 bound_to 10713
  157.4053  131.0816  151.1271 LP  0  0  0  0  0  0  0  0  0  0  0  0  # atno 17371 bound_to 10713
  140.5687  134.5862  157.5452 LP  0  0  0  0  0  0  0  0  0  0  0  0  # atno 17394 bound_to 11000
  139.9517  134.7606  156.0434 LP  0  0  0  0  0  0  0  0  0  0  0  0  # atno 17395 bound_to 11000

$$$$
