AV-unprocessed.smi:2079|AV-procd|sdf|8482|dock7
  -GOLD-   2272011183D 1   1.00000     0.00000
 Structure written by MMmdl.
 41 42  0  0  0  0  0  0  0  0  3 V2000
  151.1240  141.3413  157.5487 C   0  0  0  0  0  0  0  0  0  0  0  0
  150.8377  140.4935  156.3565 C   0  0  0  0  0  0  0  0  0  0  0  0
  151.1730  139.2103  156.0294 C   0  0  0  0  0  0  0  0  0  0  0  0
  150.5816  139.0364  154.7483 C   0  0  0  0  0  0  0  0  0  0  0  0
  150.6227  137.9181  154.0074 N   0  5  0  0  0  0  0  0  0  0  0  0
  150.8608  136.7220  154.5923 C   0  0  0  0  0  0  0  0  0  0  0  0
  151.6284  136.5043  155.5326 O   0  0  0  0  0  0  0  0  0  0  0  0
  150.1641  135.7124  154.0544 N   0  0  0  0  0  0  0  0  0  0  0  0
  150.2332  134.3235  154.4867 C   0  0  0  0  0  0  0  0  0  0  0  0
  148.8166  133.7550  154.6831 C   0  0  0  0  0  0  0  0  0  0  0  0
  147.9932  133.7908  153.4395 N   0  3  1  0  0  0  0  0  0  0  0  0
  148.1142  132.5196  152.6671 C   0  0  0  0  0  0  0  0  0  0  0  0
  147.3780  132.5857  151.3220 C   0  0  0  0  0  0  0  0  0  0  0  0
  145.9016  132.9161  151.5355 C   0  0  0  0  0  0  0  0  0  0  0  0
  145.7872  134.2219  152.3246 C   0  0  0  0  0  0  0  0  0  0  0  0
  146.5563  134.1631  153.6642 C   0  0  2  0  0  0  0  0  0  0  0  0
  146.3783  135.5155  154.3863 C   0  0  0  0  0  0  0  0  0  0  0  0
  149.9313  140.1136  154.3408 N   0  0  0  0  0  0  0  0  0  0  0  0
  150.0965  141.0552  155.3637 O   0  0  0  0  0  0  0  0  0  0  0  0
  150.8375  140.8262  158.4658 H   0  0  0  0  0  0  0  0  0  0  0  0
  150.5743  142.2818  157.5043 H   0  0  0  0  0  0  0  0  0  0  0  0
  152.1871  141.5737  157.6085 H   0  0  0  0  0  0  0  0  0  0  0  0
  151.7508  138.5081  156.6114 H   0  0  0  0  0  0  0  0  0  0  0  0
  149.5460  135.9305  153.2865 H   0  0  0  0  0  0  0  0  0  0  0  0
  150.7723  133.7411  153.7378 H   0  0  0  0  0  0  0  0  0  0  0  0
  150.8126  134.2870  155.4085 H   0  0  0  0  0  0  0  0  0  0  0  0
  148.8607  132.7337  155.0645 H   0  0  0  0  0  0  0  0  0  0  0  0
  148.3604  134.3536  155.4674 H   0  0  0  0  0  0  0  0  0  0  0  0
  149.1568  132.2872  152.4603 H   0  0  0  0  0  0  0  0  0  0  0  0
  147.7228  131.6944  153.2644 H   0  0  0  0  0  0  0  0  0  0  0  0
  147.8399  133.3401  150.6837 H   0  0  0  0  0  0  0  0  0  0  0  0
  147.4736  131.6343  150.7978 H   0  0  0  0  0  0  0  0  0  0  0  0
  145.3910  133.0068  150.5762 H   0  0  0  0  0  0  0  0  0  0  0  0
  145.4113  132.1070  152.0785 H   0  0  0  0  0  0  0  0  0  0  0  0
  146.1672  135.0453  151.7175 H   0  0  0  0  0  0  0  0  0  0  0  0
  144.7335  134.4373  152.5059 H   0  0  0  0  0  0  0  0  0  0  0  0
  146.1026  133.3870  154.2832 H   0  0  0  0  0  0  0  0  0  0  0  0
  145.3341  135.8293  154.3709 H   0  0  0  0  0  0  0  0  0  0  0  0
  146.9627  136.3029  153.9093 H   0  0  0  0  0  0  0  0  0  0  0  0
  146.6571  135.4691  155.4382 H   0  0  0  0  0  0  0  0  0  0  0  0
  148.3850  134.5218  152.8630 H   0  0  0  0  0  0  0  0  0  0  0  0
  1  2  1  0  0  0  0
  1 20  1  0  0  0  0
  1 21  1  0  0  0  0
  1 22  1  0  0  0  0
  2 19  1  0  0  0  0
  2  3  2  0  0  0  0
  3  4  1  0  0  0  0
  3 23  1  0  0  0  0
  4  5  1  0  0  0  0
  4 18  2  0  0  0  0
  5  6  1  0  0  0  0
  6  7  2  0  0  0  0
  6  8  1  0  0  0  0
  8  9  1  0  0  0  0
  8 24  1  0  0  0  0
  9 10  1  0  0  0  0
  9 25  1  0  0  0  0
  9 26  1  0  0  0  0
 10 11  1  0  0  0  0
 10 27  1  0  0  0  0
 10 28  1  0  0  0  0
 11 16  1  0  0  0  0
 11 12  1  0  0  0  0
 11 41  1  0  0  0  0
 12 13  1  0  0  0  0
 12 29  1  0  0  0  0
 12 30  1  0  0  0  0
 13 14  1  0  0  0  0
 13 31  1  0  0  0  0
 13 32  1  0  0  0  0
 14 15  1  0  0  0  0
 14 33  1  0  0  0  0
 14 34  1  0  0  0  0
 15 16  1  0  0  0  0
 15 35  1  0  0  0  0
 15 36  1  0  0  0  0
 16 17  1  0  0  0  0
 16 37  1  0  0  0  0
 17 38  1  0  0  0  0
 17 39  1  0  0  0  0
 17 40  1  0  0  0  0
 18 19  1  0  0  0  0
M  CHG  1   5  -1
M  CHG  1  11   1
M  END
> <s_m_source_file>
AV-unprocessed.smi

> <i_m_source_file_index>
2079

> <i_lp_mmshare_version>
43012

> <i_f3d_flags>
0

> <s_epik_input>
W0NIM11jMVtjSF1jKG5vMSlbTkhdQyg9TylbTkhdW0NIMl1bQ0gyXU4yW0NIMl1bQ0gyXVtDSDJdW0NIMl1bQ0BIXTJbQ0gzXQ==

> <s_epik_cmdline>
J2VwaWtfcHl0aG9uJywgJy1waCcsICc3LjAnLCAnLXRuJywgJzgnLCAnLW1hJywgJzIwMCcsICctbWV0YWxfYmluZGluZycsICctaW1hZScsICc8aW5maWxlLm1hZT4nLCAnLW9tYWUnLCAnPG91dGZpbGUubWFlPic=

> <r_epik_Ionization_Penalty>
6.22371

> <r_epik_Ionization_Penalty_Charging>
6.22362

> <r_epik_Ionization_Penalty_Neutral>
9.40454e-05

> <r_epik_State_Penalty>
6.22363

> <r_epik_Charging_Adjusted_Penalty>
12.4472

> <i_epik_Tot_Q>
0

> <i_epik_Tot_abs_Q>
2

> <r_epik_Metal_State_Penalty>
2.16675

> <b_epik_Metal_Only>
1

> <s_lp_Force_Field>
OPLS_2005

> <r_lp_Energy>
8.88901

> <b_lp_Chiralities_Consistent>
1

> <s_lp_Variant>
AV-unprocessed.smi:2079-8

> <Gold.Version>
5.8.1

> <Gold.Id.Protein>
6NUR|6NUR_protein|mol2

> <Gold.PLP.Fitness>
42.5971

> <Gold.PLP.PLP>
-29.3902

> <Gold.PLP.part.hbond>
-5.7971

> <Gold.PLP.part.metal>
0.0000

> <Gold.PLP.part.buried>
-2.7731

> <Gold.PLP.part.nonpolar>
-21.6814

> <Gold.PLP.part.repulsive>
0.4941

> <Gold.PLP.ligand.clash>
0.0000

> <Gold.PLP.ligand.torsion>
0.9218

> <Gold.PLP.Chemscore.Hbond>
5.0000

> <Gold.PLP.Chemscore.CHOScore>
0.0000

> <Gold.PLP.Chemscore.Metal>
0.0000

> <Gold.Chemscore.Hbonds>
donor molecule, donor type, donor heavy atom, donor atom, acceptor molecule, acceptor atom, score
      L1  H     8    24       P1  7948  0.90
      L1  H    11    41       P1  7948  2.00
      P1  H  7989  7998       L1    18  0.23
      P1  H 10752 10763       L1     7  1.00

> <Gold.PLP.Chemscore.Internal.Correction>
0.0505

> <Gold.Rescore>
     Score         DG    S(hbond)    S(metal)    S(lipo)     H(rot)  DE(clash)    DE(int)     intcor
     14.50     -17.79       3.16        0.00      48.79       1.54       0.95       2.33       ----

> <Gold.Chemscore.Fitness>
14.5044

> <Gold.Chemscore.DG>
-17.7898

> <Gold.Chemscore.ZeroCoef>
-5.4800

> <Gold.Chemscore.Hbond>
3.1575

> <Gold.Chemscore.Metal>
0.0000

> <Gold.Chemscore.Lipo>
48.7888

> <Gold.Chemscore.Internal_Hbond>
0.0000

> <Gold.Chemscore.DEClash>
0.9512

> <Gold.Chemscore.DEInternal>
2.3341

> <Gold.Chemscore.Rot>
1.5409

> <Gold.Chemscore.Internal.Correction>
   9.000000E+99

> <Gold.Chemscore.Hbonds>
donor molecule, donor type, donor heavy atom, donor atom, acceptor molecule, acceptor atom, score
      L1  H     8    24       P1  7948  0.17
      L1  H    11    41       P1  7948  0.28
      P1  H 10752 10763       L1     7  0.81

> <Gold.Chemscore.Hbond.Weighted>
-10.5461

> <Gold.Chemscore.Metal.Weighted>
-0.0000

> <Gold.Chemscore.Lipo.Weighted>
-5.7083

> <Gold.Chemscore.Internal_Hbond.Weighted>
0.0000

> <Gold.Chemscore.DEClash.Weighted>
0.9512

> <Gold.Chemscore.DEInternal.Weighted>
2.3341

> <Gold.Chemscore.Rot.Weighted>
3.9446

> <Gold.Chemscore.Internal.Correction.Weighted>
   9.000000E+99

> <Gold.Protein.RotatedTorsions>
[ 6907 6896 6895 6894 ] final  143.96 input  -60.11 | X-H torsion
[ 7974 7965 7964 7962 ] final  133.61 input  175.53 | X-H torsion
[ 8008 7997 7996 7995 ] final  131.55 input   59.86 | X-H torsion
[ 10167 10162 10161 10158 ] final -121.96 input  -65.29 | X-H torsion
[ 10718 10713 10712 10709 ] final -109.66 input   66.30 | X-H torsion
[ 10763 10752 10751 10750 ] final   90.15 input  -60.55 | X-H torsion
[ 11005 11000 10999 10996 ] final   42.24 input  -57.11 | X-H torsion

> <Gold.Protein.ActiveResidues>
 VAL166  LYS551  ARG553  GLY616  TRP617  ASP618  TYR619  PRO620  LYS621  CYS622 
 ASP623  PHE694  ASN695  SER759  ASP760  ASP761  ALA762  ILE779  LEU786  VAL792 
 PHE793  MET794  SER795  GLU796  ALA797  LYS798  CYS799  TRP800  GLU811  SER814 

> <Gold.Protein.RotatedAtoms>
  152.1997  133.4832  159.5051 H   0  0  0  0  0  0  0  0  0  0  0  0  # atno 6907 bound_to 6896
  150.6967  134.1606  159.4184 H   0  0  0  0  0  0  0  0  0  0  0  0  # atno 6908 bound_to 6896
  151.9523  135.0163  160.0593 H   0  0  0  0  0  0  0  0  0  0  0  0  # atno 6909 bound_to 6896
  144.9848  139.4467  143.5368 H   0  0  0  0  0  0  0  0  0  0  0  0  # atno 7974 bound_to 7965
  156.2971  140.2568  156.2944 H   0  0  0  0  0  0  0  0  0  0  0  0  # atno 8008 bound_to 7997
  154.9478  140.0395  157.2148 H   0  0  0  0  0  0  0  0  0  0  0  0  # atno 8009 bound_to 7997
  154.8065  140.2837  155.5888 H   0  0  0  0  0  0  0  0  0  0  0  0  # atno 8010 bound_to 7997
  140.0194  143.5360  152.2228 H   0  0  0  0  0  0  0  0  0  0  0  0  # atno 10167 bound_to 10162
  156.0549  130.5775  150.8130 H   0  0  0  0  0  0  0  0  0  0  0  0  # atno 10718 bound_to 10713
  153.1946  135.4444  155.0191 H   0  0  0  0  0  0  0  0  0  0  0  0  # atno 10763 bound_to 10752
  154.8111  135.3295  154.7305 H   0  0  0  0  0  0  0  0  0  0  0  0  # atno 10764 bound_to 10752
  153.7756  135.6981  153.4953 H   0  0  0  0  0  0  0  0  0  0  0  0  # atno 10765 bound_to 10752
  140.1758  134.4165  155.8229 H   0  0  0  0  0  0  0  0  0  0  0  0  # atno 11005 bound_to 11000
  146.3417  139.9143  142.8775 LP  0  0  0  0  0  0  0  0  0  0  0  0  # atno 17320 bound_to 7965
  145.2369  140.9994  143.3958 LP  0  0  0  0  0  0  0  0  0  0  0  0  # atno 17321 bound_to 7965
  139.6150  144.7617  151.2866 LP  0  0  0  0  0  0  0  0  0  0  0  0  # atno 17342 bound_to 10162
  140.7349  143.6753  150.8047 LP  0  0  0  0  0  0  0  0  0  0  0  0  # atno 17343 bound_to 10162
  157.5509  131.0944  150.9696 LP  0  0  0  0  0  0  0  0  0  0  0  0  # atno 17370 bound_to 10713
  156.9956  130.5580  149.5307 LP  0  0  0  0  0  0  0  0  0  0  0  0  # atno 17371 bound_to 10713
  141.2220  133.6977  156.7843 LP  0  0  0  0  0  0  0  0  0  0  0  0  # atno 17394 bound_to 11000
  140.2325  134.8675  157.3491 LP  0  0  0  0  0  0  0  0  0  0  0  0  # atno 17395 bound_to 11000

$$$$
