#       Name:                AV-unprocessed.smi:1359
#       Creating user name   scv26
#       Creation time:       Fri Mar 27 05:14:16 2020


#       File generated by GOLD software.
#

@<TRIPOS>MOLECULE
AV-unprocessed.smi:1359
    39    40     1
SMALL
NO_CHARGES


@<TRIPOS>ATOM
      1 ****        -5.0621  -1.1489  -0.5098 C.3            1 S1                 0.0000
      2 ****        -3.5568  -0.9812  -0.7421 C.3            1 S1                 0.0000
      3 ****        -2.7492  -2.1987  -0.2637 C.3            1 S1                 0.0000
      4 ****        -1.3193  -2.0132  -0.4808 N.am           1 S1                 0.0000
      5 ****        -0.6874  -2.1931  -1.6517 C.2            1 S1                 0.0000
      6 ****        -1.2577  -2.5550  -2.6807 O.2            1 S1                 0.0000
      7 ****         0.8196  -1.9293  -1.6666 C.3            1 S1                 0.0000
      8 ****         1.1038  -0.4686  -1.4610 C.2            1 S1                 0.0000
      9 ****         0.8741   0.5515  -2.3521 C.2            1 S1                 0.0000
     10 ****         1.3505   2.0998  -1.7112 S.3            1 S1                 0.0000
     11 ****         1.8658   1.2895  -0.2289 C.2            1 S1                 0.0000
     12 ****         2.4440   1.9105   0.9180 N.am           1 S1                 0.0000
     13 ****         2.8802   1.1325   2.0735 C.3            1 S1                 0.0000
     14 ****         3.4399   2.1803   3.0305 C.3            1 S1                 0.0000
     15 ****         3.2384   3.4044   2.2918 N.am           1 S1                 0.0000
     16 ****         2.6724   3.2270   1.0959 C.2            1 S1                 0.0000
     17 ****         2.4152   4.1413   0.3150 O.2            1 S1                 0.0000
     18 ****         1.6708  -0.0334  -0.2584 N.2            1 S1                 0.0000
     19 ****        -5.6089  -0.2733  -0.8601 H              1 S1                 0.0000
     20 ****        -5.2856  -1.2795   0.5494 H              1 S1                 0.0000
     21 ****        -5.4477  -2.0175  -1.0442 H              1 S1                 0.0000
     22 ****        -3.3791  -0.8116  -1.8047 H              1 S1                 0.0000
     23 ****        -3.2105  -0.0852  -0.2256 H              1 S1                 0.0000
     24 ****        -2.9114  -2.3555   0.8031 H              1 S1                 0.0000
     25 ****        -3.0891  -3.1060  -0.7659 H              1 S1                 0.0000
     26 ****        -0.7711  -1.7140   0.3130 H              1 S1                 0.0000
     27 ****         1.2929  -2.5354  -0.8927 H              1 S1                 0.0000
     28 ****         1.2360  -2.2656  -2.6171 H              1 S1                 0.0000
     29 ****         0.4498   0.4852  -3.3431 H              1 S1                 0.0000
     30 ****         2.0401   0.5964   2.5174 H              1 S1                 0.0000
     31 ****         3.6433   0.4081   1.7854 H              1 S1                 0.0000
     32 ****         2.8953   2.2068   3.9749 H              1 S1                 0.0000
     33 ****         4.4999   2.0255   3.2344 H              1 S1                 0.0000
     34 ****         3.5047   4.3071   2.6581 H              1 S1                 0.0000
     35 ****        -2.2421  -2.7309  -2.6714 LP             1 S1                 0.0000
     36 ****        -0.7367  -2.6732  -3.5260 LP             1 S1                 0.0000
     37 ****         1.9876   3.9406  -0.5664 LP             1 S1                 0.0000
     38 ****         2.6336   5.0855   0.5613 LP             1 S1                 0.0000
     39 ****         1.9049  -0.6451   0.4973 LP             1 S1                 0.0000
@<TRIPOS>BOND
    1    1    2 1     
    2    1   19 1     
    3    1   20 1     
    4    1   21 1     
    5    2    3 1     
    6    2   22 1     
    7    2   23 1     
    8    3    4 1     
    9    3   24 1     
   10    3   25 1     
   11    4    5 am    
   12    4   26 1     
   13    5    6 2     
   14    5    7 1     
   15    7    8 1     
   16    7   27 1     
   17    7   28 1     
   18    8   18 1     
   19    8    9 2     
   20    9   10 1     
   21    9   29 1     
   22   10   11 1     
   23   11   12 1     
   24   11   18 2     
   25   12   16 am    
   26   12   13 1     
   27   13   14 1     
   28   13   30 1     
   29   13   31 1     
   30   14   15 1     
   31   14   32 1     
   32   14   33 1     
   33   15   16 am    
   34   15   34 1     
   35   16   17 2     
   36    6   35 1     
   37    6   36 1     
   38   17   37 1     
   39   17   38 1     
   40   18   39 1     
@<TRIPOS>SUBSTRUCTURE
      1 S1             1
@<TRIPOS>SET
LONE_PAIRS      STATIC     ATOMS    <user>   **** ""
5 35 36 37 38 39
DONOR_HYDROGENS      STATIC     ATOMS    <user>   **** ""
2 26 34
ATOM$BLUE        STATIC     ATOMS    COLORGROUP SYSTEM
5 35 36 37 38 39
ATOM$RED        STATIC     ATOMS    COLORGROUP SYSTEM
2 26 34
