AV-unprocessed.smi:1413|AV-procd|sdf|5757|dock1
  -GOLD-   22720 5393D 1   1.00000     0.00000
 Structure written by MMmdl.
 53 55  0  0  0  0  0  0  0  0  1 V2000
  153.7000  141.3569  160.3302 C   0  0  0  0  0  0  0  0  0  0  0  0
  152.8976  141.9230  159.1540 C   0  0  1  0  0  0  0  0  0  0  0  0
  152.0055  140.8539  158.4979 C   0  0  0  0  0  0  0  0  0  0  0  0
  151.1844  141.4599  157.4597 N   0  0  0  0  0  0  0  0  0  0  0  0
  150.4636  140.5280  156.7016 C   0  0  0  0  0  0  0  0  0  0  0  0
  149.4413  139.7381  157.2749 C   0  0  0  0  0  0  0  0  0  0  0  0
  148.7675  138.8101  156.4588 C   0  0  0  0  0  0  0  0  0  0  0  0
  149.1364  138.6897  155.1042 C   0  0  0  0  0  0  0  0  0  0  0  0
  148.4346  137.7499  154.3018 N   0  0  0  0  0  0  0  0  0  0  0  0
  147.1762  137.3014  154.4500 C   0  0  0  0  0  0  0  0  0  0  0  0
  146.4006  137.6456  155.3413 O   0  0  0  0  0  0  0  0  0  0  0  0
  146.8576  136.4323  153.4798 N   0  0  0  0  0  0  0  0  0  0  0  0
  145.5763  135.7443  153.3324 C   0  0  1  0  0  0  0  0  0  0  0  0
  144.4481  136.7877  153.3556 C   0  0  0  0  0  0  0  0  0  0  0  0
  145.5891  134.9144  152.0337 C   0  0  2  0  0  0  0  0  0  0  0  0
  144.2935  134.1504  151.7525 C   0  0  0  0  0  0  0  0  0  0  0  0
  144.7850  133.0215  150.8768 C   0  0  0  0  0  0  0  0  0  0  0  0
  146.1225  132.6866  151.5278 C   0  0  0  0  0  0  0  0  0  0  0  0
  146.5951  133.9038  152.0985 O   0  0  0  0  0  0  0  0  0  0  0  0
  150.1604  139.5415  154.6224 C   0  0  0  0  0  0  0  0  0  0  0  0
  150.8096  140.4346  155.3997 N   0  0  0  0  0  0  0  0  0  0  0  0
  150.3703  142.5583  157.9625 C   0  0  0  0  0  0  0  0  0  0  0  0
  151.2514  143.6126  158.6623 C   0  0  2  0  0  0  0  0  0  0  0  0
  152.0659  144.4787  157.6848 C   0  0  0  0  0  0  0  0  0  0  0  0
  152.0806  142.9865  159.6458 O   0  0  0  0  0  0  0  0  0  0  0  0
  154.3485  140.5422  160.0069 H   0  0  0  0  0  0  0  0  0  0  0  0
  153.0410  140.9721  161.1089 H   0  0  0  0  0  0  0  0  0  0  0  0
  154.3306  142.1261  160.7768 H   0  0  0  0  0  0  0  0  0  0  0  0
  153.6036  142.3115  158.4197 H   0  0  0  0  0  0  0  0  0  0  0  0
  152.6211  140.0641  158.0652 H   0  0  0  0  0  0  0  0  0  0  0  0
  151.3650  140.3900  159.2495 H   0  0  0  0  0  0  0  0  0  0  0  0
  149.1775  139.8354  158.3178 H   0  0  0  0  0  0  0  0  0  0  0  0
  147.9831  138.1941  156.8736 H   0  0  0  0  0  0  0  0  0  0  0  0
  148.9240  137.4332  153.4778 H   0  0  0  0  0  0  0  0  0  0  0  0
  147.5638  136.2162  152.7919 H   0  0  0  0  0  0  0  0  0  0  0  0
  145.4160  135.0615  154.1687 H   0  0  0  0  0  0  0  0  0  0  0  0
  143.4675  136.3151  153.2971 H   0  0  0  0  0  0  0  0  0  0  0  0
  144.5323  137.4844  152.5209 H   0  0  0  0  0  0  0  0  0  0  0  0
  144.4723  137.3690  154.2780 H   0  0  0  0  0  0  0  0  0  0  0  0
  145.8190  135.5523  151.1783 H   0  0  0  0  0  0  0  0  0  0  0  0
  143.8736  133.7482  152.6759 H   0  0  0  0  0  0  0  0  0  0  0  0
  143.5331  134.7637  151.2683 H   0  0  0  0  0  0  0  0  0  0  0  0
  144.1017  132.1728  150.8433 H   0  0  0  0  0  0  0  0  0  0  0  0
  144.9404  133.3783  149.8577 H   0  0  0  0  0  0  0  0  0  0  0  0
  145.9847  131.9605  152.3298 H   0  0  0  0  0  0  0  0  0  0  0  0
  146.8394  132.2749  150.8170 H   0  0  0  0  0  0  0  0  0  0  0  0
  150.4699  139.5367  153.5890 H   0  0  0  0  0  0  0  0  0  0  0  0
  149.8084  143.0133  157.1454 H   0  0  0  0  0  0  0  0  0  0  0  0
  149.6401  142.1680  158.6729 H   0  0  0  0  0  0  0  0  0  0  0  0
  150.5910  144.2883  159.2063 H   0  0  0  0  0  0  0  0  0  0  0  0
  151.4045  145.0399  157.0243 H   0  0  0  0  0  0  0  0  0  0  0  0
  152.7232  143.8829  157.0520 H   0  0  0  0  0  0  0  0  0  0  0  0
  152.6818  145.1985  158.2239 H   0  0  0  0  0  0  0  0  0  0  0  0
  1  2  1  0  0  0  0
  1 26  1  0  0  0  0
  1 27  1  0  0  0  0
  1 28  1  0  0  0  0
  2 25  1  0  0  0  0
  2  3  1  0  0  0  0
  2 29  1  0  0  0  0
  3  4  1  0  0  0  0
  3 30  1  0  0  0  0
  3 31  1  0  0  0  0
  4  5  1  0  0  0  0
  4 22  1  0  0  0  0
  5 21  1  0  0  0  0
  5  6  2  0  0  0  0
  6  7  1  0  0  0  0
  6 32  1  0  0  0  0
  7  8  2  0  0  0  0
  7 33  1  0  0  0  0
  8  9  1  0  0  0  0
  8 20  1  0  0  0  0
  9 10  1  0  0  0  0
  9 34  1  0  0  0  0
 10 11  2  0  0  0  0
 10 12  1  0  0  0  0
 12 13  1  0  0  0  0
 12 35  1  0  0  0  0
 13 14  1  0  0  0  0
 13 15  1  0  0  0  0
 13 36  1  0  0  0  0
 14 37  1  0  0  0  0
 14 38  1  0  0  0  0
 14 39  1  0  0  0  0
 15 19  1  0  0  0  0
 15 16  1  0  0  0  0
 15 40  1  0  0  0  0
 16 17  1  0  0  0  0
 16 41  1  0  0  0  0
 16 42  1  0  0  0  0
 17 18  1  0  0  0  0
 17 43  1  0  0  0  0
 17 44  1  0  0  0  0
 18 19  1  0  0  0  0
 18 45  1  0  0  0  0
 18 46  1  0  0  0  0
 20 21  2  0  0  0  0
 20 47  1  0  0  0  0
 22 23  1  0  0  0  0
 22 48  1  0  0  0  0
 22 49  1  0  0  0  0
 23 24  1  0  0  0  0
 23 25  1  0  0  0  0
 23 50  1  0  0  0  0
 24 51  1  0  0  0  0
 24 52  1  0  0  0  0
 24 53  1  0  0  0  0
M  END
> <s_m_source_file>
AV-unprocessed.smi

> <i_m_source_file_index>
1413

> <i_lp_mmshare_version>
43012

> <i_f3d_flags>
0

> <s_epik_input>
W0NIM11bQ0BASF0xW0NIMl1OKFtDSDJdW0NASF0oTzEpW0NIM10pYzJbY0hdW2NIXWMoW2NIXW4yKVtOSF1DKD1PKVtOSF1bQ0BIXShbQ0gzXSlbQ0BASF0zW0NIMl1bQ0gyXVtDSDJdTzM=

> <s_epik_cmdline>
J2VwaWtfcHl0aG9uJywgJy1waCcsICc3LjAnLCAnLXRuJywgJzgnLCAnLW1hJywgJzIwMCcsICctbWV0YWxfYmluZGluZycsICctaW1hZScsICc8aW5maWxlLm1hZT4nLCAnLW9tYWUnLCAnPG91dGZpbGUubWFlPic=

> <r_lp_tautomer_probability>
1

> <r_epik_Ionization_Penalty>
0.00271172

> <r_epik_Ionization_Penalty_Charging>
0

> <r_epik_Ionization_Penalty_Neutral>
0.00271172

> <r_epik_State_Penalty>
0.00186503

> <r_epik_Charging_Adjusted_Penalty>
0.00186503

> <i_epik_Tot_Q>
0

> <i_epik_Tot_abs_Q>
0

> <r_epik_Metal_State_Penalty>
-0

> <b_epik_Metal_Only>
0

> <s_lp_Force_Field>
OPLS_2005

> <r_lp_Energy>
38.2473

> <b_lp_Chiralities_Consistent>
1

> <s_lp_Variant>
AV-unprocessed.smi:1413-10

> <Gold.Version>
5.8.1

> <Gold.Id.Protein>
6NUR|6NUR_protein|mol2

> <Gold.PLP.Fitness>
48.4554

> <Gold.PLP.PLP>
-40.1711

> <Gold.PLP.part.hbond>
-2.9854

> <Gold.PLP.part.metal>
0.0000

> <Gold.PLP.part.buried>
-6.7162

> <Gold.PLP.part.nonpolar>
-31.3214

> <Gold.PLP.part.repulsive>
0.3273

> <Gold.PLP.ligand.clash>
0.0000

> <Gold.PLP.ligand.torsion>
0.2630

> <Gold.PLP.Chemscore.Hbond>
1.8960

> <Gold.PLP.Chemscore.CHOScore>
1.0000

> <Gold.PLP.Chemscore.Metal>
0.0000

> <Gold.Chemscore.Hbonds>
donor molecule, donor type, donor heavy atom, donor atom, acceptor molecule, acceptor atom, score
      L1  H     9    34       P1  7948  0.99
      L1  H    12    35       P1  7948  1.00
      L1  C    20    47       P1  7957  0.79

> <Gold.PLP.Chemscore.Internal.Correction>
0.1224

> <Gold.Rescore>
     Score         DG    S(hbond)    S(metal)    S(lipo)     H(rot)  DE(clash)    DE(int)     intcor
     18.43     -20.18       1.86        0.00     102.14       1.35       0.06       1.69       ----

> <Gold.Chemscore.Fitness>
18.4311

> <Gold.Chemscore.DG>
-20.1812

> <Gold.Chemscore.ZeroCoef>
-5.4800

> <Gold.Chemscore.Hbond>
1.8559

> <Gold.Chemscore.Metal>
0.0000

> <Gold.Chemscore.Lipo>
102.1437

> <Gold.Chemscore.Internal_Hbond>
0.0000

> <Gold.Chemscore.DEClash>
0.0638

> <Gold.Chemscore.DEInternal>
1.6862

> <Gold.Chemscore.Rot>
1.3471

> <Gold.Chemscore.Internal.Correction>
   9.000000E+99

> <Gold.Chemscore.Hbonds>
donor molecule, donor type, donor heavy atom, donor atom, acceptor molecule, acceptor atom, score
      L1  H     9    34       P1  7948  0.90
      L1  H    12    35       P1  7948  1.00

> <Gold.Chemscore.Hbond.Weighted>
-6.1989

> <Gold.Chemscore.Metal.Weighted>
-0.0000

> <Gold.Chemscore.Lipo.Weighted>
-11.9508

> <Gold.Chemscore.Internal_Hbond.Weighted>
0.0000

> <Gold.Chemscore.DEClash.Weighted>
0.0638

> <Gold.Chemscore.DEInternal.Weighted>
1.6862

> <Gold.Chemscore.Rot.Weighted>
3.4485

> <Gold.Chemscore.Internal.Correction.Weighted>
   9.000000E+99

> <Gold.Protein.RotatedTorsions>
[ 6907 6896 6895 6894 ] final  -20.91 input  -60.11 | X-H torsion
[ 7974 7965 7964 7962 ] final  -83.89 input  175.53 | X-H torsion
[ 8008 7997 7996 7995 ] final -168.07 input   59.86 | X-H torsion
[ 10167 10162 10161 10158 ] final   35.70 input  -65.29 | X-H torsion
[ 10718 10713 10712 10709 ] final  156.17 input   66.30 | X-H torsion
[ 10763 10752 10751 10750 ] final   36.75 input  -60.55 | X-H torsion
[ 11005 11000 10999 10996 ] final   -5.67 input  -57.11 | X-H torsion

> <Gold.Protein.ActiveResidues>
 VAL166  LYS551  ARG553  GLY616  TRP617  ASP618  TYR619  PRO620  LYS621  CYS622 
 ASP623  PHE694  ASN695  SER759  ASP760  ASP761  ALA762  ILE779  LEU786  VAL792 
 PHE793  MET794  SER795  GLU796  ALA797  LYS798  CYS799  TRP800  GLU811  SER814 

> <Gold.Protein.RotatedAtoms>
  151.2412  135.0589  159.9025 H   0  0  0  0  0  0  0  0  0  0  0  0  # atno 6907 bound_to 6896
  152.5393  134.0432  159.8087 H   0  0  0  0  0  0  0  0  0  0  0  0  # atno 6908 bound_to 6896
  151.0626  133.5482  159.2664 H   0  0  0  0  0  0  0  0  0  0  0  0  # atno 6909 bound_to 6896
  145.5139  140.9537  143.1692 H   0  0  0  0  0  0  0  0  0  0  0  0  # atno 7974 bound_to 7965
  155.8864  140.1017  157.1449 H   0  0  0  0  0  0  0  0  0  0  0  0  # atno 8008 bound_to 7997
  154.4010  140.1319  156.4324 H   0  0  0  0  0  0  0  0  0  0  0  0  # atno 8009 bound_to 7997
  155.7584  140.3463  155.5188 H   0  0  0  0  0  0  0  0  0  0  0  0  # atno 8010 bound_to 7997
  140.4198  144.1476  150.6147 H   0  0  0  0  0  0  0  0  0  0  0  0  # atno 10167 bound_to 10162
  157.2085  131.0692  151.1983 H   0  0  0  0  0  0  0  0  0  0  0  0  # atno 10718 bound_to 10713
  153.0064  135.6297  154.2035 H   0  0  0  0  0  0  0  0  0  0  0  0  # atno 10763 bound_to 10752
  154.1779  135.2815  155.3063 H   0  0  0  0  0  0  0  0  0  0  0  0  # atno 10764 bound_to 10752
  154.5858  135.5633  153.7289 H   0  0  0  0  0  0  0  0  0  0  0  0  # atno 10765 bound_to 10752
  140.6936  133.9050  155.8635 H   0  0  0  0  0  0  0  0  0  0  0  0  # atno 11005 bound_to 11000
  144.7712  139.6730  143.7194 LP  0  0  0  0  0  0  0  0  0  0  0  0  # atno 17320 bound_to 7965
  146.2149  139.5531  142.9657 LP  0  0  0  0  0  0  0  0  0  0  0  0  # atno 17321 bound_to 7965
  140.4547  143.2473  151.9301 LP  0  0  0  0  0  0  0  0  0  0  0  0  # atno 17342 bound_to 10162
  139.4782  144.5528  151.8360 LP  0  0  0  0  0  0  0  0  0  0  0  0  # atno 17343 bound_to 10162
  157.3696  130.7174  149.6556 LP  0  0  0  0  0  0  0  0  0  0  0  0  # atno 17370 bound_to 10713
  155.9693  130.4202  150.4414 LP  0  0  0  0  0  0  0  0  0  0  0  0  # atno 17371 bound_to 10713
  141.0221  134.0875  157.4109 LP  0  0  0  0  0  0  0  0  0  0  0  0  # atno 17394 bound_to 11000
  139.8916  135.0119  156.6802 LP  0  0  0  0  0  0  0  0  0  0  0  0  # atno 17395 bound_to 11000

$$$$
