#       Name:                AV-unprocessed.smi:35
#       Creating user name   scv26
#       Creation time:       Thu Mar 26 16:02:12 2020


#       File generated by GOLD software.
#

@<TRIPOS>MOLECULE
AV-unprocessed.smi:35
    41    42     1
SMALL
NO_CHARGES


@<TRIPOS>ATOM
      1 ****        -4.1202   2.5410   2.0959 O.2            1 S1                 0.0000
      2 ****        -3.1419   2.1377   1.4706 C.2            1 S1                 0.0000
      3 ****        -3.2141   1.9552   0.0875 N.am           1 S1                 0.0000
      4 ****        -2.1751   1.4987  -0.7254 C.2            1 S1                 0.0000
      5 ****        -2.3444   1.4037  -1.9402 O.2            1 S1                 0.0000
      6 ****        -0.9531   1.1644  -0.0964 N.am           1 S1                 0.0000
      7 ****         0.1972   0.6883  -0.9696 C.3            1 S1                 0.0000
      8 ****         1.3429   0.5031  -0.1949 O.3            1 S1                 0.0000
      9 ****         1.4145  -0.8503   0.2319 C.3            1 S1                 0.0000
     10 ****         2.8543  -1.1754   0.6586 C.3            1 S1                 0.0000
     11 ****         2.9240  -2.4721   1.2125 O.3            1 S1                 0.0000
     12 ****         0.9157  -1.6229  -0.9920 C.3            1 S1                 0.0000
     13 ****         0.3003  -2.8297  -0.5872 O.3            1 S1                 0.0000
     14 ****        -0.1105  -0.6808  -1.6230 C.3            1 S1                 0.0000
     15 ****         0.0632  -0.6383  -3.0256 O.3            1 S1                 0.0000
     16 ****        -0.8246   1.3711   1.2738 C.2            1 S1                 0.0000
     17 ****        -1.8403   1.8221   2.0473 C.2            1 S1                 0.0000
     18 ****        -1.4522   2.0438   3.9776 Br             1 S1                 0.0000
     19 ****        -4.0897   2.1783  -0.3629 H              1 S1                 0.0000
     20 ****         0.3593   1.5039  -1.6773 H              1 S1                 0.0000
     21 ****         0.7313  -0.9857   1.0723 H              1 S1                 0.0000
     22 ****         3.5414  -1.0994  -0.1845 H              1 S1                 0.0000
     23 ****         3.1897  -0.4628   1.4125 H              1 S1                 0.0000
     24 ****         3.8141  -2.6347   1.4860 H              1 S1                 0.0000
     25 ****         1.7406  -1.8265  -1.6769 H              1 S1                 0.0000
     26 ****         0.9439  -3.3566  -0.1378 H              1 S1                 0.0000
     27 ****        -1.1305  -0.9923  -1.3919 H              1 S1                 0.0000
     28 ****         0.9480  -0.3636  -3.2108 H              1 S1                 0.0000
     29 ****         0.1148   1.1802   1.7695 H              1 S1                 0.0000
     30 ****        -4.0601   2.6774   3.0847 LP             1 S1                 0.0000
     31 ****        -4.9762   2.7327   1.6158 LP             1 S1                 0.0000
     32 ****        -3.2248   1.6532  -2.3433 LP             1 S1                 0.0000
     33 ****        -1.6015   1.0769  -2.5245 LP             1 S1                 0.0000
     34 ****         1.3050   1.1028   0.6044 LP             1 S1                 0.0000
     35 ****         2.1523   0.7239  -0.7392 LP             1 S1                 0.0000
     36 ****         2.6537  -3.1470   0.5259 LP             1 S1                 0.0000
     37 ****         2.3122  -2.5353   2.0010 LP             1 S1                 0.0000
     38 ****        -0.0385  -3.3216  -1.3892 LP             1 S1                 0.0000
     39 ****        -0.4622  -2.6302   0.0282 LP             1 S1                 0.0000
     40 ****        -0.5824   0.0122  -3.4257 LP             1 S1                 0.0000
     41 ****        -0.0957  -1.5466  -3.4126 LP             1 S1                 0.0000
@<TRIPOS>BOND
    1    1    2 2     
    2    2   17 1     
    3    2    3 1     
    4    3   19 1     
    5    3    4 1     
    6    4    5 2     
    7    4    6 1     
    8    6    7 1     
    9    6   16 1     
   10    7   14 1     
   11    7    8 1     
   12    7   20 1     
   13    8    9 1     
   14    9   10 1     
   15    9   12 1     
   16    9   21 1     
   17   10   11 1     
   18   10   22 1     
   19   10   23 1     
   20   11   24 1     
   21   12   13 1     
   22   12   14 1     
   23   12   25 1     
   24   13   26 1     
   25   14   15 1     
   26   14   27 1     
   27   15   28 1     
   28   16   17 2     
   29   16   29 1     
   30   17   18 1     
   31    1   30 1     
   32    1   31 1     
   33    5   32 1     
   34    5   33 1     
   35    8   34 1     
   36    8   35 1     
   37   11   36 1     
   38   11   37 1     
   39   13   38 1     
   40   13   39 1     
   41   15   40 1     
   42   15   41 1     
@<TRIPOS>SUBSTRUCTURE
      1 S1             1
@<TRIPOS>SET
LONE_PAIRS      STATIC     ATOMS    <user>   **** ""
12 30 31 32 33 34 35 36 37 38 39 40 41
DONOR_HYDROGENS      STATIC     ATOMS    <user>   **** ""
4 19 24 26 28
ATOM$BLUE        STATIC     ATOMS    COLORGROUP SYSTEM
12 30 31 32 33 34 35 36 37 38 39 40 41
ATOM$RED        STATIC     ATOMS    COLORGROUP SYSTEM
4 19 24 26 28
