AV-unprocessed.smi:2404|AV-procd|sdf|9511|dock2
  -GOLD-   2272013143D 1   1.00000     0.00000
 Structure written by MMmdl.
 42 42  0  0  0  0  0  0  0  0  2 V2000
  150.5177  136.1369  155.5122 C   0  0  0  0  0  0  0  0  0  0  0  0
  150.0409  137.5791  155.2567 C   0  0  0  0  0  0  0  0  0  0  0  0
  150.9124  138.7149  155.8728 C   0  0  0  0  0  0  0  0  0  0  0  0
  150.3267  140.1272  155.5388 C   0  0  0  0  0  0  0  0  0  0  0  0
  148.9027  140.4118  156.0467 C   0  0  0  0  0  0  0  0  0  0  0  0
  150.9754  138.4939  157.4165 C   0  0  0  0  0  0  0  0  0  0  0  0
  149.6982  138.0714  157.9886 N   0  0  0  0  0  0  0  0  0  0  0  0
  149.4549  136.9070  158.6092 C   0  0  0  0  0  0  0  0  0  0  0  0
  150.3299  136.0981  158.9169 O   0  0  0  0  0  0  0  0  0  0  0  0
  147.9857  136.5906  158.8967 C   0  0  0  0  0  0  0  0  0  0  0  0
  147.8044  136.1847  160.2833 N   0  0  0  0  0  0  0  0  0  0  0  0
  148.0237  137.0855  161.2659 N   0  0  0  0  0  0  0  0  0  0  0  0
  147.7262  136.4467  162.3850 C   0  0  0  0  0  0  0  0  0  0  0  0
  147.8284  137.1692  163.6953 C   0  0  0  0  0  0  0  0  0  0  0  0
  147.3271  135.1016  162.1481 C   0  0  0  0  0  0  0  0  0  0  0  0
  147.3844  134.9670  160.7897 C   0  0  0  0  0  0  0  0  0  0  0  0
  147.0625  133.7937  159.9235 C   0  0  0  0  0  0  0  0  0  0  0  0
  152.3601  138.6047  155.3071 C   0  0  0  0  0  0  0  0  0  0  0  0
  152.8763  139.6071  154.7629 O   0  0  0  0  0  0  0  0  0  0  0  0
  152.9440  137.5065  155.4462 O   0  5  0  0  0  0  0  0  0  0  0  0
  149.8275  135.4237  155.0615 H   0  0  0  0  0  0  0  0  0  0  0  0
  150.5709  135.9067  156.5764 H   0  0  0  0  0  0  0  0  0  0  0  0
  151.4997  135.9533  155.0775 H   0  0  0  0  0  0  0  0  0  0  0  0
  149.9557  137.7281  154.1804 H   0  0  0  0  0  0  0  0  0  0  0  0
  149.0172  137.6645  155.6245 H   0  0  0  0  0  0  0  0  0  0  0  0
  150.9806  140.9030  155.9379 H   0  0  0  0  0  0  0  0  0  0  0  0
  150.3310  140.2856  154.4597 H   0  0  0  0  0  0  0  0  0  0  0  0
  148.6021  141.4240  155.7762 H   0  0  0  0  0  0  0  0  0  0  0  0
  148.8321  140.3363  157.1309 H   0  0  0  0  0  0  0  0  0  0  0  0
  148.1721  139.7320  155.6099 H   0  0  0  0  0  0  0  0  0  0  0  0
  151.7730  137.7974  157.6758 H   0  0  0  0  0  0  0  0  0  0  0  0
  151.2473  139.4262  157.9134 H   0  0  0  0  0  0  0  0  0  0  0  0
  148.9046  138.6639  157.7868 H   0  0  0  0  0  0  0  0  0  0  0  0
  147.3635  137.4641  158.6988 H   0  0  0  0  0  0  0  0  0  0  0  0
  147.6445  135.7951  158.2324 H   0  0  0  0  0  0  0  0  0  0  0  0
  147.5794  136.5114  164.5281 H   0  0  0  0  0  0  0  0  0  0  0  0
  147.1439  138.0174  163.7271 H   0  0  0  0  0  0  0  0  0  0  0  0
  148.8381  137.5461  163.8595 H   0  0  0  0  0  0  0  0  0  0  0  0
  147.0285  134.3532  162.8668 H   0  0  0  0  0  0  0  0  0  0  0  0
  146.8318  132.9162  160.5278 H   0  0  0  0  0  0  0  0  0  0  0  0
  147.9032  133.5434  159.2765 H   0  0  0  0  0  0  0  0  0  0  0  0
  146.1979  134.0020  159.2929 H   0  0  0  0  0  0  0  0  0  0  0  0
  1  2  1  0  0  0  0
  1 21  1  0  0  0  0
  1 22  1  0  0  0  0
  1 23  1  0  0  0  0
  2  3  1  0  0  0  0
  2 24  1  0  0  0  0
  2 25  1  0  0  0  0
  3  4  1  0  0  0  0
  3  6  1  0  0  0  0
  3 18  1  0  0  0  0
  4  5  1  0  0  0  0
  4 26  1  0  0  0  0
  4 27  1  0  0  0  0
  5 28  1  0  0  0  0
  5 29  1  0  0  0  0
  5 30  1  0  0  0  0
  6  7  1  0  0  0  0
  6 31  1  0  0  0  0
  6 32  1  0  0  0  0
  7  8  1  0  0  0  0
  7 33  1  0  0  0  0
  8  9  2  0  0  0  0
  8 10  1  0  0  0  0
 10 11  1  0  0  0  0
 10 34  1  0  0  0  0
 10 35  1  0  0  0  0
 11 16  1  0  0  0  0
 11 12  1  0  0  0  0
 12 13  2  0  0  0  0
 13 14  1  0  0  0  0
 13 15  1  0  0  0  0
 14 36  1  0  0  0  0
 14 37  1  0  0  0  0
 14 38  1  0  0  0  0
 15 16  2  0  0  0  0
 15 39  1  0  0  0  0
 16 17  1  0  0  0  0
 17 40  1  0  0  0  0
 17 41  1  0  0  0  0
 17 42  1  0  0  0  0
 18 19  2  0  0  0  0
 18 20  1  0  0  0  0
M  CHG  1  20  -1
M  END
> <s_m_source_file>
AV-unprocessed.smi

> <i_m_source_file_index>
2404

> <i_lp_mmshare_version>
43012

> <i_f3d_flags>
0

> <s_epik_input>
W0NIM11bQ0gyXUMoW0NIMl1bQ0gzXSkoQyg9TylbT0hdKVtDSDJdW05IXUMoPU8pW0NIMl1uMW5jKFtDSDNdKVtjSF1jMVtDSDNd

> <s_epik_cmdline>
J2VwaWtfcHl0aG9uJywgJy1waCcsICc3LjAnLCAnLXRuJywgJzgnLCAnLW1hJywgJzIwMCcsICctbWV0YWxfYmluZGluZycsICctaW1hZScsICc8aW5maWxlLm1hZT4nLCAnLW9tYWUnLCAnPG91dGZpbGUubWFlPic=

> <r_lp_tautomer_probability>
1

> <r_epik_Ionization_Penalty>
0.00271888

> <r_epik_Ionization_Penalty_Charging>
0.00235221

> <r_epik_Ionization_Penalty_Neutral>
0.000366676

> <r_epik_State_Penalty>
-0

> <r_epik_Charging_Adjusted_Penalty>
0.00235221

> <i_epik_Tot_Q>
-1

> <i_epik_Tot_abs_Q>
1

> <r_epik_Metal_State_Penalty>
-0

> <b_epik_Metal_Only>
0

> <s_lp_Force_Field>
OPLS_2005

> <r_lp_Energy>
2.14996

> <b_lp_Chiralities_Consistent>
1

> <s_lp_Variant>
AV-unprocessed.smi:2404-1

> <Gold.Version>
5.8.1

> <Gold.Id.Protein>
6NUR|6NUR_protein|mol2

> <Gold.PLP.Fitness>
49.4906

> <Gold.PLP.PLP>
-33.2479

> <Gold.PLP.part.hbond>
-5.9351

> <Gold.PLP.part.metal>
0.0000

> <Gold.PLP.part.buried>
-3.9428

> <Gold.PLP.part.nonpolar>
-24.4175

> <Gold.PLP.part.repulsive>
0.1415

> <Gold.PLP.ligand.clash>
0.0000

> <Gold.PLP.ligand.torsion>
0.4869

> <Gold.PLP.Chemscore.Hbond>
5.6938

> <Gold.PLP.Chemscore.CHOScore>
0.0000

> <Gold.PLP.Chemscore.Metal>
0.0000

> <Gold.Chemscore.Hbonds>
donor molecule, donor type, donor heavy atom, donor atom, acceptor molecule, acceptor atom, score
      P1  H  6896  6909       L1     9  1.00
      P1  H  6931  6943       L1    12  0.95
      P1  H  6934  6947       L1    12  0.53
      P1  H  7989  7998       L1    19  0.33
      P1  H  7997  8009       L1    19  2.00
      P1  H 10752 10763       L1    20  0.78

> <Gold.PLP.Chemscore.Internal.Correction>
0.1351

> <Gold.Rescore>
     Score         DG    S(hbond)    S(metal)    S(lipo)     H(rot)  DE(clash)    DE(int)     intcor
     16.71     -19.28       3.65        0.00      66.51       2.42       0.69       1.87       ----

> <Gold.Chemscore.Fitness>
16.7141

> <Gold.Chemscore.DG>
-19.2773

> <Gold.Chemscore.ZeroCoef>
-5.4800

> <Gold.Chemscore.Hbond>
3.6530

> <Gold.Chemscore.Metal>
0.0000

> <Gold.Chemscore.Lipo>
66.5051

> <Gold.Chemscore.Internal_Hbond>
0.0000

> <Gold.Chemscore.DEClash>
0.6887

> <Gold.Chemscore.DEInternal>
1.8745

> <Gold.Chemscore.Rot>
2.4159

> <Gold.Chemscore.Internal.Correction>
   9.000000E+99

> <Gold.Chemscore.Hbonds>
donor molecule, donor type, donor heavy atom, donor atom, acceptor molecule, acceptor atom, score
      P1  H  6896  6909       L1     9  0.93
      P1  H  6931  6943       L1    12  0.21
      P1  H  6934  6947       L1    12  0.47
      P1  H  7989  7998       L1    19  0.33
      P1  H  7997  8009       L1    19  0.61
      P1  H 10752 10763       L1    20  0.37

> <Gold.Chemscore.Hbond.Weighted>
-12.2010

> <Gold.Chemscore.Metal.Weighted>
-0.0000

> <Gold.Chemscore.Lipo.Weighted>
-7.7811

> <Gold.Chemscore.Internal_Hbond.Weighted>
0.0000

> <Gold.Chemscore.DEClash.Weighted>
0.6887

> <Gold.Chemscore.DEInternal.Weighted>
1.8745

> <Gold.Chemscore.Rot.Weighted>
6.1848

> <Gold.Chemscore.Internal.Correction.Weighted>
   9.000000E+99

> <Gold.Protein.RotatedTorsions>
[ 6907 6896 6895 6894 ] final   82.54 input  -60.11 | X-H torsion
[ 7974 7965 7964 7962 ] final  122.38 input  175.53 | X-H torsion
[ 8008 7997 7996 7995 ] final -137.54 input   59.86 | X-H torsion
[ 10167 10162 10161 10158 ] final -138.31 input  -65.29 | X-H torsion
[ 10718 10713 10712 10709 ] final  -19.63 input   66.30 | X-H torsion
[ 10763 10752 10751 10750 ] final   79.92 input  -60.55 | X-H torsion
[ 11005 11000 10999 10996 ] final  155.22 input  -57.11 | X-H torsion

> <Gold.Protein.ActiveResidues>
 VAL166  LYS551  ARG553  GLY616  TRP617  ASP618  TYR619  PRO620  LYS621  CYS622 
 ASP623  PHE694  ASN695  SER759  ASP760  ASP761  ALA762  ILE779  LEU786  VAL792 
 PHE793  MET794  SER795  GLU796  ALA797  LYS798  CYS799  TRP800  GLU811  SER814 

> <Gold.Protein.RotatedAtoms>
  152.5302  134.3035  159.9086 H   0  0  0  0  0  0  0  0  0  0  0  0  # atno 6907 bound_to 6896
  151.2985  133.4126  159.2645 H   0  0  0  0  0  0  0  0  0  0  0  0  # atno 6908 bound_to 6896
  151.0139  134.9434  159.8079 H   0  0  0  0  0  0  0  0  0  0  0  0  # atno 6909 bound_to 6896
  145.1083  139.3470  143.4776 H   0  0  0  0  0  0  0  0  0  0  0  0  # atno 7974 bound_to 7965
  155.4135  140.0514  157.3030 H   0  0  0  0  0  0  0  0  0  0  0  0  # atno 8008 bound_to 7997
  154.4935  140.2129  155.9456 H   0  0  0  0  0  0  0  0  0  0  0  0  # atno 8009 bound_to 7997
  156.1374  140.3160  155.8447 H   0  0  0  0  0  0  0  0  0  0  0  0  # atno 8010 bound_to 7997
  139.8490  143.7223  152.2659 H   0  0  0  0  0  0  0  0  0  0  0  0  # atno 10167 bound_to 10162
  156.5430  130.4683  149.6489 H   0  0  0  0  0  0  0  0  0  0  0  0  # atno 10718 bound_to 10713
  153.0991  135.4822  154.8834 H   0  0  0  0  0  0  0  0  0  0  0  0  # atno 10763 bound_to 10752
  154.7359  135.3071  154.8815 H   0  0  0  0  0  0  0  0  0  0  0  0  # atno 10764 bound_to 10752
  153.9437  135.6831  153.4797 H   0  0  0  0  0  0  0  0  0  0  0  0  # atno 10765 bound_to 10752
  140.1561  134.8641  157.2516 H   0  0  0  0  0  0  0  0  0  0  0  0  # atno 11005 bound_to 11000
  146.3527  140.0990  142.8609 LP  0  0  0  0  0  0  0  0  0  0  0  0  # atno 17320 bound_to 7965
  145.0876  140.9263  143.4788 LP  0  0  0  0  0  0  0  0  0  0  0  0  # atno 17321 bound_to 7965
  139.7484  144.7541  151.0545 LP  0  0  0  0  0  0  0  0  0  0  0  0  # atno 17342 bound_to 10162
  140.7789  143.4889  150.9919 LP  0  0  0  0  0  0  0  0  0  0  0  0  # atno 17343 bound_to 10162
  156.2954  130.7147  151.2006 LP  0  0  0  0  0  0  0  0  0  0  0  0  # atno 17370 bound_to 10713
  157.7402  131.0520  150.5183 LP  0  0  0  0  0  0  0  0  0  0  0  0  # atno 17371 bound_to 10713
  140.2546  134.3643  155.7429 LP  0  0  0  0  0  0  0  0  0  0  0  0  # atno 17394 bound_to 11000
  141.2204  133.7335  156.8987 LP  0  0  0  0  0  0  0  0  0  0  0  0  # atno 17395 bound_to 11000

$$$$
