AV-unprocessed.smi:199|AV-procd|sdf|1573|dock7
  -GOLD-   2262019453D 1   1.00000     0.00000
 Structure written by MMmdl.
 51 55  0  0  0  0  0  0  0  0  1 V2000
  153.0631  138.7434  154.6508 C   0  0  0  0  0  0  0  0  0  0  0  0
  151.7097  138.6687  155.3761 C   0  0  1  0  0  0  0  0  0  0  0  0
  150.9074  139.8089  155.0707 O   0  0  0  0  0  0  0  0  0  0  0  0
  149.6536  139.3991  154.5430 C   0  0  0  0  0  0  0  0  0  0  0  0
  149.4370  138.0048  155.1168 C   0  0  0  0  0  0  0  0  0  0  0  0
  150.8420  137.4191  155.0980 C   0  0  1  0  0  0  0  0  0  0  0  0
  151.0944  136.9072  153.7989 O   0  0  0  0  0  0  0  0  0  0  0  0
  151.0666  136.2850  156.1262 C   0  0  0  0  0  0  0  0  0  0  0  0
  150.4881  136.5641  157.4316 N   0  0  0  0  0  0  0  0  0  0  0  0
  151.0362  137.3411  158.4260 C   0  0  0  0  0  0  0  0  0  0  0  0
  150.3177  137.4433  159.5100 N   0  0  0  0  0  0  0  0  0  0  0  0
  149.1931  136.6673  159.2531 C   0  0  0  0  0  0  0  0  0  0  0  0
  148.0199  136.3344  159.9911 C   0  0  0  0  0  0  0  0  0  0  0  0
  147.7699  136.7782  161.2523 N   0  0  0  0  0  0  0  0  0  0  0  0
  146.4651  137.2980  161.6300 C   0  0  2  0  0  0  0  0  0  0  0  0
  146.7421  137.8825  163.0260 C   0  0  0  0  0  0  0  0  0  0  0  0
  147.7829  136.8880  163.5680 C   0  0  0  0  0  0  0  0  0  0  0  0
  147.8856  135.8900  162.4000 C   0  0  1  0  0  0  0  0  0  0  0  0
  146.5967  135.0301  162.3772 C   0  0  2  0  0  0  0  0  0  0  0  0
  146.7297  133.7164  161.5833 C   0  0  0  0  0  0  0  0  0  0  0  0
  145.5313  132.9754  161.6668 O   0  0  0  0  0  0  0  0  0  0  0  0
  145.5925  136.0341  161.7748 C   0  0  0  0  0  0  0  0  0  0  0  0
  147.1010  135.5447  159.3737 N   0  0  0  0  0  0  0  0  0  0  0  0
  147.3196  135.0864  158.1385 C   0  0  0  0  0  0  0  0  0  0  0  0
  148.3690  135.3005  157.3441 N   0  0  0  0  0  0  0  0  0  0  0  0
  149.2868  136.1089  157.9459 C   0  0  0  0  0  0  0  0  0  0  0  0
  153.6763  137.8701  154.8747 H   0  0  0  0  0  0  0  0  0  0  0  0
  153.6189  139.6278  154.9624 H   0  0  0  0  0  0  0  0  0  0  0  0
  152.9385  138.8012  153.5693 H   0  0  0  0  0  0  0  0  0  0  0  0
  151.8991  138.7311  156.4484 H   0  0  0  0  0  0  0  0  0  0  0  0
  148.8589  140.0947  154.8128 H   0  0  0  0  0  0  0  0  0  0  0  0
  149.7199  139.3620  153.4549 H   0  0  0  0  0  0  0  0  0  0  0  0
  149.0791  138.0927  156.1437 H   0  0  0  0  0  0  0  0  0  0  0  0
  148.7069  137.4193  154.5562 H   0  0  0  0  0  0  0  0  0  0  0  0
  150.3558  137.1123  153.2460 H   0  0  0  0  0  0  0  0  0  0  0  0
  150.6511  135.3473  155.7545 H   0  0  0  0  0  0  0  0  0  0  0  0
  152.1341  136.1102  156.2658 H   0  0  0  0  0  0  0  0  0  0  0  0
  151.9894  137.8388  158.3194 H   0  0  0  0  0  0  0  0  0  0  0  0
  146.0489  138.0365  160.9438 H   0  0  0  0  0  0  0  0  0  0  0  0
  147.1698  138.8833  162.9534 H   0  0  0  0  0  0  0  0  0  0  0  0
  145.8450  137.9389  163.6438 H   0  0  0  0  0  0  0  0  0  0  0  0
  148.7381  137.3879  163.7336 H   0  0  0  0  0  0  0  0  0  0  0  0
  147.4799  136.4216  164.5061 H   0  0  0  0  0  0  0  0  0  0  0  0
  148.7990  135.3002  162.4544 H   0  0  0  0  0  0  0  0  0  0  0  0
  146.3118  134.7755  163.3993 H   0  0  0  0  0  0  0  0  0  0  0  0
  146.9585  133.8972  160.5336 H   0  0  0  0  0  0  0  0  0  0  0  0
  147.5397  133.1101  161.9897 H   0  0  0  0  0  0  0  0  0  0  0  0
  145.1078  132.9924  160.8221 H   0  0  0  0  0  0  0  0  0  0  0  0
  144.7233  136.1941  162.4137 H   0  0  0  0  0  0  0  0  0  0  0  0
  145.2305  135.7007  160.8014 H   0  0  0  0  0  0  0  0  0  0  0  0
  146.5422  134.4590  157.7278 H   0  0  0  0  0  0  0  0  0  0  0  0
  1  2  1  0  0  0  0
  1 27  1  0  0  0  0
  1 28  1  0  0  0  0
  1 29  1  0  0  0  0
  2  6  1  0  0  0  0
  2  3  1  0  0  0  0
  2 30  1  0  0  0  0
  3  4  1  0  0  0  0
  4  5  1  0  0  0  0
  4 31  1  0  0  0  0
  4 32  1  0  0  0  0
  5  6  1  0  0  0  0
  5 33  1  0  0  0  0
  5 34  1  0  0  0  0
  6  7  1  0  0  0  0
  6  8  1  0  0  0  0
  7 35  1  0  0  0  0
  8  9  1  0  0  0  0
  8 36  1  0  0  0  0
  8 37  1  0  0  0  0
  9 26  1  0  0  0  0
  9 10  1  0  0  0  0
 10 11  2  0  0  0  0
 10 38  1  0  0  0  0
 11 12  1  0  0  0  0
 12 26  2  0  0  0  0
 12 13  1  0  0  0  0
 13 14  1  0  0  0  0
 13 23  2  0  0  0  0
 14 18  1  0  0  0  0
 14 15  1  0  0  0  0
 15 22  1  0  0  0  0
 15 16  1  0  0  0  0
 15 39  1  0  0  0  0
 16 17  1  0  0  0  0
 16 40  1  0  0  0  0
 16 41  1  0  0  0  0
 17 18  1  0  0  0  0
 17 42  1  0  0  0  0
 17 43  1  0  0  0  0
 18 19  1  0  0  0  0
 18 44  1  0  0  0  0
 19 20  1  0  0  0  0
 19 22  1  0  0  0  0
 19 45  1  0  0  0  0
 20 21  1  0  0  0  0
 20 46  1  0  0  0  0
 20 47  1  0  0  0  0
 21 48  1  0  0  0  0
 22 49  1  0  0  0  0
 22 50  1  0  0  0  0
 23 24  1  0  0  0  0
 24 25  2  0  0  0  0
 24 51  1  0  0  0  0
 25 26  1  0  0  0  0
M  END
> <s_m_source_file>
AV-unprocessed.smi

> <i_m_source_file_index>
199

> <i_lp_mmshare_version>
43012

> <i_f3d_flags>
0

> <s_epik_input>
W0NIMl0xW0NIMl1PW0NAQEhdKFtDSDNdKVtDQEBdMShbT0hdKVtDSDJdbihbY0hdbjIpYyhjMjMpbltjSF1uYzNOKFtDQEBIXTQ1KVtDQEhdKFtDSDJdW0NIMl00KVtDQEhdKFtDSDJdNSlbQ0gyXVtPSF0=

> <s_epik_cmdline>
J2VwaWtfcHl0aG9uJywgJy1waCcsICc3LjAnLCAnLXRuJywgJzgnLCAnLW1hJywgJzIwMCcsICctbWV0YWxfYmluZGluZycsICctaW1hZScsICc8aW5maWxlLm1hZT4nLCAnLW9tYWUnLCAnPG91dGZpbGUubWFlPic=

> <r_lp_tautomer_probability>
1

> <r_epik_Ionization_Penalty>
0.00583903

> <r_epik_Ionization_Penalty_Charging>
0

> <r_epik_Ionization_Penalty_Neutral>
0.00583903

> <r_epik_State_Penalty>
-0

> <r_epik_Charging_Adjusted_Penalty>
0

> <i_epik_Tot_Q>
0

> <i_epik_Tot_abs_Q>
0

> <r_epik_Metal_State_Penalty>
-0

> <b_epik_Metal_Only>
0

> <s_lp_Force_Field>
OPLS_2005

> <r_lp_Energy>
83.8114

> <b_lp_Chiralities_Consistent>
1

> <s_lp_Variant>
AV-unprocessed.smi:199-14

> <Gold.Version>
5.8.1

> <Gold.Id.Protein>
6NUR|6NUR_protein|mol2

> <Gold.PLP.Fitness>
48.7657

> <Gold.PLP.PLP>
-41.9789

> <Gold.PLP.part.hbond>
-5.9004

> <Gold.PLP.part.metal>
0.0000

> <Gold.PLP.part.buried>
-1.6459

> <Gold.PLP.part.nonpolar>
-34.5185

> <Gold.PLP.part.repulsive>
0.0475

> <Gold.PLP.ligand.clash>
0.0000

> <Gold.PLP.ligand.torsion>
0.8521

> <Gold.PLP.Chemscore.Hbond>
2.8205

> <Gold.PLP.Chemscore.CHOScore>
0.0000

> <Gold.PLP.Chemscore.Metal>
0.0000

> <Gold.Chemscore.Hbonds>
donor molecule, donor type, donor heavy atom, donor atom, acceptor molecule, acceptor atom, score
      L1  H     7    35       P1  7948  0.37
      P1  H  6931  6943       L1    14  0.86
      P1  H  7989  7998       L1     3  1.00
      P1  H 10752 10764       L1     7  0.36

> <Gold.PLP.Chemscore.Internal.Correction>
0.0296

> <Gold.Rescore>
     Score         DG    S(hbond)    S(metal)    S(lipo)     H(rot)  DE(clash)    DE(int)     intcor
     10.63     -14.48       1.45        0.00     102.75       3.07       0.47       3.39       ----

> <Gold.Chemscore.Fitness>
10.6291

> <Gold.Chemscore.DG>
-14.4844

> <Gold.Chemscore.ZeroCoef>
-5.4800

> <Gold.Chemscore.Hbond>
1.4521

> <Gold.Chemscore.Metal>
0.0000

> <Gold.Chemscore.Lipo>
102.7457

> <Gold.Chemscore.Internal_Hbond>
0.0000

> <Gold.Chemscore.DEClash>
0.4656

> <Gold.Chemscore.DEInternal>
3.3897

> <Gold.Chemscore.Rot>
3.0729

> <Gold.Chemscore.Internal.Correction>
   9.000000E+99

> <Gold.Chemscore.Hbonds>
donor molecule, donor type, donor heavy atom, donor atom, acceptor molecule, acceptor atom, score
      L1  H     7    35       P1  7948  0.02
      P1  H  6931  6943       L1    14  0.05
      P1  H  7989  7998       L1     3  0.20
      P1  H 10752 10764       L1     7  0.19

> <Gold.Chemscore.Hbond.Weighted>
-4.8499

> <Gold.Chemscore.Metal.Weighted>
-0.0000

> <Gold.Chemscore.Lipo.Weighted>
-12.0212

> <Gold.Chemscore.Internal_Hbond.Weighted>
0.0000

> <Gold.Chemscore.DEClash.Weighted>
0.4656

> <Gold.Chemscore.DEInternal.Weighted>
3.3897

> <Gold.Chemscore.Rot.Weighted>
7.8667

> <Gold.Chemscore.Internal.Correction.Weighted>
   9.000000E+99

> <Gold.Protein.RotatedTorsions>
[ 6907 6896 6895 6894 ] final  -81.68 input  -60.11 | X-H torsion
[ 7974 7965 7964 7962 ] final  -63.19 input  175.53 | X-H torsion
[ 8008 7997 7996 7995 ] final -126.45 input   59.86 | X-H torsion
[ 10167 10162 10161 10158 ] final   -9.16 input  -65.29 | X-H torsion
[ 10718 10713 10712 10709 ] final  -35.38 input   66.30 | X-H torsion
[ 10763 10752 10751 10750 ] final  -95.74 input  -60.55 | X-H torsion
[ 11005 11000 10999 10996 ] final   10.51 input  -57.11 | X-H torsion

> <Gold.Protein.ActiveResidues>
 VAL166  LYS551  ARG553  GLY616  TRP617  ASP618  TYR619  PRO620  LYS621  CYS622 
 ASP623  PHE694  ASN695  SER759  ASP760  ASP761  ALA762  ILE779  LEU786  VAL792 
 PHE793  MET794  SER795  GLU796  ALA797  LYS798  CYS799  TRP800  GLU811  SER814 

> <Gold.Protein.RotatedAtoms>
  150.6908  134.3780  159.5021 H   0  0  0  0  0  0  0  0  0  0  0  0  # atno 6907 bound_to 6896
  152.1586  134.8927  160.0552 H   0  0  0  0  0  0  0  0  0  0  0  0  # atno 6908 bound_to 6896
  151.9998  133.3786  159.4214 H   0  0  0  0  0  0  0  0  0  0  0  0  # atno 6909 bound_to 6896
  145.7820  140.8756  143.0325 H   0  0  0  0  0  0  0  0  0  0  0  0  # atno 7974 bound_to 7965
  155.2300  140.0425  157.2961 H   0  0  0  0  0  0  0  0  0  0  0  0  # atno 8008 bound_to 7997
  154.5895  140.2423  155.7911 H   0  0  0  0  0  0  0  0  0  0  0  0  # atno 8009 bound_to 7997
  156.2249  140.2958  156.0051 H   0  0  0  0  0  0  0  0  0  0  0  0  # atno 8010 bound_to 7997
  140.7079  143.5888  150.8915 H   0  0  0  0  0  0  0  0  0  0  0  0  # atno 10167 bound_to 10162
  156.3393  130.4291  149.7802 H   0  0  0  0  0  0  0  0  0  0  0  0  # atno 10718 bound_to 10713
  154.7176  135.5109  153.8762 H   0  0  0  0  0  0  0  0  0  0  0  0  # atno 10763 bound_to 10752
  153.0834  135.6638  154.0007 H   0  0  0  0  0  0  0  0  0  0  0  0  # atno 10764 bound_to 10752
  153.9836  135.3026  155.3397 H   0  0  0  0  0  0  0  0  0  0  0  0  # atno 10765 bound_to 10752
  140.5136  134.0628  155.7825 H   0  0  0  0  0  0  0  0  0  0  0  0  # atno 11005 bound_to 11000
  144.6795  140.0003  143.7484 LP  0  0  0  0  0  0  0  0  0  0  0  0  # atno 17320 bound_to 7965
  146.0064  139.3133  143.0897 LP  0  0  0  0  0  0  0  0  0  0  0  0  # atno 17321 bound_to 7965
  139.9614  143.6159  152.3001 LP  0  0  0  0  0  0  0  0  0  0  0  0  # atno 17342 bound_to 10162
  139.6713  144.7660  151.1777 LP  0  0  0  0  0  0  0  0  0  0  0  0  # atno 17343 bound_to 10162
  156.5044  130.8143  151.3145 LP  0  0  0  0  0  0  0  0  0  0  0  0  # atno 17370 bound_to 10713
  157.7444  130.9934  150.2671 LP  0  0  0  0  0  0  0  0  0  0  0  0  # atno 17371 bound_to 10713
  141.1372  133.9201  157.2407 LP  0  0  0  0  0  0  0  0  0  0  0  0  # atno 17394 bound_to 11000
  139.9645  135.0145  156.9349 LP  0  0  0  0  0  0  0  0  0  0  0  0  # atno 17395 bound_to 11000

$$$$
