#       Name:                AV-unprocessed.smi:1926
#       Creating user name   scv26
#       Creation time:       Fri Mar 27 09:53:53 2020


#       File generated by GOLD software.
#

@<TRIPOS>MOLECULE
AV-unprocessed.smi:1926
    42    43     1
SMALL
NO_CHARGES


@<TRIPOS>ATOM
      1 ****        -3.0763  -3.9328   0.3148 C.3            1 S1                 0.0000
      2 ****        -2.3965  -2.6885   0.4402 O.3            1 S1                 0.0000
      3 ****        -3.1153  -1.5218   0.2598 C.ar           1 S1                 0.0000
      4 ****        -4.4353  -1.6191  -0.0381 N.ar           1 S1                 0.0000
      5 ****        -5.1406  -0.4830  -0.2111 C.ar           1 S1                 0.0000
      6 ****        -4.5747   0.7991  -0.0939 C.ar           1 S1                 0.0000
      7 ****        -3.2059   0.9031   0.2150 C.ar           1 S1                 0.0000
      8 ****        -2.4478  -0.2810   0.3922 C.ar           1 S1                 0.0000
      9 ****        -1.0602  -0.3088   0.7125 N.am           1 S1                 0.0000
     10 ****        -0.1656   0.6939   0.7470 C.2            1 S1                 0.0000
     11 ****        -0.4003   1.8763   0.5013 O.2            1 S1                 0.0000
     12 ****         1.0506   0.2397   1.0805 N.am           1 S1                 0.0000
     13 ****         2.2503   1.0621   1.1993 C.3            1 S1                 0.0000
     14 ****         2.8477   1.4219  -0.1748 C.3            1 S1                 0.0000
     15 ****         3.2854   0.2349  -1.0103 C.3            1 S1                 0.0000
     16 ****         4.2272   0.8919  -2.0143 C.3            1 S1                 0.0000
     17 ****         4.8272   1.9850  -1.3251 O.3            1 S1                 0.0000
     18 ****         4.1472   2.2224  -0.0955 C.3            1 S1                 0.0000
     19 ****        -2.3728  -4.7465   0.4896 H              1 S1                 0.0000
     20 ****        -3.4902  -4.0627  -0.6861 H              1 S1                 0.0000
     21 ****        -3.8777  -4.0256   1.0492 H              1 S1                 0.0000
     22 ****        -6.1879  -0.5998  -0.4469 H              1 S1                 0.0000
     23 ****        -5.1776   1.6839  -0.2352 H              1 S1                 0.0000
     24 ****        -2.7796   1.8880   0.3142 H              1 S1                 0.0000
     25 ****        -0.6925  -1.2277   0.9121 H              1 S1                 0.0000
     26 ****         1.1562  -0.7474   1.2640 H              1 S1                 0.0000
     27 ****         2.0229   1.9692   1.7616 H              1 S1                 0.0000
     28 ****         2.9792   0.5083   1.7915 H              1 S1                 0.0000
     29 ****         2.1240   2.0023  -0.7498 H              1 S1                 0.0000
     30 ****         3.8324  -0.4826  -0.3970 H              1 S1                 0.0000
     31 ****         2.4544  -0.2853  -1.4878 H              1 S1                 0.0000
     32 ****         4.9774   0.1999  -2.3972 H              1 S1                 0.0000
     33 ****         3.6643   1.2844  -2.8621 H              1 S1                 0.0000
     34 ****         3.9718   3.2868   0.0634 H              1 S1                 0.0000
     35 ****         4.7770   1.8597   0.7180 H              1 S1                 0.0000
     36 ****        -1.6575  -2.6869  -0.2336 LP             1 S1                 0.0000
     37 ****        -2.0079  -2.6562   1.3610 LP             1 S1                 0.0000
     38 ****        -4.8750  -2.5128  -0.1273 LP             1 S1                 0.0000
     39 ****        -1.3253   2.1606   0.2493 LP             1 S1                 0.0000
     40 ****         0.3340   2.5531   0.5535 LP             1 S1                 0.0000
     41 ****         4.7745   2.8046  -1.8957 LP             1 S1                 0.0000
     42 ****         5.7858   1.7711  -1.1369 LP             1 S1                 0.0000
@<TRIPOS>BOND
    1    1    2 1     
    2    1   19 1     
    3    1   20 1     
    4    1   21 1     
    5    2    3 1     
    6    3    8 ar    
    7    3    4 ar    
    8    4    5 ar    
    9    5    6 ar    
   10    5   22 1     
   11    6    7 ar    
   12    6   23 1     
   13    7    8 ar    
   14    7   24 1     
   15    8    9 1     
   16    9   10 am    
   17    9   25 1     
   18   10   11 2     
   19   10   12 am    
   20   12   13 1     
   21   12   26 1     
   22   13   14 1     
   23   13   27 1     
   24   13   28 1     
   25   14   18 1     
   26   14   15 1     
   27   14   29 1     
   28   15   16 1     
   29   15   30 1     
   30   15   31 1     
   31   16   17 1     
   32   16   32 1     
   33   16   33 1     
   34   17   18 1     
   35   18   34 1     
   36   18   35 1     
   37    2   36 1     
   38    2   37 1     
   39    4   38 1     
   40   11   39 1     
   41   11   40 1     
   42   17   41 1     
   43   17   42 1     
@<TRIPOS>SUBSTRUCTURE
      1 S1             1
@<TRIPOS>SET
LONE_PAIRS      STATIC     ATOMS    <user>   **** ""
7 36 37 38 39 40 41 42
DONOR_HYDROGENS      STATIC     ATOMS    <user>   **** ""
2 25 26
ATOM$BLUE        STATIC     ATOMS    COLORGROUP SYSTEM
7 36 37 38 39 40 41 42
ATOM$RED        STATIC     ATOMS    COLORGROUP SYSTEM
2 25 26
