AV-unprocessed.smi:2855|AV-procd|sdf|10982|dock10
  -GOLD-   2272015433D 1   1.00000     0.00000
 Structure written by MMmdl.
 47 48  0  0  0  0  0  0  0  0  1 V2000
  155.5103  141.3278  160.6237 C   0  0  0  0  0  0  0  0  0  0  0  0
  154.0643  140.8883  160.9139 C   0  0  1  0  0  0  0  0  0  0  0  0
  153.2780  141.9288  161.7317 C   0  0  0  0  0  0  0  0  0  0  0  0
  152.8942  143.1626  160.8985 C   0  0  0  0  0  0  0  0  0  0  0  0
  152.0952  142.7816  159.6293 C   0  0  1  0  0  0  0  0  0  0  0  0
  151.6092  144.0188  158.8146 C   0  0  0  0  0  0  0  0  0  0  0  0
  152.7484  144.8935  158.2593 C   0  0  0  0  0  0  0  0  0  0  0  0
  150.5985  144.8769  159.5957 C   0  0  0  0  0  0  0  0  0  0  0  0
  152.8921  141.7433  158.7900 C   0  0  2  0  0  0  0  0  0  0  0  0
  152.1056  141.2806  157.6476 N   0  0  0  0  0  0  0  0  0  0  0  0
  152.5427  140.4856  156.6585 C   0  0  0  0  0  0  0  0  0  0  0  0
  153.6777  140.0090  156.6196 O   0  0  0  0  0  0  0  0  0  0  0  0
  151.5316  140.1730  155.5474 C   0  0  0  0  0  0  0  0  0  0  0  0
  151.5345  138.7531  155.1689 N   0  0  0  0  0  0  0  0  0  0  0  0
  152.1346  137.8086  155.9896 C   0  0  0  0  0  0  0  0  0  0  0  0
  152.1864  136.4885  155.6924 C   0  0  0  0  0  0  0  0  0  0  0  0
  151.5948  135.9853  154.4572 C   0  0  0  0  0  0  0  0  0  0  0  0
  151.5899  134.8090  154.1010 O   0  0  0  0  0  0  0  0  0  0  0  0
  151.0023  136.9664  153.6579 N   0  0  0  0  0  0  0  0  0  0  0  0
  150.9473  138.3286  153.9568 C   0  0  0  0  0  0  0  0  0  0  0  0
  150.4039  139.1114  153.1780 O   0  0  0  0  0  0  0  0  0  0  0  0
  153.2883  140.5157  159.6368 C   0  0  0  0  0  0  0  0  0  0  0  0
  150.5816  136.6654  152.7908 H   0  0  0  0  0  0  0  0  0  0  0  0
  155.5530  142.2291  160.0129 H   0  0  0  0  0  0  0  0  0  0  0  0
  156.0564  140.5463  160.0949 H   0  0  0  0  0  0  0  0  0  0  0  0
  156.0487  141.5325  161.5494 H   0  0  0  0  0  0  0  0  0  0  0  0
  154.1371  139.9864  161.5233 H   0  0  0  0  0  0  0  0  0  0  0  0
  152.3684  141.4663  162.1166 H   0  0  0  0  0  0  0  0  0  0  0  0
  153.8536  142.2336  162.6064 H   0  0  0  0  0  0  0  0  0  0  0  0
  152.3119  143.8334  161.5290 H   0  0  0  0  0  0  0  0  0  0  0  0
  153.7971  143.7088  160.6271 H   0  0  0  0  0  0  0  0  0  0  0  0
  151.1938  142.2704  159.9723 H   0  0  0  0  0  0  0  0  0  0  0  0
  151.0559  143.6483  157.9516 H   0  0  0  0  0  0  0  0  0  0  0  0
  153.3259  145.3608  159.0567 H   0  0  0  0  0  0  0  0  0  0  0  0
  152.3506  145.6943  157.6355 H   0  0  0  0  0  0  0  0  0  0  0  0
  153.4357  144.3198  157.6387 H   0  0  0  0  0  0  0  0  0  0  0  0
  151.0624  145.3865  160.4398 H   0  0  0  0  0  0  0  0  0  0  0  0
  149.7772  144.2709  159.9788 H   0  0  0  0  0  0  0  0  0  0  0  0
  150.1641  145.6443  158.9543 H   0  0  0  0  0  0  0  0  0  0  0  0
  153.8122  142.2126  158.4418 H   0  0  0  0  0  0  0  0  0  0  0  0
  151.1541  141.6136  157.5934 H   0  0  0  0  0  0  0  0  0  0  0  0
  150.5430  140.4743  155.8961 H   0  0  0  0  0  0  0  0  0  0  0  0
  151.7297  140.7926  154.6701 H   0  0  0  0  0  0  0  0  0  0  0  0
  152.5906  138.1360  156.9131 H   0  0  0  0  0  0  0  0  0  0  0  0
  152.6695  135.8013  156.3720 H   0  0  0  0  0  0  0  0  0  0  0  0
  153.8768  139.8203  159.0365 H   0  0  0  0  0  0  0  0  0  0  0  0
  152.3854  139.9739  159.9233 H   0  0  0  0  0  0  0  0  0  0  0  0
  1  2  1  0  0  0  0
  1 24  1  0  0  0  0
  1 25  1  0  0  0  0
  1 26  1  0  0  0  0
  2 22  1  0  0  0  0
  2  3  1  0  0  0  0
  2 27  1  0  0  0  0
  3  4  1  0  0  0  0
  3 28  1  0  0  0  0
  3 29  1  0  0  0  0
  4  5  1  0  0  0  0
  4 30  1  0  0  0  0
  4 31  1  0  0  0  0
  5  6  1  0  0  0  0
  5  9  1  0  0  0  0
  5 32  1  0  0  0  0
  6  7  1  0  0  0  0
  6  8  1  0  0  0  0
  6 33  1  0  0  0  0
  7 34  1  0  0  0  0
  7 35  1  0  0  0  0
  7 36  1  0  0  0  0
  8 37  1  0  0  0  0
  8 38  1  0  0  0  0
  8 39  1  0  0  0  0
  9 10  1  0  0  0  0
  9 22  1  0  0  0  0
  9 40  1  0  0  0  0
 10 11  1  0  0  0  0
 10 41  1  0  0  0  0
 11 12  2  0  0  0  0
 11 13  1  0  0  0  0
 13 14  1  0  0  0  0
 13 42  1  0  0  0  0
 13 43  1  0  0  0  0
 14 20  1  0  0  0  0
 14 15  1  0  0  0  0
 15 16  2  0  0  0  0
 15 44  1  0  0  0  0
 16 17  1  0  0  0  0
 16 45  1  0  0  0  0
 17 18  2  0  0  0  0
 17 19  1  0  0  0  0
 19 23  1  0  0  0  0
 19 20  1  0  0  0  0
 20 21  2  0  0  0  0
 22 46  1  0  0  0  0
 22 47  1  0  0  0  0
M  END
> <s_m_source_file>
AV-unprocessed.smi

> <i_m_source_file_index>
2855

> <i_lp_mmshare_version>
43012

> <i_f3d_flags>
0

> <s_epik_input>
W0NIM11bQ0BASF0xW0NIMl1bQ0gyXVtDQEBIXShbQ0hdKFtDSDNdKVtDSDNdKVtDQEhdKFtDSDJdMSlbTkhdQyg9TylbQ0gyXW4yW2NIXVtjSF1jKD1PKVtuSF1jMj1P

> <s_epik_cmdline>
J2VwaWtfcHl0aG9uJywgJy1waCcsICc3LjAnLCAnLXRuJywgJzgnLCAnLW1hJywgJzIwMCcsICctbWV0YWxfYmluZGluZycsICctaW1hZScsICc8aW5maWxlLm1hZT4nLCAnLW9tYWUnLCAnPG91dGZpbGUubWFlPic=

> <r_lp_tautomer_probability>
0.999537

> <r_epik_Ionization_Penalty>
0.00306256

> <r_epik_Ionization_Penalty_Charging>
0.00306254

> <r_epik_Ionization_Penalty_Neutral>
2.0223e-08

> <r_epik_State_Penalty>
0.0021533

> <r_epik_Charging_Adjusted_Penalty>
0.00521583

> <i_epik_Tot_Q>
0

> <i_epik_Tot_abs_Q>
0

> <r_epik_Metal_State_Penalty>
0.362116

> <b_epik_Metal_Only>
0

> <s_lp_Force_Field>
OPLS_2005

> <r_lp_Energy>
15.8562

> <b_lp_Chiralities_Consistent>
1

> <s_lp_Variant>
AV-unprocessed.smi:2855-6

> <Gold.Version>
5.8.1

> <Gold.Id.Protein>
6NUR|6NUR_protein|mol2

> <Gold.PLP.Fitness>
46.5960

> <Gold.PLP.PLP>
-41.7823

> <Gold.PLP.part.hbond>
-1.9547

> <Gold.PLP.part.metal>
0.0000

> <Gold.PLP.part.buried>
-5.3593

> <Gold.PLP.part.nonpolar>
-36.3853

> <Gold.PLP.part.repulsive>
1.8700

> <Gold.PLP.ligand.clash>
0.0000

> <Gold.PLP.ligand.torsion>
0.4925

> <Gold.PLP.Chemscore.Hbond>
1.9120

> <Gold.PLP.Chemscore.CHOScore>
0.0000

> <Gold.PLP.Chemscore.Metal>
0.0000

> <Gold.Chemscore.Hbonds>
donor molecule, donor type, donor heavy atom, donor atom, acceptor molecule, acceptor atom, score
      L1  H    19    23       P1  7949  0.13
      P1  H  7989  7998       L1    21  0.49

> <Gold.PLP.Chemscore.Internal.Correction>
0.0628

> <Gold.Rescore>
     Score         DG    S(hbond)    S(metal)    S(lipo)     H(rot)  DE(clash)    DE(int)     intcor
     17.48     -19.07       1.50        0.00     113.83       1.85       0.11       1.48       ----

> <Gold.Chemscore.Fitness>
17.4791

> <Gold.Chemscore.DG>
-19.0685

> <Gold.Chemscore.ZeroCoef>
-5.4800

> <Gold.Chemscore.Hbond>
1.5020

> <Gold.Chemscore.Metal>
0.0000

> <Gold.Chemscore.Lipo>
113.8268

> <Gold.Chemscore.Internal_Hbond>
0.0000

> <Gold.Chemscore.DEClash>
0.1125

> <Gold.Chemscore.DEInternal>
1.4769

> <Gold.Chemscore.Rot>
1.8539

> <Gold.Chemscore.Internal.Correction>
   9.000000E+99

> <Gold.Chemscore.Hbonds>
donor molecule, donor type, donor heavy atom, donor atom, acceptor molecule, acceptor atom, score
      P1  H  7989  7998       L1    21  0.15

> <Gold.Chemscore.Hbond.Weighted>
-5.0167

> <Gold.Chemscore.Metal.Weighted>
-0.0000

> <Gold.Chemscore.Lipo.Weighted>
-13.3177

> <Gold.Chemscore.Internal_Hbond.Weighted>
0.0000

> <Gold.Chemscore.DEClash.Weighted>
0.1125

> <Gold.Chemscore.DEInternal.Weighted>
1.4769

> <Gold.Chemscore.Rot.Weighted>
4.7460

> <Gold.Chemscore.Internal.Correction.Weighted>
   9.000000E+99

> <Gold.Protein.RotatedTorsions>
[ 6907 6896 6895 6894 ] final -118.29 input  -60.11 | X-H torsion
[ 7974 7965 7964 7962 ] final  173.01 input  175.53 | X-H torsion
[ 8008 7997 7996 7995 ] final  -45.39 input   59.86 | X-H torsion
[ 10167 10162 10161 10158 ] final  -79.09 input  -65.29 | X-H torsion
[ 10718 10713 10712 10709 ] final -113.27 input   66.30 | X-H torsion
[ 10763 10752 10751 10750 ] final  -63.45 input  -60.55 | X-H torsion
[ 11005 11000 10999 10996 ] final -155.34 input  -57.11 | X-H torsion

> <Gold.Protein.ActiveResidues>
 VAL166  LYS551  ARG553  GLY616  TRP617  ASP618  TYR619  PRO620  LYS621  CYS622 
 ASP623  PHE694  ASN695  SER759  ASP760  ASP761  ALA762  ILE779  LEU786  VAL792 
 PHE793  MET794  SER795  GLU796  ALA797  LYS798  CYS799  TRP800  GLU811  SER814 

> <Gold.Protein.RotatedAtoms>
  150.8207  133.8258  159.3140 H   0  0  0  0  0  0  0  0  0  0  0  0  # atno 6907 bound_to 6896
  151.6016  135.1045  160.0071 H   0  0  0  0  0  0  0  0  0  0  0  0  # atno 6908 bound_to 6896
  152.4296  133.7214  159.6592 H   0  0  0  0  0  0  0  0  0  0  0  0  # atno 6909 bound_to 6896
  144.7254  139.9583  143.6434 H   0  0  0  0  0  0  0  0  0  0  0  0  # atno 7974 bound_to 7965
  154.4001  140.1398  156.3840 H   0  0  0  0  0  0  0  0  0  0  0  0  # atno 8008 bound_to 7997
  155.7977  140.3477  155.5364 H   0  0  0  0  0  0  0  0  0  0  0  0  # atno 8009 bound_to 7997
  155.8515  140.0942  157.1662 H   0  0  0  0  0  0  0  0  0  0  0  0  # atno 8010 bound_to 7997
  140.4624  143.2450  151.8329 H   0  0  0  0  0  0  0  0  0  0  0  0  # atno 10167 bound_to 10162
  156.0757  130.5964  150.8620 H   0  0  0  0  0  0  0  0  0  0  0  0  # atno 10718 bound_to 10713
  154.3152  135.6207  153.5483 H   0  0  0  0  0  0  0  0  0  0  0  0  # atno 10763 bound_to 10752
  152.9825  135.5711  154.5132 H   0  0  0  0  0  0  0  0  0  0  0  0  # atno 10764 bound_to 10752
  154.4789  135.2862  155.1562 H   0  0  0  0  0  0  0  0  0  0  0  0  # atno 10765 bound_to 10752
  140.6876  134.4077  157.5222 H   0  0  0  0  0  0  0  0  0  0  0  0  # atno 11005 bound_to 11000
  146.0657  139.3648  143.0554 LP  0  0  0  0  0  0  0  0  0  0  0  0  # atno 17320 bound_to 7965
  145.8034  140.9760  143.0987 LP  0  0  0  0  0  0  0  0  0  0  0  0  # atno 17321 bound_to 7965
  139.4808  144.4992  151.9083 LP  0  0  0  0  0  0  0  0  0  0  0  0  # atno 17342 bound_to 10162
  140.4077  144.2410  150.5890 LP  0  0  0  0  0  0  0  0  0  0  0  0  # atno 17343 bound_to 10162
  157.5850  131.0945  150.9210 LP  0  0  0  0  0  0  0  0  0  0  0  0  # atno 17370 bound_to 10713
  156.9398  130.5380  149.5280 LP  0  0  0  0  0  0  0  0  0  0  0  0  # atno 17371 bound_to 10713
  139.8933  134.8734  156.2230 LP  0  0  0  0  0  0  0  0  0  0  0  0  # atno 17394 bound_to 11000
  141.0267  133.7011  156.1360 LP  0  0  0  0  0  0  0  0  0  0  0  0  # atno 17395 bound_to 11000

$$$$
