AV-unprocessed.smi:1788|AV-procd|sdf|7210|dock1
  -GOLD-   22720 8453D 1   1.00000     0.00000
 Structure written by MMmdl.
 55 57  0  0  0  0  0  0  0  0  2 V2000
  144.6957  132.4630  150.5639 C   0  0  0  0  0  0  0  0  0  0  0  0
  145.8500  131.6143  151.1150 C   0  0  2  0  0  0  0  0  0  0  0  0
  145.3300  130.3539  151.8265 C   0  0  0  0  0  0  0  0  0  0  0  0
  146.5021  129.5390  152.3871 C   0  0  0  0  0  0  0  0  0  0  0  0
  147.3851  130.4031  153.3012 C   0  0  0  0  0  0  0  0  0  0  0  0
  147.8756  131.6100  152.5870 N   0  3  2  0  0  0  0  0  0  0  0  0
  148.8400  132.3901  153.4027 C   0  0  0  0  0  0  0  0  0  0  0  0
  148.1463  133.4576  154.2709 C   0  0  0  0  0  0  0  0  0  0  0  0
  148.7837  134.7615  154.1282 N   0  0  0  0  0  0  0  0  0  0  0  0
  149.3561  135.4515  155.1252 C   0  0  0  0  0  0  0  0  0  0  0  0
  149.4101  135.0411  156.2839 O   0  0  0  0  0  0  0  0  0  0  0  0
  149.8385  136.6265  154.6848 N   0  0  0  0  0  0  0  0  0  0  0  0
  150.5098  137.6517  155.4065 C   0  0  0  0  0  0  0  0  0  0  0  0
  151.3978  138.5948  154.8377 C   0  0  0  0  0  0  0  0  0  0  0  0
  151.9844  139.5682  155.6693 C   0  0  0  0  0  0  0  0  0  0  0  0
  151.6677  139.5866  157.0484 C   0  0  0  0  0  0  0  0  0  0  0  0
  152.2420  140.5561  157.9003 N   0  0  0  0  0  0  0  0  0  0  0  0
  151.3771  141.6771  158.2615 C   0  0  0  0  0  0  0  0  0  0  0  0
  152.1983  142.7970  158.9240 C   0  0  0  0  0  0  0  0  0  0  0  0
  152.9163  142.2749  160.0366 O   0  0  0  0  0  0  0  0  0  0  0  0
  153.8367  141.2629  159.6431 C   0  0  0  0  0  0  0  0  0  0  0  0
  153.0747  140.0878  159.0075 C   0  0  0  0  0  0  0  0  0  0  0  0
  150.8154  138.6816  157.5886 N   0  0  0  0  0  0  0  0  0  0  0  0
  150.2550  137.7513  156.7886 C   0  0  0  0  0  0  0  0  0  0  0  0
  146.7492  132.4311  152.0652 C   0  0  0  0  0  0  0  0  0  0  0  0
  144.0441  132.8143  151.3647 H   0  0  0  0  0  0  0  0  0  0  0  0
  144.0854  131.8897  149.8655 H   0  0  0  0  0  0  0  0  0  0  0  0
  145.0700  133.3380  150.0318 H   0  0  0  0  0  0  0  0  0  0  0  0
  146.4575  131.2973  150.2657 H   0  0  0  0  0  0  0  0  0  0  0  0
  144.6572  130.6343  152.6383 H   0  0  0  0  0  0  0  0  0  0  0  0
  144.7485  129.7411  151.1367 H   0  0  0  0  0  0  0  0  0  0  0  0
  146.1255  128.6771  152.9389 H   0  0  0  0  0  0  0  0  0  0  0  0
  147.1007  129.1430  151.5658 H   0  0  0  0  0  0  0  0  0  0  0  0
  146.8281  130.7051  154.1897 H   0  0  0  0  0  0  0  0  0  0  0  0
  148.2312  129.8063  153.6440 H   0  0  0  0  0  0  0  0  0  0  0  0
  149.4355  131.7094  154.0132 H   0  0  0  0  0  0  0  0  0  0  0  0
  149.5410  132.9010  152.7410 H   0  0  0  0  0  0  0  0  0  0  0  0
  147.1028  133.5580  153.9716 H   0  0  0  0  0  0  0  0  0  0  0  0
  148.1404  133.1769  155.3246 H   0  0  0  0  0  0  0  0  0  0  0  0
  148.7792  135.1737  153.2063 H   0  0  0  0  0  0  0  0  0  0  0  0
  149.6674  136.8347  153.7119 H   0  0  0  0  0  0  0  0  0  0  0  0
  151.6391  138.6029  153.7869 H   0  0  0  0  0  0  0  0  0  0  0  0
  152.6764  140.2780  155.2413 H   0  0  0  0  0  0  0  0  0  0  0  0
  150.8598  142.0858  157.3952 H   0  0  0  0  0  0  0  0  0  0  0  0
  150.6097  141.3208  158.9500 H   0  0  0  0  0  0  0  0  0  0  0  0
  152.8896  143.2470  158.2095 H   0  0  0  0  0  0  0  0  0  0  0  0
  151.5373  143.5917  159.2700 H   0  0  0  0  0  0  0  0  0  0  0  0
  154.5704  141.6731  158.9473 H   0  0  0  0  0  0  0  0  0  0  0  0
  154.3865  140.9221  160.5205 H   0  0  0  0  0  0  0  0  0  0  0  0
  152.4426  139.6053  159.7546 H   0  0  0  0  0  0  0  0  0  0  0  0
  153.7904  139.3441  158.6549 H   0  0  0  0  0  0  0  0  0  0  0  0
  149.5805  137.0602  157.2729 H   0  0  0  0  0  0  0  0  0  0  0  0
  147.1350  133.2971  151.5282 H   0  0  0  0  0  0  0  0  0  0  0  0
  146.1632  132.8164  152.9014 H   0  0  0  0  0  0  0  0  0  0  0  0
  148.3884  131.2708  151.7857 H   0  0  0  0  0  0  0  0  0  0  0  0
  1  2  1  0  0  0  0
  1 26  1  0  0  0  0
  1 27  1  0  0  0  0
  1 28  1  0  0  0  0
  2 25  1  0  0  0  0
  2  3  1  0  0  0  0
  2 29  1  0  0  0  0
  3  4  1  0  0  0  0
  3 30  1  0  0  0  0
  3 31  1  0  0  0  0
  4  5  1  0  0  0  0
  4 32  1  0  0  0  0
  4 33  1  0  0  0  0
  5  6  1  0  0  0  0
  5 34  1  0  0  0  0
  5 35  1  0  0  0  0
  6  7  1  0  0  0  0
  6 25  1  0  0  0  0
  6 55  1  0  0  0  0
  7  8  1  0  0  0  0
  7 36  1  0  0  0  0
  7 37  1  0  0  0  0
  8  9  1  0  0  0  0
  8 38  1  0  0  0  0
  8 39  1  0  0  0  0
  9 10  1  0  0  0  0
  9 40  1  0  0  0  0
 10 11  2  0  0  0  0
 10 12  1  0  0  0  0
 12 13  1  0  0  0  0
 12 41  1  0  0  0  0
 13 24  1  0  0  0  0
 13 14  2  0  0  0  0
 14 15  1  0  0  0  0
 14 42  1  0  0  0  0
 15 16  2  0  0  0  0
 15 43  1  0  0  0  0
 16 17  1  0  0  0  0
 16 23  1  0  0  0  0
 17 22  1  0  0  0  0
 17 18  1  0  0  0  0
 18 19  1  0  0  0  0
 18 44  1  0  0  0  0
 18 45  1  0  0  0  0
 19 20  1  0  0  0  0
 19 46  1  0  0  0  0
 19 47  1  0  0  0  0
 20 21  1  0  0  0  0
 21 22  1  0  0  0  0
 21 48  1  0  0  0  0
 21 49  1  0  0  0  0
 22 50  1  0  0  0  0
 22 51  1  0  0  0  0
 23 24  2  0  0  0  0
 24 52  1  0  0  0  0
 25 53  1  0  0  0  0
 25 54  1  0  0  0  0
M  CHG  1   6   1
M  END
> <s_m_source_file>
AV-unprocessed.smi

> <i_m_source_file_index>
1788

> <i_lp_mmshare_version>
43012

> <i_f3d_flags>
0

> <s_epik_input>
W0NIM11bQ0BASF0xW0NIMl1bQ0gyXVtDSDJdTihbQ0gyXTEpW0NIMl1bQ0gyXVtOSF1DKD1PKVtOSF1jMltjSF1bY0hdYyhuW2NIXTIpTjNbQ0gyXVtDSDJdT1tDSDJdW0NIMl0z

> <s_epik_cmdline>
J2VwaWtfcHl0aG9uJywgJy1waCcsICc3LjAnLCAnLXRuJywgJzgnLCAnLW1hJywgJzIwMCcsICctbWV0YWxfYmluZGluZycsICctaW1hZScsICc8aW5maWxlLm1hZT4nLCAnLW9tYWUnLCAnPG91dGZpbGUubWFlPic=

> <r_lp_tautomer_probability>
1

> <r_epik_Ionization_Penalty>
0.00340126

> <r_epik_Ionization_Penalty_Charging>
0.00171832

> <r_epik_Ionization_Penalty_Neutral>
0.00168294

> <r_epik_State_Penalty>
-0

> <r_epik_Charging_Adjusted_Penalty>
0.00171832

> <i_epik_Tot_Q>
1

> <i_epik_Tot_abs_Q>
1

> <r_epik_Metal_State_Penalty>
-0

> <b_epik_Metal_Only>
0

> <s_lp_Force_Field>
OPLS_2005

> <r_lp_Energy>
34.1059

> <b_lp_Chiralities_Consistent>
1

> <s_lp_Variant>
AV-unprocessed.smi:1788-1

> <Gold.Version>
5.8.1

> <Gold.Id.Protein>
6NUR|6NUR_protein|mol2

> <Gold.PLP.Fitness>
51.1865

> <Gold.PLP.PLP>
-43.9719

> <Gold.PLP.part.hbond>
-3.0000

> <Gold.PLP.part.metal>
0.0000

> <Gold.PLP.part.buried>
-6.7904

> <Gold.PLP.part.nonpolar>
-34.4379

> <Gold.PLP.part.repulsive>
0.0656

> <Gold.PLP.ligand.clash>
0.0000

> <Gold.PLP.ligand.torsion>
1.0320

> <Gold.PLP.Chemscore.Hbond>
2.9516

> <Gold.PLP.Chemscore.CHOScore>
0.0000

> <Gold.PLP.Chemscore.Metal>
0.0000

> <Gold.Chemscore.Hbonds>
donor molecule, donor type, donor heavy atom, donor atom, acceptor molecule, acceptor atom, score
      L1  H     6    55       P1 10747  1.00
      L1  H     9    40       P1  7948  1.00
      L1  H    12    41       P1  7948  0.97

> <Gold.PLP.Chemscore.Internal.Correction>
0.4238

> <Gold.Rescore>
     Score         DG    S(hbond)    S(metal)    S(lipo)     H(rot)  DE(clash)    DE(int)     intcor
     21.50     -23.84       2.69        0.00     115.09       1.60       0.01       2.33       ----

> <Gold.Chemscore.Fitness>
21.5003

> <Gold.Chemscore.DG>
-23.8446

> <Gold.Chemscore.ZeroCoef>
-5.4800

> <Gold.Chemscore.Hbond>
2.6914

> <Gold.Chemscore.Metal>
0.0000

> <Gold.Chemscore.Lipo>
115.0859

> <Gold.Chemscore.Internal_Hbond>
0.0000

> <Gold.Chemscore.DEClash>
0.0115

> <Gold.Chemscore.DEInternal>
2.3327

> <Gold.Chemscore.Rot>
1.5976

> <Gold.Chemscore.Internal.Correction>
   9.000000E+99

> <Gold.Chemscore.Hbonds>
donor molecule, donor type, donor heavy atom, donor atom, acceptor molecule, acceptor atom, score
      L1  H     6    55       P1 10747  1.00
      L1  H     9    40       P1  7948  0.60
      L1  H    12    41       P1  7948  0.60

> <Gold.Chemscore.Hbond.Weighted>
-8.9894

> <Gold.Chemscore.Metal.Weighted>
-0.0000

> <Gold.Chemscore.Lipo.Weighted>
-13.4651

> <Gold.Chemscore.Internal_Hbond.Weighted>
0.0000

> <Gold.Chemscore.DEClash.Weighted>
0.0115

> <Gold.Chemscore.DEInternal.Weighted>
2.3327

> <Gold.Chemscore.Rot.Weighted>
4.0899

> <Gold.Chemscore.Internal.Correction.Weighted>
   9.000000E+99

> <Gold.Protein.RotatedTorsions>
[ 6907 6896 6895 6894 ] final  -36.91 input  -60.11 | X-H torsion
[ 7974 7965 7964 7962 ] final  -59.92 input  175.53 | X-H torsion
[ 8008 7997 7996 7995 ] final  104.52 input   59.86 | X-H torsion
[ 10167 10162 10161 10158 ] final -131.48 input  -65.29 | X-H torsion
[ 10718 10713 10712 10709 ] final  110.56 input   66.30 | X-H torsion
[ 10763 10752 10751 10750 ] final -113.50 input  -60.55 | X-H torsion
[ 11005 11000 10999 10996 ] final  135.50 input  -57.11 | X-H torsion

> <Gold.Protein.ActiveResidues>
 VAL166  LYS551  ARG553  GLY616  TRP617  ASP618  TYR619  PRO620  LYS621  CYS622 
 ASP623  PHE694  ASN695  SER759  ASP760  ASP761  ALA762  ILE779  LEU786  VAL792 
 PHE793  MET794  SER795  GLU796  ALA797  LYS798  CYS799  TRP800  GLU811  SER814 

> <Gold.Protein.RotatedAtoms>
  151.0212  134.9470  159.8060 H   0  0  0  0  0  0  0  0  0  0  0  0  # atno 6907 bound_to 6896
  152.5325  134.2901  159.9050 H   0  0  0  0  0  0  0  0  0  0  0  0  # atno 6908 bound_to 6896
  151.2908  133.4124  159.2667 H   0  0  0  0  0  0  0  0  0  0  0  0  # atno 6909 bound_to 6896
  145.8218  140.8536  143.0129 H   0  0  0  0  0  0  0  0  0  0  0  0  # atno 7974 bound_to 7965
  156.1580  140.3146  155.8758 H   0  0  0  0  0  0  0  0  0  0  0  0  # atno 8008 bound_to 7997
  155.3840  140.0489  157.3060 H   0  0  0  0  0  0  0  0  0  0  0  0  # atno 8009 bound_to 7997
  154.5119  140.2167  155.9151 H   0  0  0  0  0  0  0  0  0  0  0  0  # atno 8010 bound_to 7997
  139.9184  143.6411  152.2559 H   0  0  0  0  0  0  0  0  0  0  0  0  # atno 10167 bound_to 10162
  157.6488  131.0935  150.6620 H   0  0  0  0  0  0  0  0  0  0  0  0  # atno 10718 bound_to 10713
  154.8399  135.4452  154.1358 H   0  0  0  0  0  0  0  0  0  0  0  0  # atno 10763 bound_to 10752
  153.2557  135.6931  153.7638 H   0  0  0  0  0  0  0  0  0  0  0  0  # atno 10764 bound_to 10752
  153.6934  135.3383  155.3183 H   0  0  0  0  0  0  0  0  0  0  0  0  # atno 10765 bound_to 10752
  139.9984  134.9488  157.0016 H   0  0  0  0  0  0  0  0  0  0  0  0  # atno 11005 bound_to 11000
  144.6747  140.0544  143.7478 LP  0  0  0  0  0  0  0  0  0  0  0  0  # atno 17320 bound_to 7965
  145.9667  139.2840  143.1123 LP  0  0  0  0  0  0  0  0  0  0  0  0  # atno 17321 bound_to 7965
  139.6882  144.7649  151.1485 LP  0  0  0  0  0  0  0  0  0  0  0  0  # atno 17342 bound_to 10162
  140.7668  143.5626  150.9082 LP  0  0  0  0  0  0  0  0  0  0  0  0  # atno 17343 bound_to 10162
  156.6934  130.4602  149.5593 LP  0  0  0  0  0  0  0  0  0  0  0  0  # atno 17370 bound_to 10713
  156.1846  130.6521  151.0991 LP  0  0  0  0  0  0  0  0  0  0  0  0  # atno 17371 bound_to 10713
  140.4775  134.1324  155.7212 LP  0  0  0  0  0  0  0  0  0  0  0  0  # atno 17394 bound_to 11000
  141.1622  133.8770  157.1815 LP  0  0  0  0  0  0  0  0  0  0  0  0  # atno 17395 bound_to 11000

$$$$
