AV-unprocessed.smi:3046|AV-procd|sdf|11620|dock1
  -GOLD-   2272017 03D 1   1.00000     0.00000
 Structure written by MMmdl.
 37 37  0  0  0  0  0  0  0  0  1 V2000
  151.5870  138.9324  154.3308 C   0  0  0  0  0  0  0  0  0  0  0  0
  150.4146  138.7022  153.7211 C   0  0  0  0  0  0  0  0  0  0  0  0
  149.0820  138.6004  154.4364 C   0  0  0  0  0  0  0  0  0  0  0  0
  148.4208  137.3335  154.1517 N   0  0  0  0  0  0  0  0  0  0  0  0
  147.2823  136.9091  154.7240 C   0  0  0  0  0  0  0  0  0  0  0  0
  146.6799  137.5602  155.5787 O   0  0  0  0  0  0  0  0  0  0  0  0
  146.7580  135.5443  154.2498 C   0  0  1  0  0  0  0  0  0  0  0  0
  145.4406  135.1558  154.9513 C   0  0  0  0  0  0  0  0  0  0  0  0
  146.5790  135.5576  152.7883 N   0  0  0  0  0  0  0  0  0  0  0  0
  145.2777  136.0270  152.3169 C   0  0  1  0  0  0  0  0  0  0  0  0
  145.1683  137.5627  152.3847 C   0  0  0  0  0  0  0  0  0  0  0  0
  145.0400  135.4680  150.8947 C   0  0  0  0  0  0  0  0  0  0  0  0
  145.0118  134.0149  150.8249 N   0  0  0  0  0  0  0  0  0  0  0  0
  143.9522  133.1934  150.4996 C   0  0  0  0  0  0  0  0  0  0  0  0
  144.3990  131.9051  150.5688 C   0  0  0  0  0  0  0  0  0  0  0  0
  145.7620  132.0408  150.9543 C   0  0  0  0  0  0  0  0  0  0  0  0
  146.1248  133.3037  151.1094 N   0  0  0  0  0  0  0  0  0  0  0  0
  151.6461  139.0655  155.4011 H   0  0  0  0  0  0  0  0  0  0  0  0
  152.5047  138.9918  153.7642 H   0  0  0  0  0  0  0  0  0  0  0  0
  150.3949  138.5731  152.6486 H   0  0  0  0  0  0  0  0  0  0  0  0
  149.2584  138.6627  155.5101 H   0  0  0  0  0  0  0  0  0  0  0  0
  148.4362  139.4396  154.1717 H   0  0  0  0  0  0  0  0  0  0  0  0
  148.8477  136.7406  153.4550 H   0  0  0  0  0  0  0  0  0  0  0  0
  147.5225  134.8155  154.5245 H   0  0  0  0  0  0  0  0  0  0  0  0
  145.5572  135.1474  156.0356 H   0  0  0  0  0  0  0  0  0  0  0  0
  145.1059  134.1612  154.6598 H   0  0  0  0  0  0  0  0  0  0  0  0
  144.6371  135.8526  154.7083 H   0  0  0  0  0  0  0  0  0  0  0  0
  147.3333  136.0306  152.3104 H   0  0  0  0  0  0  0  0  0  0  0  0
  144.5121  135.5926  152.9616 H   0  0  0  0  0  0  0  0  0  0  0  0
  144.2408  137.9041  151.9245 H   0  0  0  0  0  0  0  0  0  0  0  0
  145.9946  138.0519  151.8676 H   0  0  0  0  0  0  0  0  0  0  0  0
  145.1605  137.9193  153.4145 H   0  0  0  0  0  0  0  0  0  0  0  0
  144.1129  135.8607  150.4735 H   0  0  0  0  0  0  0  0  0  0  0  0
  145.8378  135.8135  150.2361 H   0  0  0  0  0  0  0  0  0  0  0  0
  142.9804  133.5904  150.2453 H   0  0  0  0  0  0  0  0  0  0  0  0
  143.8379  131.0033  150.3745 H   0  0  0  0  0  0  0  0  0  0  0  0
  146.4934  131.2649  151.1258 H   0  0  0  0  0  0  0  0  0  0  0  0
  1  2  2  0  0  0  0
  1 18  1  0  0  0  0
  1 19  1  0  0  0  0
  2  3  1  0  0  0  0
  2 20  1  0  0  0  0
  3  4  1  0  0  0  0
  3 21  1  0  0  0  0
  3 22  1  0  0  0  0
  4  5  1  0  0  0  0
  4 23  1  0  0  0  0
  5  6  2  0  0  0  0
  5  7  1  0  0  0  0
  7  8  1  0  0  0  0
  7  9  1  0  0  0  0
  7 24  1  0  0  0  0
  8 25  1  0  0  0  0
  8 26  1  0  0  0  0
  8 27  1  0  0  0  0
  9 10  1  0  0  0  0
  9 28  1  0  0  0  0
 10 11  1  0  0  0  0
 10 12  1  0  0  0  0
 10 29  1  0  0  0  0
 11 30  1  0  0  0  0
 11 31  1  0  0  0  0
 11 32  1  0  0  0  0
 12 13  1  0  0  0  0
 12 33  1  0  0  0  0
 12 34  1  0  0  0  0
 13 17  1  0  0  0  0
 13 14  1  0  0  0  0
 14 15  2  0  0  0  0
 14 35  1  0  0  0  0
 15 16  1  0  0  0  0
 15 36  1  0  0  0  0
 16 17  2  0  0  0  0
 16 37  1  0  0  0  0
M  END
> <s_m_source_file>
AV-unprocessed.smi

> <i_m_source_file_index>
3046

> <i_lp_mmshare_version>
43012

> <i_f3d_flags>
0

> <s_epik_input>
W0NIMl09W0NIXVtDSDJdW05IXUMoPU8pW0NASF0oW0NIM10pW05IXVtDQEhdKFtDSDNdKVtDSDJdbjFbY0hdW2NIXVtjSF1uMQ==

> <s_epik_cmdline>
J2VwaWtfcHl0aG9uJywgJy1waCcsICc3LjAnLCAnLXRuJywgJzgnLCAnLW1hJywgJzIwMCcsICctbWV0YWxfYmluZGluZycsICctaW1hZScsICc8aW5maWxlLm1hZT4nLCAnLW9tYWUnLCAnPG91dGZpbGUubWFlPic=

> <r_lp_tautomer_probability>
1

> <r_epik_Ionization_Penalty>
0.950627

> <r_epik_Ionization_Penalty_Charging>
0

> <r_epik_Ionization_Penalty_Neutral>
0.950627

> <r_epik_State_Penalty>
0.994814

> <r_epik_Charging_Adjusted_Penalty>
0.994814

> <i_epik_Tot_Q>
0

> <i_epik_Tot_abs_Q>
0

> <r_epik_Metal_State_Penalty>
0.994788

> <b_epik_Metal_Only>
0

> <s_lp_Force_Field>
OPLS_2005

> <r_lp_Energy>
8.07161

> <b_lp_Chiralities_Consistent>
1

> <s_lp_Variant>
AV-unprocessed.smi:3046-8

> <Gold.Version>
5.8.1

> <Gold.Id.Protein>
6NUR|6NUR_protein|mol2

> <Gold.PLP.Fitness>
39.9487

> <Gold.PLP.PLP>
-28.7923

> <Gold.PLP.part.hbond>
-1.9748

> <Gold.PLP.part.metal>
0.0000

> <Gold.PLP.part.buried>
-4.1825

> <Gold.PLP.part.nonpolar>
-23.3084

> <Gold.PLP.part.repulsive>
0.2257

> <Gold.PLP.ligand.clash>
0.0000

> <Gold.PLP.ligand.torsion>
0.5595

> <Gold.PLP.Chemscore.Hbond>
1.9600

> <Gold.PLP.Chemscore.CHOScore>
2.0000

> <Gold.PLP.Chemscore.Metal>
0.0000

> <Gold.Chemscore.Hbonds>
donor molecule, donor type, donor heavy atom, donor atom, acceptor molecule, acceptor atom, score
      L1  H     4    23       P1  7948  1.00
      L1  H     9    28       P1  7948  1.00
      L1  C    14    35       P1 10186  1.00
      L1  C    16    37       P1 10747  0.69

> <Gold.PLP.Chemscore.Internal.Correction>
0.3954

> <Gold.Rescore>
     Score         DG    S(hbond)    S(metal)    S(lipo)     H(rot)  DE(clash)    DE(int)     intcor
     12.63     -14.48       1.94        0.00      69.09       2.17       0.03       1.82       ----

> <Gold.Chemscore.Fitness>
12.6288

> <Gold.Chemscore.DG>
-14.4808

> <Gold.Chemscore.ZeroCoef>
-5.4800

> <Gold.Chemscore.Hbond>
1.9408

> <Gold.Chemscore.Metal>
0.0000

> <Gold.Chemscore.Lipo>
69.0904

> <Gold.Chemscore.Internal_Hbond>
0.0000

> <Gold.Chemscore.DEClash>
0.0343

> <Gold.Chemscore.DEInternal>
1.8177

> <Gold.Chemscore.Rot>
2.1739

> <Gold.Chemscore.Internal.Correction>
   9.000000E+99

> <Gold.Chemscore.Hbonds>
donor molecule, donor type, donor heavy atom, donor atom, acceptor molecule, acceptor atom, score
      L1  H     4    23       P1  7948  0.94
      L1  H     9    28       P1  7948  0.97

> <Gold.Chemscore.Hbond.Weighted>
-6.4824

> <Gold.Chemscore.Metal.Weighted>
-0.0000

> <Gold.Chemscore.Lipo.Weighted>
-8.0836

> <Gold.Chemscore.Internal_Hbond.Weighted>
0.0000

> <Gold.Chemscore.DEClash.Weighted>
0.0343

> <Gold.Chemscore.DEInternal.Weighted>
1.8177

> <Gold.Chemscore.Rot.Weighted>
5.5652

> <Gold.Chemscore.Internal.Correction.Weighted>
   9.000000E+99

> <Gold.Protein.RotatedTorsions>
[ 6907 6896 6895 6894 ] final -127.05 input  -60.11 | X-H torsion
[ 7974 7965 7964 7962 ] final   -9.72 input  175.53 | X-H torsion
[ 8008 7997 7996 7995 ] final  -93.29 input   59.86 | X-H torsion
[ 10167 10162 10161 10158 ] final -162.82 input  -65.29 | X-H torsion
[ 10718 10713 10712 10709 ] final -103.78 input   66.30 | X-H torsion
[ 10763 10752 10751 10750 ] final   71.84 input  -60.55 | X-H torsion
[ 11005 11000 10999 10996 ] final   14.12 input  -57.11 | X-H torsion

> <Gold.Protein.ActiveResidues>
 VAL166  LYS551  ARG553  GLY616  TRP617  ASP618  TYR619  PRO620  LYS621  CYS622 
 ASP623  PHE694  ASN695  SER759  ASP760  ASP761  ALA762  ILE779  LEU786  VAL792 
 PHE793  MET794  SER795  GLU796  ALA797  LYS798  CYS799  TRP800  GLU811  SER814 

> <Gold.Protein.RotatedAtoms>
  150.9032  133.7091  159.2873 H   0  0  0  0  0  0  0  0  0  0  0  0  # atno 6907 bound_to 6896
  151.4603  135.1036  159.9732 H   0  0  0  0  0  0  0  0  0  0  0  0  # atno 6908 bound_to 6896
  152.4889  133.8397  159.7201 H   0  0  0  0  0  0  0  0  0  0  0  0  # atno 6909 bound_to 6896
  146.2243  140.2658  142.8354 H   0  0  0  0  0  0  0  0  0  0  0  0  # atno 7974 bound_to 7965
  154.7338  140.0500  157.0750 H   0  0  0  0  0  0  0  0  0  0  0  0  # atno 8008 bound_to 7997
  155.0267  140.3153  155.4754 H   0  0  0  0  0  0  0  0  0  0  0  0  # atno 8009 bound_to 7997
  156.2848  140.2157  156.5387 H   0  0  0  0  0  0  0  0  0  0  0  0  # atno 8010 bound_to 7997
  139.6365  144.0340  152.2058 H   0  0  0  0  0  0  0  0  0  0  0  0  # atno 10167 bound_to 10162
  156.0279  130.5484  150.7303 H   0  0  0  0  0  0  0  0  0  0  0  0  # atno 10718 bound_to 10713
  153.0422  135.5122  154.7653 H   0  0  0  0  0  0  0  0  0  0  0  0  # atno 10763 bound_to 10752
  154.6581  135.2934  154.9904 H   0  0  0  0  0  0  0  0  0  0  0  0  # atno 10764 bound_to 10752
  154.0764  135.6670  153.4884 H   0  0  0  0  0  0  0  0  0  0  0  0  # atno 10765 bound_to 10752
  140.4731  134.1011  155.7736 H   0  0  0  0  0  0  0  0  0  0  0  0  # atno 11005 bound_to 11000
  144.9305  140.7970  143.5692 LP  0  0  0  0  0  0  0  0  0  0  0  0  # atno 17320 bound_to 7965
  145.2601  139.1996  143.4896 LP  0  0  0  0  0  0  0  0  0  0  0  0  # atno 17321 bound_to 7965
  140.0019  144.6287  150.7722 LP  0  0  0  0  0  0  0  0  0  0  0  0  # atno 17342 bound_to 10162
  140.7468  143.2896  151.3367 LP  0  0  0  0  0  0  0  0  0  0  0  0  # atno 17343 bound_to 10162
  157.4897  131.0910  151.0441 LP  0  0  0  0  0  0  0  0  0  0  0  0  # atno 17370 bound_to 10713
  157.0852  130.5919  149.5428 LP  0  0  0  0  0  0  0  0  0  0  0  0  # atno 17371 bound_to 10713
  141.1567  133.8869  157.1957 LP  0  0  0  0  0  0  0  0  0  0  0  0  # atno 17394 bound_to 11000
  139.9873  135.0077  156.9892 LP  0  0  0  0  0  0  0  0  0  0  0  0  # atno 17395 bound_to 11000

$$$$
