AV-unprocessed.smi:1284|AV-procd|sdf|5363|dock3
  -GOLD-   22720 4503D 1   1.00000     0.00000
 Structure written by MMmdl.
 39 41  0  0  0  0  0  0  0  0  1 V2000
  151.3814  137.9444  157.6945 N   0  0  0  0  0  0  0  0  0  0  0  0
  152.1586  137.8459  156.6123 C   0  0  0  0  0  0  0  0  0  0  0  0
  152.7151  136.7959  156.2984 O   0  0  0  0  0  0  0  0  0  0  0  0
  152.3245  139.1011  155.7502 C   0  0  0  0  0  0  0  0  0  0  0  0
  150.9782  139.5034  155.2148 C   0  0  0  0  0  0  0  0  0  0  0  0
  150.2361  138.6654  154.4873 N   0  0  0  0  0  0  0  0  0  0  0  0
  149.1164  139.4200  154.1980 C   0  0  0  0  0  0  0  0  0  0  0  0
  147.9568  139.0962  153.4581 C   0  0  0  0  0  0  0  0  0  0  0  0
  146.9289  140.0470  153.2898 C   0  0  0  0  0  0  0  0  0  0  0  0
  147.0454  141.3323  153.8578 C   0  0  0  0  0  0  0  0  0  0  0  0
  148.1918  141.6744  154.6006 C   0  0  0  0  0  0  0  0  0  0  0  0
  149.2146  140.7212  154.7658 C   0  0  0  0  0  0  0  0  0  0  0  0
  150.4424  140.7355  155.4192 N   0  0  0  0  0  0  0  0  0  0  0  0
  150.9981  141.8622  156.1575 C   0  0  0  0  0  0  0  0  0  0  0  0
  151.4582  141.4745  157.5770 C   0  0  2  0  0  0  0  0  0  0  0  0
  150.5181  140.6021  158.1737 O   0  0  0  0  0  0  0  0  0  0  0  0
  151.7142  142.7079  158.4283 C   0  0  0  0  0  0  0  0  0  0  0  0
  151.4860  143.9950  157.8955 C   0  0  0  0  0  0  0  0  0  0  0  0
  151.7151  145.1401  158.6832 C   0  0  0  0  0  0  0  0  0  0  0  0
  152.1717  145.0046  160.0083 C   0  0  0  0  0  0  0  0  0  0  0  0
  152.3965  143.7232  160.5467 C   0  0  0  0  0  0  0  0  0  0  0  0
  152.1674  142.5780  159.7596 C   0  0  0  0  0  0  0  0  0  0  0  0
  151.2532  137.1428  158.2948 H   0  0  0  0  0  0  0  0  0  0  0  0
  150.9324  138.8221  157.9137 H   0  0  0  0  0  0  0  0  0  0  0  0
  152.7713  139.9102  156.3276 H   0  0  0  0  0  0  0  0  0  0  0  0
  153.0019  138.8957  154.9202 H   0  0  0  0  0  0  0  0  0  0  0  0
  147.8587  138.1148  153.0182 H   0  0  0  0  0  0  0  0  0  0  0  0
  146.0476  139.7893  152.7211 H   0  0  0  0  0  0  0  0  0  0  0  0
  146.2542  142.0553  153.7229 H   0  0  0  0  0  0  0  0  0  0  0  0
  148.2848  142.6577  155.0370 H   0  0  0  0  0  0  0  0  0  0  0  0
  151.8448  142.2492  155.5896 H   0  0  0  0  0  0  0  0  0  0  0  0
  150.2715  142.6725  156.1956 H   0  0  0  0  0  0  0  0  0  0  0  0
  152.3907  140.9141  157.4998 H   0  0  0  0  0  0  0  0  0  0  0  0
  150.8394  139.7171  158.0936 H   0  0  0  0  0  0  0  0  0  0  0  0
  151.1330  144.1098  156.8813 H   0  0  0  0  0  0  0  0  0  0  0  0
  151.5394  146.1228  158.2710 H   0  0  0  0  0  0  0  0  0  0  0  0
  152.3473  145.8830  160.6119 H   0  0  0  0  0  0  0  0  0  0  0  0
  152.7436  143.6176  161.5639 H   0  0  0  0  0  0  0  0  0  0  0  0
  152.3377  141.5982  160.1819 H   0  0  0  0  0  0  0  0  0  0  0  0
  1  2  1  0  0  0  0
  1 23  1  0  0  0  0
  1 24  1  0  0  0  0
  2  3  2  0  0  0  0
  2  4  1  0  0  0  0
  4  5  1  0  0  0  0
  4 25  1  0  0  0  0
  4 26  1  0  0  0  0
  5 13  1  0  0  0  0
  5  6  2  0  0  0  0
  6  7  1  0  0  0  0
  7 12  2  0  0  0  0
  7  8  1  0  0  0  0
  8  9  2  0  0  0  0
  8 27  1  0  0  0  0
  9 10  1  0  0  0  0
  9 28  1  0  0  0  0
 10 11  2  0  0  0  0
 10 29  1  0  0  0  0
 11 12  1  0  0  0  0
 11 30  1  0  0  0  0
 12 13  1  0  0  0  0
 13 14  1  0  0  0  0
 14 15  1  0  0  0  0
 14 31  1  0  0  0  0
 14 32  1  0  0  0  0
 15 16  1  0  0  0  0
 15 17  1  0  0  0  0
 15 33  1  0  0  0  0
 16 34  1  0  0  0  0
 17 22  1  0  0  0  0
 17 18  2  0  0  0  0
 18 19  1  0  0  0  0
 18 35  1  0  0  0  0
 19 20  2  0  0  0  0
 19 36  1  0  0  0  0
 20 21  1  0  0  0  0
 20 37  1  0  0  0  0
 21 22  2  0  0  0  0
 21 38  1  0  0  0  0
 22 39  1  0  0  0  0
M  END
> <s_m_source_file>
AV-unprocessed.smi

> <i_m_source_file_index>
1284

> <i_lp_mmshare_version>
43012

> <i_f3d_flags>
0

> <s_epik_input>
W2NIXTFbY0hdW2NIXVtjSF1jKGMxMiluKGMobjIpW0NIMl1DKD1PKVtOSDJdKVtDSDJdW0NASF0oW09IXSljM1tjSF1bY0hdW2NIXVtjSF1bY0hdMw==

> <s_epik_cmdline>
J2VwaWtfcHl0aG9uJywgJy1waCcsICc3LjAnLCAnLXRuJywgJzgnLCAnLW1hJywgJzIwMCcsICctbWV0YWxfYmluZGluZycsICctaW1hZScsICc8aW5maWxlLm1hZT4nLCAnLW9tYWUnLCAnPG91dGZpbGUubWFlPic=

> <r_epik_Ionization_Penalty>
0.0366899

> <r_epik_Ionization_Penalty_Charging>
0

> <r_epik_Ionization_Penalty_Neutral>
0.0366899

> <r_epik_State_Penalty>
0.0306642

> <r_epik_Charging_Adjusted_Penalty>
0.0306642

> <i_epik_Tot_Q>
0

> <i_epik_Tot_abs_Q>
0

> <r_epik_Metal_State_Penalty>
0.028853

> <b_epik_Metal_Only>
0

> <s_lp_Force_Field>
OPLS_2005

> <r_lp_Energy>
12.351

> <b_lp_Chiralities_Consistent>
1

> <s_lp_Variant>
AV-unprocessed.smi:1284-1

> <Gold.Version>
5.8.1

> <Gold.Id.Protein>
6NUR|6NUR_protein|mol2

> <Gold.PLP.Fitness>
50.8738

> <Gold.PLP.PLP>
-48.2648

> <Gold.PLP.part.hbond>
-1.0000

> <Gold.PLP.part.metal>
0.0000

> <Gold.PLP.part.buried>
-3.9235

> <Gold.PLP.part.nonpolar>
-44.0883

> <Gold.PLP.part.repulsive>
0.2196

> <Gold.PLP.ligand.clash>
0.0000

> <Gold.PLP.ligand.torsion>
0.2232

> <Gold.PLP.Chemscore.Hbond>
1.0000

> <Gold.PLP.Chemscore.CHOScore>
0.0000

> <Gold.PLP.Chemscore.Metal>
0.0000

> <Gold.Chemscore.Hbonds>
donor molecule, donor type, donor heavy atom, donor atom, acceptor molecule, acceptor atom, score
      P1  H 10752 10763       L1     3  0.91

> <Gold.PLP.Chemscore.Internal.Correction>
0.0553

> <Gold.Rescore>
     Score         DG    S(hbond)    S(metal)    S(lipo)     H(rot)  DE(clash)    DE(int)     intcor
     16.41     -16.80       0.98        0.00     131.33       2.86       0.06       0.32       ----

> <Gold.Chemscore.Fitness>
16.4149

> <Gold.Chemscore.DG>
-16.7976

> <Gold.Chemscore.ZeroCoef>
-5.4800

> <Gold.Chemscore.Hbond>
0.9807

> <Gold.Chemscore.Metal>
0.0000

> <Gold.Chemscore.Lipo>
131.3272

> <Gold.Chemscore.Internal_Hbond>
0.0000

> <Gold.Chemscore.DEClash>
0.0584

> <Gold.Chemscore.DEInternal>
0.3243

> <Gold.Chemscore.Rot>
2.8606

> <Gold.Chemscore.Internal.Correction>
   9.000000E+99

> <Gold.Chemscore.Hbonds>
donor molecule, donor type, donor heavy atom, donor atom, acceptor molecule, acceptor atom, score
      P1  H 10752 10763       L1     3  0.90

> <Gold.Chemscore.Hbond.Weighted>
-3.2754

> <Gold.Chemscore.Metal.Weighted>
-0.0000

> <Gold.Chemscore.Lipo.Weighted>
-15.3653

> <Gold.Chemscore.Internal_Hbond.Weighted>
0.0000

> <Gold.Chemscore.DEClash.Weighted>
0.0584

> <Gold.Chemscore.DEInternal.Weighted>
0.3243

> <Gold.Chemscore.Rot.Weighted>
7.3231

> <Gold.Chemscore.Internal.Correction.Weighted>
   9.000000E+99

> <Gold.Protein.RotatedTorsions>
[ 6907 6896 6895 6894 ] final   73.47 input  -60.11 | X-H torsion
[ 7974 7965 7964 7962 ] final -137.88 input  175.53 | X-H torsion
[ 8008 7997 7996 7995 ] final  -94.09 input   59.86 | X-H torsion
[ 10167 10162 10161 10158 ] final  -20.23 input  -65.29 | X-H torsion
[ 10718 10713 10712 10709 ] final  172.36 input   66.30 | X-H torsion
[ 10763 10752 10751 10750 ] final  105.14 input  -60.55 | X-H torsion
[ 11005 11000 10999 10996 ] final -131.05 input  -57.11 | X-H torsion

> <Gold.Protein.ActiveResidues>
 VAL166  LYS551  ARG553  GLY616  TRP617  ASP618  TYR619  PRO620  LYS621  CYS622 
 ASP623  PHE694  ASN695  SER759  ASP760  ASP761  ALA762  ILE779  LEU786  VAL792 
 PHE793  MET794  SER795  GLU796  ALA797  LYS798  CYS799  TRP800  GLU811  SER814 

> <Gold.Protein.RotatedAtoms>
  152.4925  134.4416  159.9545 H   0  0  0  0  0  0  0  0  0  0  0  0  # atno 6907 bound_to 6896
  151.4401  133.3640  159.2788 H   0  0  0  0  0  0  0  0  0  0  0  0  # atno 6908 bound_to 6896
  150.9094  134.8533  159.7474 H   0  0  0  0  0  0  0  0  0  0  0  0  # atno 6909 bound_to 6896
  144.8805  140.6500  143.5209 H   0  0  0  0  0  0  0  0  0  0  0  0  # atno 7974 bound_to 7965
  154.7440  140.0492  157.0836 H   0  0  0  0  0  0  0  0  0  0  0  0  # atno 8008 bound_to 7997
  155.0142  140.3139  155.4799 H   0  0  0  0  0  0  0  0  0  0  0  0  # atno 8009 bound_to 7997
  156.2871  140.2179  156.5257 H   0  0  0  0  0  0  0  0  0  0  0  0  # atno 8010 bound_to 7997
  140.7274  143.4742  151.0205 H   0  0  0  0  0  0  0  0  0  0  0  0  # atno 10167 bound_to 10162
  156.9800  131.0116  151.2884 H   0  0  0  0  0  0  0  0  0  0  0  0  # atno 10718 bound_to 10713
  153.3753  135.3920  155.1818 H   0  0  0  0  0  0  0  0  0  0  0  0  # atno 10763 bound_to 10752
  154.8700  135.3712  154.4926 H   0  0  0  0  0  0  0  0  0  0  0  0  # atno 10764 bound_to 10752
  153.5397  135.7084  153.5703 H   0  0  0  0  0  0  0  0  0  0  0  0  # atno 10765 bound_to 10752
  140.9292  134.1341  157.4249 H   0  0  0  0  0  0  0  0  0  0  0  0  # atno 11005 bound_to 11000
  145.3964  139.1606  143.4201 LP  0  0  0  0  0  0  0  0  0  0  0  0  # atno 17320 bound_to 7965
  146.2991  140.4057  142.8711 LP  0  0  0  0  0  0  0  0  0  0  0  0  # atno 17321 bound_to 7965
  139.8436  143.7531  152.3180 LP  0  0  0  0  0  0  0  0  0  0  0  0  # atno 17342 bound_to 10162
  139.7688  144.7483  151.0254 LP  0  0  0  0  0  0  0  0  0  0  0  0  # atno 17343 bound_to 10162
  157.5533  130.8196  149.8172 LP  0  0  0  0  0  0  0  0  0  0  0  0  # atno 17370 bound_to 10713
  156.0248  130.3783  150.1855 LP  0  0  0  0  0  0  0  0  0  0  0  0  # atno 17371 bound_to 10713
  139.8792  134.9999  156.5981 LP  0  0  0  0  0  0  0  0  0  0  0  0  # atno 17394 bound_to 11000
  140.7885  133.8602  155.8626 LP  0  0  0  0  0  0  0  0  0  0  0  0  # atno 17395 bound_to 11000

$$$$
