AV-unprocessed.smi:2164|AV-procd|sdf|8811|dock9
  -GOLD-   2272012 03D 1   1.00000     0.00000
 Structure written by MMmdl.
 39 41  0  0  0  0  0  0  0  0  3 V2000
  154.7312  139.4884  159.1520 O   0  0  0  0  0  0  0  0  0  0  0  0
  154.6412  139.3713  160.3811 C   0  0  0  0  0  0  0  0  0  0  0  0
  154.4294  140.4030  161.2541 N   0  5  0  0  0  0  0  0  0  0  0  0
  153.9038  141.7186  160.8935 C   0  0  0  0  0  0  0  0  0  0  0  0
  152.8473  141.5670  159.7816 C   0  0  0  0  0  0  0  0  0  0  0  0
  152.2042  142.8836  159.3689 C   0  0  0  0  0  0  0  0  0  0  0  0
  152.4464  144.0682  160.1028 C   0  0  0  0  0  0  0  0  0  0  0  0
  151.8297  145.2712  159.7013 C   0  0  0  0  0  0  0  0  0  0  0  0
  150.9809  145.2651  158.5758 C   0  0  0  0  0  0  0  0  0  0  0  0
  150.7668  144.1143  157.9013 N   0  3  0  0  0  0  0  0  0  0  0  0
  151.3369  142.9417  158.2543 C   0  0  0  0  0  0  0  0  0  0  0  0
  154.7704  138.0260  160.9608 C   0  0  0  0  0  0  0  0  0  0  0  0
  154.7254  137.7839  162.2893 C   0  0  0  0  0  0  0  0  0  0  0  0
  154.8480  136.5089  162.8478 N   0  0  0  0  0  0  0  0  0  0  0  0
  154.8824  136.3975  164.3017 C   0  0  0  0  0  0  0  0  0  0  0  0
  154.0743  135.1935  164.7597 C   0  0  0  0  0  0  0  0  0  0  0  0
  154.9036  133.7176  164.0556 S   0  0  0  0  0  0  0  0  0  0  0  0
  156.2754  133.6700  164.5854 O   0  0  0  0  0  0  0  0  0  0  0  0
  154.0168  132.5599  164.2474 O   0  0  0  0  0  0  0  0  0  0  0  0
  154.9538  134.1340  162.4327 N   0  0  0  0  0  0  0  0  0  0  0  0
  154.9580  135.3646  162.0173 C   0  0  0  0  0  0  0  0  0  0  0  0
  155.0477  135.6248  160.5902 C   0  0  0  0  0  0  0  0  0  0  0  0
  154.9586  136.8749  160.0921 C   0  0  0  0  0  0  0  0  0  0  0  0
  153.4469  142.2176  161.7491 H   0  0  0  0  0  0  0  0  0  0  0  0
  154.6919  142.3858  160.5420 H   0  0  0  0  0  0  0  0  0  0  0  0
  153.3004  141.1120  158.8995 H   0  0  0  0  0  0  0  0  0  0  0  0
  152.0620  140.8828  160.1065 H   0  0  0  0  0  0  0  0  0  0  0  0
  153.1013  144.0553  160.9622 H   0  0  0  0  0  0  0  0  0  0  0  0
  152.0067  146.1850  160.2492 H   0  0  0  0  0  0  0  0  0  0  0  0
  150.4697  146.1385  158.1983 H   0  0  0  0  0  0  0  0  0  0  0  0
  151.0897  142.0906  157.6364 H   0  0  0  0  0  0  0  0  0  0  0  0
  154.5908  138.5667  163.0219 H   0  0  0  0  0  0  0  0  0  0  0  0
  155.9186  136.3174  164.6320 H   0  0  0  0  0  0  0  0  0  0  0  0
  154.4741  137.2959  164.7656 H   0  0  0  0  0  0  0  0  0  0  0  0
  154.0622  135.1043  165.8457 H   0  0  0  0  0  0  0  0  0  0  0  0
  153.0440  135.2340  164.4044 H   0  0  0  0  0  0  0  0  0  0  0  0
  155.1799  134.8181  159.8836 H   0  0  0  0  0  0  0  0  0  0  0  0
  155.0308  137.0036  159.0221 H   0  0  0  0  0  0  0  0  0  0  0  0
  150.1485  144.1303  157.0899 H   0  0  0  0  0  0  0  0  0  0  0  0
  1  2  2  0  0  0  0
  2  3  1  0  0  0  0
  2 12  1  0  0  0  0
  3  4  1  0  0  0  0
  4  5  1  0  0  0  0
  4 24  1  0  0  0  0
  4 25  1  0  0  0  0
  5  6  1  0  0  0  0
  5 26  1  0  0  0  0
  5 27  1  0  0  0  0
  6 11  1  0  0  0  0
  6  7  2  0  0  0  0
  7  8  1  0  0  0  0
  7 28  1  0  0  0  0
  8  9  2  0  0  0  0
  8 29  1  0  0  0  0
  9 10  1  0  0  0  0
  9 30  1  0  0  0  0
 10 11  2  0  0  0  0
 10 39  1  0  0  0  0
 11 31  1  0  0  0  0
 12 23  1  0  0  0  0
 12 13  2  0  0  0  0
 13 14  1  0  0  0  0
 13 32  1  0  0  0  0
 14 21  1  0  0  0  0
 14 15  1  0  0  0  0
 15 16  1  0  0  0  0
 15 33  1  0  0  0  0
 15 34  1  0  0  0  0
 16 17  1  0  0  0  0
 16 35  1  0  0  0  0
 16 36  1  0  0  0  0
 17 18  2  0  0  0  0
 17 19  2  0  0  0  0
 17 20  1  0  0  0  0
 20 21  2  0  0  0  0
 21 22  1  0  0  0  0
 22 23  2  0  0  0  0
 22 37  1  0  0  0  0
 23 38  1  0  0  0  0
M  CHG  1   3  -1
M  CHG  1  10   1
M  END
> <s_m_source_file>
AV-unprocessed.smi

> <i_m_source_file_index>
2164

> <i_lp_mmshare_version>
43012

> <i_f3d_flags>
0

> <s_epik_input>
W0NIMl0xW0NIMl1TKD1PKSg9TylOPUMoTjEyKVtDSF09W0NIXUMoPVtDSF0yKUMoPU8pW05IXVtDSDJdW0NIMl1jM1tjSF1bY0hdW2NIXW5bY0hdMw==

> <s_epik_cmdline>
J2VwaWtfcHl0aG9uJywgJy1waCcsICc3LjAnLCAnLXRuJywgJzgnLCAnLW1hJywgJzIwMCcsICctbWV0YWxfYmluZGluZycsICctaW1hZScsICc8aW5maWxlLm1hZT4nLCAnLW9tYWUnLCAnPG91dGZpbGUubWFlPic=

> <r_epik_Ionization_Penalty>
6.83439

> <r_epik_Ionization_Penalty_Charging>
6.83439

> <r_epik_Ionization_Penalty_Neutral>
0

> <r_epik_State_Penalty>
7.45298

> <r_epik_Charging_Adjusted_Penalty>
14.2874

> <i_epik_Tot_Q>
0

> <i_epik_Tot_abs_Q>
2

> <r_epik_Metal_State_Penalty>
3.5959

> <b_epik_Metal_Only>
1

> <s_lp_Force_Field>
OPLS_2005

> <r_lp_Energy>
30.4634

> <b_lp_Chiralities_Consistent>
1

> <s_lp_Variant>
AV-unprocessed.smi:2164-4

> <Gold.Version>
5.8.1

> <Gold.Id.Protein>
6NUR|6NUR_protein|mol2

> <Gold.PLP.Fitness>
52.2908

> <Gold.PLP.PLP>
-43.8702

> <Gold.PLP.part.hbond>
-2.0000

> <Gold.PLP.part.metal>
0.0000

> <Gold.PLP.part.buried>
-3.7965

> <Gold.PLP.part.nonpolar>
-36.9747

> <Gold.PLP.part.repulsive>
0.0966

> <Gold.PLP.ligand.clash>
0.0000

> <Gold.PLP.ligand.torsion>
0.3111

> <Gold.PLP.Chemscore.Hbond>
3.0000

> <Gold.PLP.Chemscore.CHOScore>
0.0000

> <Gold.PLP.Chemscore.Metal>
0.0000

> <Gold.Chemscore.Hbonds>
donor molecule, donor type, donor heavy atom, donor atom, acceptor molecule, acceptor atom, score
      L1  H    10    39       P1  8028  2.00
      P1  H  7997  8008       L1     1  1.00

> <Gold.PLP.Chemscore.Internal.Correction>
0.0428

> <Gold.Rescore>
     Score         DG    S(hbond)    S(metal)    S(lipo)     H(rot)  DE(clash)    DE(int)     intcor
     19.88     -21.68       1.96        0.00     115.71       1.51       0.21       1.59       ----

> <Gold.Chemscore.Fitness>
19.8761

> <Gold.Chemscore.DG>
-21.6816

> <Gold.Chemscore.ZeroCoef>
-5.4800

> <Gold.Chemscore.Hbond>
1.9557

> <Gold.Chemscore.Metal>
0.0000

> <Gold.Chemscore.Lipo>
115.7069

> <Gold.Chemscore.Internal_Hbond>
0.0000

> <Gold.Chemscore.DEClash>
0.2107

> <Gold.Chemscore.DEInternal>
1.5948

> <Gold.Chemscore.Rot>
1.5109

> <Gold.Chemscore.Internal.Correction>
   9.000000E+99

> <Gold.Chemscore.Hbonds>
donor molecule, donor type, donor heavy atom, donor atom, acceptor molecule, acceptor atom, score
      L1  H    10    39       P1  8028  0.86
      P1  H  7997  8008       L1     1  0.95

> <Gold.Chemscore.Hbond.Weighted>
-6.5319

> <Gold.Chemscore.Metal.Weighted>
-0.0000

> <Gold.Chemscore.Lipo.Weighted>
-13.5377

> <Gold.Chemscore.Internal_Hbond.Weighted>
0.0000

> <Gold.Chemscore.DEClash.Weighted>
0.2107

> <Gold.Chemscore.DEInternal.Weighted>
1.5948

> <Gold.Chemscore.Rot.Weighted>
3.8680

> <Gold.Chemscore.Internal.Correction.Weighted>
   9.000000E+99

> <Gold.Protein.RotatedTorsions>
[ 6907 6896 6895 6894 ] final  -31.67 input  -60.11 | X-H torsion
[ 7974 7965 7964 7962 ] final -154.74 input  175.53 | X-H torsion
[ 8008 7997 7996 7995 ] final -137.17 input   59.86 | X-H torsion
[ 10167 10162 10161 10158 ] final  162.81 input  -65.29 | X-H torsion
[ 10718 10713 10712 10709 ] final  -16.73 input   66.30 | X-H torsion
[ 10763 10752 10751 10750 ] final   27.03 input  -60.55 | X-H torsion
[ 11005 11000 10999 10996 ] final   19.69 input  -57.11 | X-H torsion

> <Gold.Protein.ActiveResidues>
 VAL166  LYS551  ARG553  GLY616  TRP617  ASP618  TYR619  PRO620  LYS621  CYS622 
 ASP623  PHE694  ASN695  SER759  ASP760  ASP761  ALA762  ILE779  LEU786  VAL792 
 PHE793  MET794  SER795  GLU796  ALA797  LYS798  CYS799  TRP800  GLU811  SER814 

> <Gold.Protein.RotatedAtoms>
  151.0889  134.9904  159.8392 H   0  0  0  0  0  0  0  0  0  0  0  0  # atno 6907 bound_to 6896
  152.5427  134.2089  159.8752 H   0  0  0  0  0  0  0  0  0  0  0  0  # atno 6908 bound_to 6896
  151.2124  133.4504  159.2632 H   0  0  0  0  0  0  0  0  0  0  0  0  # atno 6909 bound_to 6896
  144.7674  140.4347  143.5932 H   0  0  0  0  0  0  0  0  0  0  0  0  # atno 7974 bound_to 7965
  155.4073  140.0510  157.3033 H   0  0  0  0  0  0  0  0  0  0  0  0  # atno 8008 bound_to 7997
  154.4962  140.2139  155.9401 H   0  0  0  0  0  0  0  0  0  0  0  0  # atno 8009 bound_to 7997
  156.1409  140.3154  155.8499 H   0  0  0  0  0  0  0  0  0  0  0  0  # atno 8010 bound_to 7997
  139.4865  144.4400  151.8963 H   0  0  0  0  0  0  0  0  0  0  0  0  # atno 10167 bound_to 10162
  156.5835  130.4780  149.6310 H   0  0  0  0  0  0  0  0  0  0  0  0  # atno 10718 bound_to 10713
  153.0583  135.6546  154.0524 H   0  0  0  0  0  0  0  0  0  0  0  0  # atno 10763 bound_to 10752
  154.0197  135.2921  155.3384 H   0  0  0  0  0  0  0  0  0  0  0  0  # atno 10764 bound_to 10752
  154.6909  135.5283  153.8458 H   0  0  0  0  0  0  0  0  0  0  0  0  # atno 10765 bound_to 10752
  140.4109  134.1619  155.7667 H   0  0  0  0  0  0  0  0  0  0  0  0  # atno 11005 bound_to 11000
  145.6427  139.1552  143.2906 LP  0  0  0  0  0  0  0  0  0  0  0  0  # atno 17320 bound_to 7965
  146.1794  140.6522  142.9196 LP  0  0  0  0  0  0  0  0  0  0  0  0  # atno 17321 bound_to 7965
  140.3852  144.2686  150.5904 LP  0  0  0  0  0  0  0  0  0  0  0  0  # atno 17342 bound_to 10162
  140.5197  143.2269  151.8408 LP  0  0  0  0  0  0  0  0  0  0  0  0  # atno 17343 bound_to 10162
  156.2611  130.6963  151.1731 LP  0  0  0  0  0  0  0  0  0  0  0  0  # atno 17370 bound_to 10713
  157.7321  131.0603  150.5646 LP  0  0  0  0  0  0  0  0  0  0  0  0  # atno 17371 bound_to 10713
  141.1821  133.8391  157.1219 LP  0  0  0  0  0  0  0  0  0  0  0  0  # atno 17394 bound_to 11000
  140.0268  134.9920  157.0702 LP  0  0  0  0  0  0  0  0  0  0  0  0  # atno 17395 bound_to 11000

$$$$
