AV-unprocessed.smi:2923|AV-procd|sdf|11205|dock4
  -GOLD-   2272016 93D 1   1.00000     0.00000
 Structure written by MMmdl.
 47 49  0  0  0  0  0  0  0  0  2 V2000
  143.3682  132.2360  150.4627 C   0  0  0  0  0  0  0  0  0  0  0  0
  144.6369  132.9548  150.4955 N   0  0  0  0  0  0  0  0  0  0  0  0
  145.8268  132.3742  149.8871 C   0  0  0  0  0  0  0  0  0  0  0  0
  144.7290  134.1834  151.1848 C   0  0  0  0  0  0  0  0  0  0  0  0
  145.8995  134.6092  151.8588 C   0  0  0  0  0  0  0  0  0  0  0  0
  145.9111  135.8501  152.5278 C   0  0  0  0  0  0  0  0  0  0  0  0
  144.7568  136.6606  152.5291 C   0  0  0  0  0  0  0  0  0  0  0  0
  144.8268  137.9035  153.2165 N   0  0  0  0  0  0  0  0  0  0  0  0
  145.5919  138.2476  154.2669 C   0  0  0  0  0  0  0  0  0  0  0  0
  146.4034  137.5146  154.8310 O   0  0  0  0  0  0  0  0  0  0  0  0
  145.3655  139.5156  154.6342 N   0  0  0  0  0  0  0  0  0  0  0  0
  146.0290  140.1908  155.7509 C   0  0  1  0  0  0  0  0  0  0  0  0
  146.8766  141.4031  155.3042 C   0  0  1  0  0  0  0  0  0  0  0  0
  147.1887  141.7006  153.8574 C   0  0  0  0  0  0  0  0  0  0  0  0
  146.1293  142.7436  153.4899 C   0  0  0  0  0  0  0  0  0  0  0  0
  145.0945  142.5673  154.4549 O   0  0  0  0  0  0  0  0  0  0  0  0
  145.7114  142.2905  155.7103 C   0  0  1  0  0  0  0  0  0  0  0  0
  145.0920  141.1460  156.5389 C   0  0  0  0  0  0  0  0  0  0  0  0
  143.5719  140.9700  156.4173 C   0  0  0  0  0  0  0  0  0  0  0  0
  145.3957  141.2227  158.0379 C   0  0  0  0  0  0  0  0  0  0  0  0
  143.6158  136.1964  151.8317 C   0  0  0  0  0  0  0  0  0  0  0  0
  143.6486  135.0013  151.2036 N   0  3  0  0  0  0  0  0  0  0  0  0
  142.6060  132.8283  149.9552 H   0  0  0  0  0  0  0  0  0  0  0  0
  143.0231  132.0195  151.4742 H   0  0  0  0  0  0  0  0  0  0  0  0
  143.4622  131.2879  149.9332 H   0  0  0  0  0  0  0  0  0  0  0  0
  146.5856  132.1752  150.6443 H   0  0  0  0  0  0  0  0  0  0  0  0
  146.2452  133.0506  149.1413 H   0  0  0  0  0  0  0  0  0  0  0  0
  145.5980  131.4320  149.3887 H   0  0  0  0  0  0  0  0  0  0  0  0
  146.7927  134.0032  151.8756 H   0  0  0  0  0  0  0  0  0  0  0  0
  146.8053  136.1728  153.0410 H   0  0  0  0  0  0  0  0  0  0  0  0
  144.2426  138.6367  152.8419 H   0  0  0  0  0  0  0  0  0  0  0  0
  144.6789  140.0510  154.1233 H   0  0  0  0  0  0  0  0  0  0  0  0
  146.5955  139.5163  156.3961 H   0  0  0  0  0  0  0  0  0  0  0  0
  147.7265  141.5470  155.9732 H   0  0  0  0  0  0  0  0  0  0  0  0
  148.1942  142.1013  153.7264 H   0  0  0  0  0  0  0  0  0  0  0  0
  147.1091  140.8149  153.2275 H   0  0  0  0  0  0  0  0  0  0  0  0
  146.5353  143.7515  153.5868 H   0  0  0  0  0  0  0  0  0  0  0  0
  145.7535  142.6226  152.4736 H   0  0  0  0  0  0  0  0  0  0  0  0
  146.0021  143.1850  156.2631 H   0  0  0  0  0  0  0  0  0  0  0  0
  143.0355  141.7754  156.9199 H   0  0  0  0  0  0  0  0  0  0  0  0
  143.2423  140.0295  156.8599 H   0  0  0  0  0  0  0  0  0  0  0  0
  143.2379  140.9727  155.3797 H   0  0  0  0  0  0  0  0  0  0  0  0
  144.8834  142.0621  158.5092 H   0  0  0  0  0  0  0  0  0  0  0  0
  146.4619  141.3512  158.2272 H   0  0  0  0  0  0  0  0  0  0  0  0
  145.0855  140.3138  158.5545 H   0  0  0  0  0  0  0  0  0  0  0  0
  142.6798  136.7248  151.7378 H   0  0  0  0  0  0  0  0  0  0  0  0
  142.8077  134.6975  150.7124 H   0  0  0  0  0  0  0  0  0  0  0  0
  1  2  1  0  0  0  0
  1 23  1  0  0  0  0
  1 24  1  0  0  0  0
  1 25  1  0  0  0  0
  2  3  1  0  0  0  0
  2  4  1  0  0  0  0
  3 26  1  0  0  0  0
  3 27  1  0  0  0  0
  3 28  1  0  0  0  0
  4 22  1  0  0  0  0
  4  5  2  0  0  0  0
  5  6  1  0  0  0  0
  5 29  1  0  0  0  0
  6  7  2  0  0  0  0
  6 30  1  0  0  0  0
  7  8  1  0  0  0  0
  7 21  1  0  0  0  0
  8  9  1  0  0  0  0
  8 31  1  0  0  0  0
  9 10  2  0  0  0  0
  9 11  1  0  0  0  0
 11 12  1  0  0  0  0
 11 32  1  0  0  0  0
 12 18  1  0  0  0  0
 12 13  1  0  0  0  0
 12 33  1  0  0  0  0
 13 17  1  0  0  0  0
 13 14  1  0  0  0  0
 13 34  1  0  0  0  0
 14 15  1  0  0  0  0
 14 35  1  0  0  0  0
 14 36  1  0  0  0  0
 15 16  1  0  0  0  0
 15 37  1  0  0  0  0
 15 38  1  0  0  0  0
 16 17  1  0  0  0  0
 17 18  1  0  0  0  0
 17 39  1  0  0  0  0
 18 19  1  0  0  0  0
 18 20  1  0  0  0  0
 19 40  1  0  0  0  0
 19 41  1  0  0  0  0
 19 42  1  0  0  0  0
 20 43  1  0  0  0  0
 20 44  1  0  0  0  0
 20 45  1  0  0  0  0
 21 22  2  0  0  0  0
 21 46  1  0  0  0  0
 22 47  1  0  0  0  0
M  CHG  1  22   1
M  END
> <s_m_source_file>
AV-unprocessed.smi

> <i_m_source_file_index>
2923

> <i_lp_mmshare_version>
43012

> <i_f3d_flags>
0

> <s_epik_input>
W0NIM11OKFtDSDNdKWMxW2NIXVtjSF1jKFtjSF1uMSlbTkhdQyg9TylbTkhdW0NASF0yQyhbQ0gzXSkoW0NIM10pW0NAQEhdKFtDQEhdMjMpT1tDSDJdW0NIMl0z

> <s_epik_cmdline>
J2VwaWtfcHl0aG9uJywgJy1waCcsICc3LjAnLCAnLXRuJywgJzgnLCAnLW1hJywgJzIwMCcsICctbWV0YWxfYmluZGluZycsICctaW1hZScsICc8aW5maWxlLm1hZT4nLCAnLW9tYWUnLCAnPG91dGZpbGUubWFlPic=

> <r_lp_tautomer_probability>
0.999994

> <r_epik_Ionization_Penalty>
0.252205

> <r_epik_Ionization_Penalty_Charging>
0.252185

> <r_epik_Ionization_Penalty_Neutral>
1.99479e-05

> <r_epik_State_Penalty>
0.243573

> <r_epik_Charging_Adjusted_Penalty>
0.495758

> <i_epik_Tot_Q>
1

> <i_epik_Tot_abs_Q>
1

> <r_epik_Metal_State_Penalty>
0.534372

> <b_epik_Metal_Only>
0

> <s_lp_Force_Field>
OPLS_2005

> <r_lp_Energy>
46.5408

> <b_lp_Chiralities_Consistent>
1

> <s_lp_Variant>
AV-unprocessed.smi:2923-4

> <Gold.Version>
5.8.1

> <Gold.Id.Protein>
6NUR|6NUR_protein|mol2

> <Gold.PLP.Fitness>
37.5088

> <Gold.PLP.PLP>
-28.8412

> <Gold.PLP.part.hbond>
-2.6069

> <Gold.PLP.part.metal>
0.0000

> <Gold.PLP.part.buried>
-4.6731

> <Gold.PLP.part.nonpolar>
-22.9423

> <Gold.PLP.part.repulsive>
0.2858

> <Gold.PLP.ligand.clash>
0.0000

> <Gold.PLP.ligand.torsion>
0.7344

> <Gold.PLP.Chemscore.Hbond>
3.3163

> <Gold.PLP.Chemscore.CHOScore>
0.0000

> <Gold.PLP.Chemscore.Metal>
0.0000

> <Gold.Chemscore.Hbonds>
donor molecule, donor type, donor heavy atom, donor atom, acceptor molecule, acceptor atom, score
      L1  H     8    31       P1 10175  1.00
      L1  H    11    32       P1 10175  1.00
      L1  H    22    47       P1 10186  1.29

> <Gold.PLP.Chemscore.Internal.Correction>
0.1877

> <Gold.Rescore>
     Score         DG    S(hbond)    S(metal)    S(lipo)     H(rot)  DE(clash)    DE(int)     intcor
     15.10     -17.20       2.17        0.00      60.25       1.00       0.16       1.94       ----

> <Gold.Chemscore.Fitness>
15.0984

> <Gold.Chemscore.DG>
-17.2022

> <Gold.Chemscore.ZeroCoef>
-5.4800

> <Gold.Chemscore.Hbond>
2.1655

> <Gold.Chemscore.Metal>
0.0000

> <Gold.Chemscore.Lipo>
60.2523

> <Gold.Chemscore.Internal_Hbond>
0.0000

> <Gold.Chemscore.DEClash>
0.1604

> <Gold.Chemscore.DEInternal>
1.9434

> <Gold.Chemscore.Rot>
1.0000

> <Gold.Chemscore.Internal.Correction>
   9.000000E+99

> <Gold.Chemscore.Hbonds>
donor molecule, donor type, donor heavy atom, donor atom, acceptor molecule, acceptor atom, score
      L1  H     8    31       P1 10175  0.99
      L1  H    11    32       P1 10175  0.95
      L1  H    22    47       P1 10186  0.13

> <Gold.Chemscore.Hbond.Weighted>
-7.2327

> <Gold.Chemscore.Metal.Weighted>
-0.0000

> <Gold.Chemscore.Lipo.Weighted>
-7.0495

> <Gold.Chemscore.Internal_Hbond.Weighted>
0.0000

> <Gold.Chemscore.DEClash.Weighted>
0.1604

> <Gold.Chemscore.DEInternal.Weighted>
1.9434

> <Gold.Chemscore.Rot.Weighted>
2.5600

> <Gold.Chemscore.Internal.Correction.Weighted>
   9.000000E+99

> <Gold.Protein.RotatedTorsions>
[ 6907 6896 6895 6894 ] final  -25.97 input  -60.11 | X-H torsion
[ 7974 7965 7964 7962 ] final  -98.55 input  175.53 | X-H torsion
[ 8008 7997 7996 7995 ] final   48.64 input   59.86 | X-H torsion
[ 10167 10162 10161 10158 ] final  -86.19 input  -65.29 | X-H torsion
[ 10718 10713 10712 10709 ] final -156.60 input   66.30 | X-H torsion
[ 10763 10752 10751 10750 ] final  168.22 input  -60.55 | X-H torsion
[ 11005 11000 10999 10996 ] final    6.81 input  -57.11 | X-H torsion

> <Gold.Protein.ActiveResidues>
 VAL166  LYS551  ARG553  GLY616  TRP617  ASP618  TYR619  PRO620  LYS621  CYS622 
 ASP623  PHE694  ASN695  SER759  ASP760  ASP761  ALA762  ILE779  LEU786  VAL792 
 PHE793  MET794  SER795  GLU796  ALA797  LYS798  CYS799  TRP800  GLU811  SER814 

> <Gold.Protein.RotatedAtoms>
  151.1676  135.0303  159.8737 H   0  0  0  0  0  0  0  0  0  0  0  0  # atno 6907 bound_to 6896
  152.5450  134.1207  159.8408 H   0  0  0  0  0  0  0  0  0  0  0  0  # atno 6908 bound_to 6896
  151.1310  133.4991  159.2631 H   0  0  0  0  0  0  0  0  0  0  0  0  # atno 6909 bound_to 6896
  145.3191  140.9417  143.2726 H   0  0  0  0  0  0  0  0  0  0  0  0  # atno 7974 bound_to 7965
  155.3890  140.3432  155.4250 H   0  0  0  0  0  0  0  0  0  0  0  0  # atno 8008 bound_to 7997
  156.1568  140.1588  156.8712 H   0  0  0  0  0  0  0  0  0  0  0  0  # atno 8009 bound_to 7997
  154.5102  140.0792  156.7956 H   0  0  0  0  0  0  0  0  0  0  0  0  # atno 8010 bound_to 7997
  140.3965  143.2681  151.9197 H   0  0  0  0  0  0  0  0  0  0  0  0  # atno 10167 bound_to 10162
  156.5287  130.8511  151.2708 H   0  0  0  0  0  0  0  0  0  0  0  0  # atno 10718 bound_to 10713
  154.3654  135.2753  155.2296 H   0  0  0  0  0  0  0  0  0  0  0  0  # atno 10763 bound_to 10752
  154.4467  135.5941  153.6168 H   0  0  0  0  0  0  0  0  0  0  0  0  # atno 10764 bound_to 10752
  152.9841  135.6032  154.3879 H   0  0  0  0  0  0  0  0  0  0  0  0  # atno 10765 bound_to 10752
  140.5553  134.0244  155.7952 H   0  0  0  0  0  0  0  0  0  0  0  0  # atno 11005 bound_to 11000
  144.8954  139.4719  143.6658 LP  0  0  0  0  0  0  0  0  0  0  0  0  # atno 17320 bound_to 7965
  146.3089  139.7676  142.9035 LP  0  0  0  0  0  0  0  0  0  0  0  0  # atno 17321 bound_to 7965
  139.4786  144.5676  151.8140 LP  0  0  0  0  0  0  0  0  0  0  0  0  # atno 17342 bound_to 10162
  140.4785  144.1484  150.5928 LP  0  0  0  0  0  0  0  0  0  0  0  0  # atno 17343 bound_to 10162
  157.7425  130.9892  150.2523 LP  0  0  0  0  0  0  0  0  0  0  0  0  # atno 17370 bound_to 10713
  156.3080  130.3768  149.7688 LP  0  0  0  0  0  0  0  0  0  0  0  0  # atno 17371 bound_to 10713
  141.1147  133.9560  157.2845 LP  0  0  0  0  0  0  0  0  0  0  0  0  # atno 17394 bound_to 11000
  139.9434  135.0188  156.8780 LP  0  0  0  0  0  0  0  0  0  0  0  0  # atno 17395 bound_to 11000

$$$$
