#       Name:                AV-unprocessed.smi:490
#       Creating user name   scv26
#       Creation time:       Thu Mar 26 23:14:42 2020


#       File generated by GOLD software.
#

@<TRIPOS>MOLECULE
AV-unprocessed.smi:490
    56    58     1
SMALL
NO_CHARGES


@<TRIPOS>ATOM
      1 ****        -5.5732   1.1327  -2.5035 C.3            1 S1                 0.0000
      2 ****        -4.7949   1.3617  -1.2191 C.ar           1 S1                 0.0000
      3 ****        -5.5000   1.6855  -0.0421 C.ar           1 S1                 0.0000
      4 ****        -4.8104   1.9095   1.1622 C.ar           1 S1                 0.0000
      5 ****        -3.4067   1.8047   1.2051 C.ar           1 S1                 0.0000
      6 ****        -2.6804   2.0587   2.5133 C.3            1 S1                 0.0000
      7 ****        -2.6912   1.4644   0.0332 C.ar           1 S1                 0.0000
      8 ****        -1.3248   1.3589   0.0796 O.3            1 S1                 0.0000
      9 ****        -0.8644   0.0542   0.4001 C.3            1 S1                 0.0000
     10 ****         0.6680   0.0336   0.3016 C.3            1 S1                 0.0000
     11 ****         1.2009   0.5971   1.4836 O.3            1 S1                 0.0000
     12 ****         1.2137  -1.3978   0.1316 C.3            1 S1                 0.0000
     13 ****         2.6739  -1.4336  -0.0559 N.pl3          1 S1                 0.0000
     14 ****         3.4169  -1.2700  -1.1891 C.2            1 S1                 0.0000
     15 ****         2.9098  -0.9957  -2.5670 C.3            1 S1                 0.0000
     16 ****         2.7167   0.3813  -2.8031 O.3            1 S1                 0.0000
     17 ****         4.7271  -1.3904  -0.8339 N.pl3          1 S1                 1.0000
     18 ****         4.8256  -1.6301   0.5370 C.ar           1 S1                 0.0000
     19 ****         5.9395  -1.8177   1.3498 C.ar           1 S1                 0.0000
     20 ****         5.6928  -2.0362   2.7210 C.ar           1 S1                 0.0000
     21 ****         4.3803  -2.0604   3.2355 C.ar           1 S1                 0.0000
     22 ****         3.2589  -1.8699   2.4011 C.ar           1 S1                 0.0000
     23 ****         3.5105  -1.6571   1.0453 C.ar           1 S1                 0.0000
     24 ****        -3.3817   1.2581  -1.1876 C.ar           1 S1                 0.0000
     25 ****        -2.6103   0.9232  -2.4575 C.3            1 S1                 0.0000
     26 ****        -6.6476   1.1114  -2.3178 H              1 S1                 0.0000
     27 ****        -5.2966   0.1816  -2.9593 H              1 S1                 0.0000
     28 ****        -5.3720   1.9318  -3.2173 H              1 S1                 0.0000
     29 ****        -6.5770   1.7689  -0.0582 H              1 S1                 0.0000
     30 ****        -5.3648   2.1628   2.0540 H              1 S1                 0.0000
     31 ****        -1.7349   2.5744   2.3430 H              1 S1                 0.0000
     32 ****        -2.4727   1.1157   3.0190 H              1 S1                 0.0000
     33 ****        -3.2811   2.6779   3.1801 H              1 S1                 0.0000
     34 ****        -1.2028  -0.2615   1.3884 H              1 S1                 0.0000
     35 ****        -1.2855  -0.6497  -0.3200 H              1 S1                 0.0000
     36 ****         0.9833   0.6372  -0.5502 H              1 S1                 0.0000
     37 ****         0.8730   1.4800   1.5655 H              1 S1                 0.0000
     38 ****         0.9384  -2.0300   0.9760 H              1 S1                 0.0000
     39 ****         0.7658  -1.8639  -0.7462 H              1 S1                 0.0000
     40 ****         3.6193  -1.3845  -3.2978 H              1 S1                 0.0000
     41 ****         1.9687  -1.5217  -2.7265 H              1 S1                 0.0000
     42 ****         2.3807   0.4929  -3.6794 H              1 S1                 0.0000
     43 ****         6.9460  -1.7960   0.9583 H              1 S1                 0.0000
     44 ****         6.5265  -2.1851   3.3920 H              1 S1                 0.0000
     45 ****         4.2296  -2.2263   4.2924 H              1 S1                 0.0000
     46 ****         2.2593  -1.8829   2.8091 H              1 S1                 0.0000
     47 ****        -1.5403   1.1009  -2.3528 H              1 S1                 0.0000
     48 ****        -2.9541   1.5346  -3.2919 H              1 S1                 0.0000
     49 ****        -2.7532  -0.1259  -2.7176 H              1 S1                 0.0000
     50 ****         5.4970  -1.3073  -1.4850 H              1 S1                 0.0000
     51 ****        -0.9823   1.9937   0.7722 LP             1 S1                 0.0000
     52 ****        -0.9579   1.6124  -0.8154 LP             1 S1                 0.0000
     53 ****         2.1994   0.6107   1.4314 LP             1 S1                 0.0000
     54 ****         0.9158   0.0558   2.2746 LP             1 S1                 0.0000
     55 ****         3.5877   0.8640  -2.7123 LP             1 S1                 0.0000
     56 ****         2.0619   0.7479  -2.1420 LP             1 S1                 0.0000
@<TRIPOS>BOND
    1    1    2 1     
    2    1   26 1     
    3    1   27 1     
    4    1   28 1     
    5    2   24 ar    
    6    2    3 ar    
    7    3    4 ar    
    8    3   29 1     
    9    4    5 ar    
   10    4   30 1     
   11    5    6 1     
   12    5    7 ar    
   13    6   31 1     
   14    6   32 1     
   15    6   33 1     
   16    7    8 1     
   17    7   24 ar    
   18    8    9 1     
   19    9   10 1     
   20    9   34 1     
   21    9   35 1     
   22   10   11 1     
   23   10   12 1     
   24   10   36 1     
   25   11   37 1     
   26   12   13 1     
   27   12   38 1     
   28   12   39 1     
   29   13   23 1     
   30   13   14 1     
   31   14   15 1     
   32   14   17 2     
   33   15   16 1     
   34   15   40 1     
   35   15   41 1     
   36   16   42 1     
   37   17   18 1     
   38   17   50 1     
   39   18   23 ar    
   40   18   19 ar    
   41   19   20 ar    
   42   19   43 1     
   43   20   21 ar    
   44   20   44 1     
   45   21   22 ar    
   46   21   45 1     
   47   22   23 ar    
   48   22   46 1     
   49   24   25 1     
   50   25   47 1     
   51   25   48 1     
   52   25   49 1     
   53    8   51 1     
   54    8   52 1     
   55   11   53 1     
   56   11   54 1     
   57   16   55 1     
   58   16   56 1     
@<TRIPOS>SUBSTRUCTURE
      1 S1             1
@<TRIPOS>SET
LONE_PAIRS      STATIC     ATOMS    <user>   **** ""
6 51 52 53 54 55 56
DONOR_HYDROGENS      STATIC     ATOMS    <user>   **** ""
3 37 42 50
ATOM$BLUE        STATIC     ATOMS    COLORGROUP SYSTEM
6 51 52 53 54 55 56
ATOM$RED        STATIC     ATOMS    COLORGROUP SYSTEM
3 37 42 50
