AV-unprocessed.smi:976|AV-procd|sdf|4303|dock4
  -GOLD-   22720 2213D 1   1.00000     0.00000
 Structure written by MMmdl.
 41 42  0  0  0  0  0  0  0  0  1 V2000
  156.9232  139.5422  160.6519 C   0  0  0  0  0  0  0  0  0  0  0  0
  155.4390  139.2012  160.8517 C   0  0  1  0  0  0  0  0  0  0  0  0
  155.2720  138.7863  162.2051 O   0  0  0  0  0  0  0  0  0  0  0  0
  154.4629  137.6302  162.3985 C   0  0  0  0  0  0  0  0  0  0  0  0
  154.8617  136.9458  163.7114 C   0  0  0  0  0  0  0  0  0  0  0  0
  155.1822  137.8745  164.6114 F   0  0  0  0  0  0  0  0  0  0  0  0
  153.8445  136.2258  164.1834 F   0  0  0  0  0  0  0  0  0  0  0  0
  155.9178  136.1564  163.5171 F   0  0  0  0  0  0  0  0  0  0  0  0
  154.5411  140.4115  160.5477 C   0  0  0  0  0  0  0  0  0  0  0  0
  154.5514  141.3856  161.3002 O   0  0  0  0  0  0  0  0  0  0  0  0
  153.7856  140.3135  159.4393 N   0  0  0  0  0  0  0  0  0  0  0  0
  152.8682  141.2648  158.9095 C   0  0  0  0  0  0  0  0  0  0  0  0
  152.5229  142.4502  159.6027 C   0  0  0  0  0  0  0  0  0  0  0  0
  151.5709  143.3209  159.0426 C   0  0  0  0  0  0  0  0  0  0  0  0
  150.9873  142.9695  157.8129 C   0  0  0  0  0  0  0  0  0  0  0  0
  151.2942  141.8375  157.1474 N   0  0  0  0  0  0  0  0  0  0  0  0
  152.2136  140.9940  157.6774 C   0  0  0  0  0  0  0  0  0  0  0  0
  152.5241  139.8303  156.9454 N   0  0  0  0  0  0  0  0  0  0  0  0
  152.1499  138.5491  157.5363 C   0  0  0  0  0  0  0  0  0  0  0  0
  152.7600  137.3976  156.7189 C   0  0  0  0  0  0  0  0  0  0  0  0
  152.3533  137.5089  155.3577 O   0  0  0  0  0  0  0  0  0  0  0  0
  152.7855  138.7311  154.7661 C   0  0  0  0  0  0  0  0  0  0  0  0
  152.1786  139.9197  155.5312 C   0  0  0  0  0  0  0  0  0  0  0  0
  157.1192  139.8799  159.6335 H   0  0  0  0  0  0  0  0  0  0  0  0
  157.5482  138.6677  160.8342 H   0  0  0  0  0  0  0  0  0  0  0  0
  157.2513  140.3271  161.3348 H   0  0  0  0  0  0  0  0  0  0  0  0
  155.1860  138.3736  160.1860 H   0  0  0  0  0  0  0  0  0  0  0  0
  153.4054  137.8941  162.4350 H   0  0  0  0  0  0  0  0  0  0  0  0
  154.5976  136.9383  161.5657 H   0  0  0  0  0  0  0  0  0  0  0  0
  153.9512  139.5033  158.8595 H   0  0  0  0  0  0  0  0  0  0  0  0
  152.9556  142.6958  160.5603 H   0  0  0  0  0  0  0  0  0  0  0  0
  151.2888  144.2322  159.5485 H   0  0  0  0  0  0  0  0  0  0  0  0
  150.2497  143.6107  157.3535 H   0  0  0  0  0  0  0  0  0  0  0  0
  152.4976  138.5002  158.5689 H   0  0  0  0  0  0  0  0  0  0  0  0
  151.0633  138.4528  157.5528 H   0  0  0  0  0  0  0  0  0  0  0  0
  153.8491  137.4076  156.7856 H   0  0  0  0  0  0  0  0  0  0  0  0
  152.4246  136.4383  157.1130 H   0  0  0  0  0  0  0  0  0  0  0  0
  153.8755  138.7837  154.7680 H   0  0  0  0  0  0  0  0  0  0  0  0
  152.4673  138.7535  153.7238 H   0  0  0  0  0  0  0  0  0  0  0  0
  151.0924  139.9141  155.4295 H   0  0  0  0  0  0  0  0  0  0  0  0
  152.5331  140.8564  155.1010 H   0  0  0  0  0  0  0  0  0  0  0  0
  1  2  1  0  0  0  0
  1 24  1  0  0  0  0
  1 25  1  0  0  0  0
  1 26  1  0  0  0  0
  2  3  1  0  0  0  0
  2  9  1  0  0  0  0
  2 27  1  0  0  0  0
  3  4  1  0  0  0  0
  4  5  1  0  0  0  0
  4 28  1  0  0  0  0
  4 29  1  0  0  0  0
  5  6  1  0  0  0  0
  5  7  1  0  0  0  0
  5  8  1  0  0  0  0
  9 10  2  0  0  0  0
  9 11  1  0  0  0  0
 11 12  1  0  0  0  0
 11 30  1  0  0  0  0
 12 17  1  0  0  0  0
 12 13  2  0  0  0  0
 13 14  1  0  0  0  0
 13 31  1  0  0  0  0
 14 15  2  0  0  0  0
 14 32  1  0  0  0  0
 15 16  1  0  0  0  0
 15 33  1  0  0  0  0
 16 17  2  0  0  0  0
 17 18  1  0  0  0  0
 18 23  1  0  0  0  0
 18 19  1  0  0  0  0
 19 20  1  0  0  0  0
 19 34  1  0  0  0  0
 19 35  1  0  0  0  0
 20 21  1  0  0  0  0
 20 36  1  0  0  0  0
 20 37  1  0  0  0  0
 21 22  1  0  0  0  0
 22 23  1  0  0  0  0
 22 38  1  0  0  0  0
 22 39  1  0  0  0  0
 23 40  1  0  0  0  0
 23 41  1  0  0  0  0
M  END
> <s_m_source_file>
AV-unprocessed.smi

> <i_m_source_file_index>
976

> <i_lp_mmshare_version>
43012

> <i_f3d_flags>
0

> <s_epik_input>
RkMoRikoRilbQ0gyXU9bQ0BASF0oW0NIM10pQyg9TylbTkhdYzFbY0hdW2NIXVtjSF1uYzFOMltDSDJdW0NIMl1PW0NIMl1bQ0gyXTI=

> <s_epik_cmdline>
J2VwaWtfcHl0aG9uJywgJy1waCcsICc3LjAnLCAnLXRuJywgJzgnLCAnLW1hJywgJzIwMCcsICctbWV0YWxfYmluZGluZycsICctaW1hZScsICc8aW5maWxlLm1hZT4nLCAnLW9tYWUnLCAnPG91dGZpbGUubWFlPic=

> <r_lp_tautomer_probability>
1

> <r_epik_Ionization_Penalty>
0.000443367

> <r_epik_Ionization_Penalty_Charging>
0

> <r_epik_Ionization_Penalty_Neutral>
0.000443367

> <r_epik_State_Penalty>
0.00027288

> <r_epik_Charging_Adjusted_Penalty>
0.00027288

> <i_epik_Tot_Q>
0

> <i_epik_Tot_abs_Q>
0

> <r_epik_Metal_State_Penalty>
-0

> <b_epik_Metal_Only>
0

> <s_lp_Force_Field>
OPLS_2005

> <r_lp_Energy>
26.1197

> <b_lp_Chiralities_Consistent>
1

> <s_lp_Variant>
AV-unprocessed.smi:976-2

> <Gold.Version>
5.8.1

> <Gold.Id.Protein>
6NUR|6NUR_protein|mol2

> <Gold.PLP.Fitness>
45.0964

> <Gold.PLP.PLP>
-41.9944

> <Gold.PLP.part.hbond>
-3.0000

> <Gold.PLP.part.metal>
0.0000

> <Gold.PLP.part.buried>
-4.2134

> <Gold.PLP.part.nonpolar>
-32.6670

> <Gold.PLP.part.repulsive>
0.1638

> <Gold.PLP.ligand.clash>
0.0000

> <Gold.PLP.ligand.torsion>
1.6658

> <Gold.PLP.Chemscore.Hbond>
1.0440

> <Gold.PLP.Chemscore.CHOScore>
1.0000

> <Gold.PLP.Chemscore.Metal>
0.0000

> <Gold.Chemscore.Hbonds>
donor molecule, donor type, donor heavy atom, donor atom, acceptor molecule, acceptor atom, score
      P1  H  7997  8008       L1    18  0.86
      P1  H 10752 10765       L1    21  0.19
      L1  C    15    33       P1  8028  1.00

> <Gold.PLP.Chemscore.Internal.Correction>
0.3016

> <Gold.Rescore>
     Score         DG    S(hbond)    S(metal)    S(lipo)     H(rot)  DE(clash)    DE(int)     intcor
      8.13     -11.09       0.00        0.00      90.59       1.95       0.18       2.77       ----

> <Gold.Chemscore.Fitness>
8.1344

> <Gold.Chemscore.DG>
-11.0896

> <Gold.Chemscore.ZeroCoef>
-5.4800

> <Gold.Chemscore.Hbond>
0.0000

> <Gold.Chemscore.Metal>
0.0000

> <Gold.Chemscore.Lipo>
90.5922

> <Gold.Chemscore.Internal_Hbond>
0.0000

> <Gold.Chemscore.DEClash>
0.1850

> <Gold.Chemscore.DEInternal>
2.7702

> <Gold.Chemscore.Rot>
1.9491

> <Gold.Chemscore.Internal.Correction>
   9.000000E+99

> <Gold.Chemscore.Hbonds>
donor molecule, donor type, donor heavy atom, donor atom, acceptor molecule, acceptor atom, score
      P1  H  7997  8008       L1    18  0.04
      P1  H 10752 10765       L1    21  0.12

> <Gold.Chemscore.Hbond.Weighted>
-0.0000

> <Gold.Chemscore.Metal.Weighted>
-0.0000

> <Gold.Chemscore.Lipo.Weighted>
-10.5993

> <Gold.Chemscore.Internal_Hbond.Weighted>
0.0000

> <Gold.Chemscore.DEClash.Weighted>
0.1850

> <Gold.Chemscore.DEInternal.Weighted>
2.7702

> <Gold.Chemscore.Rot.Weighted>
4.9897

> <Gold.Chemscore.Internal.Correction.Weighted>
   9.000000E+99

> <Gold.Protein.RotatedTorsions>
[ 6907 6896 6895 6894 ] final   90.30 input  -60.11 | X-H torsion
[ 7974 7965 7964 7962 ] final  137.70 input  175.53 | X-H torsion
[ 8008 7997 7996 7995 ] final  -75.95 input   59.86 | X-H torsion
[ 10167 10162 10161 10158 ] final  -31.18 input  -65.29 | X-H torsion
[ 10718 10713 10712 10709 ] final  154.30 input   66.30 | X-H torsion
[ 10763 10752 10751 10750 ] final  152.77 input  -60.55 | X-H torsion
[ 11005 11000 10999 10996 ] final   99.33 input  -57.11 | X-H torsion

> <Gold.Protein.ActiveResidues>
 VAL166  LYS551  ARG553  GLY616  TRP617  ASP618  TYR619  PRO620  LYS621  CYS622 
 ASP623  PHE694  ASN695  SER759  ASP760  ASP761  ALA762  ILE779  LEU786  VAL792 
 PHE793  MET794  SER795  GLU796  ALA797  LYS798  CYS799  TRP800  GLU811  SER814 

> <Gold.Protein.RotatedAtoms>
  152.5443  134.1833  159.8644 H   0  0  0  0  0  0  0  0  0  0  0  0  # atno 6907 bound_to 6896
  151.1834  133.4704  159.2602 H   0  0  0  0  0  0  0  0  0  0  0  0  # atno 6908 bound_to 6896
  151.1155  135.0062  159.8569 H   0  0  0  0  0  0  0  0  0  0  0  0  # atno 6909 bound_to 6896
  144.9443  139.4894  143.5557 H   0  0  0  0  0  0  0  0  0  0  0  0  # atno 7974 bound_to 7965
  154.5462  140.0735  156.8592 H   0  0  0  0  0  0  0  0  0  0  0  0  # atno 8008 bound_to 7997
  155.3083  140.3388  155.4227 H   0  0  0  0  0  0  0  0  0  0  0  0  # atno 8009 bound_to 7997
  156.1920  140.1689  156.8059 H   0  0  0  0  0  0  0  0  0  0  0  0  # atno 8010 bound_to 7997
  140.7240  143.3791  151.1634 H   0  0  0  0  0  0  0  0  0  0  0  0  # atno 10167 bound_to 10162
  157.2334  131.0744  151.1838 H   0  0  0  0  0  0  0  0  0  0  0  0  # atno 10718 bound_to 10713
  154.1254  135.2830  155.3198 H   0  0  0  0  0  0  0  0  0  0  0  0  # atno 10763 bound_to 10752
  154.6393  135.5408  153.7774 H   0  0  0  0  0  0  0  0  0  0  0  0  # atno 10764 bound_to 10752
  153.0299  135.6482  154.1406 H   0  0  0  0  0  0  0  0  0  0  0  0  # atno 10765 bound_to 10752
  139.8771  134.9090  156.4589 H   0  0  0  0  0  0  0  0  0  0  0  0  # atno 11005 bound_to 11000
  146.3297  139.8484  142.8877 LP  0  0  0  0  0  0  0  0  0  0  0  0  # atno 17320 bound_to 7965
  145.2943  141.0176  143.3645 LP  0  0  0  0  0  0  0  0  0  0  0  0  # atno 17321 bound_to 7965
  139.7376  143.8974  152.3040 LP  0  0  0  0  0  0  0  0  0  0  0  0  # atno 17342 bound_to 10162
  139.8784  144.7031  150.8906 LP  0  0  0  0  0  0  0  0  0  0  0  0  # atno 17343 bound_to 10162
  157.3454  130.7054  149.6407 LP  0  0  0  0  0  0  0  0  0  0  0  0  # atno 17370 bound_to 10713
  155.9674  130.4268  150.4714 LP  0  0  0  0  0  0  0  0  0  0  0  0  # atno 17371 bound_to 10713
  140.8878  133.7870  155.9538 LP  0  0  0  0  0  0  0  0  0  0  0  0  # atno 17394 bound_to 11000
  140.8786  134.2639  157.5155 LP  0  0  0  0  0  0  0  0  0  0  0  0  # atno 17395 bound_to 11000

$$$$
