AV-unprocessed.smi:3255|AV-procd|sdf|12459|dock5
  -GOLD-   2272018353D 1   1.00000     0.00000
 Structure written by MMmdl.
 39 40  0  0  0  0  0  0  0  0  2 V2000
  150.8160  135.1195  156.1196 C   0  0  0  0  0  0  0  0  0  0  0  0
  149.7717  136.0745  155.5239 C   0  0  2  0  0  0  0  0  0  0  0  0
  149.1231  135.4187  154.3891 N   0  0  0  0  0  0  0  0  0  0  0  0
  148.4896  134.2380  154.4295 C   0  0  0  0  0  0  0  0  0  0  0  0
  148.3860  133.5421  155.4401 O   0  0  0  0  0  0  0  0  0  0  0  0
  147.9557  133.9168  153.2425 N   0  0  0  0  0  0  0  0  0  0  0  0
  147.1695  132.7156  152.9745 C   0  0  0  0  0  0  0  0  0  0  0  0
  146.6856  132.6468  151.5125 C   0  0  0  0  0  0  0  0  0  0  0  0
  145.7092  133.6887  151.1774 N   0  0  0  0  0  0  0  0  0  0  0  0
  145.8884  135.0469  151.2399 C   0  0  0  0  0  0  0  0  0  0  0  0
  144.7032  135.6161  150.8511 C   0  0  0  0  0  0  0  0  0  0  0  0
  143.8547  134.5824  150.5584 N   0  3  0  0  0  0  0  0  0  0  0  0
  144.4704  133.4113  150.7503 C   0  0  0  0  0  0  0  0  0  0  0  0
  150.4032  137.4142  155.0907 C   0  0  1  0  0  0  0  0  0  0  0  0
  150.7407  138.3767  156.2288 C   0  0  0  0  0  0  0  0  0  0  0  0
  151.7601  139.2944  155.5862 C   0  0  0  0  0  0  0  0  0  0  0  0
  152.4256  138.4063  154.5314 C   0  0  0  0  0  0  0  0  0  0  0  0
  151.6747  137.1959  154.4966 O   0  0  0  0  0  0  0  0  0  0  0  0
  151.2977  135.5592  156.9933 H   0  0  0  0  0  0  0  0  0  0  0  0
  151.5962  134.8805  155.3960 H   0  0  0  0  0  0  0  0  0  0  0  0
  150.3564  134.1828  156.4366 H   0  0  0  0  0  0  0  0  0  0  0  0
  149.0333  136.2777  156.3013 H   0  0  0  0  0  0  0  0  0  0  0  0
  149.1506  135.9119  153.5087 H   0  0  0  0  0  0  0  0  0  0  0  0
  148.0965  134.5516  152.4699 H   0  0  0  0  0  0  0  0  0  0  0  0
  147.8077  131.8557  153.1794 H   0  0  0  0  0  0  0  0  0  0  0  0
  146.3285  132.6363  153.6657 H   0  0  0  0  0  0  0  0  0  0  0  0
  147.5277  132.7334  150.8245 H   0  0  0  0  0  0  0  0  0  0  0  0
  146.2156  131.6822  151.3175 H   0  0  0  0  0  0  0  0  0  0  0  0
  146.8179  135.4964  151.5580 H   0  0  0  0  0  0  0  0  0  0  0  0
  144.4079  136.6517  150.7646 H   0  0  0  0  0  0  0  0  0  0  0  0
  144.0449  132.4345  150.6047 H   0  0  0  0  0  0  0  0  0  0  0  0
  149.7619  137.9203  154.3663 H   0  0  0  0  0  0  0  0  0  0  0  0
  149.8696  138.9126  156.6055 H   0  0  0  0  0  0  0  0  0  0  0  0
  151.1979  137.8378  157.0601 H   0  0  0  0  0  0  0  0  0  0  0  0
  151.2576  140.1330  155.1024 H   0  0  0  0  0  0  0  0  0  0  0  0
  152.4709  139.6976  156.3081 H   0  0  0  0  0  0  0  0  0  0  0  0
  152.4107  138.8858  153.5520 H   0  0  0  0  0  0  0  0  0  0  0  0
  153.4626  138.1846  154.7845 H   0  0  0  0  0  0  0  0  0  0  0  0
  142.8976  134.6865  150.2457 H   0  0  0  0  0  0  0  0  0  0  0  0
  1  2  1  0  0  0  0
  1 19  1  0  0  0  0
  1 20  1  0  0  0  0
  1 21  1  0  0  0  0
  2  3  1  0  0  0  0
  2 14  1  0  0  0  0
  2 22  1  0  0  0  0
  3  4  1  0  0  0  0
  3 23  1  0  0  0  0
  4  5  2  0  0  0  0
  4  6  1  0  0  0  0
  6  7  1  0  0  0  0
  6 24  1  0  0  0  0
  7  8  1  0  0  0  0
  7 25  1  0  0  0  0
  7 26  1  0  0  0  0
  8  9  1  0  0  0  0
  8 27  1  0  0  0  0
  8 28  1  0  0  0  0
  9 13  1  0  0  0  0
  9 10  1  0  0  0  0
 10 11  2  0  0  0  0
 10 29  1  0  0  0  0
 11 12  1  0  0  0  0
 11 30  1  0  0  0  0
 12 13  2  0  0  0  0
 12 39  1  0  0  0  0
 13 31  1  0  0  0  0
 14 18  1  0  0  0  0
 14 15  1  0  0  0  0
 14 32  1  0  0  0  0
 15 16  1  0  0  0  0
 15 33  1  0  0  0  0
 15 34  1  0  0  0  0
 16 17  1  0  0  0  0
 16 35  1  0  0  0  0
 16 36  1  0  0  0  0
 17 18  1  0  0  0  0
 17 37  1  0  0  0  0
 17 38  1  0  0  0  0
M  CHG  1  12   1
M  END
> <s_m_source_file>
AV-unprocessed.smi

> <i_m_source_file_index>
3255

> <i_lp_mmshare_version>
43012

> <i_f3d_flags>
0

> <s_epik_input>
TzFbQ0gyXVtDSDJdW0NIMl1bQ0BIXTFbQ0BIXShbQ0gzXSlbTkhdQyg9TylbTkhdW0NIMl1bQ0gyXW4yW2NIXVtjSF1uW2NIXTI=

> <s_epik_cmdline>
J2VwaWtfcHl0aG9uJywgJy1waCcsICc3LjAnLCAnLXRuJywgJzgnLCAnLW1hJywgJzIwMCcsICctbWV0YWxfYmluZGluZycsICctaW1hZScsICc8aW5maWxlLm1hZT4nLCAnLW9tYWUnLCAnPG91dGZpbGUubWFlPic=

> <r_lp_tautomer_probability>
1

> <r_epik_Ionization_Penalty>
0.256241

> <r_epik_Ionization_Penalty_Charging>
0

> <r_epik_Ionization_Penalty_Neutral>
0.256241

> <r_epik_State_Penalty>
0.247735

> <r_epik_Charging_Adjusted_Penalty>
0.247735

> <i_epik_Tot_Q>
1

> <i_epik_Tot_abs_Q>
1

> <r_epik_Metal_State_Penalty>
0.537184

> <b_epik_Metal_Only>
0

> <s_lp_Force_Field>
OPLS_2005

> <r_lp_Energy>
17.3031

> <b_lp_Chiralities_Consistent>
1

> <s_lp_Variant>
AV-unprocessed.smi:3255-3

> <Gold.Version>
5.8.1

> <Gold.Id.Protein>
6NUR|6NUR_protein|mol2

> <Gold.PLP.Fitness>
48.8745

> <Gold.PLP.PLP>
-31.7879

> <Gold.PLP.part.hbond>
-4.0000

> <Gold.PLP.part.metal>
0.0000

> <Gold.PLP.part.buried>
-4.4973

> <Gold.PLP.part.nonpolar>
-23.2747

> <Gold.PLP.part.repulsive>
0.2163

> <Gold.PLP.ligand.clash>
0.0000

> <Gold.PLP.ligand.torsion>
0.3649

> <Gold.PLP.Chemscore.Hbond>
4.9280

> <Gold.PLP.Chemscore.CHOScore>
1.0000

> <Gold.PLP.Chemscore.Metal>
0.0000

> <Gold.Chemscore.Hbonds>
donor molecule, donor type, donor heavy atom, donor atom, acceptor molecule, acceptor atom, score
      L1  H     3    23       P1  7948  1.00
      L1  H     6    24       P1  7948  0.94
      L1  H    12    39       P1 10186  2.00
      P1  H 10752 10763       L1    18  1.00
      L1  C    10    29       P1  7948  1.00

> <Gold.PLP.Chemscore.Internal.Correction>
0.0324

> <Gold.Rescore>
     Score         DG    S(hbond)    S(metal)    S(lipo)     H(rot)  DE(clash)    DE(int)     intcor
     13.76     -15.69       2.77        0.00      57.57       2.26       0.20       1.73       ----

> <Gold.Chemscore.Fitness>
13.7564

> <Gold.Chemscore.DG>
-15.6882

> <Gold.Chemscore.ZeroCoef>
-5.4800

> <Gold.Chemscore.Hbond>
2.7748

> <Gold.Chemscore.Metal>
0.0000

> <Gold.Chemscore.Lipo>
57.5746

> <Gold.Chemscore.Internal_Hbond>
0.0000

> <Gold.Chemscore.DEClash>
0.2047

> <Gold.Chemscore.DEInternal>
1.7270

> <Gold.Chemscore.Rot>
2.2640

> <Gold.Chemscore.Internal.Correction>
   9.000000E+99

> <Gold.Chemscore.Hbonds>
donor molecule, donor type, donor heavy atom, donor atom, acceptor molecule, acceptor atom, score
      L1  H     3    23       P1  7948  0.82
      L1  H     6    24       P1  7948  0.31
      L1  H    12    39       P1 10186  0.47
      P1  H 10752 10763       L1    18  0.62

> <Gold.Chemscore.Hbond.Weighted>
-9.2677

> <Gold.Chemscore.Metal.Weighted>
-0.0000

> <Gold.Chemscore.Lipo.Weighted>
-6.7362

> <Gold.Chemscore.Internal_Hbond.Weighted>
0.0000

> <Gold.Chemscore.DEClash.Weighted>
0.2047

> <Gold.Chemscore.DEInternal.Weighted>
1.7270

> <Gold.Chemscore.Rot.Weighted>
5.7958

> <Gold.Chemscore.Internal.Correction.Weighted>
   9.000000E+99

> <Gold.Protein.RotatedTorsions>
[ 6907 6896 6895 6894 ] final  -82.82 input  -60.11 | X-H torsion
[ 7974 7965 7964 7962 ] final   99.54 input  175.53 | X-H torsion
[ 8008 7997 7996 7995 ] final  -29.13 input   59.86 | X-H torsion
[ 10167 10162 10161 10158 ] final  105.73 input  -65.29 | X-H torsion
[ 10718 10713 10712 10709 ] final -176.53 input   66.30 | X-H torsion
[ 10763 10752 10751 10750 ] final   41.91 input  -60.55 | X-H torsion
[ 11005 11000 10999 10996 ] final  146.65 input  -57.11 | X-H torsion

> <Gold.Protein.ActiveResidues>
 VAL166  LYS551  ARG553  GLY616  TRP617  ASP618  TYR619  PRO620  LYS621  CYS622 
 ASP623  PHE694  ASN695  SER759  ASP760  ASP761  ALA762  ILE779  LEU786  VAL792 
 PHE793  MET794  SER795  GLU796  ALA797  LYS798  CYS799  TRP800  GLU811  SER814 

> <Gold.Protein.RotatedAtoms>
  150.6892  134.3607  159.4948 H   0  0  0  0  0  0  0  0  0  0  0  0  # atno 6907 bound_to 6896
  152.1436  134.9040  160.0561 H   0  0  0  0  0  0  0  0  0  0  0  0  # atno 6908 bound_to 6896
  152.0165  133.3847  159.4277 H   0  0  0  0  0  0  0  0  0  0  0  0  # atno 6909 bound_to 6896
  145.3975  139.2353  143.3318 H   0  0  0  0  0  0  0  0  0  0  0  0  # atno 7974 bound_to 7965
  154.4303  140.1826  156.1199 H   0  0  0  0  0  0  0  0  0  0  0  0  # atno 8008 bound_to 7997
  156.0151  140.3346  155.6956 H   0  0  0  0  0  0  0  0  0  0  0  0  # atno 8009 bound_to 7997
  155.6055  140.0644  157.2712 H   0  0  0  0  0  0  0  0  0  0  0  0  # atno 8010 bound_to 7997
  139.7068  144.7085  151.1094 H   0  0  0  0  0  0  0  0  0  0  0  0  # atno 10167 bound_to 10162
  156.8160  130.9603  151.3114 H   0  0  0  0  0  0  0  0  0  0  0  0  # atno 10718 bound_to 10713
  152.9896  135.6147  154.2864 H   0  0  0  0  0  0  0  0  0  0  0  0  # atno 10763 bound_to 10752
  154.2591  135.2783  155.2787 H   0  0  0  0  0  0  0  0  0  0  0  0  # atno 10764 bound_to 10752
  154.5221  135.5812  153.6746 H   0  0  0  0  0  0  0  0  0  0  0  0  # atno 10765 bound_to 10752
  140.0810  134.9097  157.1501 H   0  0  0  0  0  0  0  0  0  0  0  0  # atno 11005 bound_to 11000
  146.2768  140.4667  142.8792 LP  0  0  0  0  0  0  0  0  0  0  0  0  # atno 17320 bound_to 7965
  144.8397  140.6838  143.6237 LP  0  0  0  0  0  0  0  0  0  0  0  0  # atno 17321 bound_to 7965
  140.7723  143.5348  150.9381 LP  0  0  0  0  0  0  0  0  0  0  0  0  # atno 17342 bound_to 10162
  139.9031  143.6811  152.3128 LP  0  0  0  0  0  0  0  0  0  0  0  0  # atno 17343 bound_to 10162
  157.6481  130.8861  149.9579 LP  0  0  0  0  0  0  0  0  0  0  0  0  # atno 17370 bound_to 10713
  156.1016  130.3655  150.0208 LP  0  0  0  0  0  0  0  0  0  0  0  0  # atno 17371 bound_to 10713
  140.3487  134.2622  155.7201 LP  0  0  0  0  0  0  0  0  0  0  0  0  # atno 17394 bound_to 11000
  141.2047  133.7880  157.0275 LP  0  0  0  0  0  0  0  0  0  0  0  0  # atno 17395 bound_to 11000

$$$$
