#       Name:                AV-unprocessed.smi:821
#       Creating user name   scv26
#       Creation time:       Fri Mar 27 01:28:27 2020


#       File generated by GOLD software.
#

@<TRIPOS>MOLECULE
AV-unprocessed.smi:821
    51    52     1
SMALL
NO_CHARGES


@<TRIPOS>ATOM
      1 ****        -2.5823  -1.7718  -2.5848 C.3            1 S1                 0.0000
      2 ****        -1.9574  -1.1355  -1.3334 C.3            1 S1                 0.0000
      3 ****        -2.4646  -1.8098  -0.0396 C.3            1 S1                 0.0000
      4 ****        -2.5673  -0.9359   1.1312 N.3            1 S1                 0.0000
      5 ****        -3.2214  -1.6277   2.2374 C.3            1 S1                 0.0000
      6 ****        -3.3439  -0.7373   3.4859 C.3            1 S1                 0.0000
      7 ****        -2.0511  -0.2846   3.8738 O.3            1 S1                 0.0000
      8 ****        -1.3944   0.4430   2.8413 C.3            1 S1                 0.0000
      9 ****        -1.2705  -0.4351   1.5842 C.3            1 S1                 0.0000
     10 ****        -0.5040  -1.2592  -1.4110 N.am           1 S1                 0.0000
     11 ****         0.3300  -0.3441  -1.9265 C.2            1 S1                 0.0000
     12 ****        -0.0524   0.6918  -2.4717 O.2            1 S1                 0.0000
     13 ****         1.8280  -0.6563  -1.8093 C.3            1 S1                 0.0000
     14 ****         2.6375   0.5437  -1.5372 N.am           1 S1                 0.0000
     15 ****         3.3537   1.0903  -2.6170 C.2            1 S1                 0.0000
     16 ****         4.1121   2.1860  -2.4778 C.2            1 S1                 0.0000
     17 ****         4.1783   2.8097  -1.1787 C.2            1 S1                 0.0000
     18 ****         3.5021   2.3059  -0.1203 C.2            1 S1                 0.0000
     19 ****         3.5494   2.9615   1.2579 C.3            1 S1                 0.0000
     20 ****         4.0692   2.1239   2.1558 F              1 S1                 0.0000
     21 ****         4.2931   4.0688   1.2542 F              1 S1                 0.0000
     22 ****         2.3232   3.2966   1.6619 F              1 S1                 0.0000
     23 ****         2.6773   1.0913  -0.2822 C.2            1 S1                 0.0000
     24 ****         2.0532   0.5886   0.6544 O.2            1 S1                 0.0000
     25 ****        -3.6682  -1.6751  -2.5729 H              1 S1                 0.0000
     26 ****        -2.3427  -2.8335  -2.6530 H              1 S1                 0.0000
     27 ****        -2.2229  -1.2890  -3.4942 H              1 S1                 0.0000
     28 ****        -2.2480  -0.0831  -1.3155 H              1 S1                 0.0000
     29 ****        -3.4626  -2.1999  -0.2440 H              1 S1                 0.0000
     30 ****        -1.8569  -2.6857   0.1936 H              1 S1                 0.0000
     31 ****        -4.2153  -1.9579   1.9328 H              1 S1                 0.0000
     32 ****        -2.6596  -2.5275   2.4940 H              1 S1                 0.0000
     33 ****        -3.9941   0.1170   3.2909 H              1 S1                 0.0000
     34 ****        -3.7867  -1.2974   4.3094 H              1 S1                 0.0000
     35 ****        -1.9498   1.3560   2.6208 H              1 S1                 0.0000
     36 ****        -0.4066   0.7455   3.1895 H              1 S1                 0.0000
     37 ****        -0.6005  -1.2712   1.7904 H              1 S1                 0.0000
     38 ****        -0.8021   0.1585   0.8004 H              1 S1                 0.0000
     39 ****        -0.0979  -2.0835  -0.9924 H              1 S1                 0.0000
     40 ****         1.9936  -1.3975  -1.0246 H              1 S1                 0.0000
     41 ****         2.1450  -1.1422  -2.7329 H              1 S1                 0.0000
     42 ****         3.2444   0.5693  -3.5571 H              1 S1                 0.0000
     43 ****         4.6548   2.5946  -3.3175 H              1 S1                 0.0000
     44 ****         4.7803   3.6991  -1.0676 H              1 S1                 0.0000
     45 ****        -3.1157  -0.1513   0.8421 LP             1 S1                 0.0000
     46 ****        -1.4917  -1.0785   4.1121 LP             1 S1                 0.0000
     47 ****        -2.1458   0.3084   4.6734 LP             1 S1                 0.0000
     48 ****        -1.0306   0.8853  -2.5473 LP             1 S1                 0.0000
     49 ****         0.6152   1.3395  -2.8388 LP             1 S1                 0.0000
     50 ****         1.5048  -0.2343   0.5054 LP             1 S1                 0.0000
     51 ****         2.0952   1.0036   1.5633 LP             1 S1                 0.0000
@<TRIPOS>BOND
    1    1    2 1     
    2    1   25 1     
    3    1   26 1     
    4    1   27 1     
    5    2    3 1     
    6    2   10 1     
    7    2   28 1     
    8    3    4 1     
    9    3   29 1     
   10    3   30 1     
   11    4    9 1     
   12    4    5 1     
   13    5    6 1     
   14    5   31 1     
   15    5   32 1     
   16    6    7 1     
   17    6   33 1     
   18    6   34 1     
   19    7    8 1     
   20    8    9 1     
   21    8   35 1     
   22    8   36 1     
   23    9   37 1     
   24    9   38 1     
   25   10   11 am    
   26   10   39 1     
   27   11   12 2     
   28   11   13 1     
   29   13   14 1     
   30   13   40 1     
   31   13   41 1     
   32   14   23 am    
   33   14   15 1     
   34   15   16 2     
   35   15   42 1     
   36   16   17 1     
   37   16   43 1     
   38   17   18 2     
   39   17   44 1     
   40   18   19 1     
   41   18   23 1     
   42   19   20 1     
   43   19   21 1     
   44   19   22 1     
   45   23   24 2     
   46    4   45 1     
   47    7   46 1     
   48    7   47 1     
   49   12   48 1     
   50   12   49 1     
   51   24   50 1     
   52   24   51 1     
@<TRIPOS>SUBSTRUCTURE
      1 S1             1
@<TRIPOS>SET
LONE_PAIRS      STATIC     ATOMS    <user>   **** ""
7 45 46 47 48 49 50 51
DONOR_HYDROGENS      STATIC     ATOMS    <user>   **** ""
1 39
ATOM$BLUE        STATIC     ATOMS    COLORGROUP SYSTEM
7 45 46 47 48 49 50 51
ATOM$RED        STATIC     ATOMS    COLORGROUP SYSTEM
1 39
