AV-unprocessed.smi:1413|AV-procd|sdf|5756|dock3
  -GOLD-   22720 5393D 1   1.00000     0.00000
 Structure written by MMmdl.
 53 55  0  0  0  0  0  0  0  0  1 V2000
  152.3078  144.3199  156.7817 C   0  0  0  0  0  0  0  0  0  0  0  0
  151.3077  143.7353  157.7948 C   0  0  1  0  0  0  0  0  0  0  0  0
  150.5868  142.4709  157.2868 C   0  0  0  0  0  0  0  0  0  0  0  0
  151.4689  141.3083  157.3324 N   0  0  0  0  0  0  0  0  0  0  0  0
  151.0072  140.1732  156.6325 C   0  0  0  0  0  0  0  0  0  0  0  0
  150.6321  139.0081  157.3403 C   0  0  0  0  0  0  0  0  0  0  0  0
  150.1803  137.8853  156.6218 C   0  0  0  0  0  0  0  0  0  0  0  0
  150.1087  137.9451  155.2165 C   0  0  0  0  0  0  0  0  0  0  0  0
  149.6567  136.7827  154.5317 N   0  0  0  0  0  0  0  0  0  0  0  0
  149.4073  135.5508  155.0093 C   0  0  0  0  0  0  0  0  0  0  0  0
  149.5494  135.1915  156.1770 O   0  0  0  0  0  0  0  0  0  0  0  0
  148.9813  134.7354  154.0342 N   0  0  0  0  0  0  0  0  0  0  0  0
  148.6106  133.3319  154.2052 C   0  0  2  0  0  0  0  0  0  0  0  0
  149.8144  132.5332  154.7321 C   0  0  0  0  0  0  0  0  0  0  0  0
  148.0827  132.7634  152.8738 C   0  0  2  0  0  0  0  0  0  0  0  0
  146.9057  133.5371  152.2723 C   0  0  0  0  0  0  0  0  0  0  0  0
  146.2220  132.4705  151.4492 C   0  0  0  0  0  0  0  0  0  0  0  0
  146.3695  131.2503  152.3511 C   0  0  0  0  0  0  0  0  0  0  0  0
  147.5941  131.4351  153.0558 O   0  0  0  0  0  0  0  0  0  0  0  0
  150.5040  139.1543  154.5948 C   0  0  0  0  0  0  0  0  0  0  0  0
  150.9355  140.2340  155.2807 N   0  0  0  0  0  0  0  0  0  0  0  0
  152.0821  141.1057  158.6420 C   0  0  0  0  0  0  0  0  0  0  0  0
  152.8148  142.3821  159.0926 C   0  0  2  0  0  0  0  0  0  0  0  0
  153.3651  142.2537  160.5168 C   0  0  0  0  0  0  0  0  0  0  0  0
  151.9111  143.4863  159.0664 O   0  0  0  0  0  0  0  0  0  0  0  0
  151.7968  144.6252  155.8686 H   0  0  0  0  0  0  0  0  0  0  0  0
  153.0763  143.6021  156.4962 H   0  0  0  0  0  0  0  0  0  0  0  0
  152.8048  145.1995  157.1910 H   0  0  0  0  0  0  0  0  0  0  0  0
  150.5500  144.5008  157.9640 H   0  0  0  0  0  0  0  0  0  0  0  0
  149.7231  142.2652  157.9204 H   0  0  0  0  0  0  0  0  0  0  0  0
  150.2002  142.6519  156.2848 H   0  0  0  0  0  0  0  0  0  0  0  0
  150.6741  138.9688  158.4187 H   0  0  0  0  0  0  0  0  0  0  0  0
  149.8904  136.9884  157.1497 H   0  0  0  0  0  0  0  0  0  0  0  0
  149.5156  136.9018  153.5393 H   0  0  0  0  0  0  0  0  0  0  0  0
  148.8982  135.1138  153.1021 H   0  0  0  0  0  0  0  0  0  0  0  0
  147.8042  133.2655  154.9380 H   0  0  0  0  0  0  0  0  0  0  0  0
  149.5542  131.4858  154.8858 H   0  0  0  0  0  0  0  0  0  0  0  0
  150.1607  132.9251  155.6888 H   0  0  0  0  0  0  0  0  0  0  0  0
  150.6513  132.5688  154.0340 H   0  0  0  0  0  0  0  0  0  0  0  0
  148.8875  132.7191  152.1379 H   0  0  0  0  0  0  0  0  0  0  0  0
  146.2336  133.8878  153.0569 H   0  0  0  0  0  0  0  0  0  0  0  0
  147.2183  134.3977  151.6805 H   0  0  0  0  0  0  0  0  0  0  0  0
  145.1838  132.7062  151.2148 H   0  0  0  0  0  0  0  0  0  0  0  0
  146.7601  132.3161  150.5130 H   0  0  0  0  0  0  0  0  0  0  0  0
  145.5560  131.2135  153.0767 H   0  0  0  0  0  0  0  0  0  0  0  0
  146.3677  130.3148  151.7913 H   0  0  0  0  0  0  0  0  0  0  0  0
  150.4957  139.2889  153.5255 H   0  0  0  0  0  0  0  0  0  0  0  0
  151.3079  140.8397  159.3633 H   0  0  0  0  0  0  0  0  0  0  0  0
  152.7905  140.2772  158.6030 H   0  0  0  0  0  0  0  0  0  0  0  0
  153.6536  142.5772  158.4244 H   0  0  0  0  0  0  0  0  0  0  0  0
  154.0683  141.4239  160.5926 H   0  0  0  0  0  0  0  0  0  0  0  0
  152.5638  142.0806  161.2357 H   0  0  0  0  0  0  0  0  0  0  0  0
  153.8896  143.1620  160.8147 H   0  0  0  0  0  0  0  0  0  0  0  0
  1  2  1  0  0  0  0
  1 26  1  0  0  0  0
  1 27  1  0  0  0  0
  1 28  1  0  0  0  0
  2 25  1  0  0  0  0
  2  3  1  0  0  0  0
  2 29  1  0  0  0  0
  3  4  1  0  0  0  0
  3 30  1  0  0  0  0
  3 31  1  0  0  0  0
  4  5  1  0  0  0  0
  4 22  1  0  0  0  0
  5 21  1  0  0  0  0
  5  6  2  0  0  0  0
  6  7  1  0  0  0  0
  6 32  1  0  0  0  0
  7  8  2  0  0  0  0
  7 33  1  0  0  0  0
  8  9  1  0  0  0  0
  8 20  1  0  0  0  0
  9 10  1  0  0  0  0
  9 34  1  0  0  0  0
 10 11  2  0  0  0  0
 10 12  1  0  0  0  0
 12 13  1  0  0  0  0
 12 35  1  0  0  0  0
 13 14  1  0  0  0  0
 13 15  1  0  0  0  0
 13 36  1  0  0  0  0
 14 37  1  0  0  0  0
 14 38  1  0  0  0  0
 14 39  1  0  0  0  0
 15 19  1  0  0  0  0
 15 16  1  0  0  0  0
 15 40  1  0  0  0  0
 16 17  1  0  0  0  0
 16 41  1  0  0  0  0
 16 42  1  0  0  0  0
 17 18  1  0  0  0  0
 17 43  1  0  0  0  0
 17 44  1  0  0  0  0
 18 19  1  0  0  0  0
 18 45  1  0  0  0  0
 18 46  1  0  0  0  0
 20 21  2  0  0  0  0
 20 47  1  0  0  0  0
 22 23  1  0  0  0  0
 22 48  1  0  0  0  0
 22 49  1  0  0  0  0
 23 24  1  0  0  0  0
 23 25  1  0  0  0  0
 23 50  1  0  0  0  0
 24 51  1  0  0  0  0
 24 52  1  0  0  0  0
 24 53  1  0  0  0  0
M  END
> <s_m_source_file>
AV-unprocessed.smi

> <i_m_source_file_index>
1413

> <i_lp_mmshare_version>
43012

> <i_f3d_flags>
0

> <s_epik_input>
W0NIM11bQ0BASF0xW0NIMl1OKFtDSDJdW0NASF0oTzEpW0NIM10pYzJbY0hdW2NIXWMoW2NIXW4yKVtOSF1DKD1PKVtOSF1bQ0BIXShbQ0gzXSlbQ0BASF0zW0NIMl1bQ0gyXVtDSDJdTzM=

> <s_epik_cmdline>
J2VwaWtfcHl0aG9uJywgJy1waCcsICc3LjAnLCAnLXRuJywgJzgnLCAnLW1hJywgJzIwMCcsICctbWV0YWxfYmluZGluZycsICctaW1hZScsICc8aW5maWxlLm1hZT4nLCAnLW9tYWUnLCAnPG91dGZpbGUubWFlPic=

> <r_lp_tautomer_probability>
1

> <r_epik_Ionization_Penalty>
0.00271172

> <r_epik_Ionization_Penalty_Charging>
0

> <r_epik_Ionization_Penalty_Neutral>
0.00271172

> <r_epik_State_Penalty>
0.00186503

> <r_epik_Charging_Adjusted_Penalty>
0.00186503

> <i_epik_Tot_Q>
0

> <i_epik_Tot_abs_Q>
0

> <r_epik_Metal_State_Penalty>
-0

> <b_epik_Metal_Only>
0

> <s_lp_Force_Field>
OPLS_2005

> <r_lp_Energy>
36.1099

> <b_lp_Chiralities_Consistent>
1

> <s_lp_Variant>
AV-unprocessed.smi:1413-9

> <Gold.Version>
5.8.1

> <Gold.Id.Protein>
6NUR|6NUR_protein|mol2

> <Gold.PLP.Fitness>
50.2562

> <Gold.PLP.PLP>
-41.5859

> <Gold.PLP.part.hbond>
-3.0000

> <Gold.PLP.part.metal>
0.0000

> <Gold.PLP.part.buried>
-6.2240

> <Gold.PLP.part.nonpolar>
-33.7133

> <Gold.PLP.part.repulsive>
0.2214

> <Gold.PLP.ligand.clash>
0.0000

> <Gold.PLP.ligand.torsion>
0.4542

> <Gold.PLP.Chemscore.Hbond>
2.3000

> <Gold.PLP.Chemscore.CHOScore>
0.7826

> <Gold.PLP.Chemscore.Metal>
0.0000

> <Gold.Chemscore.Hbonds>
donor molecule, donor type, donor heavy atom, donor atom, acceptor molecule, acceptor atom, score
      L1  H     9    34       P1  7948  1.00
      L1  H    12    35       P1  7948  1.00
      P1  H  7989  7998       L1    21  0.30
      L1  C    20    47       P1  7957  0.77

> <Gold.PLP.Chemscore.Internal.Correction>
0.3307

> <Gold.Rescore>
     Score         DG    S(hbond)    S(metal)    S(lipo)     H(rot)  DE(clash)    DE(int)     intcor
     17.92     -21.32       1.79        0.00     113.65       1.35       1.56       1.83       ----

> <Gold.Chemscore.Fitness>
17.9224

> <Gold.Chemscore.DG>
-21.3180

> <Gold.Chemscore.ZeroCoef>
-5.4800

> <Gold.Chemscore.Hbond>
1.7934

> <Gold.Chemscore.Metal>
0.0000

> <Gold.Chemscore.Lipo>
113.6459

> <Gold.Chemscore.Internal_Hbond>
0.0000

> <Gold.Chemscore.DEClash>
1.5624

> <Gold.Chemscore.DEInternal>
1.8331

> <Gold.Chemscore.Rot>
1.3471

> <Gold.Chemscore.Internal.Correction>
   9.000000E+99

> <Gold.Chemscore.Hbonds>
donor molecule, donor type, donor heavy atom, donor atom, acceptor molecule, acceptor atom, score
      L1  H     9    34       P1  7948  0.81
      L1  H    12    35       P1  7948  0.34

> <Gold.Chemscore.Hbond.Weighted>
-5.9900

> <Gold.Chemscore.Metal.Weighted>
-0.0000

> <Gold.Chemscore.Lipo.Weighted>
-13.2966

> <Gold.Chemscore.Internal_Hbond.Weighted>
0.0000

> <Gold.Chemscore.DEClash.Weighted>
1.5624

> <Gold.Chemscore.DEInternal.Weighted>
1.8331

> <Gold.Chemscore.Rot.Weighted>
3.4485

> <Gold.Chemscore.Internal.Correction.Weighted>
   9.000000E+99

> <Gold.Protein.RotatedTorsions>
[ 6907 6896 6895 6894 ] final -121.94 input  -60.11 | X-H torsion
[ 7974 7965 7964 7962 ] final -168.98 input  175.53 | X-H torsion
[ 8008 7997 7996 7995 ] final   -2.32 input   59.86 | X-H torsion
[ 10167 10162 10161 10158 ] final   31.76 input  -65.29 | X-H torsion
[ 10718 10713 10712 10709 ] final  136.47 input   66.30 | X-H torsion
[ 10763 10752 10751 10750 ] final -136.51 input  -60.55 | X-H torsion
[ 11005 11000 10999 10996 ] final  -10.96 input  -57.11 | X-H torsion

> <Gold.Protein.ActiveResidues>
 VAL166  LYS551  ARG553  GLY616  TRP617  ASP618  TYR619  PRO620  LYS621  CYS622 
 ASP623  PHE694  ASN695  SER759  ASP760  ASP761  ALA762  ILE779  LEU786  VAL792 
 PHE793  MET794  SER795  GLU796  ALA797  LYS798  CYS799  TRP800  GLU811  SER814 

> <Gold.Protein.RotatedAtoms>
  150.8530  133.7759  159.3018 H   0  0  0  0  0  0  0  0  0  0  0  0  # atno 6907 bound_to 6896
  151.5425  135.1066  159.9939 H   0  0  0  0  0  0  0  0  0  0  0  0  # atno 6908 bound_to 6896
  152.4567  133.7695  159.6847 H   0  0  0  0  0  0  0  0  0  0  0  0  # atno 6909 bound_to 6896
  144.7193  140.2289  143.6306 H   0  0  0  0  0  0  0  0  0  0  0  0  # atno 7974 bound_to 7965
  154.6370  140.2537  155.7366 H   0  0  0  0  0  0  0  0  0  0  0  0  # atno 8008 bound_to 7997
  156.2509  140.2895  156.0667 H   0  0  0  0  0  0  0  0  0  0  0  0  # atno 8009 bound_to 7997
  155.1655  140.0385  157.2842 H   0  0  0  0  0  0  0  0  0  0  0  0  # atno 8010 bound_to 7997
  140.4560  144.0978  150.6202 H   0  0  0  0  0  0  0  0  0  0  0  0  # atno 10167 bound_to 10162
  157.4463  131.1062  151.0085 H   0  0  0  0  0  0  0  0  0  0  0  0  # atno 10718 bound_to 10713
  154.8682  135.3670  154.5073 H   0  0  0  0  0  0  0  0  0  0  0  0  # atno 10763 bound_to 10752
  153.5710  135.7020  153.5509 H   0  0  0  0  0  0  0  0  0  0  0  0  # atno 10764 bound_to 10752
  153.3542  135.4064  155.1632 H   0  0  0  0  0  0  0  0  0  0  0  0  # atno 10765 bound_to 10752
  140.7502  133.8598  155.9039 H   0  0  0  0  0  0  0  0  0  0  0  0  # atno 11005 bound_to 11000
  145.8430  139.2139  143.1816 LP  0  0  0  0  0  0  0  0  0  0  0  0  # atno 17320 bound_to 7965
  146.0329  140.8240  142.9867 LP  0  0  0  0  0  0  0  0  0  0  0  0  # atno 17321 bound_to 7965
  140.4151  143.2638  151.9785 LP  0  0  0  0  0  0  0  0  0  0  0  0  # atno 17342 bound_to 10162
  139.4801  144.5881  151.7819 LP  0  0  0  0  0  0  0  0  0  0  0  0  # atno 17343 bound_to 10162
  157.0931  130.5950  149.5444 LP  0  0  0  0  0  0  0  0  0  0  0  0  # atno 17370 bound_to 10713
  155.9969  130.5039  150.7513 LP  0  0  0  0  0  0  0  0  0  0  0  0  # atno 17371 bound_to 10713
  140.9758  134.1471  157.4538 LP  0  0  0  0  0  0  0  0  0  0  0  0  # atno 17394 bound_to 11000
  139.8789  134.9994  156.5952 LP  0  0  0  0  0  0  0  0  0  0  0  0  # atno 17395 bound_to 11000

$$$$
