AV-unprocessed.smi:3029|AV-procd|sdf|11528|dock4
  -GOLD-   2272016473D 1   1.00000     0.00000
 Structure written by MMmdl.
 42 43  0  0  0  0  0  0  0  0  4 V2000
  149.6873  134.4239  157.6252 O   0  0  0  0  0  0  0  0  0  0  0  0
  149.8692  135.4696  157.0015 C   0  0  0  0  0  0  0  0  0  0  0  0
  150.2718  136.7139  157.6650 C   0  0  0  0  0  0  0  0  0  0  0  0
  150.4491  137.8585  156.9760 C   0  0  0  0  0  0  0  0  0  0  0  0
  150.2417  137.8929  155.5409 C   0  0  0  0  0  0  0  0  0  0  0  0
  150.4112  139.1193  154.7933 N   0  3  0  0  0  0  0  0  0  0  0  0
  149.5350  139.4611  154.0047 O   0  0  0  0  0  0  0  0  0  0  0  0
  151.4276  139.7820  154.9730 O   0  5  0  0  0  0  0  0  0  0  0  0
  149.8803  136.7459  154.9326 C   0  0  0  0  0  0  0  0  0  0  0  0
  149.7041  135.5447  155.6463 N   0  0  0  0  0  0  0  0  0  0  0  0
  149.3067  134.3607  154.8730 C   0  0  0  0  0  0  0  0  0  0  0  0
  147.8384  134.4478  154.4266 C   0  0  0  0  0  0  0  0  0  0  0  0
  147.7139  134.1849  152.9780 N   0  3  0  0  0  0  0  0  0  0  0  0
  146.3929  133.6815  152.5344 C   0  0  1  0  0  0  0  0  0  0  0  0
  145.8911  134.5192  151.3356 C   0  0  0  0  0  0  0  0  0  0  0  0
  144.5499  134.0099  150.7943 C   0  0  0  0  0  0  0  0  0  0  0  0
  144.6490  132.5320  150.4048 C   0  0  0  0  0  0  0  0  0  0  0  0
  145.1147  131.6866  151.5972 C   0  0  0  0  0  0  0  0  0  0  0  0
  146.4675  132.1689  152.1729 C   0  0  2  0  0  0  0  0  0  0  0  0
  146.8844  131.2716  153.3667 C   0  0  0  0  0  0  0  0  0  0  0  0
  146.7652  129.9824  153.0493 F   0  0  0  0  0  0  0  0  0  0  0  0
  148.1525  131.5152  153.6978 F   0  0  0  0  0  0  0  0  0  0  0  0
  146.1364  131.5178  154.4419 F   0  0  0  0  0  0  0  0  0  0  0  0
  150.4307  136.7111  158.7337 H   0  0  0  0  0  0  0  0  0  0  0  0
  150.7471  138.7498  157.5085 H   0  0  0  0  0  0  0  0  0  0  0  0
  149.6971  136.6682  153.8703 H   0  0  0  0  0  0  0  0  0  0  0  0
  149.9501  134.2515  153.9985 H   0  0  0  0  0  0  0  0  0  0  0  0
  149.4682  133.4525  155.4573 H   0  0  0  0  0  0  0  0  0  0  0  0
  147.2366  133.7201  154.9728 H   0  0  0  0  0  0  0  0  0  0  0  0
  147.4420  135.4356  154.6615 H   0  0  0  0  0  0  0  0  0  0  0  0
  147.9354  135.0252  152.4633 H   0  0  0  0  0  0  0  0  0  0  0  0
  145.6875  133.7941  153.3593 H   0  0  0  0  0  0  0  0  0  0  0  0
  145.7768  135.5654  151.6183 H   0  0  0  0  0  0  0  0  0  0  0  0
  146.6326  134.4976  150.5354 H   0  0  0  0  0  0  0  0  0  0  0  0
  143.7735  134.1420  151.5492 H   0  0  0  0  0  0  0  0  0  0  0  0
  144.2472  134.6030  149.9310 H   0  0  0  0  0  0  0  0  0  0  0  0
  143.6813  132.1749  150.0509 H   0  0  0  0  0  0  0  0  0  0  0  0
  145.3456  132.4138  149.5737 H   0  0  0  0  0  0  0  0  0  0  0  0
  144.3516  131.7148  152.3761 H   0  0  0  0  0  0  0  0  0  0  0  0
  145.1893  130.6454  151.2821 H   0  0  0  0  0  0  0  0  0  0  0  0
  147.2176  132.0461  151.3897 H   0  0  0  0  0  0  0  0  0  0  0  0
  148.3998  133.4798  152.7469 H   0  0  0  0  0  0  0  0  0  0  0  0
  1  2  2  0  0  0  0
  2 10  1  0  0  0  0
  2  3  1  0  0  0  0
  3  4  2  0  0  0  0
  3 24  1  0  0  0  0
  4  5  1  0  0  0  0
  4 25  1  0  0  0  0
  5  6  1  0  0  0  0
  5  9  2  0  0  0  0
  6  7  2  0  0  0  0
  6  8  1  0  0  0  0
  9 10  1  0  0  0  0
  9 26  1  0  0  0  0
 10 11  1  0  0  0  0
 11 12  1  0  0  0  0
 11 27  1  0  0  0  0
 11 28  1  0  0  0  0
 12 13  1  0  0  0  0
 12 29  1  0  0  0  0
 12 30  1  0  0  0  0
 13 14  1  0  0  0  0
 13 31  1  0  0  0  0
 13 42  1  0  0  0  0
 14 19  1  0  0  0  0
 14 15  1  0  0  0  0
 14 32  1  0  0  0  0
 15 16  1  0  0  0  0
 15 33  1  0  0  0  0
 15 34  1  0  0  0  0
 16 17  1  0  0  0  0
 16 35  1  0  0  0  0
 16 36  1  0  0  0  0
 17 18  1  0  0  0  0
 17 37  1  0  0  0  0
 17 38  1  0  0  0  0
 18 19  1  0  0  0  0
 18 39  1  0  0  0  0
 18 40  1  0  0  0  0
 19 20  1  0  0  0  0
 19 41  1  0  0  0  0
 20 21  1  0  0  0  0
 20 22  1  0  0  0  0
 20 23  1  0  0  0  0
M  CHG  1   6   1
M  CHG  1   8  -1
M  CHG  1  13   1
M  END
> <s_m_source_file>
AV-unprocessed.smi

> <i_m_source_file_index>
3029

> <i_lp_mmshare_version>
43012

> <i_f3d_flags>
0

> <s_epik_input>
Tz1jMVtjSF1bY0hdYyhbTitdKD1PKVtPLV0pW2NIXW4xW0NIMl1bQ0gyXVtOSF1bQ0BASF0yW0NIMl1bQ0gyXVtDSDJdW0NIMl1bQ0BIXTJDKEYpKEYpRg==

> <s_epik_cmdline>
J2VwaWtfcHl0aG9uJywgJy1waCcsICc3LjAnLCAnLXRuJywgJzgnLCAnLW1hJywgJzIwMCcsICctbWV0YWxfYmluZGluZycsICctaW1hZScsICc8aW5maWxlLm1hZT4nLCAnLW9tYWUnLCAnPG91dGZpbGUubWFlPic=

> <r_lp_tautomer_probability>
1

> <r_epik_Ionization_Penalty>
0.037386

> <r_epik_Ionization_Penalty_Charging>
0.037386

> <r_epik_Ionization_Penalty_Neutral>
0

> <r_epik_State_Penalty>
0.0312892

> <r_epik_Charging_Adjusted_Penalty>
0.0686752

> <i_epik_Tot_Q>
1

> <i_epik_Tot_abs_Q>
3

> <r_epik_Metal_State_Penalty>
0.0312892

> <b_epik_Metal_Only>
0

> <s_lp_Force_Field>
OPLS_2005

> <r_lp_Energy>
31.4453

> <b_lp_Chiralities_Consistent>
1

> <s_lp_Variant>
AV-unprocessed.smi:3029-4

> <Gold.Version>
5.8.1

> <Gold.Id.Protein>
6NUR|6NUR_protein|mol2

> <Gold.PLP.Fitness>
44.3839

> <Gold.PLP.PLP>
-34.0156

> <Gold.PLP.part.hbond>
-3.0000

> <Gold.PLP.part.metal>
0.0000

> <Gold.PLP.part.buried>
-6.0363

> <Gold.PLP.part.nonpolar>
-26.3547

> <Gold.PLP.part.repulsive>
0.9245

> <Gold.PLP.ligand.clash>
0.0000

> <Gold.PLP.ligand.torsion>
2.3342

> <Gold.PLP.Chemscore.Hbond>
3.9760

> <Gold.PLP.Chemscore.CHOScore>
1.0000

> <Gold.PLP.Chemscore.Metal>
0.0000

> <Gold.Chemscore.Hbonds>
donor molecule, donor type, donor heavy atom, donor atom, acceptor molecule, acceptor atom, score
      L1  H    13    31       P1  7948  2.00
      P1  H  6896  6907       L1     1  0.99
      P1  H  7989  7998       L1     8  1.00
      L1  C     9    26       P1  7948  1.00

> <Gold.PLP.Chemscore.Internal.Correction>
0.1087

> <Gold.Rescore>
     Score         DG    S(hbond)    S(metal)    S(lipo)     H(rot)  DE(clash)    DE(int)     intcor
     13.31     -17.25       2.71        0.00      64.85       1.90       0.55       3.40       ----

> <Gold.Chemscore.Fitness>
13.3062

> <Gold.Chemscore.DG>
-17.2511

> <Gold.Chemscore.ZeroCoef>
-5.4800

> <Gold.Chemscore.Hbond>
2.7118

> <Gold.Chemscore.Metal>
0.0000

> <Gold.Chemscore.Lipo>
64.8496

> <Gold.Chemscore.Internal_Hbond>
0.0000

> <Gold.Chemscore.DEClash>
0.5461

> <Gold.Chemscore.DEInternal>
3.3989

> <Gold.Chemscore.Rot>
1.9037

> <Gold.Chemscore.Internal.Correction>
   9.000000E+99

> <Gold.Chemscore.Hbonds>
donor molecule, donor type, donor heavy atom, donor atom, acceptor molecule, acceptor atom, score
      L1  H    13    31       P1  7948  0.89
      P1  H  6896  6907       L1     1  0.89
      P1  H  7989  7998       L1     8  0.65

> <Gold.Chemscore.Hbond.Weighted>
-9.0573

> <Gold.Chemscore.Metal.Weighted>
-0.0000

> <Gold.Chemscore.Lipo.Weighted>
-7.5874

> <Gold.Chemscore.Internal_Hbond.Weighted>
0.0000

> <Gold.Chemscore.DEClash.Weighted>
0.5461

> <Gold.Chemscore.DEInternal.Weighted>
3.3989

> <Gold.Chemscore.Rot.Weighted>
4.8736

> <Gold.Chemscore.Internal.Correction.Weighted>
   9.000000E+99

> <Gold.Protein.RotatedTorsions>
[ 6907 6896 6895 6894 ] final -111.80 input  -60.11 | X-H torsion
[ 7974 7965 7964 7962 ] final  -21.01 input  175.53 | X-H torsion
[ 8008 7997 7996 7995 ] final -148.85 input   59.86 | X-H torsion
[ 10167 10162 10161 10158 ] final -152.15 input  -65.29 | X-H torsion
[ 10718 10713 10712 10709 ] final    9.22 input   66.30 | X-H torsion
[ 10763 10752 10751 10750 ] final   79.76 input  -60.55 | X-H torsion
[ 11005 11000 10999 10996 ] final  170.11 input  -57.11 | X-H torsion

> <Gold.Protein.ActiveResidues>
 VAL166  LYS551  ARG553  GLY616  TRP617  ASP618  TYR619  PRO620  LYS621  CYS622 
 ASP623  PHE694  ASN695  SER759  ASP760  ASP761  ALA762  ILE779  LEU786  VAL792 
 PHE793  MET794  SER795  GLU796  ALA797  LYS798  CYS799  TRP800  GLU811  SER814 

> <Gold.Protein.RotatedAtoms>
  150.7715  133.9182  159.3389 H   0  0  0  0  0  0  0  0  0  0  0  0  # atno 6907 bound_to 6896
  151.7068  135.0918  160.0270 H   0  0  0  0  0  0  0  0  0  0  0  0  # atno 6908 bound_to 6896
  152.3734  133.6411  159.6140 H   0  0  0  0  0  0  0  0  0  0  0  0  # atno 6909 bound_to 6896
  146.1757  140.4282  142.8514 H   0  0  0  0  0  0  0  0  0  0  0  0  # atno 7974 bound_to 7965
  155.5982  140.0659  157.2740 H   0  0  0  0  0  0  0  0  0  0  0  0  # atno 8008 bound_to 7997
  154.4286  140.1823  156.1193 H   0  0  0  0  0  0  0  0  0  0  0  0  # atno 8009 bound_to 7997
  156.0180  140.3320  155.7012 H   0  0  0  0  0  0  0  0  0  0  0  0  # atno 8010 bound_to 7997
  139.7206  143.8963  152.2502 H   0  0  0  0  0  0  0  0  0  0  0  0  # atno 10167 bound_to 10162
  156.9631  130.5940  149.5663 H   0  0  0  0  0  0  0  0  0  0  0  0  # atno 10718 bound_to 10713
  153.0978  135.4828  154.8811 H   0  0  0  0  0  0  0  0  0  0  0  0  # atno 10763 bound_to 10752
  154.7345  135.3067  154.8838 H   0  0  0  0  0  0  0  0  0  0  0  0  # atno 10764 bound_to 10752
  153.9464  135.6828  153.4797 H   0  0  0  0  0  0  0  0  0  0  0  0  # atno 10765 bound_to 10752
  140.3049  134.7565  157.3946 H   0  0  0  0  0  0  0  0  0  0  0  0  # atno 11005 bound_to 11000
  144.8232  140.6584  143.6339 LP  0  0  0  0  0  0  0  0  0  0  0  0  # atno 17320 bound_to 7965
  145.4219  139.1562  143.4069 LP  0  0  0  0  0  0  0  0  0  0  0  0  # atno 17321 bound_to 7965
  139.8858  144.6993  150.8826 LP  0  0  0  0  0  0  0  0  0  0  0  0  # atno 17342 bound_to 10162
  140.7753  143.3625  151.1801 LP  0  0  0  0  0  0  0  0  0  0  0  0  # atno 17343 bound_to 10162
  156.0314  130.5405  150.8543 LP  0  0  0  0  0  0  0  0  0  0  0  0  # atno 17370 bound_to 10713
  157.5644  131.0946  150.9511 LP  0  0  0  0  0  0  0  0  0  0  0  0  # atno 17371 bound_to 10713
  140.1076  134.5389  155.8295 LP  0  0  0  0  0  0  0  0  0  0  0  0  # atno 17394 bound_to 11000
  141.2120  133.6714  156.6628 LP  0  0  0  0  0  0  0  0  0  0  0  0  # atno 17395 bound_to 11000

$$$$
