AV-unprocessed.smi:2083|AV-procd|sdf|8495|dock3
  -GOLD-   2272011203D 1   1.00000     0.00000
 Structure written by MMmdl.
 45 46  0  0  0  0  0  0  0  0  2 V2000
  152.1524  139.9196  155.6880 C   0  0  0  0  0  0  0  0  0  0  0  0
  151.6913  138.5445  155.3466 C   0  0  0  0  0  0  0  0  0  0  0  0
  150.6303  138.0701  154.6274 C   0  0  0  0  0  0  0  0  0  0  0  0
  150.7955  136.6617  154.7053 C   0  0  0  0  0  0  0  0  0  0  0  0
  149.8755  135.7843  154.0759 N   0  0  0  0  0  0  0  0  0  0  0  0
  149.4010  134.6201  154.5506 C   0  0  0  0  0  0  0  0  0  0  0  0
  149.7166  134.1111  155.6265 O   0  0  0  0  0  0  0  0  0  0  0  0
  148.5299  134.0616  153.6966 N   0  0  0  0  0  0  0  0  0  0  0  0
  147.8074  132.8125  153.9238 C   0  0  0  0  0  0  0  0  0  0  0  0
  147.6221  131.9856  152.6250 C   0  0  1  0  0  0  0  0  0  0  0  0
  147.4248  130.4785  152.8799 C   0  0  0  0  0  0  0  0  0  0  0  0
  146.5326  132.5102  151.7498 N   0  3  1  0  0  0  0  0  0  0  0  0
  146.0006  131.5484  150.7460 C   0  0  0  0  0  0  0  0  0  0  0  0
  145.0839  132.2630  149.7413 C   0  0  0  0  0  0  0  0  0  0  0  0
  143.9423  132.9939  150.4635 C   0  0  0  0  0  0  0  0  0  0  0  0
  144.4816  133.9398  151.5532 C   0  0  2  0  0  0  0  0  0  0  0  0
  145.1193  135.2138  150.9719 C   0  0  0  0  0  0  0  0  0  0  0  0
  145.4399  133.1868  152.5001 C   0  0  0  0  0  0  0  0  0  0  0  0
  151.8616  136.3080  155.4068 N   0  0  0  0  0  0  0  0  0  0  0  0
  152.4407  137.5131  155.8217 O   0  0  0  0  0  0  0  0  0  0  0  0
  151.5014  140.6713  155.2413 H   0  0  0  0  0  0  0  0  0  0  0  0
  153.1653  140.0891  155.3231 H   0  0  0  0  0  0  0  0  0  0  0  0
  152.1512  140.0703  156.7675 H   0  0  0  0  0  0  0  0  0  0  0  0
  149.8617  138.6415  154.1287 H   0  0  0  0  0  0  0  0  0  0  0  0
  149.5360  136.0816  153.1732 H   0  0  0  0  0  0  0  0  0  0  0  0
  148.3316  134.5506  152.8358 H   0  0  0  0  0  0  0  0  0  0  0  0
  148.3152  132.2271  154.6914 H   0  0  0  0  0  0  0  0  0  0  0  0
  146.8373  133.0797  154.3417 H   0  0  0  0  0  0  0  0  0  0  0  0
  148.5474  132.0647  152.0523 H   0  0  0  0  0  0  0  0  0  0  0  0
  148.3176  130.0294  153.3148 H   0  0  0  0  0  0  0  0  0  0  0  0
  147.2219  129.9453  151.9506 H   0  0  0  0  0  0  0  0  0  0  0  0
  146.5985  130.2851  153.5640 H   0  0  0  0  0  0  0  0  0  0  0  0
  146.8159  131.0700  150.2042 H   0  0  0  0  0  0  0  0  0  0  0  0
  145.4407  130.7566  151.2450 H   0  0  0  0  0  0  0  0  0  0  0  0
  145.6653  132.9696  149.1483 H   0  0  0  0  0  0  0  0  0  0  0  0
  144.6719  131.5401  149.0363 H   0  0  0  0  0  0  0  0  0  0  0  0
  143.3301  133.5431  149.7473 H   0  0  0  0  0  0  0  0  0  0  0  0
  143.2835  132.2561  150.9232 H   0  0  0  0  0  0  0  0  0  0  0  0
  143.6282  134.2691  152.1473 H   0  0  0  0  0  0  0  0  0  0  0  0
  146.0055  134.9920  150.3773 H   0  0  0  0  0  0  0  0  0  0  0  0
  145.4192  135.8979  151.7660 H   0  0  0  0  0  0  0  0  0  0  0  0
  144.4153  135.7462  150.3316 H   0  0  0  0  0  0  0  0  0  0  0  0
  144.8788  132.4455  153.0702 H   0  0  0  0  0  0  0  0  0  0  0  0
  145.8566  133.8864  153.2257 H   0  0  0  0  0  0  0  0  0  0  0  0
  146.9699  133.2454  151.2128 H   0  0  0  0  0  0  0  0  0  0  0  0
  1  2  1  0  0  0  0
  1 21  1  0  0  0  0
  1 22  1  0  0  0  0
  1 23  1  0  0  0  0
  2 20  1  0  0  0  0
  2  3  2  0  0  0  0
  3  4  1  0  0  0  0
  3 24  1  0  0  0  0
  4  5  1  0  0  0  0
  4 19  2  0  0  0  0
  5  6  1  0  0  0  0
  5 25  1  0  0  0  0
  6  7  2  0  0  0  0
  6  8  1  0  0  0  0
  8  9  1  0  0  0  0
  8 26  1  0  0  0  0
  9 10  1  0  0  0  0
  9 27  1  0  0  0  0
  9 28  1  0  0  0  0
 10 11  1  0  0  0  0
 10 12  1  0  0  0  0
 10 29  1  0  0  0  0
 11 30  1  0  0  0  0
 11 31  1  0  0  0  0
 11 32  1  0  0  0  0
 12 18  1  0  0  0  0
 12 13  1  0  0  0  0
 12 45  1  0  0  0  0
 13 14  1  0  0  0  0
 13 33  1  0  0  0  0
 13 34  1  0  0  0  0
 14 15  1  0  0  0  0
 14 35  1  0  0  0  0
 14 36  1  0  0  0  0
 15 16  1  0  0  0  0
 15 37  1  0  0  0  0
 15 38  1  0  0  0  0
 16 17  1  0  0  0  0
 16 18  1  0  0  0  0
 16 39  1  0  0  0  0
 17 40  1  0  0  0  0
 17 41  1  0  0  0  0
 17 42  1  0  0  0  0
 18 43  1  0  0  0  0
 18 44  1  0  0  0  0
 19 20  1  0  0  0  0
M  CHG  1  12   1
M  END
> <s_m_source_file>
AV-unprocessed.smi

> <i_m_source_file_index>
2083

> <i_lp_mmshare_version>
43012

> <i_f3d_flags>
0

> <s_epik_input>
W0NIM11jMVtjSF1jKG5vMSlbTkhdQyg9TylbTkhdW0NIMl1bQ0BIXShbQ0gzXSlOMltDSDJdW0NIMl1bQ0gyXVtDQEBIXShbQ0gzXSlbQ0gyXTI=

> <s_epik_cmdline>
J2VwaWtfcHl0aG9uJywgJy1waCcsICc3LjAnLCAnLXRuJywgJzgnLCAnLW1hJywgJzIwMCcsICctbWV0YWxfYmluZGluZycsICctaW1hZScsICc8aW5maWxlLm1hZT4nLCAnLW9tYWUnLCAnPG91dGZpbGUubWFlPic=

> <r_epik_Ionization_Penalty>
0.00216453

> <r_epik_Ionization_Penalty_Charging>
0.00212879

> <r_epik_Ionization_Penalty_Neutral>
3.57418e-05

> <r_epik_State_Penalty>
0.00146033

> <r_epik_Charging_Adjusted_Penalty>
0.00358912

> <i_epik_Tot_Q>
1

> <i_epik_Tot_abs_Q>
1

> <r_epik_Metal_State_Penalty>
0.0215827

> <b_epik_Metal_Only>
0

> <s_lp_Force_Field>
OPLS_2005

> <r_lp_Energy>
20.2755

> <b_lp_Chiralities_Consistent>
1

> <s_lp_Variant>
AV-unprocessed.smi:2083-6

> <Gold.Version>
5.8.1

> <Gold.Id.Protein>
6NUR|6NUR_protein|mol2

> <Gold.PLP.Fitness>
39.1450

> <Gold.PLP.PLP>
-33.7323

> <Gold.PLP.part.hbond>
-4.6079

> <Gold.PLP.part.metal>
0.0000

> <Gold.PLP.part.buried>
-0.8411

> <Gold.PLP.part.nonpolar>
-27.8877

> <Gold.PLP.part.repulsive>
0.1485

> <Gold.PLP.ligand.clash>
0.0000

> <Gold.PLP.ligand.torsion>
1.3910

> <Gold.PLP.Chemscore.Hbond>
2.6911

> <Gold.PLP.Chemscore.CHOScore>
0.0000

> <Gold.PLP.Chemscore.Metal>
0.0000

> <Gold.Chemscore.Hbonds>
donor molecule, donor type, donor heavy atom, donor atom, acceptor molecule, acceptor atom, score
      L1  H     5    25       P1  7948  0.65
      L1  H     8    26       P1  7948  0.77
      P1  H 10752 10763       L1    19  1.00

> <Gold.PLP.Chemscore.Internal.Correction>
0.1212

> <Gold.Rescore>
     Score         DG    S(hbond)    S(metal)    S(lipo)     H(rot)  DE(clash)    DE(int)     intcor
     16.68     -18.85       2.42        0.00      78.97       1.55       0.97       1.20       ----

> <Gold.Chemscore.Fitness>
16.6768

> <Gold.Chemscore.DG>
-18.8475

> <Gold.Chemscore.ZeroCoef>
-5.4800

> <Gold.Chemscore.Hbond>
2.4218

> <Gold.Chemscore.Metal>
0.0000

> <Gold.Chemscore.Lipo>
78.9746

> <Gold.Chemscore.Internal_Hbond>
0.0000

> <Gold.Chemscore.DEClash>
0.9684

> <Gold.Chemscore.DEInternal>
1.2023

> <Gold.Chemscore.Rot>
1.5474

> <Gold.Chemscore.Internal.Correction>
   9.000000E+99

> <Gold.Chemscore.Hbonds>
donor molecule, donor type, donor heavy atom, donor atom, acceptor molecule, acceptor atom, score
      L1  H     5    25       P1  7948  0.15
      L1  H     8    26       P1  7948  0.26
      P1  H 10752 10763       L1    19  0.43

> <Gold.Chemscore.Hbond.Weighted>
-8.0887

> <Gold.Chemscore.Metal.Weighted>
-0.0000

> <Gold.Chemscore.Lipo.Weighted>
-9.2400

> <Gold.Chemscore.Internal_Hbond.Weighted>
0.0000

> <Gold.Chemscore.DEClash.Weighted>
0.9684

> <Gold.Chemscore.DEInternal.Weighted>
1.2023

> <Gold.Chemscore.Rot.Weighted>
3.9612

> <Gold.Chemscore.Internal.Correction.Weighted>
   9.000000E+99

> <Gold.Protein.RotatedTorsions>
[ 6907 6896 6895 6894 ] final  -84.44 input  -60.11 | X-H torsion
[ 7974 7965 7964 7962 ] final -136.35 input  175.53 | X-H torsion
[ 8008 7997 7996 7995 ] final -137.19 input   59.86 | X-H torsion
[ 10167 10162 10161 10158 ] final -141.74 input  -65.29 | X-H torsion
[ 10718 10713 10712 10709 ] final   -2.54 input   66.30 | X-H torsion
[ 10763 10752 10751 10750 ] final   56.77 input  -60.55 | X-H torsion
[ 11005 11000 10999 10996 ] final  -48.86 input  -57.11 | X-H torsion

> <Gold.Protein.ActiveResidues>
 VAL166  LYS551  ARG553  GLY616  TRP617  ASP618  TYR619  PRO620  LYS621  CYS622 
 ASP623  PHE694  ASN695  SER759  ASP760  ASP761  ALA762  ILE779  LEU786  VAL792 
 PHE793  MET794  SER795  GLU796  ALA797  LYS798  CYS799  TRP800  GLU811  SER814 

> <Gold.Protein.RotatedAtoms>
  150.6876  134.3358  159.4846 H   0  0  0  0  0  0  0  0  0  0  0  0  # atno 6907 bound_to 6896
  152.1217  134.9198  160.0572 H   0  0  0  0  0  0  0  0  0  0  0  0  # atno 6908 bound_to 6896
  152.0401  133.3939  159.4370 H   0  0  0  0  0  0  0  0  0  0  0  0  # atno 6909 bound_to 6896
  144.8935  140.6674  143.5130 H   0  0  0  0  0  0  0  0  0  0  0  0  # atno 7974 bound_to 7965
  155.4078  140.0510  157.3033 H   0  0  0  0  0  0  0  0  0  0  0  0  # atno 8008 bound_to 7997
  154.4960  140.2139  155.9405 H   0  0  0  0  0  0  0  0  0  0  0  0  # atno 8009 bound_to 7997
  156.1406  140.3155  155.8495 H   0  0  0  0  0  0  0  0  0  0  0  0  # atno 8010 bound_to 7997
  139.8156  143.7644  152.2665 H   0  0  0  0  0  0  0  0  0  0  0  0  # atno 10167 bound_to 10162
  156.7893  130.5356  149.5738 H   0  0  0  0  0  0  0  0  0  0  0  0  # atno 10718 bound_to 10713
  152.9837  135.5665  154.5282 H   0  0  0  0  0  0  0  0  0  0  0  0  # atno 10763 bound_to 10752
  154.4758  135.2786  155.1610 H   0  0  0  0  0  0  0  0  0  0  0  0  # atno 10764 bound_to 10752
  154.3139  135.6282  153.5531 H   0  0  0  0  0  0  0  0  0  0  0  0  # atno 10765 bound_to 10752
  141.0726  133.6675  156.3502 H   0  0  0  0  0  0  0  0  0  0  0  0  # atno 11005 bound_to 11000
  145.3742  139.1651  143.4316 LP  0  0  0  0  0  0  0  0  0  0  0  0  # atno 17320 bound_to 7965
  146.3067  140.3816  142.8684 LP  0  0  0  0  0  0  0  0  0  0  0  0  # atno 17321 bound_to 7965
  139.7806  144.7446  151.0094 LP  0  0  0  0  0  0  0  0  0  0  0  0  # atno 17342 bound_to 10162
  140.7816  143.4546  151.0363 LP  0  0  0  0  0  0  0  0  0  0  0  0  # atno 17343 bound_to 10162
  156.1169  130.6081  151.0134 LP  0  0  0  0  0  0  0  0  0  0  0  0  # atno 17370 bound_to 10713
  157.6608  131.0881  150.7842 LP  0  0  0  0  0  0  0  0  0  0  0  0  # atno 17371 bound_to 10713
  140.5642  134.5904  157.5441 LP  0  0  0  0  0  0  0  0  0  0  0  0  # atno 17394 bound_to 11000
  139.9538  134.7570  156.0387 LP  0  0  0  0  0  0  0  0  0  0  0  0  # atno 17395 bound_to 11000

$$$$
