#       Name:                AV-unprocessed.smi:3265
#       Creating user name   scv26
#       Creation time:       Fri Mar 27 18:40:01 2020


#       File generated by GOLD software.
#

@<TRIPOS>MOLECULE
AV-unprocessed.smi:3265
    44    45     1
SMALL
NO_CHARGES


@<TRIPOS>ATOM
      1 ****        -1.3557   3.6431  -1.7479 C.3            1 S1                 0.0000
      2 ****        -2.1575   3.1535  -0.5292 C.3            1 S1                 0.0000
      3 ****        -3.6139   2.7955  -0.8780 C.3            1 S1                 0.0000
      4 ****        -3.6913   1.4699  -1.6482 C.3            1 S1                 0.0000
      5 ****        -2.9641   0.3481  -0.8902 C.3            1 S1                 0.0000
      6 ****        -1.5533   0.7175  -0.6058 N.4            1 S1                 1.0000
      7 ****        -0.7915  -0.4086  -0.0093 C.3            1 S1                 0.0000
      8 ****         0.7309  -0.2514  -0.1849 C.3            1 S1                 0.0000
      9 ****         1.4502  -1.3937   0.3644 N.am           1 S1                 0.0000
     10 ****         1.6343  -2.5667  -0.2651 C.2            1 S1                 0.0000
     11 ****         1.1748  -2.8034  -1.3819 O.2            1 S1                 0.0000
     12 ****         2.4332  -3.6531   0.4682 C.3            1 S1                 0.0000
     13 ****         3.4808  -3.1165   1.3237 N.pl3          1 S1                 0.0000
     14 ****         3.4752  -2.9722   2.6957 C.2            1 S1                 0.0000
     15 ****         4.6716  -2.4186   3.0513 C.2            1 S1                 0.0000
     16 ****         5.3539  -2.2631   1.8123 C.2            1 S1                 0.0000
     17 ****         4.6393  -2.6821   0.7803 N.2            1 S1                 0.0000
     18 ****        -1.4676   1.9743   0.1877 C.3            1 S1                 0.0000
     19 ****        -1.2464   2.8657  -2.5042 H              1 S1                 0.0000
     20 ****        -0.3539   3.9590  -1.4557 H              1 S1                 0.0000
     21 ****        -1.8425   4.4975  -2.2190 H              1 S1                 0.0000
     22 ****        -2.1885   3.9884   0.1722 H              1 S1                 0.0000
     23 ****        -4.1912   2.7050   0.0431 H              1 S1                 0.0000
     24 ****        -4.0799   3.5966  -1.4526 H              1 S1                 0.0000
     25 ****        -4.7345   1.1948  -1.8059 H              1 S1                 0.0000
     26 ****        -3.2547   1.5880  -2.6405 H              1 S1                 0.0000
     27 ****        -3.4797   0.1290   0.0464 H              1 S1                 0.0000
     28 ****        -2.9956  -0.5623  -1.4899 H              1 S1                 0.0000
     29 ****        -1.0517  -0.5151   1.0450 H              1 S1                 0.0000
     30 ****        -1.0966  -1.3360  -0.4961 H              1 S1                 0.0000
     31 ****         0.9849  -0.1201  -1.2384 H              1 S1                 0.0000
     32 ****         1.0953   0.6338   0.3343 H              1 S1                 0.0000
     33 ****         1.8623  -1.2791   1.2794 H              1 S1                 0.0000
     34 ****         1.7512  -4.2476   1.0768 H              1 S1                 0.0000
     35 ****         2.8867  -4.3304  -0.2572 H              1 S1                 0.0000
     36 ****         2.6290  -3.2696   3.2977 H              1 S1                 0.0000
     37 ****         5.0092  -2.1650   4.0452 H              1 S1                 0.0000
     38 ****         6.3399  -1.8604   1.6336 H              1 S1                 0.0000
     39 ****        -0.4293   2.2379   0.3852 H              1 S1                 0.0000
     40 ****        -1.9344   1.8111   1.1604 H              1 S1                 0.0000
     41 ****        -1.1275   0.9055  -1.5023 H              1 S1                 0.0000
     42 ****         0.6385  -2.1076  -1.8597 LP             1 S1                 0.0000
     43 ****         1.3377  -3.6915  -1.8117 LP             1 S1                 0.0000
     44 ****         4.8985  -2.6781  -0.1855 LP             1 S1                 0.0000
@<TRIPOS>BOND
    1    1    2 1     
    2    1   19 1     
    3    1   20 1     
    4    1   21 1     
    5    2   18 1     
    6    2    3 1     
    7    2   22 1     
    8    3    4 1     
    9    3   23 1     
   10    3   24 1     
   11    4    5 1     
   12    4   25 1     
   13    4   26 1     
   14    5    6 1     
   15    5   27 1     
   16    5   28 1     
   17    6    7 1     
   18    6   18 1     
   19    6   41 1     
   20    7    8 1     
   21    7   29 1     
   22    7   30 1     
   23    8    9 1     
   24    8   31 1     
   25    8   32 1     
   26    9   10 am    
   27    9   33 1     
   28   10   11 2     
   29   10   12 1     
   30   12   13 1     
   31   12   34 1     
   32   12   35 1     
   33   13   17 1     
   34   13   14 1     
   35   14   15 2     
   36   14   36 1     
   37   15   16 1     
   38   15   37 1     
   39   16   17 2     
   40   16   38 1     
   41   18   39 1     
   42   18   40 1     
   43   11   42 1     
   44   11   43 1     
   45   17   44 1     
@<TRIPOS>SUBSTRUCTURE
      1 S1             1
@<TRIPOS>SET
LONE_PAIRS      STATIC     ATOMS    <user>   **** ""
3 42 43 44
DONOR_HYDROGENS      STATIC     ATOMS    <user>   **** ""
2 41 33
ATOM$BLUE        STATIC     ATOMS    COLORGROUP SYSTEM
3 42 43 44
ATOM$RED        STATIC     ATOMS    COLORGROUP SYSTEM
2 41 33
