#       Name:                AV-unprocessed.smi:3090
#       Creating user name   scv26
#       Creation time:       Fri Mar 27 17:15:54 2020


#       File generated by GOLD software.
#

@<TRIPOS>MOLECULE
AV-unprocessed.smi:3090
    25    25     1
SMALL
NO_CHARGES


@<TRIPOS>ATOM
      1 ****        -3.4937  -0.9885   0.3281 C.3            1 S1                 0.0000
      2 ****        -2.2274  -0.2883   0.3423 N.pl3          1 S1                 0.0000
      3 ****        -0.9530  -0.8127   0.3552 C.2            1 S1                 0.0000
      4 ****        -0.0755   0.2365   0.3715 C.2            1 S1                 0.0000
      5 ****         1.4307   0.2231   0.3856 C.3            1 S1                 0.0000
      6 ****         1.9182  -0.9170   1.0649 O.3            1 S1                 0.0000
      7 ****         1.9817   0.1934  -1.0502 C.3            1 S1                 0.0000
      8 ****         3.4184   0.5034  -1.1173 N.3            1 S1                 0.0000
      9 ****        -0.9297   1.3765   0.3611 C.2            1 S1                 0.0000
     10 ****        -2.2142   1.0601   0.3449 N.2            1 S1                 0.0000
     11 ****        -3.3260  -2.0659   0.3247 H              1 S1                 0.0000
     12 ****        -4.0576  -0.7142  -0.5640 H              1 S1                 0.0000
     13 ****        -4.0716  -0.7224   1.2136 H              1 S1                 0.0000
     14 ****        -0.7752  -1.8782   0.3526 H              1 S1                 0.0000
     15 ****         1.8077   1.1074   0.9013 H              1 S1                 0.0000
     16 ****         1.6637  -0.8565   1.9728 H              1 S1                 0.0000
     17 ****         1.7757  -0.7709  -1.5165 H              1 S1                 0.0000
     18 ****         1.4466   0.9352  -1.6443 H              1 S1                 0.0000
     19 ****         3.7292   0.5426  -2.0869 H              1 S1                 0.0000
     20 ****         3.6058   1.4162  -0.7054 H              1 S1                 0.0000
     21 ****        -0.6537   2.4206   0.3652 H              1 S1                 0.0000
     22 ****         2.9152  -0.9504   0.9956 LP             1 S1                 0.0000
     23 ****         1.5280  -1.7437   0.6596 LP             1 S1                 0.0000
     24 ****         3.9028  -0.2156  -0.6189 LP             1 S1                 0.0000
     25 ****        -2.9983   1.6807   0.3365 LP             1 S1                 0.0000
@<TRIPOS>BOND
    1    1    2 1     
    2    1   11 1     
    3    1   12 1     
    4    1   13 1     
    5    2   10 1     
    6    2    3 1     
    7    3    4 2     
    8    3   14 1     
    9    4    5 1     
   10    4    9 1     
   11    5    6 1     
   12    5    7 1     
   13    5   15 1     
   14    6   16 1     
   15    7    8 1     
   16    7   17 1     
   17    7   18 1     
   18    8   19 1     
   19    8   20 1     
   20    9   10 2     
   21    9   21 1     
   22    6   22 1     
   23    6   23 1     
   24    8   24 1     
   25   10   25 1     
@<TRIPOS>SUBSTRUCTURE
      1 S1             1
@<TRIPOS>SET
LONE_PAIRS      STATIC     ATOMS    <user>   **** ""
4 22 23 24 25
DONOR_HYDROGENS      STATIC     ATOMS    <user>   **** ""
3 16 19 20
ATOM$BLUE        STATIC     ATOMS    COLORGROUP SYSTEM
4 22 23 24 25
ATOM$RED        STATIC     ATOMS    COLORGROUP SYSTEM
3 16 19 20
