AV-unprocessed.smi:2845|AV-procd|sdf|10943|dock2
  -GOLD-   2272015393D 1   1.00000     0.00000
 Structure written by MMmdl.
 42 44  0  0  0  0  0  0  0  0  1 V2000
  153.9315  141.6077  161.9084 C   0  0  0  0  0  0  0  0  0  0  0  0
  153.1351  141.6331  160.6157 C   0  0  0  0  0  0  0  0  0  0  0  0
  153.3351  140.6069  159.6653 C   0  0  0  0  0  0  0  0  0  0  0  0
  152.6144  140.5937  158.4510 C   0  0  0  0  0  0  0  0  0  0  0  0
  152.6517  139.7008  157.3937 N   0  0  0  0  0  0  0  0  0  0  0  0
  151.7561  140.2296  156.5652 C   0  0  0  0  0  0  0  0  0  0  0  0
  151.1433  141.3620  156.9599 N   0  0  0  0  0  0  0  0  0  0  0  0
  150.1412  142.1121  156.2241 C   0  0  0  0  0  0  0  0  0  0  0  0
  149.6782  141.3805  154.9506 C   0  0  2  0  0  0  0  0  0  0  0  0
  148.9218  142.2620  154.1417 O   0  0  0  0  0  0  0  0  0  0  0  0
  148.8452  140.1269  155.2786 C   0  0  0  0  0  0  0  0  0  0  0  0
  149.6107  138.8993  155.1509 N   0  0  0  0  0  0  0  0  0  0  0  0
  150.4466  138.4947  154.1901 C   0  0  0  0  0  0  0  0  0  0  0  0
  150.9838  137.3015  154.4089 N   0  0  0  0  0  0  0  0  0  0  0  0
  150.3923  137.0192  155.6056 C   0  0  0  0  0  0  0  0  0  0  0  0
  150.7328  135.4630  156.4864 S   0  0  1  0  0  0  0  0  0  0  0  0
  150.3247  134.3514  155.0588 C   0  0  0  0  0  0  0  0  0  0  0  0
  152.2498  135.4080  156.6776 O   0  0  0  0  0  0  0  0  0  0  0  0
  149.5667  137.9379  156.1035 N   0  0  0  0  0  0  0  0  0  0  0  0
  151.6806  141.6441  158.2114 C   0  0  0  0  0  0  0  0  0  0  0  0
  151.4739  142.6715  159.1487 C   0  0  0  0  0  0  0  0  0  0  0  0
  152.2017  142.6690  160.3570 C   0  0  0  0  0  0  0  0  0  0  0  0
  151.9708  143.7825  161.3630 C   0  0  0  0  0  0  0  0  0  0  0  0
  154.6010  140.7478  161.9471 H   0  0  0  0  0  0  0  0  0  0  0  0
  153.2632  141.5496  162.7678 H   0  0  0  0  0  0  0  0  0  0  0  0
  154.5386  142.5086  162.0009 H   0  0  0  0  0  0  0  0  0  0  0  0
  154.0467  139.8184  159.8615 H   0  0  0  0  0  0  0  0  0  0  0  0
  151.5327  139.7685  155.6139 H   0  0  0  0  0  0  0  0  0  0  0  0
  149.2925  142.2850  156.8873 H   0  0  0  0  0  0  0  0  0  0  0  0
  150.5473  143.0941  155.9775 H   0  0  0  0  0  0  0  0  0  0  0  0
  150.5570  141.0802  154.3779 H   0  0  0  0  0  0  0  0  0  0  0  0
  148.9012  143.1102  154.5585 H   0  0  0  0  0  0  0  0  0  0  0  0
  148.4709  140.1826  156.3016 H   0  0  0  0  0  0  0  0  0  0  0  0
  147.9701  140.0711  154.6286 H   0  0  0  0  0  0  0  0  0  0  0  0
  150.6644  139.0847  153.3119 H   0  0  0  0  0  0  0  0  0  0  0  0
  149.5759  134.8056  154.4093 H   0  0  0  0  0  0  0  0  0  0  0  0
  149.9329  133.4024  155.4245 H   0  0  0  0  0  0  0  0  0  0  0  0
  151.2197  134.1515  154.4698 H   0  0  0  0  0  0  0  0  0  0  0  0
  150.7622  143.4562  158.9378 H   0  0  0  0  0  0  0  0  0  0  0  0
  151.2319  144.4983  161.0016 H   0  0  0  0  0  0  0  0  0  0  0  0
  152.8974  144.3250  161.5519 H   0  0  0  0  0  0  0  0  0  0  0  0
  151.6084  143.3754  162.3071 H   0  0  0  0  0  0  0  0  0  0  0  0
  1  2  1  0  0  0  0
  1 24  1  0  0  0  0
  1 25  1  0  0  0  0
  1 26  1  0  0  0  0
  2 22  1  0  0  0  0
  2  3  2  0  0  0  0
  3  4  1  0  0  0  0
  3 27  1  0  0  0  0
  4 20  2  0  0  0  0
  4  5  1  0  0  0  0
  5  6  2  0  0  0  0
  6  7  1  0  0  0  0
  6 28  1  0  0  0  0
  7  8  1  0  0  0  0
  7 20  1  0  0  0  0
  8  9  1  0  0  0  0
  8 29  1  0  0  0  0
  8 30  1  0  0  0  0
  9 10  1  0  0  0  0
  9 11  1  0  0  0  0
  9 31  1  0  0  0  0
 10 32  1  0  0  0  0
 11 12  1  0  0  0  0
 11 33  1  0  0  0  0
 11 34  1  0  0  0  0
 12 19  1  0  0  0  0
 12 13  1  0  0  0  0
 13 14  2  0  0  0  0
 13 35  1  0  0  0  0
 14 15  1  0  0  0  0
 15 16  1  0  0  0  0
 15 19  2  0  0  0  0
 16 17  1  0  0  0  0
 16 18  2  0  0  0  0
 17 36  1  0  0  0  0
 17 37  1  0  0  0  0
 17 38  1  0  0  0  0
 20 21  1  0  0  0  0
 21 22  2  0  0  0  0
 21 39  1  0  0  0  0
 22 23  1  0  0  0  0
 23 40  1  0  0  0  0
 23 41  1  0  0  0  0
 23 42  1  0  0  0  0
M  END
> <s_m_source_file>
AV-unprocessed.smi

> <i_m_source_file_index>
2845

> <i_lp_mmshare_version>
43012

> <i_f3d_flags>
0

> <s_epik_input>
W0NIM11jKFtjSF0xKWMoW0NIM10pW2NIXWMoYzEyKW4oW2NIXW4yKVtDSDJdW0NASF0oW09IXSlbQ0gyXW4zW2NIXW5jKG4zKVtTQF0oPU8pW0NIM10=

> <s_epik_cmdline>
J2VwaWtfcHl0aG9uJywgJy1waCcsICc3LjAnLCAnLXRuJywgJzgnLCAnLW1hJywgJzIwMCcsICctbWV0YWxfYmluZGluZycsICctaW1hZScsICc8aW5maWxlLm1hZT4nLCAnLW9tYWUnLCAnPG91dGZpbGUubWFlPic=

> <r_lp_tautomer_probability>
1

> <r_epik_Ionization_Penalty>
0.0968684

> <r_epik_Ionization_Penalty_Charging>
0

> <r_epik_Ionization_Penalty_Neutral>
0.0968684

> <r_epik_State_Penalty>
0.0870047

> <r_epik_Charging_Adjusted_Penalty>
0.0870047

> <i_epik_Tot_Q>
0

> <i_epik_Tot_abs_Q>
0

> <r_epik_Metal_State_Penalty>
0.0746849

> <b_epik_Metal_Only>
0

> <s_lp_Force_Field>
OPLS_2005

> <r_lp_Energy>
9.4381

> <b_lp_Chiralities_Consistent>
1

> <s_lp_Variant>
AV-unprocessed.smi:2845-1

> <Gold.Version>
5.8.1

> <Gold.Id.Protein>
6NUR|6NUR_protein|mol2

> <Gold.PLP.Fitness>
54.2709

> <Gold.PLP.PLP>
-44.2497

> <Gold.PLP.part.hbond>
-4.0000

> <Gold.PLP.part.metal>
0.0000

> <Gold.PLP.part.buried>
-2.4308

> <Gold.PLP.part.nonpolar>
-37.3786

> <Gold.PLP.part.repulsive>
0.2302

> <Gold.PLP.ligand.clash>
0.0000

> <Gold.PLP.ligand.torsion>
1.8889

> <Gold.PLP.Chemscore.Hbond>
3.2560

> <Gold.PLP.Chemscore.CHOScore>
0.9987

> <Gold.PLP.Chemscore.Metal>
0.0000

> <Gold.Chemscore.Hbonds>
donor molecule, donor type, donor heavy atom, donor atom, acceptor molecule, acceptor atom, score
      L1  H    10    32       P1  8028  1.00
      P1  H  7997  8008       L1     5  1.00
      P1  H  8011  8017       L1    10  0.26
      P1  H 10752 10764       L1    18  1.00
      L1  C    13    35       P1  7957  0.92

> <Gold.PLP.Chemscore.Internal.Correction>
1.0350

> <Gold.Rescore>
     Score         DG    S(hbond)    S(metal)    S(lipo)     H(rot)  DE(clash)    DE(int)     intcor
     16.32     -19.67       2.79        0.00     100.86       2.71       1.26       2.09       ----

> <Gold.Chemscore.Fitness>
16.3159

> <Gold.Chemscore.DG>
-19.6651

> <Gold.Chemscore.ZeroCoef>
-5.4800

> <Gold.Chemscore.Hbond>
2.7918

> <Gold.Chemscore.Metal>
0.0000

> <Gold.Chemscore.Lipo>
100.8563

> <Gold.Chemscore.Internal_Hbond>
0.0000

> <Gold.Chemscore.DEClash>
1.2561

> <Gold.Chemscore.DEInternal>
2.0931

> <Gold.Chemscore.Rot>
2.7108

> <Gold.Chemscore.Internal.Correction>
   9.000000E+99

> <Gold.Chemscore.Hbonds>
donor molecule, donor type, donor heavy atom, donor atom, acceptor molecule, acceptor atom, score
      L1  H    10    32       P1  8028  1.00
      P1  H  7997  8008       L1     5  0.15
      P1  H  8011  8017       L1    10  0.13
      P1  H 10752 10764       L1    18  0.84

> <Gold.Chemscore.Hbond.Weighted>
-9.3245

> <Gold.Chemscore.Metal.Weighted>
-0.0000

> <Gold.Chemscore.Lipo.Weighted>
-11.8002

> <Gold.Chemscore.Internal_Hbond.Weighted>
0.0000

> <Gold.Chemscore.DEClash.Weighted>
1.2561

> <Gold.Chemscore.DEInternal.Weighted>
2.0931

> <Gold.Chemscore.Rot.Weighted>
6.9396

> <Gold.Chemscore.Internal.Correction.Weighted>
   9.000000E+99

> <Gold.Protein.RotatedTorsions>
[ 6907 6896 6895 6894 ] final  120.98 input  -60.11 | X-H torsion
[ 7974 7965 7964 7962 ] final  146.91 input  175.53 | X-H torsion
[ 8008 7997 7996 7995 ] final  -49.33 input   59.86 | X-H torsion
[ 10167 10162 10161 10158 ] final -121.75 input  -65.29 | X-H torsion
[ 10718 10713 10712 10709 ] final  132.84 input   66.30 | X-H torsion
[ 10763 10752 10751 10750 ] final  -28.92 input  -60.55 | X-H torsion
[ 11005 11000 10999 10996 ] final -146.32 input  -57.11 | X-H torsion

> <Gold.Protein.ActiveResidues>
 VAL166  LYS551  ARG553  GLY616  TRP617  ASP618  TYR619  PRO620  LYS621  CYS622 
 ASP623  PHE694  ASN695  SER759  ASP760  ASP761  ALA762  ILE779  LEU786  VAL792 
 PHE793  MET794  SER795  GLU796  ALA797  LYS798  CYS799  TRP800  GLU811  SER814 

> <Gold.Protein.RotatedAtoms>
  152.4357  133.7356  159.6611 H   0  0  0  0  0  0  0  0  0  0  0  0  # atno 6907 bound_to 6896
  150.8240  133.8193  159.3132 H   0  0  0  0  0  0  0  0  0  0  0  0  # atno 6908 bound_to 6896
  151.5867  135.1058  160.0081 H   0  0  0  0  0  0  0  0  0  0  0  0  # atno 6909 bound_to 6896
  144.8633  139.5963  143.5920 H   0  0  0  0  0  0  0  0  0  0  0  0  # atno 7974 bound_to 7965
  154.4042  140.1299  156.4485 H   0  0  0  0  0  0  0  0  0  0  0  0  # atno 8008 bound_to 7997
  155.7389  140.3490  155.5075 H   0  0  0  0  0  0  0  0  0  0  0  0  # atno 8009 bound_to 7997
  155.9057  140.1027  157.1307 H   0  0  0  0  0  0  0  0  0  0  0  0  # atno 8010 bound_to 7997
  140.0217  143.5337  152.2217 H   0  0  0  0  0  0  0  0  0  0  0  0  # atno 10167 bound_to 10162
  157.4831  131.1087  150.9655 H   0  0  0  0  0  0  0  0  0  0  0  0  # atno 10718 bound_to 10713
  153.7563  135.6922  153.4935 H   0  0  0  0  0  0  0  0  0  0  0  0  # atno 10763 bound_to 10752
  153.1969  135.4450  155.0217 H   0  0  0  0  0  0  0  0  0  0  0  0  # atno 10764 bound_to 10752
  154.8169  135.3403  154.7080 H   0  0  0  0  0  0  0  0  0  0  0  0  # atno 10765 bound_to 10752
  140.7832  134.3054  157.5038 H   0  0  0  0  0  0  0  0  0  0  0  0  # atno 11005 bound_to 11000
  146.2877  139.7051  142.9183 LP  0  0  0  0  0  0  0  0  0  0  0  0  # atno 17320 bound_to 7965
  145.4269  141.0411  143.2932 LP  0  0  0  0  0  0  0  0  0  0  0  0  # atno 17321 bound_to 7965
  139.6135  144.7614  151.2898 LP  0  0  0  0  0  0  0  0  0  0  0  0  # atno 17342 bound_to 10162
  140.7340  143.6780  150.8025 LP  0  0  0  0  0  0  0  0  0  0  0  0  # atno 17343 bound_to 10162
  157.0381  130.5738  149.5352 LP  0  0  0  0  0  0  0  0  0  0  0  0  # atno 17370 bound_to 10713
  156.0132  130.5225  150.8055 LP  0  0  0  0  0  0  0  0  0  0  0  0  # atno 17371 bound_to 10713
  139.8740  134.9331  156.3571 LP  0  0  0  0  0  0  0  0  0  0  0  0  # atno 17394 bound_to 11000
  140.9462  133.7481  156.0211 LP  0  0  0  0  0  0  0  0  0  0  0  0  # atno 17395 bound_to 11000

$$$$
