#       Name:                AV-unprocessed.smi:2456
#       Creating user name   scv26
#       Creation time:       Fri Mar 27 13:34:06 2020


#       File generated by GOLD software.
#

@<TRIPOS>MOLECULE
AV-unprocessed.smi:2456
    39    40     1
SMALL
NO_CHARGES


@<TRIPOS>ATOM
      1 ****        -1.9638  -1.9929  -1.4912 C.3            1 S1                 0.0000
      2 ****        -1.3725  -1.2082  -0.2995 C.3            1 S1                 0.0000
      3 ****         0.0942  -1.1869  -0.3163 N.am           1 S1                 0.0000
      4 ****         0.9037  -0.8074  -1.3191 C.2            1 S1                 0.0000
      5 ****         0.5040  -0.3486  -2.3889 O.2            1 S1                 0.0000
      6 ****         2.1945  -0.9863  -0.9882 N.am           1 S1                 0.0000
      7 ****         3.3477  -0.7148  -1.7705 C.2            1 S1                 0.0000
      8 ****         3.3183  -0.2139  -3.0110 N.2            1 S1                 0.0000
      9 ****         4.6004  -0.0496  -3.5408 C.2            1 S1                 0.0000
     10 ****         5.6016  -0.4342  -2.6841 C.2            1 S1                 0.0000
     11 ****         4.9702  -1.0203  -1.1686 S.3            1 S1                 0.0000
     12 ****        -1.9650   0.2039  -0.1102 C.2            1 S1                 0.0000
     13 ****        -2.4807   0.7695  -1.0752 O.2            1 S1                 0.0000
     14 ****        -1.8915   0.7953   1.1029 N.am           1 S1                 0.0000
     15 ****        -1.3151   0.2181   2.3181 C.3            1 S1                 0.0000
     16 ****        -1.2796   1.3527   3.3423 C.3            1 S1                 0.0000
     17 ****        -2.3829   2.2986   2.8910 C.3            1 S1                 0.0000
     18 ****        -2.4164   2.1332   1.3719 C.3            1 S1                 0.0000
     19 ****        -3.0405  -2.1200  -1.3741 H              1 S1                 0.0000
     20 ****        -1.5254  -2.9886  -1.5599 H              1 S1                 0.0000
     21 ****        -1.8018  -1.4929  -2.4461 H              1 S1                 0.0000
     22 ****        -1.6421  -1.7853   0.5850 H              1 S1                 0.0000
     23 ****         0.5407  -1.5295   0.5215 H              1 S1                 0.0000
     24 ****         2.3745  -1.3669  -0.0712 H              1 S1                 0.0000
     25 ****         4.7087   0.3493  -4.5386 H              1 S1                 0.0000
     26 ****         6.6680  -0.4078  -2.8523 H              1 S1                 0.0000
     27 ****        -1.9595  -0.5891   2.6691 H              1 S1                 0.0000
     28 ****        -0.3159  -0.1869   2.1583 H              1 S1                 0.0000
     29 ****        -1.4146   1.0027   4.3661 H              1 S1                 0.0000
     30 ****        -0.3174   1.8636   3.2878 H              1 S1                 0.0000
     31 ****        -3.3352   1.9779   3.3151 H              1 S1                 0.0000
     32 ****        -2.2095   3.3296   3.2004 H              1 S1                 0.0000
     33 ****        -1.7689   2.8689   0.8925 H              1 S1                 0.0000
     34 ****        -3.4270   2.2662   0.9823 H              1 S1                 0.0000
     35 ****        -0.4768  -0.2398  -2.5510 LP             1 S1                 0.0000
     36 ****         1.1600  -0.0845  -3.0959 LP             1 S1                 0.0000
     37 ****         2.4774   0.0159  -3.5011 LP             1 S1                 0.0000
     38 ****        -2.5109   0.3134  -1.9646 LP             1 S1                 0.0000
     39 ****        -2.8693   1.6849  -0.9692 LP             1 S1                 0.0000
@<TRIPOS>BOND
    1    1    2 1     
    2    1   19 1     
    3    1   20 1     
    4    1   21 1     
    5    2    3 1     
    6    2   12 1     
    7    2   22 1     
    8    3    4 am    
    9    3   23 1     
   10    4    5 2     
   11    4    6 am    
   12    6    7 1     
   13    6   24 1     
   14    7   11 1     
   15    7    8 2     
   16    8    9 1     
   17    9   10 2     
   18    9   25 1     
   19   10   11 1     
   20   10   26 1     
   21   12   13 2     
   22   12   14 am    
   23   14   18 1     
   24   14   15 1     
   25   15   16 1     
   26   15   27 1     
   27   15   28 1     
   28   16   17 1     
   29   16   29 1     
   30   16   30 1     
   31   17   18 1     
   32   17   31 1     
   33   17   32 1     
   34   18   33 1     
   35   18   34 1     
   36    5   35 1     
   37    5   36 1     
   38    8   37 1     
   39   13   38 1     
   40   13   39 1     
@<TRIPOS>SUBSTRUCTURE
      1 S1             1
@<TRIPOS>SET
LONE_PAIRS      STATIC     ATOMS    <user>   **** ""
5 35 36 37 38 39
DONOR_HYDROGENS      STATIC     ATOMS    <user>   **** ""
2 23 24
ATOM$BLUE        STATIC     ATOMS    COLORGROUP SYSTEM
5 35 36 37 38 39
ATOM$RED        STATIC     ATOMS    COLORGROUP SYSTEM
2 23 24
