AV-unprocessed.smi:1048|AV-procd|sdf|4607|dock3
  -GOLD-   22720 3103D 1   1.00000     0.00000
 Structure written by MMmdl.
 46 47  0  0  0  0  0  0  0  0  2 V2000
  146.1285  135.3931  152.6693 C   0  0  0  0  0  0  0  0  0  0  0  0
  145.2217  136.5126  152.1293 C   0  0  2  0  0  0  0  0  0  0  0  0
  146.0132  137.6505  151.4582 C   0  0  0  0  0  0  0  0  0  0  0  0
  146.7310  138.5462  152.4836 C   0  0  0  0  0  0  0  0  0  0  0  0
  145.7739  139.0911  153.4821 N   0  3  2  0  0  0  0  0  0  0  0  0
  146.3912  140.0713  154.4122 C   0  0  0  0  0  0  0  0  0  0  0  0
  147.3160  141.0693  153.6855 C   0  0  1  0  0  0  0  0  0  0  0  0
  146.9026  142.3662  154.0697 O   0  0  0  0  0  0  0  0  0  0  0  0
  148.7886  140.8810  154.1043 C   0  0  0  0  0  0  0  0  0  0  0  0
  149.2007  141.8481  155.1172 N   0  0  0  0  0  0  0  0  0  0  0  0
  150.1916  141.6608  156.0008 C   0  0  0  0  0  0  0  0  0  0  0  0
  150.8456  140.6211  156.0720 O   0  0  0  0  0  0  0  0  0  0  0  0
  150.3496  142.7349  156.7930 N   0  0  0  0  0  0  0  0  0  0  0  0
  151.3093  142.9415  157.8211 C   0  0  0  0  0  0  0  0  0  0  0  0
  151.6684  141.8378  158.6220 C   0  0  0  0  0  0  0  0  0  0  0  0
  152.6024  142.0171  159.6601 C   0  0  0  0  0  0  0  0  0  0  0  0
  153.1376  143.3035  159.8641 C   0  0  0  0  0  0  0  0  0  0  0  0
  152.7939  144.3743  159.1181 N   0  0  0  0  0  0  0  0  0  0  0  0
  151.8986  144.1949  158.1229 C   0  0  0  0  0  0  0  0  0  0  0  0
  145.0505  138.0082  154.1959 C   0  0  0  0  0  0  0  0  0  0  0  0
  144.2948  137.1001  153.2091 C   0  0  0  0  0  0  0  0  0  0  0  0
  146.8037  135.7477  153.4476 H   0  0  0  0  0  0  0  0  0  0  0  0
  146.7388  134.9678  151.8723 H   0  0  0  0  0  0  0  0  0  0  0  0
  145.5357  134.5821  153.0932 H   0  0  0  0  0  0  0  0  0  0  0  0
  144.5901  136.0561  151.3660 H   0  0  0  0  0  0  0  0  0  0  0  0
  146.7331  137.2421  150.7479 H   0  0  0  0  0  0  0  0  0  0  0  0
  145.3277  138.2647  150.8726 H   0  0  0  0  0  0  0  0  0  0  0  0
  147.5152  137.9860  152.9948 H   0  0  0  0  0  0  0  0  0  0  0  0
  147.2262  139.3599  151.9549 H   0  0  0  0  0  0  0  0  0  0  0  0
  145.6129  140.6368  154.9276 H   0  0  0  0  0  0  0  0  0  0  0  0
  146.9362  139.5340  155.1898 H   0  0  0  0  0  0  0  0  0  0  0  0
  147.2232  140.9615  152.6046 H   0  0  0  0  0  0  0  0  0  0  0  0
  146.2817  142.2863  154.7794 H   0  0  0  0  0  0  0  0  0  0  0  0
  148.9885  139.8563  154.4239 H   0  0  0  0  0  0  0  0  0  0  0  0
  149.4346  141.0574  153.2437 H   0  0  0  0  0  0  0  0  0  0  0  0
  148.7101  142.7304  155.1323 H   0  0  0  0  0  0  0  0  0  0  0  0
  149.6793  143.4799  156.6725 H   0  0  0  0  0  0  0  0  0  0  0  0
  151.2382  140.8631  158.4431 H   0  0  0  0  0  0  0  0  0  0  0  0
  152.9009  141.1889  160.2857 H   0  0  0  0  0  0  0  0  0  0  0  0
  153.8563  143.4782  160.6510 H   0  0  0  0  0  0  0  0  0  0  0  0
  151.6452  145.0923  157.5811 H   0  0  0  0  0  0  0  0  0  0  0  0
  145.7538  137.4278  154.7946 H   0  0  0  0  0  0  0  0  0  0  0  0
  144.3324  138.4451  154.8911 H   0  0  0  0  0  0  0  0  0  0  0  0
  143.5089  137.6823  152.7260 H   0  0  0  0  0  0  0  0  0  0  0  0
  143.7874  136.3000  153.7492 H   0  0  0  0  0  0  0  0  0  0  0  0
  145.0697  139.6025  152.9690 H   0  0  0  0  0  0  0  0  0  0  0  0
  1  2  1  0  0  0  0
  1 22  1  0  0  0  0
  1 23  1  0  0  0  0
  1 24  1  0  0  0  0
  2 21  1  0  0  0  0
  2  3  1  0  0  0  0
  2 25  1  0  0  0  0
  3  4  1  0  0  0  0
  3 26  1  0  0  0  0
  3 27  1  0  0  0  0
  4  5  1  0  0  0  0
  4 28  1  0  0  0  0
  4 29  1  0  0  0  0
  5  6  1  0  0  0  0
  5 20  1  0  0  0  0
  5 46  1  0  0  0  0
  6  7  1  0  0  0  0
  6 30  1  0  0  0  0
  6 31  1  0  0  0  0
  7  8  1  0  0  0  0
  7  9  1  0  0  0  0
  7 32  1  0  0  0  0
  8 33  1  0  0  0  0
  9 10  1  0  0  0  0
  9 34  1  0  0  0  0
  9 35  1  0  0  0  0
 10 11  1  0  0  0  0
 10 36  1  0  0  0  0
 11 12  2  0  0  0  0
 11 13  1  0  0  0  0
 13 14  1  0  0  0  0
 13 37  1  0  0  0  0
 14 19  1  0  0  0  0
 14 15  2  0  0  0  0
 15 16  1  0  0  0  0
 15 38  1  0  0  0  0
 16 17  2  0  0  0  0
 16 39  1  0  0  0  0
 17 18  1  0  0  0  0
 17 40  1  0  0  0  0
 18 19  2  0  0  0  0
 19 41  1  0  0  0  0
 20 21  1  0  0  0  0
 20 42  1  0  0  0  0
 20 43  1  0  0  0  0
 21 44  1  0  0  0  0
 21 45  1  0  0  0  0
M  CHG  1   5   1
M  END
> <s_m_source_file>
AV-unprocessed.smi

> <i_m_source_file_index>
1048

> <i_lp_mmshare_version>
43012

> <i_f3d_flags>
0

> <s_epik_input>
W0NIM11bQ0hdMVtDSDJdW0NIMl1OKFtDSDJdW0NIMl0xKVtDSDJdW0NASF0oW09IXSlbQ0gyXVtOSF1DKD1PKVtOSF1jMltjSF1bY0hdW2NIXW5bY0hdMg==

> <s_epik_cmdline>
J2VwaWtfcHl0aG9uJywgJy1waCcsICc3LjAnLCAnLXRuJywgJzgnLCAnLW1hJywgJzIwMCcsICctbWV0YWxfYmluZGluZycsICctaW1hZScsICc8aW5maWxlLm1hZT4nLCAnLW9tYWUnLCAnPG91dGZpbGUubWFlPic=

> <r_lp_tautomer_probability>
1

> <r_epik_Ionization_Penalty>
0.00581049

> <r_epik_Ionization_Penalty_Charging>
0.00147689

> <r_epik_Ionization_Penalty_Neutral>
0.0043336

> <r_epik_State_Penalty>
-0

> <r_epik_Charging_Adjusted_Penalty>
0.00147689

> <i_epik_Tot_Q>
1

> <i_epik_Tot_abs_Q>
1

> <r_epik_Metal_State_Penalty>
-0

> <b_epik_Metal_Only>
0

> <s_lp_Force_Field>
OPLS_2005

> <r_lp_Energy>
24.6749

> <b_lp_Chiralities_Consistent>
1

> <s_lp_Variant>
AV-unprocessed.smi:1048-4

> <Gold.Version>
5.8.1

> <Gold.Id.Protein>
6NUR|6NUR_protein|mol2

> <Gold.PLP.Fitness>
47.1564

> <Gold.PLP.PLP>
-38.9415

> <Gold.PLP.part.hbond>
-3.0000

> <Gold.PLP.part.metal>
0.0000

> <Gold.PLP.part.buried>
-1.7282

> <Gold.PLP.part.nonpolar>
-35.9599

> <Gold.PLP.part.repulsive>
0.2489

> <Gold.PLP.ligand.clash>
0.0000

> <Gold.PLP.ligand.torsion>
1.8099

> <Gold.PLP.Chemscore.Hbond>
3.8960

> <Gold.PLP.Chemscore.CHOScore>
0.0000

> <Gold.PLP.Chemscore.Metal>
0.0000

> <Gold.Chemscore.Hbonds>
donor molecule, donor type, donor heavy atom, donor atom, acceptor molecule, acceptor atom, score
      L1  H     5    46       P1 10175  2.00
      L1  H    10    36       P1  8028  0.84
      L1  H    13    37       P1  8028  1.00

> <Gold.PLP.Chemscore.Internal.Correction>
0.1467

> <Gold.Rescore>
     Score         DG    S(hbond)    S(metal)    S(lipo)     H(rot)  DE(clash)    DE(int)     intcor
     17.85     -21.06       2.85        0.00     101.85       2.29       0.27       2.94       ----

> <Gold.Chemscore.Fitness>
17.8522

> <Gold.Chemscore.DG>
-21.0622

> <Gold.Chemscore.ZeroCoef>
-5.4800

> <Gold.Chemscore.Hbond>
2.8502

> <Gold.Chemscore.Metal>
0.0000

> <Gold.Chemscore.Lipo>
101.8472

> <Gold.Chemscore.Internal_Hbond>
0.0000

> <Gold.Chemscore.DEClash>
0.2716

> <Gold.Chemscore.DEInternal>
2.9385

> <Gold.Chemscore.Rot>
2.2865

> <Gold.Chemscore.Internal.Correction>
   9.000000E+99

> <Gold.Chemscore.Hbonds>
donor molecule, donor type, donor heavy atom, donor atom, acceptor molecule, acceptor atom, score
      L1  H     5    46       P1 10175  1.00
      L1  H    10    36       P1  8028  0.79
      L1  H    13    37       P1  8028  0.96

> <Gold.Chemscore.Hbond.Weighted>
-9.5197

> <Gold.Chemscore.Metal.Weighted>
-0.0000

> <Gold.Chemscore.Lipo.Weighted>
-11.9161

> <Gold.Chemscore.Internal_Hbond.Weighted>
0.0000

> <Gold.Chemscore.DEClash.Weighted>
0.2716

> <Gold.Chemscore.DEInternal.Weighted>
2.9385

> <Gold.Chemscore.Rot.Weighted>
5.8536

> <Gold.Chemscore.Internal.Correction.Weighted>
   9.000000E+99

> <Gold.Protein.RotatedTorsions>
[ 6907 6896 6895 6894 ] final   62.62 input  -60.11 | X-H torsion
[ 7974 7965 7964 7962 ] final   30.88 input  175.53 | X-H torsion
[ 8008 7997 7996 7995 ] final   52.28 input   59.86 | X-H torsion
[ 10167 10162 10161 10158 ] final  -42.71 input  -65.29 | X-H torsion
[ 10718 10713 10712 10709 ] final  103.60 input   66.30 | X-H torsion
[ 10763 10752 10751 10750 ] final -116.63 input  -60.55 | X-H torsion
[ 11005 11000 10999 10996 ] final   95.77 input  -57.11 | X-H torsion

> <Gold.Protein.ActiveResidues>
 VAL166  LYS551  ARG553  GLY616  TRP617  ASP618  TYR619  PRO620  LYS621  CYS622 
 ASP623  PHE694  ASN695  SER759  ASP760  ASP761  ALA762  ILE779  LEU786  VAL792 
 PHE793  MET794  SER795  GLU796  ALA797  LYS798  CYS799  TRP800  GLU811  SER814 

> <Gold.Protein.RotatedAtoms>
  152.4187  134.5995  159.9995 H   0  0  0  0  0  0  0  0  0  0  0  0  # atno 6907 bound_to 6896
  151.6151  133.3338  159.3084 H   0  0  0  0  0  0  0  0  0  0  0  0  # atno 6908 bound_to 6896
  150.8075  134.7248  159.6723 H   0  0  0  0  0  0  0  0  0  0  0  0  # atno 6909 bound_to 6896
  146.1585  139.6730  142.9050 H   0  0  0  0  0  0  0  0  0  0  0  0  # atno 7974 bound_to 7965
  155.4491  140.3457  155.4299 H   0  0  0  0  0  0  0  0  0  0  0  0  # atno 8008 bound_to 7997
  156.1231  140.1493  156.9205 H   0  0  0  0  0  0  0  0  0  0  0  0  # atno 8009 bound_to 7997
  154.4838  140.0861  156.7419 H   0  0  0  0  0  0  0  0  0  0  0  0  # atno 8010 bound_to 7997
  140.6959  143.3022  151.3248 H   0  0  0  0  0  0  0  0  0  0  0  0  # atno 10167 bound_to 10162
  157.6767  131.0783  150.5580 H   0  0  0  0  0  0  0  0  0  0  0  0  # atno 10718 bound_to 10713
  154.8526  135.4339  154.1851 H   0  0  0  0  0  0  0  0  0  0  0  0  # atno 10763 bound_to 10752
  153.2933  135.6963  153.7278 H   0  0  0  0  0  0  0  0  0  0  0  0  # atno 10764 bound_to 10752
  153.6437  135.3463  155.3054 H   0  0  0  0  0  0  0  0  0  0  0  0  # atno 10765 bound_to 10752
  139.8786  134.8916  156.4060 H   0  0  0  0  0  0  0  0  0  0  0  0  # atno 11005 bound_to 11000
  145.4649  141.0434  143.2731 LP  0  0  0  0  0  0  0  0  0  0  0  0  # atno 17320 bound_to 7965
  144.7995  139.6169  143.7078 LP  0  0  0  0  0  0  0  0  0  0  0  0  # atno 17321 bound_to 7965
  139.6415  144.0531  152.2558 LP  0  0  0  0  0  0  0  0  0  0  0  0  # atno 17342 bound_to 10162
  140.0038  144.6274  150.7707 LP  0  0  0  0  0  0  0  0  0  0  0  0  # atno 17343 bound_to 10162
  156.5883  130.4322  149.5947 LP  0  0  0  0  0  0  0  0  0  0  0  0  # atno 17370 bound_to 10713
  156.2604  130.6959  151.1726 LP  0  0  0  0  0  0  0  0  0  0  0  0  # atno 17371 bound_to 10713
  140.9233  133.7629  155.9934 LP  0  0  0  0  0  0  0  0  0  0  0  0  # atno 17394 bound_to 11000
  140.8414  134.3062  157.5312 LP  0  0  0  0  0  0  0  0  0  0  0  0  # atno 17395 bound_to 11000

$$$$
