AV-unprocessed.smi:155|AV-procd|sdf|1275|dock7
  -GOLD-   2262018543D 1   1.00000     0.00000
 Structure written by MMmdl.
 63 66  0  0  0  0  0  0  0  0  2 V2000
  143.5512  133.0123  148.7991 C   0  0  0  0  0  0  0  0  0  0  0  0
  143.4746  133.2911  150.2512 N   0  3  0  0  0  0  0  0  0  0  0  0
  143.6646  132.0597  151.0496 C   0  0  0  0  0  0  0  0  0  0  0  0
  144.3753  134.3854  150.6948 C   0  0  0  0  0  0  0  0  0  0  0  0
  143.7544  135.2706  151.8005 C   0  0  0  0  0  0  0  0  0  0  0  0
  144.7582  136.0263  152.5543 N   0  0  0  0  0  0  0  0  0  0  0  0
  145.4585  135.1645  153.5160 C   0  0  0  0  0  0  0  0  0  0  0  0
  146.7231  135.7580  154.1752 C   0  0  0  0  0  0  0  0  0  0  0  0
  146.6765  137.2605  154.4871 C   0  0  0  0  0  0  0  0  0  0  0  0
  146.9946  138.0553  153.3045 N   0  0  0  0  0  0  0  0  0  0  0  0
  147.5045  139.2688  153.6028 C   0  0  0  0  0  0  0  0  0  0  0  0
  146.8532  140.3933  153.2052 N   0  0  0  0  0  0  0  0  0  0  0  0
  147.3566  141.5942  153.5081 C   0  0  0  0  0  0  0  0  0  0  0  0
  148.4698  141.8874  154.1853 N   0  0  0  0  0  0  0  0  0  0  0  0
  149.1198  140.7562  154.5853 C   0  0  0  0  0  0  0  0  0  0  0  0
  148.7095  139.4176  154.3361 C   0  0  0  0  0  0  0  0  0  0  0  0
  149.6167  138.5261  154.8937 N   0  0  0  0  0  0  0  0  0  0  0  0
  150.5118  139.2961  155.4508 C   0  0  0  0  0  0  0  0  0  0  0  0
  150.2855  140.6486  155.3236 N   0  0  0  0  0  0  0  0  0  0  0  0
  151.1074  141.7233  155.8539 C   0  0  0  0  0  0  0  0  0  0  0  0
  151.2395  141.7146  157.3934 C   0  0  2  0  0  0  0  0  0  0  0  0
  150.2320  140.9143  157.9804 O   0  0  0  0  0  0  0  0  0  0  0  0
  151.2700  143.1097  158.0580 C   0  0  2  0  0  0  0  0  0  0  0  0
  152.4103  144.0336  157.6323 C   0  0  0  0  0  0  0  0  0  0  0  0
  152.4704  145.0434  158.7680 C   0  0  0  0  0  0  0  0  0  0  0  0
  151.7211  144.3645  159.9214 C   0  0  0  0  0  0  0  0  0  0  0  0
  151.4258  143.0509  159.4668 O   0  0  0  0  0  0  0  0  0  0  0  0
  146.0065  138.0996  152.2330 C   0  0  0  0  0  0  0  0  0  0  0  0
  145.6831  136.7124  151.6521 C   0  0  0  0  0  0  0  0  0  0  0  0
  144.5631  132.7289  148.5060 H   0  0  0  0  0  0  0  0  0  0  0  0
  143.2523  133.8800  148.2134 H   0  0  0  0  0  0  0  0  0  0  0  0
  142.8789  132.1975  148.5281 H   0  0  0  0  0  0  0  0  0  0  0  0
  144.6720  131.6618  150.9206 H   0  0  0  0  0  0  0  0  0  0  0  0
  142.9524  131.2901  150.7500 H   0  0  0  0  0  0  0  0  0  0  0  0
  143.5070  132.2566  152.1106 H   0  0  0  0  0  0  0  0  0  0  0  0
  145.2891  133.9482  151.1000 H   0  0  0  0  0  0  0  0  0  0  0  0
  144.6964  134.9645  149.8281 H   0  0  0  0  0  0  0  0  0  0  0  0
  143.0004  135.9515  151.4035 H   0  0  0  0  0  0  0  0  0  0  0  0
  143.2200  134.6032  152.4782 H   0  0  0  0  0  0  0  0  0  0  0  0
  144.7579  134.8912  154.3042 H   0  0  0  0  0  0  0  0  0  0  0  0
  145.7500  134.2355  153.0256 H   0  0  0  0  0  0  0  0  0  0  0  0
  146.8964  135.2143  155.1043 H   0  0  0  0  0  0  0  0  0  0  0  0
  147.5972  135.5481  153.5571 H   0  0  0  0  0  0  0  0  0  0  0  0
  145.7018  137.5435  154.8873 H   0  0  0  0  0  0  0  0  0  0  0  0
  147.4095  137.4770  155.2663 H   0  0  0  0  0  0  0  0  0  0  0  0
  146.7853  142.4415  153.1590 H   0  0  0  0  0  0  0  0  0  0  0  0
  151.3645  138.8963  155.9802 H   0  0  0  0  0  0  0  0  0  0  0  0
  152.0940  141.6558  155.3936 H   0  0  0  0  0  0  0  0  0  0  0  0
  150.6850  142.6738  155.5258 H   0  0  0  0  0  0  0  0  0  0  0  0
  152.1847  141.2234  157.6270 H   0  0  0  0  0  0  0  0  0  0  0  0
  149.7858  140.4482  157.2898 H   0  0  0  0  0  0  0  0  0  0  0  0
  150.3217  143.6109  157.8529 H   0  0  0  0  0  0  0  0  0  0  0  0
  153.3548  143.4906  157.5829 H   0  0  0  0  0  0  0  0  0  0  0  0
  152.2372  144.4966  156.6605 H   0  0  0  0  0  0  0  0  0  0  0  0
  153.5018  145.2781  159.0333 H   0  0  0  0  0  0  0  0  0  0  0  0
  151.9753  145.9749  158.4913 H   0  0  0  0  0  0  0  0  0  0  0  0
  152.3080  144.3316  160.8395 H   0  0  0  0  0  0  0  0  0  0  0  0
  150.7879  144.8881  160.1338 H   0  0  0  0  0  0  0  0  0  0  0  0
  145.0961  138.5904  152.5814 H   0  0  0  0  0  0  0  0  0  0  0  0
  146.4041  138.7228  151.4301 H   0  0  0  0  0  0  0  0  0  0  0  0
  146.5766  136.1229  151.4409 H   0  0  0  0  0  0  0  0  0  0  0  0
  145.2024  136.8842  150.6886 H   0  0  0  0  0  0  0  0  0  0  0  0
  142.5319  133.6016  150.4393 H   0  0  0  0  0  0  0  0  0  0  0  0
  1  2  1  0  0  0  0
  1 30  1  0  0  0  0
  1 31  1  0  0  0  0
  1 32  1  0  0  0  0
  2  3  1  0  0  0  0
  2  4  1  0  0  0  0
  2 63  1  0  0  0  0
  3 33  1  0  0  0  0
  3 34  1  0  0  0  0
  3 35  1  0  0  0  0
  4  5  1  0  0  0  0
  4 36  1  0  0  0  0
  4 37  1  0  0  0  0
  5  6  1  0  0  0  0
  5 38  1  0  0  0  0
  5 39  1  0  0  0  0
  6 29  1  0  0  0  0
  6  7  1  0  0  0  0
  7  8  1  0  0  0  0
  7 40  1  0  0  0  0
  7 41  1  0  0  0  0
  8  9  1  0  0  0  0
  8 42  1  0  0  0  0
  8 43  1  0  0  0  0
  9 10  1  0  0  0  0
  9 44  1  0  0  0  0
  9 45  1  0  0  0  0
 10 11  1  0  0  0  0
 10 28  1  0  0  0  0
 11 16  1  0  0  0  0
 11 12  2  0  0  0  0
 12 13  1  0  0  0  0
 13 14  2  0  0  0  0
 13 46  1  0  0  0  0
 14 15  1  0  0  0  0
 15 19  1  0  0  0  0
 15 16  2  0  0  0  0
 16 17  1  0  0  0  0
 17 18  2  0  0  0  0
 18 19  1  0  0  0  0
 18 47  1  0  0  0  0
 19 20  1  0  0  0  0
 20 21  1  0  0  0  0
 20 48  1  0  0  0  0
 20 49  1  0  0  0  0
 21 22  1  0  0  0  0
 21 23  1  0  0  0  0
 21 50  1  0  0  0  0
 22 51  1  0  0  0  0
 23 27  1  0  0  0  0
 23 24  1  0  0  0  0
 23 52  1  0  0  0  0
 24 25  1  0  0  0  0
 24 53  1  0  0  0  0
 24 54  1  0  0  0  0
 25 26  1  0  0  0  0
 25 55  1  0  0  0  0
 25 56  1  0  0  0  0
 26 27  1  0  0  0  0
 26 57  1  0  0  0  0
 26 58  1  0  0  0  0
 28 29  1  0  0  0  0
 28 59  1  0  0  0  0
 28 60  1  0  0  0  0
 29 61  1  0  0  0  0
 29 62  1  0  0  0  0
M  CHG  1   2   1
M  END
> <s_m_source_file>
AV-unprocessed.smi

> <i_m_source_file_index>
155

> <i_lp_mmshare_version>
43012

> <i_f3d_flags>
0

> <s_epik_input>
W0NIM11OKFtDSDNdKVtDSDJdW0NIMl1OMVtDSDJdW0NIMl1bQ0gyXU4oW0NIMl1bQ0gyXTEpYyhuW2NIXW4yKWMoYzIzKW5bY0hdbjNbQ0gyXVtDQEhdKFtPSF0pW0NAQEhdNFtDSDJdW0NIMl1bQ0gyXU80

> <s_epik_cmdline>
J2VwaWtfcHl0aG9uJywgJy1waCcsICc3LjAnLCAnLXRuJywgJzgnLCAnLW1hJywgJzIwMCcsICctbWV0YWxfYmluZGluZycsICctaW1hZScsICc8aW5maWxlLm1hZT4nLCAnLW9tYWUnLCAnPG91dGZpbGUubWFlPic=

> <r_lp_tautomer_probability>
1

> <r_epik_Ionization_Penalty>
0.0599493

> <r_epik_Ionization_Penalty_Charging>
0.00816363

> <r_epik_Ionization_Penalty_Neutral>
0.0517857

> <r_epik_State_Penalty>
0.460607

> <r_epik_Charging_Adjusted_Penalty>
0.468771

> <i_epik_Tot_Q>
1

> <i_epik_Tot_abs_Q>
1

> <r_epik_Metal_State_Penalty>
0.45965

> <b_epik_Metal_Only>
0

> <s_lp_Force_Field>
OPLS_2005

> <r_lp_Energy>
61.9788

> <b_lp_Chiralities_Consistent>
1

> <s_lp_Variant>
AV-unprocessed.smi:155-9

> <Gold.Version>
5.8.1

> <Gold.Id.Protein>
6NUR|6NUR_protein|mol2

> <Gold.PLP.Fitness>
54.9497

> <Gold.PLP.PLP>
-51.0935

> <Gold.PLP.part.hbond>
-2.0242

> <Gold.PLP.part.metal>
0.0000

> <Gold.PLP.part.buried>
-5.0924

> <Gold.PLP.part.nonpolar>
-44.3553

> <Gold.PLP.part.repulsive>
1.8156

> <Gold.PLP.ligand.clash>
0.0000

> <Gold.PLP.ligand.torsion>
1.4402

> <Gold.PLP.Chemscore.Hbond>
2.1211

> <Gold.PLP.Chemscore.CHOScore>
0.0000

> <Gold.PLP.Chemscore.Metal>
0.0000

> <Gold.Chemscore.Hbonds>
donor molecule, donor type, donor heavy atom, donor atom, acceptor molecule, acceptor atom, score
      L1  H     2    63       P1 10186  1.66
      P1  H  8011  8017       L1    14  0.09

> <Gold.PLP.Chemscore.Internal.Correction>
0.3733

> <Gold.Rescore>
     Score         DG    S(hbond)    S(metal)    S(lipo)     H(rot)  DE(clash)    DE(int)     intcor
     12.35     -15.49       0.95        0.00     123.73       2.99       1.83       1.32       ----

> <Gold.Chemscore.Fitness>
12.3452

> <Gold.Chemscore.DG>
-15.4925

> <Gold.Chemscore.ZeroCoef>
-5.4800

> <Gold.Chemscore.Hbond>
0.9522

> <Gold.Chemscore.Metal>
0.0000

> <Gold.Chemscore.Lipo>
123.7345

> <Gold.Chemscore.Internal_Hbond>
0.0000

> <Gold.Chemscore.DEClash>
1.8306

> <Gold.Chemscore.DEInternal>
1.3166

> <Gold.Chemscore.Rot>
2.9862

> <Gold.Chemscore.Internal.Correction>
   9.000000E+99

> <Gold.Chemscore.Hbonds>
donor molecule, donor type, donor heavy atom, donor atom, acceptor molecule, acceptor atom, score
      L1  H     2    63       P1 10186  0.80

> <Gold.Chemscore.Hbond.Weighted>
-3.1803

> <Gold.Chemscore.Metal.Weighted>
-0.0000

> <Gold.Chemscore.Lipo.Weighted>
-14.4769

> <Gold.Chemscore.Internal_Hbond.Weighted>
0.0000

> <Gold.Chemscore.DEClash.Weighted>
1.8306

> <Gold.Chemscore.DEInternal.Weighted>
1.3166

> <Gold.Chemscore.Rot.Weighted>
7.6448

> <Gold.Chemscore.Internal.Correction.Weighted>
   9.000000E+99

> <Gold.Protein.RotatedTorsions>
[ 6907 6896 6895 6894 ] final   61.35 input  -60.11 | X-H torsion
[ 7974 7965 7964 7962 ] final  -16.78 input  175.53 | X-H torsion
[ 8008 7997 7996 7995 ] final   42.86 input   59.86 | X-H torsion
[ 10167 10162 10161 10158 ] final   30.86 input  -65.29 | X-H torsion
[ 10718 10713 10712 10709 ] final -176.02 input   66.30 | X-H torsion
[ 10763 10752 10751 10750 ] final  158.89 input  -60.55 | X-H torsion
[ 11005 11000 10999 10996 ] final  172.65 input  -57.11 | X-H torsion

> <Gold.Protein.ActiveResidues>
 VAL166  LYS551  ARG553  GLY616  TRP617  ASP618  TYR619  PRO620  LYS621  CYS622 
 ASP623  PHE694  ASN695  SER759  ASP760  ASP761  ALA762  ILE779  LEU786  VAL792 
 PHE793  MET794  SER795  GLU796  ALA797  LYS798  CYS799  TRP800  GLU811  SER814 

> <Gold.Protein.RotatedAtoms>
  152.4081  134.6172  160.0041 H   0  0  0  0  0  0  0  0  0  0  0  0  # atno 6907 bound_to 6896
  151.6357  133.3323  159.3127 H   0  0  0  0  0  0  0  0  0  0  0  0  # atno 6908 bound_to 6896
  150.7974  134.7084  159.6635 H   0  0  0  0  0  0  0  0  0  0  0  0  # atno 6909 bound_to 6896
  146.1972  140.3686  142.8436 H   0  0  0  0  0  0  0  0  0  0  0  0  # atno 7974 bound_to 7965
  155.2931  140.3380  155.4251 H   0  0  0  0  0  0  0  0  0  0  0  0  # atno 8008 bound_to 7997
  156.2037  140.1742  156.7886 H   0  0  0  0  0  0  0  0  0  0  0  0  # atno 8009 bound_to 7997
  154.5592  140.0690  156.8776 H   0  0  0  0  0  0  0  0  0  0  0  0  # atno 8010 bound_to 7997
  140.4640  144.0863  150.6220 H   0  0  0  0  0  0  0  0  0  0  0  0  # atno 10167 bound_to 10162
  156.8084  130.9577  151.3116 H   0  0  0  0  0  0  0  0  0  0  0  0  # atno 10718 bound_to 10713
  154.2231  135.2781  155.2917 H   0  0  0  0  0  0  0  0  0  0  0  0  # atno 10763 bound_to 10752
  154.5685  135.5625  153.7076 H   0  0  0  0  0  0  0  0  0  0  0  0  # atno 10764 bound_to 10752
  153.0037  135.6315  154.2372 H   0  0  0  0  0  0  0  0  0  0  0  0  # atno 10765 bound_to 10752
  140.3320  134.7349  157.4141 H   0  0  0  0  0  0  0  0  0  0  0  0  # atno 11005 bound_to 11000
  144.8604  140.7132  143.6111 LP  0  0  0  0  0  0  0  0  0  0  0  0  # atno 17320 bound_to 7965
  145.3606  139.1683  143.4385 LP  0  0  0  0  0  0  0  0  0  0  0  0  # atno 17321 bound_to 7965
  140.4059  143.2681  151.9892 LP  0  0  0  0  0  0  0  0  0  0  0  0  # atno 17342 bound_to 10162
  139.4810  144.5958  151.7693 LP  0  0  0  0  0  0  0  0  0  0  0  0  # atno 17343 bound_to 10162
  157.6518  130.8891  149.9648 LP  0  0  0  0  0  0  0  0  0  0  0  0  # atno 17370 bound_to 10713
  156.1059  130.3653  150.0135 LP  0  0  0  0  0  0  0  0  0  0  0  0  # atno 17371 bound_to 10713
  140.0853  134.5676  155.8499 LP  0  0  0  0  0  0  0  0  0  0  0  0  # atno 17394 bound_to 11000
  141.2061  133.6652  156.6220 LP  0  0  0  0  0  0  0  0  0  0  0  0  # atno 17395 bound_to 11000

$$$$
