AV-unprocessed.smi:3259|AV-procd|sdf|12475|dock5
  -GOLD-   2272018373D 1   1.00000     0.00000
 Structure written by MMmdl.
 39 40  0  0  0  0  0  0  0  0  1 V2000
  148.6624  141.3582  153.9658 C   0  0  0  0  0  0  0  0  0  0  0  0
  149.9267  140.8665  154.3912 O   0  0  0  0  0  0  0  0  0  0  0  0
  149.9110  139.9089  155.4511 C   0  0  2  0  0  0  0  0  0  0  0  0
  149.2883  138.5931  154.9589 C   0  0  0  0  0  0  0  0  0  0  0  0
  149.3862  140.5055  156.7702 C   0  0  0  0  0  0  0  0  0  0  0  0
  150.5400  139.7774  157.4562 C   0  0  2  0  0  0  0  0  0  0  0  0
  151.1092  140.5415  158.5604 N   0  0  0  0  0  0  0  0  0  0  0  0
  152.4034  140.5159  158.9124 C   0  0  0  0  0  0  0  0  0  0  0  0
  153.2510  139.8428  158.3267 O   0  0  0  0  0  0  0  0  0  0  0  0
  152.8060  141.3897  160.1012 C   0  0  0  0  0  0  0  0  0  0  0  0
  152.5253  142.7913  159.8448 N   0  0  0  0  0  0  0  0  0  0  0  0
  152.1392  143.7666  160.7410 C   0  0  0  0  0  0  0  0  0  0  0  0
  152.0024  144.9313  160.0413 C   0  0  0  0  0  0  0  0  0  0  0  0
  152.3286  144.5636  158.7060 C   0  0  0  0  0  0  0  0  0  0  0  0
  152.6402  143.2826  158.5913 N   0  0  0  0  0  0  0  0  0  0  0  0
  151.3232  139.8739  156.1217 C   0  0  0  0  0  0  0  0  0  0  0  0
  152.2187  138.6770  155.7858 C   0  0  0  0  0  0  0  0  0  0  0  0
  152.2018  141.1251  155.9204 C   0  0  0  0  0  0  0  0  0  0  0  0
  148.8173  142.1434  153.2261 H   0  0  0  0  0  0  0  0  0  0  0  0
  148.0935  141.7898  154.7895 H   0  0  0  0  0  0  0  0  0  0  0  0
  148.0618  140.5824  153.4916 H   0  0  0  0  0  0  0  0  0  0  0  0
  149.3843  137.7970  155.6969 H   0  0  0  0  0  0  0  0  0  0  0  0
  149.7661  138.2478  154.0418 H   0  0  0  0  0  0  0  0  0  0  0  0
  148.2223  138.6969  154.7587 H   0  0  0  0  0  0  0  0  0  0  0  0
  149.4607  141.5935  156.8211 H   0  0  0  0  0  0  0  0  0  0  0  0
  148.3954  140.1596  157.0662 H   0  0  0  0  0  0  0  0  0  0  0  0
  150.2706  138.7526  157.7217 H   0  0  0  0  0  0  0  0  0  0  0  0
  150.4783  141.1229  159.0925 H   0  0  0  0  0  0  0  0  0  0  0  0
  152.2723  141.0722  160.9984 H   0  0  0  0  0  0  0  0  0  0  0  0
  153.8714  141.2732  160.3045 H   0  0  0  0  0  0  0  0  0  0  0  0
  151.9981  143.5530  161.7901 H   0  0  0  0  0  0  0  0  0  0  0  0
  151.7133  145.8985  160.4245 H   0  0  0  0  0  0  0  0  0  0  0  0
  152.3480  145.1853  157.8232 H   0  0  0  0  0  0  0  0  0  0  0  0
  153.1398  138.6899  156.3693 H   0  0  0  0  0  0  0  0  0  0  0  0
  152.4968  138.6713  154.7315 H   0  0  0  0  0  0  0  0  0  0  0  0
  151.7296  137.7268  155.9986 H   0  0  0  0  0  0  0  0  0  0  0  0
  153.0806  141.1088  156.5657 H   0  0  0  0  0  0  0  0  0  0  0  0
  151.6644  142.0485  156.1368 H   0  0  0  0  0  0  0  0  0  0  0  0
  152.5594  141.1987  154.8927 H   0  0  0  0  0  0  0  0  0  0  0  0
  1  2  1  0  0  0  0
  1 19  1  0  0  0  0
  1 20  1  0  0  0  0
  1 21  1  0  0  0  0
  2  3  1  0  0  0  0
  3 16  1  0  0  0  0
  3  4  1  0  0  0  0
  3  5  1  0  0  0  0
  4 22  1  0  0  0  0
  4 23  1  0  0  0  0
  4 24  1  0  0  0  0
  5  6  1  0  0  0  0
  5 25  1  0  0  0  0
  5 26  1  0  0  0  0
  6  7  1  0  0  0  0
  6 16  1  0  0  0  0
  6 27  1  0  0  0  0
  7  8  1  0  0  0  0
  7 28  1  0  0  0  0
  8  9  2  0  0  0  0
  8 10  1  0  0  0  0
 10 11  1  0  0  0  0
 10 29  1  0  0  0  0
 10 30  1  0  0  0  0
 11 15  1  0  0  0  0
 11 12  1  0  0  0  0
 12 13  2  0  0  0  0
 12 31  1  0  0  0  0
 13 14  1  0  0  0  0
 13 32  1  0  0  0  0
 14 15  2  0  0  0  0
 14 33  1  0  0  0  0
 16 17  1  0  0  0  0
 16 18  1  0  0  0  0
 17 34  1  0  0  0  0
 17 35  1  0  0  0  0
 17 36  1  0  0  0  0
 18 37  1  0  0  0  0
 18 38  1  0  0  0  0
 18 39  1  0  0  0  0
M  END
> <s_m_source_file>
AV-unprocessed.smi

> <i_m_source_file_index>
3259

> <i_lp_mmshare_version>
43012

> <i_f3d_flags>
0

> <s_epik_input>
W0NIM11PW0NAQF0xKFtDSDNdKVtDSDJdW0NASF0oQzEoW0NIM10pW0NIM10pW05IXUMoPU8pW0NIMl1uMltjSF1bY0hdW2NIXW4y

> <s_epik_cmdline>
J2VwaWtfcHl0aG9uJywgJy1waCcsICc3LjAnLCAnLXRuJywgJzgnLCAnLW1hJywgJzIwMCcsICctbWV0YWxfYmluZGluZycsICctaW1hZScsICc8aW5maWxlLm1hZT4nLCAnLW9tYWUnLCAnPG91dGZpbGUubWFlPic=

> <r_lp_tautomer_probability>
1

> <r_epik_Ionization_Penalty>
1.78399e-05

> <r_epik_Ionization_Penalty_Charging>
0

> <r_epik_Ionization_Penalty_Neutral>
1.78399e-05

> <r_epik_State_Penalty>
-0

> <r_epik_Charging_Adjusted_Penalty>
0

> <i_epik_Tot_Q>
0

> <i_epik_Tot_abs_Q>
0

> <r_epik_Metal_State_Penalty>
-0

> <b_epik_Metal_Only>
0

> <s_lp_Force_Field>
OPLS_2005

> <r_lp_Energy>
24.0627

> <b_lp_Chiralities_Consistent>
1

> <s_lp_Variant>
AV-unprocessed.smi:3259-4

> <Gold.Version>
5.8.1

> <Gold.Id.Protein>
6NUR|6NUR_protein|mol2

> <Gold.PLP.Fitness>
36.9724

> <Gold.PLP.PLP>
-33.0714

> <Gold.PLP.part.hbond>
-2.0000

> <Gold.PLP.part.metal>
0.0000

> <Gold.PLP.part.buried>
-3.8448

> <Gold.PLP.part.nonpolar>
-25.6906

> <Gold.PLP.part.repulsive>
0.2910

> <Gold.PLP.ligand.clash>
0.0000

> <Gold.PLP.ligand.torsion>
0.7279

> <Gold.PLP.Chemscore.Hbond>
1.6596

> <Gold.PLP.Chemscore.CHOScore>
0.0000

> <Gold.PLP.Chemscore.Metal>
0.0000

> <Gold.Chemscore.Hbonds>
donor molecule, donor type, donor heavy atom, donor atom, acceptor molecule, acceptor atom, score
      P1  H  7989  7998       L1     2  0.64
      P1  H  7997  8009       L1     9  1.00

> <Gold.PLP.Chemscore.Internal.Correction>
0.3780

> <Gold.Rescore>
     Score         DG    S(hbond)    S(metal)    S(lipo)     H(rot)  DE(clash)    DE(int)     intcor
     15.03     -17.39       1.61        0.00      90.70       1.60       1.78       0.58       ----

> <Gold.Chemscore.Fitness>
15.0265

> <Gold.Chemscore.DG>
-17.3888

> <Gold.Chemscore.ZeroCoef>
-5.4800

> <Gold.Chemscore.Hbond>
1.6117

> <Gold.Chemscore.Metal>
0.0000

> <Gold.Chemscore.Lipo>
90.7007

> <Gold.Chemscore.Internal_Hbond>
0.0000

> <Gold.Chemscore.DEClash>
1.7843

> <Gold.Chemscore.DEInternal>
0.5780

> <Gold.Chemscore.Rot>
1.5962

> <Gold.Chemscore.Internal.Correction>
   9.000000E+99

> <Gold.Chemscore.Hbonds>
donor molecule, donor type, donor heavy atom, donor atom, acceptor molecule, acceptor atom, score
      P1  H  7989  7998       L1     2  0.52
      P1  H  7997  8009       L1     9  0.99

> <Gold.Chemscore.Hbond.Weighted>
-5.3831

> <Gold.Chemscore.Metal.Weighted>
-0.0000

> <Gold.Chemscore.Lipo.Weighted>
-10.6120

> <Gold.Chemscore.Internal_Hbond.Weighted>
0.0000

> <Gold.Chemscore.DEClash.Weighted>
1.7843

> <Gold.Chemscore.DEInternal.Weighted>
0.5780

> <Gold.Chemscore.Rot.Weighted>
4.0862

> <Gold.Chemscore.Internal.Correction.Weighted>
   9.000000E+99

> <Gold.Protein.RotatedTorsions>
[ 6907 6896 6895 6894 ] final   68.38 input  -60.11 | X-H torsion
[ 7974 7965 7964 7962 ] final -173.18 input  175.53 | X-H torsion
[ 8008 7997 7996 7995 ] final  149.46 input   59.86 | X-H torsion
[ 10167 10162 10161 10158 ] final  175.59 input  -65.29 | X-H torsion
[ 10718 10713 10712 10709 ] final  -49.12 input   66.30 | X-H torsion
[ 10763 10752 10751 10750 ] final  -82.74 input  -60.55 | X-H torsion
[ 11005 11000 10999 10996 ] final   98.17 input  -57.11 | X-H torsion

> <Gold.Protein.ActiveResidues>
 VAL166  LYS551  ARG553  GLY616  TRP617  ASP618  TYR619  PRO620  LYS621  CYS622 
 ASP623  PHE694  ASN695  SER759  ASP760  ASP761  ALA762  ILE779  LEU786  VAL792 
 PHE793  MET794  SER795  GLU796  ALA797  LYS798  CYS799  TRP800  GLU811  SER814 

> <Gold.Protein.RotatedAtoms>
  152.4616  134.5171  159.9771 H   0  0  0  0  0  0  0  0  0  0  0  0  # atno 6907 bound_to 6896
  151.5219  133.3459  159.2910 H   0  0  0  0  0  0  0  0  0  0  0  0  # atno 6908 bound_to 6896
  150.8581  134.7955  159.7124 H   0  0  0  0  0  0  0  0  0  0  0  0  # atno 6909 bound_to 6896
  144.7140  140.1660  143.6372 H   0  0  0  0  0  0  0  0  0  0  0  0  # atno 7974 bound_to 7965
  156.2754  140.2101  156.5862 H   0  0  0  0  0  0  0  0  0  0  0  0  # atno 8008 bound_to 7997
  154.7019  140.0520  157.0489 H   0  0  0  0  0  0  0  0  0  0  0  0  # atno 8009 bound_to 7997
  155.0723  140.3178  155.4629 H   0  0  0  0  0  0  0  0  0  0  0  0  # atno 8010 bound_to 7997
  139.5183  144.3013  152.0375 H   0  0  0  0  0  0  0  0  0  0  0  0  # atno 10167 bound_to 10162
  156.1923  130.4153  149.9354 H   0  0  0  0  0  0  0  0  0  0  0  0  # atno 10718 bound_to 10713
  154.5794  135.5580  153.7171 H   0  0  0  0  0  0  0  0  0  0  0  0  # atno 10763 bound_to 10752
  153.0076  135.6316  154.2003 H   0  0  0  0  0  0  0  0  0  0  0  0  # atno 10764 bound_to 10752
  154.1944  135.2881  155.2991 H   0  0  0  0  0  0  0  0  0  0  0  0  # atno 10765 bound_to 10752
  139.8773  134.9036  156.4417 H   0  0  0  0  0  0  0  0  0  0  0  0  # atno 11005 bound_to 11000
  145.8987  139.2418  143.1506 LP  0  0  0  0  0  0  0  0  0  0  0  0  # atno 17320 bound_to 7965
  145.9832  140.8665  143.0104 LP  0  0  0  0  0  0  0  0  0  0  0  0  # atno 17321 bound_to 7965
  140.2461  144.4218  150.6240 LP  0  0  0  0  0  0  0  0  0  0  0  0  # atno 17342 bound_to 10162
  140.6257  143.2181  151.6601 LP  0  0  0  0  0  0  0  0  0  0  0  0  # atno 17343 bound_to 10162
  156.7090  130.8963  151.3607 LP  0  0  0  0  0  0  0  0  0  0  0  0  # atno 17370 bound_to 10713
  157.6937  130.9259  150.0583 LP  0  0  0  0  0  0  0  0  0  0  0  0  # atno 17371 bound_to 10713
  140.8995  133.7790  155.9663 LP  0  0  0  0  0  0  0  0  0  0  0  0  # atno 17394 bound_to 11000
  140.8667  134.2776  157.5210 LP  0  0  0  0  0  0  0  0  0  0  0  0  # atno 17395 bound_to 11000

$$$$
