AV-unprocessed.smi:3030|AV-procd|sdf|11539|dock6
  -GOLD-   2272016483D 1   1.00000     0.00000
 Structure written by MMmdl.
 52 53  0  0  0  0  0  0  0  0  1 V2000
  145.2885  129.6196  151.6501 C   0  0  0  0  0  0  0  0  0  0  0  0
  146.3103  130.7249  151.9389 C   0  0  0  0  0  0  0  0  0  0  0  0
  145.7134  132.0493  151.8451 N   0  0  0  0  0  0  0  0  0  0  0  0
  144.3931  132.2206  151.4428 C   0  0  0  0  0  0  0  0  0  0  0  0
  143.7703  133.4136  151.3850 C   0  0  0  0  0  0  0  0  0  0  0  0
  144.5075  134.6340  151.7707 C   0  0  0  0  0  0  0  0  0  0  0  0
  143.9692  135.7404  151.7311 O   0  0  0  0  0  0  0  0  0  0  0  0
  145.9181  134.4511  152.2042 C   0  0  0  0  0  0  0  0  0  0  0  0
  146.6086  135.6167  152.5749 N   0  0  0  0  0  0  0  0  0  0  0  0
  146.2640  136.5691  153.4605 C   0  0  0  0  0  0  0  0  0  0  0  0
  145.2415  136.5841  154.1453 O   0  0  0  0  0  0  0  0  0  0  0  0
  147.2066  137.5207  153.5244 N   0  0  0  0  0  0  0  0  0  0  0  0
  147.1841  138.6813  154.4095 C   0  0  2  0  0  0  0  0  0  0  0  0
  146.9256  139.9751  153.6150 C   0  0  0  0  0  0  0  0  0  0  0  0
  146.6909  141.1683  154.5633 C   0  0  2  0  0  0  0  0  0  0  0  0
  146.4759  142.4733  153.7834 C   0  0  0  0  0  0  0  0  0  0  0  0
  147.8397  141.2993  155.5844 C   0  0  0  0  0  0  0  0  0  0  0  0
  148.1083  139.9705  156.3172 C   0  0  0  0  0  0  0  0  0  0  0  0
  148.4318  138.8155  155.3356 C   0  0  2  0  0  0  0  0  0  0  0  0
  149.8232  138.9785  154.6268 C   0  0  0  0  0  0  0  0  0  0  0  0
  150.5897  137.6547  154.4319 C   0  0  0  0  0  0  0  0  0  0  0  0
  150.7527  139.9562  155.3746 C   0  0  0  0  0  0  0  0  0  0  0  0
  146.4209  133.1900  152.2194 C   0  0  0  0  0  0  0  0  0  0  0  0
  145.7507  128.6356  151.7270 H   0  0  0  0  0  0  0  0  0  0  0  0
  144.8771  129.7167  150.6450 H   0  0  0  0  0  0  0  0  0  0  0  0
  144.4594  129.6549  152.3572 H   0  0  0  0  0  0  0  0  0  0  0  0
  146.7336  130.5857  152.9343 H   0  0  0  0  0  0  0  0  0  0  0  0
  147.1441  130.6516  151.2397 H   0  0  0  0  0  0  0  0  0  0  0  0
  143.8890  131.3054  151.1674 H   0  0  0  0  0  0  0  0  0  0  0  0
  142.7428  133.4987  151.0627 H   0  0  0  0  0  0  0  0  0  0  0  0
  147.5019  135.7336  152.1188 H   0  0  0  0  0  0  0  0  0  0  0  0
  148.0148  137.4262  152.9273 H   0  0  0  0  0  0  0  0  0  0  0  0
  146.3122  138.5411  155.0522 H   0  0  0  0  0  0  0  0  0  0  0  0
  147.7591  140.1817  152.9431 H   0  0  0  0  0  0  0  0  0  0  0  0
  146.0489  139.8452  152.9789 H   0  0  0  0  0  0  0  0  0  0  0  0
  145.7756  140.9695  155.1231 H   0  0  0  0  0  0  0  0  0  0  0  0
  147.3575  142.7349  153.1974 H   0  0  0  0  0  0  0  0  0  0  0  0
  146.2653  143.3040  154.4574 H   0  0  0  0  0  0  0  0  0  0  0  0
  145.6337  142.3855  153.0965 H   0  0  0  0  0  0  0  0  0  0  0  0
  148.7476  141.6369  155.0843 H   0  0  0  0  0  0  0  0  0  0  0  0
  147.5940  142.0710  156.3149 H   0  0  0  0  0  0  0  0  0  0  0  0
  148.8897  140.0989  157.0641 H   0  0  0  0  0  0  0  0  0  0  0  0
  147.2209  139.7071  156.8944 H   0  0  0  0  0  0  0  0  0  0  0  0
  148.4936  137.9075  155.9372 H   0  0  0  0  0  0  0  0  0  0  0  0
  149.6681  139.4001  153.6342 H   0  0  0  0  0  0  0  0  0  0  0  0
  150.6351  137.0797  155.3574 H   0  0  0  0  0  0  0  0  0  0  0  0
  151.6149  137.8323  154.1059 H   0  0  0  0  0  0  0  0  0  0  0  0
  150.1402  137.0320  153.6608 H   0  0  0  0  0  0  0  0  0  0  0  0
  150.8774  139.6650  156.4181 H   0  0  0  0  0  0  0  0  0  0  0  0
  150.3787  140.9788  155.3477 H   0  0  0  0  0  0  0  0  0  0  0  0
  151.7438  139.9875  154.9210 H   0  0  0  0  0  0  0  0  0  0  0  0
  147.4279  132.9616  152.5301 H   0  0  0  0  0  0  0  0  0  0  0  0
  1  2  1  0  0  0  0
  1 24  1  0  0  0  0
  1 25  1  0  0  0  0
  1 26  1  0  0  0  0
  2  3  1  0  0  0  0
  2 27  1  0  0  0  0
  2 28  1  0  0  0  0
  3 23  1  0  0  0  0
  3  4  1  0  0  0  0
  4  5  2  0  0  0  0
  4 29  1  0  0  0  0
  5  6  1  0  0  0  0
  5 30  1  0  0  0  0
  6  7  2  0  0  0  0
  6  8  1  0  0  0  0
  8  9  1  0  0  0  0
  8 23  2  0  0  0  0
  9 10  1  0  0  0  0
  9 31  1  0  0  0  0
 10 11  2  0  0  0  0
 10 12  1  0  0  0  0
 12 13  1  0  0  0  0
 12 32  1  0  0  0  0
 13 19  1  0  0  0  0
 13 14  1  0  0  0  0
 13 33  1  0  0  0  0
 14 15  1  0  0  0  0
 14 34  1  0  0  0  0
 14 35  1  0  0  0  0
 15 16  1  0  0  0  0
 15 17  1  0  0  0  0
 15 36  1  0  0  0  0
 16 37  1  0  0  0  0
 16 38  1  0  0  0  0
 16 39  1  0  0  0  0
 17 18  1  0  0  0  0
 17 40  1  0  0  0  0
 17 41  1  0  0  0  0
 18 19  1  0  0  0  0
 18 42  1  0  0  0  0
 18 43  1  0  0  0  0
 19 20  1  0  0  0  0
 19 44  1  0  0  0  0
 20 21  1  0  0  0  0
 20 22  1  0  0  0  0
 20 45  1  0  0  0  0
 21 46  1  0  0  0  0
 21 47  1  0  0  0  0
 21 48  1  0  0  0  0
 22 49  1  0  0  0  0
 22 50  1  0  0  0  0
 22 51  1  0  0  0  0
 23 52  1  0  0  0  0
M  END
> <s_m_source_file>
AV-unprocessed.smi

> <i_m_source_file_index>
3030

> <i_lp_mmshare_version>
43012

> <i_f3d_flags>
0

> <s_epik_input>
W0NIM11bQ0gyXW4xW2NIXVtjSF1jKD1PKWMoW2NIXTEpW05IXUMoPU8pW05IXVtDQEBIXTJbQ0gyXVtDQEBIXShbQ0gzXSlbQ0gyXVtDSDJdW0NASF0yW0NIXShbQ0gzXSlbQ0gzXQ==

> <s_epik_cmdline>
J2VwaWtfcHl0aG9uJywgJy1waCcsICc3LjAnLCAnLXRuJywgJzgnLCAnLW1hJywgJzIwMCcsICctbWV0YWxfYmluZGluZycsICctaW1hZScsICc8aW5maWxlLm1hZT4nLCAnLW9tYWUnLCAnPG91dGZpbGUubWFlPic=

> <r_lp_tautomer_probability>
1

> <r_epik_Ionization_Penalty>
0.00147933

> <r_epik_Ionization_Penalty_Charging>
0.00145753

> <r_epik_Ionization_Penalty_Neutral>
2.17987e-05

> <r_epik_State_Penalty>
0.00097457

> <r_epik_Charging_Adjusted_Penalty>
0.0024321

> <i_epik_Tot_Q>
0

> <i_epik_Tot_abs_Q>
0

> <r_epik_Metal_State_Penalty>
-0

> <b_epik_Metal_Only>
0

> <s_lp_Force_Field>
OPLS_2005

> <r_lp_Energy>
13.9811

> <b_lp_Chiralities_Consistent>
1

> <s_lp_Variant>
AV-unprocessed.smi:3030-7

> <Gold.Version>
5.8.1

> <Gold.Id.Protein>
6NUR|6NUR_protein|mol2

> <Gold.PLP.Fitness>
38.4201

> <Gold.PLP.PLP>
-35.8905

> <Gold.PLP.part.hbond>
-1.9443

> <Gold.PLP.part.metal>
0.0000

> <Gold.PLP.part.buried>
-5.1223

> <Gold.PLP.part.nonpolar>
-29.2658

> <Gold.PLP.part.repulsive>
0.2396

> <Gold.PLP.ligand.clash>
0.0000

> <Gold.PLP.ligand.torsion>
1.6261

> <Gold.PLP.Chemscore.Hbond>
1.8960

> <Gold.PLP.Chemscore.CHOScore>
0.0000

> <Gold.PLP.Chemscore.Metal>
0.0000

> <Gold.Chemscore.Hbonds>
donor molecule, donor type, donor heavy atom, donor atom, acceptor molecule, acceptor atom, score
      L1  H     9    31       P1  7948  1.00
      L1  H    12    32       P1  7948  0.90

> <Gold.PLP.Chemscore.Internal.Correction>
0.0938

> <Gold.Rescore>
     Score         DG    S(hbond)    S(metal)    S(lipo)     H(rot)  DE(clash)    DE(int)     intcor
     15.13     -19.13       1.91        0.00      89.97       1.27       0.04       3.96       ----

> <Gold.Chemscore.Fitness>
15.1321

> <Gold.Chemscore.DG>
-19.1297

> <Gold.Chemscore.ZeroCoef>
-5.4800

> <Gold.Chemscore.Hbond>
1.9073

> <Gold.Chemscore.Metal>
0.0000

> <Gold.Chemscore.Lipo>
89.9715

> <Gold.Chemscore.Internal_Hbond>
0.0000

> <Gold.Chemscore.DEClash>
0.0376

> <Gold.Chemscore.DEInternal>
3.9599

> <Gold.Chemscore.Rot>
1.2685

> <Gold.Chemscore.Internal.Correction>
   9.000000E+99

> <Gold.Chemscore.Hbonds>
donor molecule, donor type, donor heavy atom, donor atom, acceptor molecule, acceptor atom, score
      L1  H     9    31       P1  7948  0.93
      L1  H    12    32       P1  7948  0.86

> <Gold.Chemscore.Hbond.Weighted>
-6.3705

> <Gold.Chemscore.Metal.Weighted>
-0.0000

> <Gold.Chemscore.Lipo.Weighted>
-10.5267

> <Gold.Chemscore.Internal_Hbond.Weighted>
0.0000

> <Gold.Chemscore.DEClash.Weighted>
0.0376

> <Gold.Chemscore.DEInternal.Weighted>
3.9599

> <Gold.Chemscore.Rot.Weighted>
3.2474

> <Gold.Chemscore.Internal.Correction.Weighted>
   9.000000E+99

> <Gold.Protein.RotatedTorsions>
[ 6907 6896 6895 6894 ] final   26.62 input  -60.11 | X-H torsion
[ 7974 7965 7964 7962 ] final -114.70 input  175.53 | X-H torsion
[ 8008 7997 7996 7995 ] final   -8.36 input   59.86 | X-H torsion
[ 10167 10162 10161 10158 ] final -178.67 input  -65.29 | X-H torsion
[ 10718 10713 10712 10709 ] final  124.18 input   66.30 | X-H torsion
[ 10763 10752 10751 10750 ] final  173.91 input  -60.55 | X-H torsion
[ 11005 11000 10999 10996 ] final  -10.73 input  -57.11 | X-H torsion

> <Gold.Protein.ActiveResidues>
 VAL166  LYS551  ARG553  GLY616  TRP617  ASP618  TYR619  PRO620  LYS621  CYS622 
 ASP623  PHE694  ASN695  SER759  ASP760  ASP761  ALA762  ILE779  LEU786  VAL792 
 PHE793  MET794  SER795  GLU796  ALA797  LYS798  CYS799  TRP800  GLU811  SER814 

> <Gold.Protein.RotatedAtoms>
  151.9901  134.9983  160.0560 H   0  0  0  0  0  0  0  0  0  0  0  0  # atno 6907 bound_to 6896
  152.1616  133.4580  159.4872 H   0  0  0  0  0  0  0  0  0  0  0  0  # atno 6908 bound_to 6896
  150.6888  134.1982  159.4355 H   0  0  0  0  0  0  0  0  0  0  0  0  # atno 6909 bound_to 6896
  145.1171  140.8646  143.3836 H   0  0  0  0  0  0  0  0  0  0  0  0  # atno 7974 bound_to 7965
  154.5749  140.2383  155.8137 H   0  0  0  0  0  0  0  0  0  0  0  0  # atno 8008 bound_to 7997
  156.2135  140.3019  155.9744 H   0  0  0  0  0  0  0  0  0  0  0  0  # atno 8009 bound_to 7997
  155.2645  140.0416  157.2991 H   0  0  0  0  0  0  0  0  0  0  0  0  # atno 8010 bound_to 7997
  139.5421  144.2333  152.0917 H   0  0  0  0  0  0  0  0  0  0  0  0  # atno 10167 bound_to 10162
  157.5606  131.1090  150.8545 H   0  0  0  0  0  0  0  0  0  0  0  0  # atno 10718 bound_to 10713
  154.4466  135.2763  155.1810 H   0  0  0  0  0  0  0  0  0  0  0  0  # atno 10763 bound_to 10752
  154.3655  135.6120  153.5716 H   0  0  0  0  0  0  0  0  0  0  0  0  # atno 10764 bound_to 10752
  152.9844  135.5844  154.4803 H   0  0  0  0  0  0  0  0  0  0  0  0  # atno 10765 bound_to 10752
  140.7478  133.8617  155.9020 H   0  0  0  0  0  0  0  0  0  0  0  0  # atno 11005 bound_to 11000
  145.0782  139.2980  143.5797 LP  0  0  0  0  0  0  0  0  0  0  0  0  # atno 17320 bound_to 7965
  146.3523  140.0280  142.8653 LP  0  0  0  0  0  0  0  0  0  0  0  0  # atno 17321 bound_to 7965
  140.1814  144.4841  150.6526 LP  0  0  0  0  0  0  0  0  0  0  0  0  # atno 17342 bound_to 10162
  140.6656  143.2266  151.5752 LP  0  0  0  0  0  0  0  0  0  0  0  0  # atno 17343 bound_to 10162
  156.9044  130.5258  149.5282 LP  0  0  0  0  0  0  0  0  0  0  0  0  # atno 17370 bound_to 10713
  156.0659  130.5702  150.9287 LP  0  0  0  0  0  0  0  0  0  0  0  0  # atno 17371 bound_to 10713
  140.9778  134.1445  157.4521 LP  0  0  0  0  0  0  0  0  0  0  0  0  # atno 17394 bound_to 11000
  139.8793  135.0000  156.5988 LP  0  0  0  0  0  0  0  0  0  0  0  0  # atno 17395 bound_to 11000

$$$$
