AV-unprocessed.smi:100|AV-procd|sdf|897|dock3
  -GOLD-   2262017393D 1   1.00000     0.00000
 Structure written by MMmdl.
 31 33  0  0  0  0  0  0  0  0  1 V2000
  153.5147  142.2192  160.3930 N   0  0  0  0  0  0  0  0  0  0  0  0
  152.7278  142.5876  159.3727 C   0  0  0  0  0  0  0  0  0  0  0  0
  152.7514  143.8819  158.9757 N   0  0  0  0  0  0  0  0  0  0  0  0
  151.9765  144.2739  157.9585 C   0  0  0  0  0  0  0  0  0  0  0  0
  151.1291  143.5471  157.2241 N   0  0  0  0  0  0  0  0  0  0  0  0
  151.1064  142.2437  157.6303 C   0  0  0  0  0  0  0  0  0  0  0  0
  151.8736  141.6858  158.6895 C   0  0  0  0  0  0  0  0  0  0  0  0
  151.5970  140.3302  158.8108 N   0  0  0  0  0  0  0  0  0  0  0  0
  150.7149  140.1046  157.8737 C   0  0  0  0  0  0  0  0  0  0  0  0
  150.3618  141.2035  157.1195 N   0  0  0  0  0  0  0  0  0  0  0  0
  149.4009  141.2826  155.9805 C   0  0  2  0  0  0  0  0  0  0  0  0
  148.1482  140.9023  156.4668 O   0  0  0  0  0  0  0  0  0  0  0  0
  147.5276  139.9691  155.5887 C   0  0  1  0  0  0  0  0  0  0  0  0
  146.6739  140.7331  154.5578 C   0  0  0  0  0  0  0  0  0  0  0  0
  146.1334  139.8313  153.6164 O   0  0  0  0  0  0  0  0  0  0  0  0
  148.7139  139.2325  154.9625 C   0  0  2  0  0  0  0  0  0  0  0  0
  149.0999  138.2478  155.7757 F   0  0  0  0  0  0  0  0  0  0  0  0
  149.8110  140.2826  154.8873 C   0  0  1  0  0  0  0  0  0  0  0  0
  149.8484  140.8775  153.6054 O   0  0  0  0  0  0  0  0  0  0  0  0
  153.5145  141.2590  160.7058 H   0  0  0  0  0  0  0  0  0  0  0  0
  154.1049  142.9012  160.8468 H   0  0  0  0  0  0  0  0  0  0  0  0
  152.0446  145.3192  157.6955 H   0  0  0  0  0  0  0  0  0  0  0  0
  150.2952  139.1234  157.7054 H   0  0  0  0  0  0  0  0  0  0  0  0
  149.4008  142.3273  155.6650 H   0  0  0  0  0  0  0  0  0  0  0  0
  146.9001  139.2728  156.1472 H   0  0  0  0  0  0  0  0  0  0  0  0
  145.8746  141.3039  155.0312 H   0  0  0  0  0  0  0  0  0  0  0  0
  147.2932  141.4418  154.0075 H   0  0  0  0  0  0  0  0  0  0  0  0
  145.2661  140.1246  153.3822 H   0  0  0  0  0  0  0  0  0  0  0  0
  148.4834  138.7670  154.0033 H   0  0  0  0  0  0  0  0  0  0  0  0
  150.7948  139.8561  155.0904 H   0  0  0  0  0  0  0  0  0  0  0  0
  149.6231  140.2199  152.9645 H   0  0  0  0  0  0  0  0  0  0  0  0
  1  2  1  0  0  0  0
  1 20  1  0  0  0  0
  1 21  1  0  0  0  0
  2  7  1  0  0  0  0
  2  3  2  0  0  0  0
  3  4  1  0  0  0  0
  4  5  2  0  0  0  0
  4 22  1  0  0  0  0
  5  6  1  0  0  0  0
  6 10  1  0  0  0  0
  6  7  2  0  0  0  0
  7  8  1  0  0  0  0
  8  9  2  0  0  0  0
  9 10  1  0  0  0  0
  9 23  1  0  0  0  0
 10 11  1  0  0  0  0
 11 18  1  0  0  0  0
 11 12  1  0  0  0  0
 11 24  1  0  0  0  0
 12 13  1  0  0  0  0
 13 14  1  0  0  0  0
 13 16  1  0  0  0  0
 13 25  1  0  0  0  0
 14 15  1  0  0  0  0
 14 26  1  0  0  0  0
 14 27  1  0  0  0  0
 15 28  1  0  0  0  0
 16 17  1  0  0  0  0
 16 18  1  0  0  0  0
 16 29  1  0  0  0  0
 18 19  1  0  0  0  0
 18 30  1  0  0  0  0
 19 31  1  0  0  0  0
M  END
> <s_m_source_file>
AV-unprocessed.smi

> <i_m_source_file_index>
100

> <i_lp_mmshare_version>
43012

> <i_f3d_flags>
0

> <s_epik_input>
bjFbY0hdbmMoW05IMl0pYyhjMTIpbltjSF1uMltDQEBIXTNPW0NAQEhdKFtDSDJdW09IXSlbQ0BIXShGKVtDQEhdM1tPSF0=

> <s_epik_cmdline>
J2VwaWtfcHl0aG9uJywgJy1waCcsICc3LjAnLCAnLXRuJywgJzgnLCAnLW1hJywgJzIwMCcsICctbWV0YWxfYmluZGluZycsICctaW1hZScsICc8aW5maWxlLm1hZT4nLCAnLW9tYWUnLCAnPG91dGZpbGUubWFlPic=

> <r_lp_tautomer_probability>
1

> <r_epik_Ionization_Penalty>
0.000750324

> <r_epik_Ionization_Penalty_Charging>
0

> <r_epik_Ionization_Penalty_Neutral>
0.000750324

> <r_epik_State_Penalty>
-0

> <r_epik_Charging_Adjusted_Penalty>
0

> <i_epik_Tot_Q>
0

> <i_epik_Tot_abs_Q>
0

> <r_epik_Metal_State_Penalty>
-0

> <b_epik_Metal_Only>
0

> <s_epik_Chemistry_Notes>
This compound contains an acetal/aminal-like group ( X-CH(R)-Y where X, Y are N, S, or O) that may be acid/base labile, releasing an aldehyde.

> <s_lp_Force_Field>
OPLS_2005

> <r_lp_Energy>
27.7777

> <b_lp_Chiralities_Consistent>
1

> <s_lp_Variant>
AV-unprocessed.smi:100-1

> <Gold.Version>
5.8.1

> <Gold.Id.Protein>
6NUR|6NUR_protein|mol2

> <Gold.PLP.Fitness>
36.7422

> <Gold.PLP.PLP>
-28.2688

> <Gold.PLP.part.hbond>
-3.6703

> <Gold.PLP.part.metal>
0.0000

> <Gold.PLP.part.buried>
-5.9862

> <Gold.PLP.part.nonpolar>
-20.1188

> <Gold.PLP.part.repulsive>
0.9958

> <Gold.PLP.ligand.clash>
0.0000

> <Gold.PLP.ligand.torsion>
0.0174

> <Gold.PLP.Chemscore.Hbond>
2.8304

> <Gold.PLP.Chemscore.CHOScore>
0.0000

> <Gold.PLP.Chemscore.Metal>
0.0000

> <Gold.Chemscore.Hbonds>
donor molecule, donor type, donor heavy atom, donor atom, acceptor molecule, acceptor atom, score
      L1  H    15    28       P1 10175  1.00
      L1  H    19    31       P1  7957  0.75
      P1  H  7989  7998       L1    19  0.29
      P1  H  8011  8017       L1    19  0.80

> <Gold.PLP.Chemscore.Internal.Correction>
0.0172

> <Gold.Rescore>
     Score         DG    S(hbond)    S(metal)    S(lipo)     H(rot)  DE(clash)    DE(int)     intcor
      6.82      -6.97       1.97        0.00      26.34       3.19       0.14       0.01       ----

> <Gold.Chemscore.Fitness>
6.8187

> <Gold.Chemscore.DG>
-6.9685

> <Gold.Chemscore.ZeroCoef>
-5.4800

> <Gold.Chemscore.Hbond>
1.9681

> <Gold.Chemscore.Metal>
0.0000

> <Gold.Chemscore.Lipo>
26.3391

> <Gold.Chemscore.Internal_Hbond>
0.0000

> <Gold.Chemscore.DEClash>
0.1369

> <Gold.Chemscore.DEInternal>
0.0129

> <Gold.Chemscore.Rot>
3.1901

> <Gold.Chemscore.Internal.Correction>
   9.000000E+99

> <Gold.Chemscore.Hbonds>
donor molecule, donor type, donor heavy atom, donor atom, acceptor molecule, acceptor atom, score
      L1  H    15    28       P1 10175  1.00
      L1  H    19    31       P1  7957  0.76
      P1  H  7989  7998       L1    19  0.01
      P1  H  8011  8017       L1    19  0.11

> <Gold.Chemscore.Hbond.Weighted>
-6.5735

> <Gold.Chemscore.Metal.Weighted>
-0.0000

> <Gold.Chemscore.Lipo.Weighted>
-3.0817

> <Gold.Chemscore.Internal_Hbond.Weighted>
0.0000

> <Gold.Chemscore.DEClash.Weighted>
0.1369

> <Gold.Chemscore.DEInternal.Weighted>
0.0129

> <Gold.Chemscore.Rot.Weighted>
8.1667

> <Gold.Chemscore.Internal.Correction.Weighted>
   9.000000E+99

> <Gold.Protein.RotatedTorsions>
[ 6907 6896 6895 6894 ] final  108.63 input  -60.11 | X-H torsion
[ 7974 7965 7964 7962 ] final   -7.48 input  175.53 | X-H torsion
[ 8008 7997 7996 7995 ] final  139.77 input   59.86 | X-H torsion
[ 10167 10162 10161 10158 ] final  157.39 input  -65.29 | X-H torsion
[ 10718 10713 10712 10709 ] final  -35.63 input   66.30 | X-H torsion
[ 10763 10752 10751 10750 ] final -139.43 input  -60.55 | X-H torsion
[ 11005 11000 10999 10996 ] final  -16.14 input  -57.11 | X-H torsion

> <Gold.Protein.ActiveResidues>
 VAL166  LYS551  ARG553  GLY616  TRP617  ASP618  TYR619  PRO620  LYS621  CYS622 
 ASP623  PHE694  ASN695  SER759  ASP760  ASP761  ALA762  ILE779  LEU786  VAL792 
 PHE793  MET794  SER795  GLU796  ALA797  LYS798  CYS799  TRP800  GLU811  SER814 

> <Gold.Protein.RotatedAtoms>
  152.5104  133.9061  159.7464 H   0  0  0  0  0  0  0  0  0  0  0  0  # atno 6907 bound_to 6896
  150.9466  133.6588  159.2787 H   0  0  0  0  0  0  0  0  0  0  0  0  # atno 6908 bound_to 6896
  151.3881  135.0956  159.9570 H   0  0  0  0  0  0  0  0  0  0  0  0  # atno 6909 bound_to 6896
  146.2306  140.2325  142.8340 H   0  0  0  0  0  0  0  0  0  0  0  0  # atno 7974 bound_to 7965
  156.2986  140.2359  156.4292 H   0  0  0  0  0  0  0  0  0  0  0  0  # atno 8008 bound_to 7997
  154.8286  140.0434  157.1481 H   0  0  0  0  0  0  0  0  0  0  0  0  # atno 8009 bound_to 7997
  154.9234  140.3006  155.5208 H   0  0  0  0  0  0  0  0  0  0  0  0  # atno 8010 bound_to 7997
  139.4823  144.4921  151.8293 H   0  0  0  0  0  0  0  0  0  0  0  0  # atno 10167 bound_to 10162
  156.3364  130.4287  149.7826 H   0  0  0  0  0  0  0  0  0  0  0  0  # atno 10718 bound_to 10713
  154.8609  135.3582  154.5546 H   0  0  0  0  0  0  0  0  0  0  0  0  # atno 10763 bound_to 10752
  153.6163  135.7007  153.5332 H   0  0  0  0  0  0  0  0  0  0  0  0  # atno 10764 bound_to 10752
  153.3167  135.4163  155.1342 H   0  0  0  0  0  0  0  0  0  0  0  0  # atno 10765 bound_to 10752
  140.8037  133.8194  155.9495 H   0  0  0  0  0  0  0  0  0  0  0  0  # atno 11005 bound_to 11000
  144.9547  140.8214  143.5550 LP  0  0  0  0  0  0  0  0  0  0  0  0  # atno 17320 bound_to 7965
  145.2289  139.2124  143.5053 LP  0  0  0  0  0  0  0  0  0  0  0  0  # atno 17321 bound_to 7965
  140.4406  144.1991  150.5891 LP  0  0  0  0  0  0  0  0  0  0  0  0  # atno 17342 bound_to 10162
  140.4686  143.2421  151.9120 LP  0  0  0  0  0  0  0  0  0  0  0  0  # atno 17343 bound_to 10162
  156.5079  130.8158  151.3157 LP  0  0  0  0  0  0  0  0  0  0  0  0  # atno 17370 bound_to 10713
  157.7439  130.9923  150.2633 LP  0  0  0  0  0  0  0  0  0  0  0  0  # atno 17371 bound_to 10713
  140.9268  134.2072  157.4890 LP  0  0  0  0  0  0  0  0  0  0  0  0  # atno 17394 bound_to 11000
  139.8719  134.9816  156.5122 LP  0  0  0  0  0  0  0  0  0  0  0  0  # atno 17395 bound_to 11000

$$$$
