AV-unprocessed.smi:1686|AV-procd|sdf|6760|dock6
  -GOLD-   22720 7523D 1   1.00000     0.00000
 Structure written by MMmdl.
 41 43  0  0  0  0  0  0  0  0  1 V2000
  151.3186  137.6845  154.3427 C   0  0  0  0  0  0  0  0  0  0  0  0
  150.9595  136.7046  155.4227 C   0  0  0  0  0  0  0  0  0  0  0  0
  151.8842  136.3363  156.2994 N   0  0  0  0  0  0  0  0  0  0  0  0
  151.2627  135.4378  157.1740 O   0  0  0  0  0  0  0  0  0  0  0  0
  149.9789  135.3126  156.7670 C   0  0  0  0  0  0  0  0  0  0  0  0
  148.8489  134.3083  157.5848 Cl  0  0  0  0  0  0  0  0  0  0  0  0
  149.7033  136.0768  155.6695 C   0  0  0  0  0  0  0  0  0  0  0  0
  148.4047  136.2431  154.9181 C   0  0  0  0  0  0  0  0  0  0  0  0
  147.6541  134.9109  154.8923 C   0  0  0  0  0  0  0  0  0  0  0  0
  147.0306  134.5354  155.8842 O   0  0  0  0  0  0  0  0  0  0  0  0
  147.7053  134.2255  153.7393 N   0  0  0  0  0  0  0  0  0  0  0  0
  146.9387  133.0269  153.4134 C   0  0  2  0  0  0  0  0  0  0  0  0
  147.9190  131.8796  153.1201 C   0  0  0  0  0  0  0  0  0  0  0  0
  146.0024  133.3310  152.2185 C   0  0  1  0  0  0  0  0  0  0  0  0
  146.7184  133.3212  150.8463 C   0  0  0  0  0  0  0  0  0  0  0  0
  145.8721  132.3433  150.0122 C   0  0  2  0  0  0  0  0  0  0  0  0
  144.4961  132.9692  149.7193 C   0  0  0  0  0  0  0  0  0  0  0  0
  143.7944  132.8995  151.0882 C   0  0  0  0  0  0  0  0  0  0  0  0
  144.8782  132.2841  151.9929 C   0  0  1  0  0  0  0  0  0  0  0  0
  145.5276  131.2803  151.0466 C   0  0  0  0  0  0  0  0  0  0  0  0
  150.4696  138.3179  154.0861 H   0  0  0  0  0  0  0  0  0  0  0  0
  151.6328  137.1665  153.4364 H   0  0  0  0  0  0  0  0  0  0  0  0
  152.1334  138.3403  154.6515 H   0  0  0  0  0  0  0  0  0  0  0  0
  147.7664  136.9974  155.3791 H   0  0  0  0  0  0  0  0  0  0  0  0
  148.5804  136.5777  153.8950 H   0  0  0  0  0  0  0  0  0  0  0  0
  148.2569  134.6186  152.9908 H   0  0  0  0  0  0  0  0  0  0  0  0
  146.3245  132.7371  154.2676 H   0  0  0  0  0  0  0  0  0  0  0  0
  147.3952  130.9503  152.8968 H   0  0  0  0  0  0  0  0  0  0  0  0
  148.5643  131.6894  153.9784 H   0  0  0  0  0  0  0  0  0  0  0  0
  148.5591  132.1121  152.2685 H   0  0  0  0  0  0  0  0  0  0  0  0
  145.5505  134.3098  152.3883 H   0  0  0  0  0  0  0  0  0  0  0  0
  146.7698  134.3138  150.3976 H   0  0  0  0  0  0  0  0  0  0  0  0
  147.7384  132.9443  150.9299 H   0  0  0  0  0  0  0  0  0  0  0  0
  146.3829  131.9726  149.1230 H   0  0  0  0  0  0  0  0  0  0  0  0
  144.5783  133.9902  149.3450 H   0  0  0  0  0  0  0  0  0  0  0  0
  143.9504  132.3829  148.9790 H   0  0  0  0  0  0  0  0  0  0  0  0
  143.4599  133.8764  151.4394 H   0  0  0  0  0  0  0  0  0  0  0  0
  142.9206  132.2485  151.0369 H   0  0  0  0  0  0  0  0  0  0  0  0
  144.4653  131.8471  152.9019 H   0  0  0  0  0  0  0  0  0  0  0  0
  144.8340  130.5237  150.6756 H   0  0  0  0  0  0  0  0  0  0  0  0
  146.4028  130.7847  151.4699 H   0  0  0  0  0  0  0  0  0  0  0  0
  1  2  1  0  0  0  0
  1 21  1  0  0  0  0
  1 22  1  0  0  0  0
  1 23  1  0  0  0  0
  2  7  1  0  0  0  0
  2  3  2  0  0  0  0
  3  4  1  0  0  0  0
  4  5  1  0  0  0  0
  5  6  1  0  0  0  0
  5  7  2  0  0  0  0
  7  8  1  0  0  0  0
  8  9  1  0  0  0  0
  8 24  1  0  0  0  0
  8 25  1  0  0  0  0
  9 10  2  0  0  0  0
  9 11  1  0  0  0  0
 11 12  1  0  0  0  0
 11 26  1  0  0  0  0
 12 13  1  0  0  0  0
 12 14  1  0  0  0  0
 12 27  1  0  0  0  0
 13 28  1  0  0  0  0
 13 29  1  0  0  0  0
 13 30  1  0  0  0  0
 14 19  1  0  0  0  0
 14 15  1  0  0  0  0
 14 31  1  0  0  0  0
 15 16  1  0  0  0  0
 15 32  1  0  0  0  0
 15 33  1  0  0  0  0
 16 20  1  0  0  0  0
 16 17  1  0  0  0  0
 16 34  1  0  0  0  0
 17 18  1  0  0  0  0
 17 35  1  0  0  0  0
 17 36  1  0  0  0  0
 18 19  1  0  0  0  0
 18 37  1  0  0  0  0
 18 38  1  0  0  0  0
 19 20  1  0  0  0  0
 19 39  1  0  0  0  0
 20 40  1  0  0  0  0
 20 41  1  0  0  0  0
M  END
> <s_m_source_file>
AV-unprocessed.smi

> <i_m_source_file_index>
1686

> <i_lp_mmshare_version>
43012

> <i_f3d_flags>
0

> <s_epik_input>
W0NIM11jMW5vYyhDbCljMVtDSDJdQyg9TylbTkhdW0NASF0oW0NIM10pW0NASF0oW0NIMl1bQ0BIXTIzKVtDQEhdKFtDSDJdMylbQ0gyXVtDSDJdMg==

> <s_epik_cmdline>
J2VwaWtfcHl0aG9uJywgJy1waCcsICc3LjAnLCAnLXRuJywgJzgnLCAnLW1hJywgJzIwMCcsICctbWV0YWxfYmluZGluZycsICctaW1hZScsICc8aW5maWxlLm1hZT4nLCAnLW9tYWUnLCAnPG91dGZpbGUubWFlPic=

> <r_lp_tautomer_probability>
1

> <r_epik_Ionization_Penalty>
2.01576e-08

> <r_epik_Ionization_Penalty_Charging>
0

> <r_epik_Ionization_Penalty_Neutral>
2.01576e-08

> <r_epik_State_Penalty>
-0

> <r_epik_Charging_Adjusted_Penalty>
0

> <i_epik_Tot_Q>
0

> <i_epik_Tot_abs_Q>
0

> <r_epik_Metal_State_Penalty>
-0

> <b_epik_Metal_Only>
0

> <s_lp_Force_Field>
OPLS_2005

> <r_lp_Energy>
45.33

> <b_lp_Chiralities_Consistent>
1

> <s_lp_Variant>
AV-unprocessed.smi:1686-3

> <Gold.Version>
5.8.1

> <Gold.Id.Protein>
6NUR|6NUR_protein|mol2

> <Gold.PLP.Fitness>
35.8787

> <Gold.PLP.PLP>
-31.5746

> <Gold.PLP.part.hbond>
-2.8358

> <Gold.PLP.part.metal>
0.0000

> <Gold.PLP.part.buried>
-2.9842

> <Gold.PLP.part.nonpolar>
-25.8620

> <Gold.PLP.part.repulsive>
0.0140

> <Gold.PLP.ligand.clash>
0.0000

> <Gold.PLP.ligand.torsion>
0.8441

> <Gold.PLP.Chemscore.Hbond>
1.9913

> <Gold.PLP.Chemscore.CHOScore>
0.0000

> <Gold.PLP.Chemscore.Metal>
0.0000

> <Gold.Chemscore.Hbonds>
donor molecule, donor type, donor heavy atom, donor atom, acceptor molecule, acceptor atom, score
      L1  H    11    26       P1  7948  0.94
      P1  H 10752 10765       L1     3  1.00

> <Gold.PLP.Chemscore.Internal.Correction>
0.0186

> <Gold.Rescore>
     Score         DG    S(hbond)    S(metal)    S(lipo)     H(rot)  DE(clash)    DE(int)     intcor
     13.10     -16.48       1.18        0.00      92.29       1.46       0.19       3.19       ----

> <Gold.Chemscore.Fitness>
13.1008

> <Gold.Chemscore.DG>
-16.4781

> <Gold.Chemscore.ZeroCoef>
-5.4800

> <Gold.Chemscore.Hbond>
1.1827

> <Gold.Chemscore.Metal>
0.0000

> <Gold.Chemscore.Lipo>
92.2883

> <Gold.Chemscore.Internal_Hbond>
0.0000

> <Gold.Chemscore.DEClash>
0.1885

> <Gold.Chemscore.DEInternal>
3.1888

> <Gold.Chemscore.Rot>
1.4648

> <Gold.Chemscore.Internal.Correction>
   9.000000E+99

> <Gold.Chemscore.Hbonds>
donor molecule, donor type, donor heavy atom, donor atom, acceptor molecule, acceptor atom, score
      L1  H    11    26       P1  7948  0.53
      P1  H 10752 10765       L1     3  0.36

> <Gold.Chemscore.Hbond.Weighted>
-3.9503

> <Gold.Chemscore.Metal.Weighted>
-0.0000

> <Gold.Chemscore.Lipo.Weighted>
-10.7977

> <Gold.Chemscore.Internal_Hbond.Weighted>
0.0000

> <Gold.Chemscore.DEClash.Weighted>
0.1885

> <Gold.Chemscore.DEInternal.Weighted>
3.1888

> <Gold.Chemscore.Rot.Weighted>
3.7500

> <Gold.Chemscore.Internal.Correction.Weighted>
   9.000000E+99

> <Gold.Protein.RotatedTorsions>
[ 6907 6896 6895 6894 ] final  147.73 input  -60.11 | X-H torsion
[ 7974 7965 7964 7962 ] final  151.72 input  175.53 | X-H torsion
[ 8008 7997 7996 7995 ] final -179.25 input   59.86 | X-H torsion
[ 10167 10162 10161 10158 ] final  113.85 input  -65.29 | X-H torsion
[ 10718 10713 10712 10709 ] final  -22.75 input   66.30 | X-H torsion
[ 10763 10752 10751 10750 ] final -139.39 input  -60.55 | X-H torsion
[ 11005 11000 10999 10996 ] final   14.80 input  -57.11 | X-H torsion

> <Gold.Protein.ActiveResidues>
 VAL166  LYS551  ARG553  GLY616  TRP617  ASP618  TYR619  PRO620  LYS621  CYS622 
 ASP623  PHE694  ASN695  SER759  ASP760  ASP761  ALA762  ILE779  LEU786  VAL792 
 PHE793  MET794  SER795  GLU796  ALA797  LYS798  CYS799  TRP800  GLU811  SER814 

> <Gold.Protein.RotatedAtoms>
  152.1509  133.4521  159.4812 H   0  0  0  0  0  0  0  0  0  0  0  0  # atno 6907 bound_to 6896
  150.6895  134.2191  159.4398 H   0  0  0  0  0  0  0  0  0  0  0  0  # atno 6908 bound_to 6896
  152.0087  134.9888  160.0618 H   0  0  0  0  0  0  0  0  0  0  0  0  # atno 6909 bound_to 6896
  144.8273  139.6574  143.6074 H   0  0  0  0  0  0  0  0  0  0  0  0  # atno 7974 bound_to 7965
  156.0284  140.1276  157.0284 H   0  0  0  0  0  0  0  0  0  0  0  0  # atno 8008 bound_to 7997
  154.4339  140.1054  156.6134 H   0  0  0  0  0  0  0  0  0  0  0  0  # atno 8009 bound_to 7997
  155.5843  140.3468  155.4551 H   0  0  0  0  0  0  0  0  0  0  0  0  # atno 8010 bound_to 7997
  139.6431  144.7125  151.2197 H   0  0  0  0  0  0  0  0  0  0  0  0  # atno 10167 bound_to 10162
  156.5003  130.4586  149.6704 H   0  0  0  0  0  0  0  0  0  0  0  0  # atno 10718 bound_to 10713
  154.8610  135.3584  154.5539 H   0  0  0  0  0  0  0  0  0  0  0  0  # atno 10763 bound_to 10752
  153.6156  135.7008  153.5335 H   0  0  0  0  0  0  0  0  0  0  0  0  # atno 10764 bound_to 10752
  153.3172  135.4161  155.1346 H   0  0  0  0  0  0  0  0  0  0  0  0  # atno 10765 bound_to 10752
  140.4654  134.1085  155.7723 H   0  0  0  0  0  0  0  0  0  0  0  0  # atno 11005 bound_to 11000
  146.2577  139.6340  142.9383 LP  0  0  0  0  0  0  0  0  0  0  0  0  # atno 17320 bound_to 7965
  145.4973  141.0438  143.2560 LP  0  0  0  0  0  0  0  0  0  0  0  0  # atno 17321 bound_to 7965
  140.7501  143.6278  150.8452 LP  0  0  0  0  0  0  0  0  0  0  0  0  # atno 17342 bound_to 10162
  139.9917  143.5839  152.2908 LP  0  0  0  0  0  0  0  0  0  0  0  0  # atno 17343 bound_to 10162
  156.3339  130.7346  151.2280 LP  0  0  0  0  0  0  0  0  0  0  0  0  # atno 17370 bound_to 10713
  157.7463  131.0422  150.4684 LP  0  0  0  0  0  0  0  0  0  0  0  0  # atno 17371 bound_to 10713
  141.1602  133.8807  157.1869 LP  0  0  0  0  0  0  0  0  0  0  0  0  # atno 17394 bound_to 11000
  139.9919  135.0061  156.9994 LP  0  0  0  0  0  0  0  0  0  0  0  0  # atno 17395 bound_to 11000

$$$$
