AV-unprocessed.smi:483|AV-procd|sdf|2685|dock7
  -GOLD-   2262023113D 1   1.00000     0.00000
 Structure written by MMmdl.
 44 44  0  0  0  0  0  0  0  0  1 V2000
  144.1070  132.3961  149.9007 C   0  0  0  0  0  0  0  0  0  0  0  0
  145.5425  131.9377  150.1774 C   0  0  0  0  0  0  0  0  0  0  0  0
  146.1605  132.6471  151.3933 C   0  0  0  0  0  0  0  0  0  0  0  0
  147.3266  131.9314  151.8976 N   0  0  0  0  0  0  0  0  0  0  0  0
  147.5856  131.6944  153.1926 C   0  0  0  0  0  0  0  0  0  0  0  0
  146.8428  132.0573  154.1065 O   0  0  0  0  0  0  0  0  0  0  0  0
  148.8727  130.9090  153.4938 C   0  0  2  0  0  0  0  0  0  0  0  0
  148.4685  129.5193  154.0137 C   0  0  0  0  0  0  0  0  0  0  0  0
  149.6492  131.5738  154.5395 N   0  0  0  0  0  0  0  0  0  0  0  0
  149.8535  132.8974  154.6300 C   0  0  0  0  0  0  0  0  0  0  0  0
  149.3989  133.7064  153.8199 O   0  0  0  0  0  0  0  0  0  0  0  0
  150.6782  133.3719  155.8350 C   0  0  0  0  0  0  0  0  0  0  0  0
  150.5455  134.8130  156.0951 N   0  0  0  0  0  0  0  0  0  0  0  0
  151.1610  135.6156  155.1539 N   0  0  0  0  0  0  0  0  0  0  0  0
  151.1466  136.9041  155.2550 C   0  0  0  0  0  0  0  0  0  0  0  0
  151.8603  137.6741  154.1765 C   0  0  0  0  0  0  0  0  0  0  0  0
  150.4579  137.5339  156.3776 C   0  0  0  0  0  0  0  0  0  0  0  0
  150.4697  139.0550  156.4450 C   0  0  0  0  0  0  0  0  0  0  0  0
  149.8583  136.7351  157.2955 C   0  0  0  0  0  0  0  0  0  0  0  0
  149.1695  137.2605  158.4301 C   0  0  0  0  0  0  0  0  0  0  0  0
  148.5992  137.6701  159.3507 N   0  0  0  0  0  0  0  0  0  0  0  0
  149.8765  135.2744  157.1909 C   0  0  0  0  0  0  0  0  0  0  0  0
  149.3443  134.5210  158.0078 O   0  0  0  0  0  0  0  0  0  0  0  0
  143.6949  131.8797  149.0335 H   0  0  0  0  0  0  0  0  0  0  0  0
  144.0668  133.4672  149.7008 H   0  0  0  0  0  0  0  0  0  0  0  0
  143.4575  132.1884  150.7515 H   0  0  0  0  0  0  0  0  0  0  0  0
  145.5460  130.8585  150.3356 H   0  0  0  0  0  0  0  0  0  0  0  0
  146.1552  132.1220  149.2940 H   0  0  0  0  0  0  0  0  0  0  0  0
  146.4765  133.6529  151.1152 H   0  0  0  0  0  0  0  0  0  0  0  0
  145.4199  132.7630  152.1867 H   0  0  0  0  0  0  0  0  0  0  0  0
  147.9887  131.5966  151.2126 H   0  0  0  0  0  0  0  0  0  0  0  0
  149.4739  130.8020  152.5885 H   0  0  0  0  0  0  0  0  0  0  0  0
  147.8923  128.9701  153.2679 H   0  0  0  0  0  0  0  0  0  0  0  0
  147.8648  129.5827  154.9206 H   0  0  0  0  0  0  0  0  0  0  0  0
  149.3494  128.9199  154.2463 H   0  0  0  0  0  0  0  0  0  0  0  0
  150.0467  130.9823  155.2547 H   0  0  0  0  0  0  0  0  0  0  0  0
  150.3578  132.7996  156.7075 H   0  0  0  0  0  0  0  0  0  0  0  0
  151.7290  133.1144  155.6880 H   0  0  0  0  0  0  0  0  0  0  0  0
  151.1517  138.2442  153.5756 H   0  0  0  0  0  0  0  0  0  0  0  0
  152.4098  137.0149  153.5026 H   0  0  0  0  0  0  0  0  0  0  0  0
  152.5783  138.3722  154.6076 H   0  0  0  0  0  0  0  0  0  0  0  0
  149.8074  139.4368  157.2212 H   0  0  0  0  0  0  0  0  0  0  0  0
  150.1412  139.4891  155.5000 H   0  0  0  0  0  0  0  0  0  0  0  0
  151.4758  139.4170  156.6593 H   0  0  0  0  0  0  0  0  0  0  0  0
  1  2  1  0  0  0  0
  1 24  1  0  0  0  0
  1 25  1  0  0  0  0
  1 26  1  0  0  0  0
  2  3  1  0  0  0  0
  2 27  1  0  0  0  0
  2 28  1  0  0  0  0
  3  4  1  0  0  0  0
  3 29  1  0  0  0  0
  3 30  1  0  0  0  0
  4  5  1  0  0  0  0
  4 31  1  0  0  0  0
  5  6  2  0  0  0  0
  5  7  1  0  0  0  0
  7  8  1  0  0  0  0
  7  9  1  0  0  0  0
  7 32  1  0  0  0  0
  8 33  1  0  0  0  0
  8 34  1  0  0  0  0
  8 35  1  0  0  0  0
  9 10  1  0  0  0  0
  9 36  1  0  0  0  0
 10 11  2  0  0  0  0
 10 12  1  0  0  0  0
 12 13  1  0  0  0  0
 12 37  1  0  0  0  0
 12 38  1  0  0  0  0
 13 22  1  0  0  0  0
 13 14  1  0  0  0  0
 14 15  2  0  0  0  0
 15 16  1  0  0  0  0
 15 17  1  0  0  0  0
 16 39  1  0  0  0  0
 16 40  1  0  0  0  0
 16 41  1  0  0  0  0
 17 18  1  0  0  0  0
 17 19  2  0  0  0  0
 18 42  1  0  0  0  0
 18 43  1  0  0  0  0
 18 44  1  0  0  0  0
 19 20  1  0  0  0  0
 19 22  1  0  0  0  0
 20 21  3  0  0  0  0
 22 23  2  0  0  0  0
M  END
> <s_m_source_file>
AV-unprocessed.smi

> <i_m_source_file_index>
483

> <i_lp_mmshare_version>
43012

> <i_f3d_flags>
0

> <s_epik_input>
W0NIM11bQ0gyXVtDSDJdW05IXUMoPU8pW0NASF0oW0NIM10pW05IXUMoPU8pW0NIMl1uMW5jKFtDSDNdKWMoW0NIM10pYyhDI04pYzE9Tw==

> <s_epik_cmdline>
J2VwaWtfcHl0aG9uJywgJy1waCcsICc3LjAnLCAnLXRuJywgJzgnLCAnLW1hJywgJzIwMCcsICctbWV0YWxfYmluZGluZycsICctaW1hZScsICc8aW5maWxlLm1hZT4nLCAnLW9tYWUnLCAnPG91dGZpbGUubWFlPic=

> <r_lp_tautomer_probability>
1

> <r_epik_Ionization_Penalty>
5.96698e-08

> <r_epik_Ionization_Penalty_Charging>
1.88177e-11

> <r_epik_Ionization_Penalty_Neutral>
5.9651e-08

> <r_epik_State_Penalty>
-0

> <r_epik_Charging_Adjusted_Penalty>
1.88177e-11

> <i_epik_Tot_Q>
0

> <i_epik_Tot_abs_Q>
0

> <r_epik_Metal_State_Penalty>
-0

> <b_epik_Metal_Only>
0

> <s_lp_Force_Field>
OPLS_2005

> <r_lp_Energy>
17.9954

> <b_lp_Chiralities_Consistent>
1

> <s_lp_Variant>
AV-unprocessed.smi:483-1

> <Gold.Version>
5.8.1

> <Gold.Id.Protein>
6NUR|6NUR_protein|mol2

> <Gold.PLP.Fitness>
41.4646

> <Gold.PLP.PLP>
-33.7495

> <Gold.PLP.part.hbond>
-4.8619

> <Gold.PLP.part.metal>
0.0000

> <Gold.PLP.part.buried>
-6.2191

> <Gold.PLP.part.nonpolar>
-23.7371

> <Gold.PLP.part.repulsive>
0.6894

> <Gold.PLP.ligand.clash>
0.0000

> <Gold.PLP.ligand.torsion>
0.9383

> <Gold.PLP.Chemscore.Hbond>
3.1747

> <Gold.PLP.Chemscore.CHOScore>
0.0000

> <Gold.PLP.Chemscore.Metal>
0.0000

> <Gold.Chemscore.Hbonds>
donor molecule, donor type, donor heavy atom, donor atom, acceptor molecule, acceptor atom, score
      L1  H     4    31       P1 10747  1.00
      P1  H  6896  6908       L1    23  1.00
      P1  H 10752 10765       L1    14  0.65

> <Gold.PLP.Chemscore.Internal.Correction>
0.0675

> <Gold.Rescore>
     Score         DG    S(hbond)    S(metal)    S(lipo)     H(rot)  DE(clash)    DE(int)     intcor
     13.14     -16.58       2.87        0.00      64.89       2.38       0.10       3.33       ----

> <Gold.Chemscore.Fitness>
13.1435

> <Gold.Chemscore.DG>
-16.5776

> <Gold.Chemscore.ZeroCoef>
-5.4800

> <Gold.Chemscore.Hbond>
2.8725

> <Gold.Chemscore.Metal>
0.0000

> <Gold.Chemscore.Lipo>
64.8942

> <Gold.Chemscore.Internal_Hbond>
0.0000

> <Gold.Chemscore.DEClash>
0.0997

> <Gold.Chemscore.DEInternal>
3.3344

> <Gold.Chemscore.Rot>
2.3785

> <Gold.Chemscore.Internal.Correction>
   9.000000E+99

> <Gold.Chemscore.Hbonds>
donor molecule, donor type, donor heavy atom, donor atom, acceptor molecule, acceptor atom, score
      L1  H     4    31       P1 10747  0.95
      P1  H  6896  6908       L1    23  0.60
      P1  H  6934  6947       L1    21  0.01
      P1  H 10752 10765       L1    14  0.06

> <Gold.Chemscore.Hbond.Weighted>
-9.5940

> <Gold.Chemscore.Metal.Weighted>
-0.0000

> <Gold.Chemscore.Lipo.Weighted>
-7.5926

> <Gold.Chemscore.Internal_Hbond.Weighted>
0.0000

> <Gold.Chemscore.DEClash.Weighted>
0.0997

> <Gold.Chemscore.DEInternal.Weighted>
3.3344

> <Gold.Chemscore.Rot.Weighted>
6.0890

> <Gold.Chemscore.Internal.Correction.Weighted>
   9.000000E+99

> <Gold.Protein.RotatedTorsions>
[ 6907 6896 6895 6894 ] final  145.36 input  -60.11 | X-H torsion
[ 7974 7965 7964 7962 ] final  -74.98 input  175.53 | X-H torsion
[ 8008 7997 7996 7995 ] final -168.21 input   59.86 | X-H torsion
[ 10167 10162 10161 10158 ] final  130.00 input  -65.29 | X-H torsion
[ 10718 10713 10712 10709 ] final  -91.04 input   66.30 | X-H torsion
[ 10763 10752 10751 10750 ] final  177.43 input  -60.55 | X-H torsion
[ 11005 11000 10999 10996 ] final  141.67 input  -57.11 | X-H torsion

> <Gold.Protein.ActiveResidues>
 VAL166  LYS551  ARG553  GLY616  TRP617  ASP618  TYR619  PRO620  LYS621  CYS622 
 ASP623  PHE694  ASN695  SER759  ASP760  ASP761  ALA762  ILE779  LEU786  VAL792 
 PHE793  MET794  SER795  GLU796  ALA797  LYS798  CYS799  TRP800  GLU811  SER814 

> <Gold.Protein.RotatedAtoms>
  152.1819  133.4713  159.4962 H   0  0  0  0  0  0  0  0  0  0  0  0  # atno 6907 bound_to 6896
  150.6936  134.1822  159.4262 H   0  0  0  0  0  0  0  0  0  0  0  0  # atno 6908 bound_to 6896
  151.9734  135.0065  160.0604 H   0  0  0  0  0  0  0  0  0  0  0  0  # atno 6909 bound_to 6896
  145.6321  140.9335  143.1081 H   0  0  0  0  0  0  0  0  0  0  0  0  # atno 7974 bound_to 7965
  155.8883  140.1020  157.1436 H   0  0  0  0  0  0  0  0  0  0  0  0  # atno 8008 bound_to 7997
  154.4012  140.1315  156.4347 H   0  0  0  0  0  0  0  0  0  0  0  0  # atno 8009 bound_to 7997
  155.7563  140.3464  155.5178 H   0  0  0  0  0  0  0  0  0  0  0  0  # atno 8010 bound_to 7997
  139.5451  144.6766  151.4500 H   0  0  0  0  0  0  0  0  0  0  0  0  # atno 10167 bound_to 10162
  155.9991  130.4933  150.5415 H   0  0  0  0  0  0  0  0  0  0  0  0  # atno 10718 bound_to 10713
  154.4944  135.2780  155.1471 H   0  0  0  0  0  0  0  0  0  0  0  0  # atno 10763 bound_to 10752
  154.3130  135.6225  153.5477 H   0  0  0  0  0  0  0  0  0  0  0  0  # atno 10764 bound_to 10752
  152.9893  135.5724  154.5372 H   0  0  0  0  0  0  0  0  0  0  0  0  # atno 10765 bound_to 10752
  140.0419  134.9300  157.0858 H   0  0  0  0  0  0  0  0  0  0  0  0  # atno 11005 bound_to 11000
  144.7190  139.8097  143.7389 LP  0  0  0  0  0  0  0  0  0  0  0  0  # atno 17320 bound_to 7965
  146.1348  139.4392  143.0146 LP  0  0  0  0  0  0  0  0  0  0  0  0  # atno 17321 bound_to 7965
  140.6696  143.8323  150.6983 LP  0  0  0  0  0  0  0  0  0  0  0  0  # atno 17342 bound_to 10162
  140.1743  143.4168  152.1978 LP  0  0  0  0  0  0  0  0  0  0  0  0  # atno 17343 bound_to 10162
  157.3350  131.0706  151.1832 LP  0  0  0  0  0  0  0  0  0  0  0  0  # atno 17370 bound_to 10713
  157.2699  130.6699  149.6014 LP  0  0  0  0  0  0  0  0  0  0  0  0  # atno 17371 bound_to 10713
  140.4056  134.2036  155.7163 LP  0  0  0  0  0  0  0  0  0  0  0  0  # atno 17394 bound_to 11000
  141.1887  133.8254  157.0984 LP  0  0  0  0  0  0  0  0  0  0  0  0  # atno 17395 bound_to 11000

$$$$
