AV-unprocessed.smi:488|AV-procd|sdf|2701|dock10
  -GOLD-   2262023133D 1   1.00000     0.00000
 Structure written by MMmdl.
 45 46  0  0  0  0  0  0  0  0  1 V2000
  145.6440  145.3356  152.0617 C   0  0  0  0  0  0  0  0  0  0  0  0
  145.7795  144.3527  153.1933 C   0  0  0  0  0  0  0  0  0  0  0  0
  146.3914  143.2451  152.9293 N   0  0  0  0  0  0  0  0  0  0  0  0
  146.5628  142.2696  153.8930 N   0  0  0  0  0  0  0  0  0  0  0  0
  147.2684  141.0728  153.4143 C   0  0  0  0  0  0  0  0  0  0  0  0
  148.3641  140.6317  154.3908 C   0  0  0  0  0  0  0  0  0  0  0  0
  148.5650  139.4288  154.5671 O   0  0  0  0  0  0  0  0  0  0  0  0
  149.0388  141.6306  154.9964 N   0  0  0  0  0  0  0  0  0  0  0  0
  150.0521  141.5220  155.8764 C   0  0  0  0  0  0  0  0  0  0  0  0
  150.7148  140.5040  156.0881 O   0  0  0  0  0  0  0  0  0  0  0  0
  150.2622  142.6841  156.5121 N   0  0  0  0  0  0  0  0  0  0  0  0
  151.2158  142.8915  157.5978 C   0  0  0  0  0  0  0  0  0  0  0  0
  150.8005  142.0489  158.8184 C   0  0  0  0  0  0  0  0  0  0  0  0
  151.7484  142.2778  160.0065 C   0  0  0  0  0  0  0  0  0  0  0  0
  151.8308  143.7677  160.3737 C   0  0  0  0  0  0  0  0  0  0  0  0
  152.2451  144.6159  159.1608 C   0  0  0  0  0  0  0  0  0  0  0  0
  151.3015  144.3865  157.9686 C   0  0  0  0  0  0  0  0  0  0  0  0
  146.1260  142.3671  155.1819 C   0  0  0  0  0  0  0  0  0  0  0  0
  146.2997  141.4726  156.0107 O   0  0  0  0  0  0  0  0  0  0  0  0
  145.4369  143.6259  155.4744 C   0  0  0  0  0  0  0  0  0  0  0  0
  144.9581  143.7671  156.8118 C   0  0  0  0  0  0  0  0  0  0  0  0
  144.5787  143.8622  157.9014 N   0  0  0  0  0  0  0  0  0  0  0  0
  145.2636  144.5911  154.5373 C   0  0  0  0  0  0  0  0  0  0  0  0
  144.5531  145.9134  154.7923 C   0  0  0  0  0  0  0  0  0  0  0  0
  146.2230  146.2371  152.2624 H   0  0  0  0  0  0  0  0  0  0  0  0
  144.6024  145.6255  151.9220 H   0  0  0  0  0  0  0  0  0  0  0  0
  145.9971  144.9196  151.1169 H   0  0  0  0  0  0  0  0  0  0  0  0
  146.5667  140.2480  153.2751 H   0  0  0  0  0  0  0  0  0  0  0  0
  147.7046  141.2478  152.4289 H   0  0  0  0  0  0  0  0  0  0  0  0
  148.7521  142.5684  154.7574 H   0  0  0  0  0  0  0  0  0  0  0  0
  149.7178  143.4860  156.2299 H   0  0  0  0  0  0  0  0  0  0  0  0
  152.2023  142.5518  157.2759 H   0  0  0  0  0  0  0  0  0  0  0  0
  149.7818  142.3030  159.1154 H   0  0  0  0  0  0  0  0  0  0  0  0
  150.7909  140.9901  158.5560 H   0  0  0  0  0  0  0  0  0  0  0  0
  151.4112  141.7003  160.8676 H   0  0  0  0  0  0  0  0  0  0  0  0
  152.7434  141.9075  159.7563 H   0  0  0  0  0  0  0  0  0  0  0  0
  150.8627  144.1069  160.7440 H   0  0  0  0  0  0  0  0  0  0  0  0
  152.5411  143.9116  161.1884 H   0  0  0  0  0  0  0  0  0  0  0  0
  152.2527  145.6721  159.4313 H   0  0  0  0  0  0  0  0  0  0  0  0
  153.2659  144.3640  158.8707 H   0  0  0  0  0  0  0  0  0  0  0  0
  151.6475  144.9681  157.1133 H   0  0  0  0  0  0  0  0  0  0  0  0
  150.3081  144.7636  158.2164 H   0  0  0  0  0  0  0  0  0  0  0  0
  144.3408  146.0684  155.8497 H   0  0  0  0  0  0  0  0  0  0  0  0
  143.6048  145.9432  154.2552 H   0  0  0  0  0  0  0  0  0  0  0  0
  145.1635  146.7539  154.4607 H   0  0  0  0  0  0  0  0  0  0  0  0
  1  2  1  0  0  0  0
  1 25  1  0  0  0  0
  1 26  1  0  0  0  0
  1 27  1  0  0  0  0
  2 23  1  0  0  0  0
  2  3  2  0  0  0  0
  3  4  1  0  0  0  0
  4  5  1  0  0  0  0
  4 18  1  0  0  0  0
  5  6  1  0  0  0  0
  5 28  1  0  0  0  0
  5 29  1  0  0  0  0
  6  7  2  0  0  0  0
  6  8  1  0  0  0  0
  8  9  1  0  0  0  0
  8 30  1  0  0  0  0
  9 10  2  0  0  0  0
  9 11  1  0  0  0  0
 11 12  1  0  0  0  0
 11 31  1  0  0  0  0
 12 17  1  0  0  0  0
 12 13  1  0  0  0  0
 12 32  1  0  0  0  0
 13 14  1  0  0  0  0
 13 33  1  0  0  0  0
 13 34  1  0  0  0  0
 14 15  1  0  0  0  0
 14 35  1  0  0  0  0
 14 36  1  0  0  0  0
 15 16  1  0  0  0  0
 15 37  1  0  0  0  0
 15 38  1  0  0  0  0
 16 17  1  0  0  0  0
 16 39  1  0  0  0  0
 16 40  1  0  0  0  0
 17 41  1  0  0  0  0
 17 42  1  0  0  0  0
 18 19  2  0  0  0  0
 18 20  1  0  0  0  0
 20 21  1  0  0  0  0
 20 23  2  0  0  0  0
 21 22  3  0  0  0  0
 23 24  1  0  0  0  0
 24 43  1  0  0  0  0
 24 44  1  0  0  0  0
 24 45  1  0  0  0  0
M  END
> <s_m_source_file>
AV-unprocessed.smi

> <i_m_source_file_index>
488

> <i_lp_mmshare_version>
43012

> <i_f3d_flags>
0

> <s_epik_input>
TiNDYyhjMVtDSDNdKWMoPU8pbihuYzFbQ0gzXSlbQ0gyXUMoPU8pW05IXUMoPU8pW05IXVtDSF0yW0NIMl1bQ0gyXVtDSDJdW0NIMl1bQ0gyXTI=

> <s_epik_cmdline>
J2VwaWtfcHl0aG9uJywgJy1waCcsICc3LjAnLCAnLXRuJywgJzgnLCAnLW1hJywgJzIwMCcsICctbWV0YWxfYmluZGluZycsICctaW1hZScsICc8aW5maWxlLm1hZT4nLCAnLW9tYWUnLCAnPG91dGZpbGUubWFlPic=

> <r_lp_tautomer_probability>
1

> <r_epik_Ionization_Penalty>
3.27035e-05

> <r_epik_Ionization_Penalty_Charging>
1.69167e-11

> <r_epik_Ionization_Penalty_Neutral>
3.27035e-05

> <r_epik_State_Penalty>
-0

> <r_epik_Charging_Adjusted_Penalty>
1.69167e-11

> <i_epik_Tot_Q>
0

> <i_epik_Tot_abs_Q>
0

> <r_epik_Metal_State_Penalty>
-0

> <b_epik_Metal_Only>
0

> <s_lp_Force_Field>
OPLS_2005

> <r_lp_Energy>
25.832

> <b_lp_Chiralities_Consistent>
1

> <s_lp_Variant>
AV-unprocessed.smi:488-1

> <Gold.Version>
5.8.1

> <Gold.Id.Protein>
6NUR|6NUR_protein|mol2

> <Gold.PLP.Fitness>
54.0969

> <Gold.PLP.PLP>
-48.8410

> <Gold.PLP.part.hbond>
-2.9415

> <Gold.PLP.part.metal>
0.0000

> <Gold.PLP.part.buried>
-7.6500

> <Gold.PLP.part.nonpolar>
-38.0907

> <Gold.PLP.part.repulsive>
1.2171

> <Gold.PLP.ligand.clash>
0.0000

> <Gold.PLP.ligand.torsion>
0.5722

> <Gold.PLP.Chemscore.Hbond>
2.1294

> <Gold.PLP.Chemscore.CHOScore>
0.0000

> <Gold.PLP.Chemscore.Metal>
0.0000

> <Gold.Chemscore.Hbonds>
donor molecule, donor type, donor heavy atom, donor atom, acceptor molecule, acceptor atom, score
      L1  H     8    30       P1  8028  0.22
      L1  H    11    31       P1  8028  1.00

> <Gold.PLP.Chemscore.Internal.Correction>
0.0120

> <Gold.Rescore>
     Score         DG    S(hbond)    S(metal)    S(lipo)     H(rot)  DE(clash)    DE(int)     intcor
     15.88     -19.34       2.08        0.00      93.74       1.59       0.20       3.26       ----

> <Gold.Chemscore.Fitness>
15.8767

> <Gold.Chemscore.DG>
-19.3395

> <Gold.Chemscore.ZeroCoef>
-5.4800

> <Gold.Chemscore.Hbond>
2.0817

> <Gold.Chemscore.Metal>
0.0000

> <Gold.Chemscore.Lipo>
93.7384

> <Gold.Chemscore.Internal_Hbond>
0.0000

> <Gold.Chemscore.DEClash>
0.2025

> <Gold.Chemscore.DEInternal>
3.2603

> <Gold.Chemscore.Rot>
1.5862

> <Gold.Chemscore.Internal.Correction>
   9.000000E+99

> <Gold.Chemscore.Hbonds>
donor molecule, donor type, donor heavy atom, donor atom, acceptor molecule, acceptor atom, score
      L1  H     8    30       P1  8028  0.23
      L1  H    11    31       P1  8028  0.98

> <Gold.Chemscore.Hbond.Weighted>
-6.9528

> <Gold.Chemscore.Metal.Weighted>
-0.0000

> <Gold.Chemscore.Lipo.Weighted>
-10.9674

> <Gold.Chemscore.Internal_Hbond.Weighted>
0.0000

> <Gold.Chemscore.DEClash.Weighted>
0.2025

> <Gold.Chemscore.DEInternal.Weighted>
3.2603

> <Gold.Chemscore.Rot.Weighted>
4.0607

> <Gold.Chemscore.Internal.Correction.Weighted>
   9.000000E+99

> <Gold.Protein.RotatedTorsions>
[ 6907 6896 6895 6894 ] final   71.49 input  -60.11 | X-H torsion
[ 7974 7965 7964 7962 ] final  143.99 input  175.53 | X-H torsion
[ 8008 7997 7996 7995 ] final  137.71 input   59.86 | X-H torsion
[ 10167 10162 10161 10158 ] final    1.21 input  -65.29 | X-H torsion
[ 10718 10713 10712 10709 ] final  -87.18 input   66.30 | X-H torsion
[ 10763 10752 10751 10750 ] final   -6.71 input  -60.55 | X-H torsion
[ 11005 11000 10999 10996 ] final  160.25 input  -57.11 | X-H torsion

> <Gold.Protein.ActiveResidues>
 VAL166  LYS551  ARG553  GLY616  TRP617  ASP618  TYR619  PRO620  LYS621  CYS622 
 ASP623  PHE694  ASN695  SER759  ASP760  ASP761  ALA762  ILE779  LEU786  VAL792 
 PHE793  MET794  SER795  GLU796  ALA797  LYS798  CYS799  TRP800  GLU811  SER814 

> <Gold.Protein.RotatedAtoms>
  152.4813  134.4713  159.9636 H   0  0  0  0  0  0  0  0  0  0  0  0  # atno 6907 bound_to 6896
  151.4718  133.3561  159.2832 H   0  0  0  0  0  0  0  0  0  0  0  0  # atno 6908 bound_to 6896
  150.8887  134.8314  159.7338 H   0  0  0  0  0  0  0  0  0  0  0  0  # atno 6909 bound_to 6896
  144.8873  139.5609  143.5815 H   0  0  0  0  0  0  0  0  0  0  0  0  # atno 7974 bound_to 7965
  156.3001  140.2412  156.3954 H   0  0  0  0  0  0  0  0  0  0  0  0  # atno 8008 bound_to 7997
  154.8575  140.0421  157.1664 H   0  0  0  0  0  0  0  0  0  0  0  0  # atno 8009 bound_to 7997
  154.8932  140.2966  155.5363 H   0  0  0  0  0  0  0  0  0  0  0  0  # atno 8010 bound_to 7997
  140.6693  143.7092  150.7891 H   0  0  0  0  0  0  0  0  0  0  0  0  # atno 10167 bound_to 10162
  155.9986  130.4791  150.4827 H   0  0  0  0  0  0  0  0  0  0  0  0  # atno 10718 bound_to 10713
  153.4161  135.7009  153.6325 H   0  0  0  0  0  0  0  0  0  0  0  0  # atno 10763 bound_to 10752
  153.4799  135.3696  155.2437 H   0  0  0  0  0  0  0  0  0  0  0  0  # atno 10764 bound_to 10752
  154.8719  135.4063  154.3522 H   0  0  0  0  0  0  0  0  0  0  0  0  # atno 10765 bound_to 10752
  140.2041  134.8316  157.3050 H   0  0  0  0  0  0  0  0  0  0  0  0  # atno 11005 bound_to 11000
  146.3032  139.7495  142.9075 LP  0  0  0  0  0  0  0  0  0  0  0  0  # atno 17320 bound_to 7965
  145.3845  141.0363  143.3158 LP  0  0  0  0  0  0  0  0  0  0  0  0  # atno 17321 bound_to 7965
  140.0775  143.5001  152.2548 LP  0  0  0  0  0  0  0  0  0  0  0  0  # atno 17342 bound_to 10162
  139.5955  144.7565  151.3297 LP  0  0  0  0  0  0  0  0  0  0  0  0  # atno 17343 bound_to 10162
  157.2831  131.0611  151.2184 LP  0  0  0  0  0  0  0  0  0  0  0  0  # atno 17370 bound_to 10713
  157.3224  130.6943  149.6276 LP  0  0  0  0  0  0  0  0  0  0  0  0  # atno 17371 bound_to 10713
  140.2022  134.4241  155.7657 LP  0  0  0  0  0  0  0  0  0  0  0  0  # atno 17394 bound_to 11000
  141.2227  133.7077  156.8202 LP  0  0  0  0  0  0  0  0  0  0  0  0  # atno 17395 bound_to 11000

$$$$
