#       Name:                AV-unprocessed.smi:1225
#       Creating user name   scv26
#       Creation time:       Fri Mar 27 04:19:54 2020


#       File generated by GOLD software.
#

@<TRIPOS>MOLECULE
AV-unprocessed.smi:1225
    53    55     1
SMALL
NO_CHARGES


@<TRIPOS>ATOM
      1 ****        -5.7971   5.3795  -0.2232 C.3            1 S1                 0.0000
      2 ****        -4.7781   4.3115  -0.0176 C.2            1 S1                 0.0000
      3 ****        -3.5328   4.5497   0.4004 N.2            1 S1                 0.0000
      4 ****        -2.7772   3.3808   0.5157 C.2            1 S1                 0.0000
      5 ****        -3.4643   2.2402   0.1798 C.2            1 S1                 0.0000
      6 ****        -2.9550   0.8349   0.1908 C.3            1 S1                 0.0000
      7 ****        -2.5105   0.3885   1.5148 N.3            1 S1                 0.0000
      8 ****        -3.6579   0.2280   2.4041 C.3            1 S1                 0.0000
      9 ****        -1.7345  -0.8551   1.4465 C.3            1 S1                 0.0000
     10 ****        -0.2040  -0.6926   1.2934 C.3            1 S1                 0.0000
     11 ****         0.3230  -0.1644   2.4951 O.3            1 S1                 0.0000
     12 ****         0.2784   0.1342   0.0849 C.3            1 S1                 0.0000
     13 ****         1.7251   0.1516  -0.0321 N.pl3          1 S1                 0.0000
     14 ****         2.5577   1.1502   0.3203 C.2            1 S1                 0.0000
     15 ****         3.8586   0.9557   0.1235 N.2            1 S1                 0.0000
     16 ****         3.8706  -0.3153  -0.4253 C.ar           1 S1                 0.0000
     17 ****         4.9487  -1.1135  -0.8662 C.ar           1 S1                 0.0000
     18 ****         4.7246  -2.4009  -1.4044 C.ar           1 S1                 0.0000
     19 ****         5.9132  -3.2229  -1.8709 C.3            1 S1                 0.0000
     20 ****         3.4044  -2.9090  -1.5057 C.ar           1 S1                 0.0000
     21 ****         3.1396  -4.2886  -2.0818 C.3            1 S1                 0.0000
     22 ****         2.3162  -2.1254  -1.0679 C.ar           1 S1                 0.0000
     23 ****         2.5520  -0.8455  -0.5365 C.ar           1 S1                 0.0000
     24 ****        -5.1018   2.6052  -0.2982 S.3            1 S1                 0.0000
     25 ****        -5.3187   6.3562  -0.3022 H              1 S1                 0.0000
     26 ****        -6.4921   5.3963   0.6164 H              1 S1                 0.0000
     27 ****        -6.3571   5.1909  -1.1393 H              1 S1                 0.0000
     28 ****        -1.7518   3.4501   0.8478 H              1 S1                 0.0000
     29 ****        -3.7254   0.1599  -0.1848 H              1 S1                 0.0000
     30 ****        -2.1448   0.7695  -0.5307 H              1 S1                 0.0000
     31 ****        -3.3337  -0.0610   3.4044 H              1 S1                 0.0000
     32 ****        -4.3403  -0.5381   2.0337 H              1 S1                 0.0000
     33 ****        -4.2147   1.1600   2.5044 H              1 S1                 0.0000
     34 ****        -1.8959  -1.4379   2.3551 H              1 S1                 0.0000
     35 ****        -2.1196  -1.4823   0.6410 H              1 S1                 0.0000
     36 ****         0.2118  -1.6964   1.1989 H              1 S1                 0.0000
     37 ****         1.2658  -0.1581   2.4311 H              1 S1                 0.0000
     38 ****        -0.1295  -0.2740  -0.8403 H              1 S1                 0.0000
     39 ****        -0.0664   1.1662   0.1630 H              1 S1                 0.0000
     40 ****         2.1877   2.0706   0.7482 H              1 S1                 0.0000
     41 ****         5.9540  -0.7259  -0.7887 H              1 S1                 0.0000
     42 ****         5.8333  -3.4375  -2.9369 H              1 S1                 0.0000
     43 ****         5.9620  -4.1679  -1.3295 H              1 S1                 0.0000
     44 ****         6.8525  -2.6942  -1.7058 H              1 S1                 0.0000
     45 ****         2.0736  -4.5183  -2.0910 H              1 S1                 0.0000
     46 ****         3.6415  -5.0531  -1.4885 H              1 S1                 0.0000
     47 ****         3.5039  -4.3502  -3.1074 H              1 S1                 0.0000
     48 ****         1.3055  -2.4995  -1.1384 H              1 S1                 0.0000
     49 ****        -3.1806   5.4624   0.6076 LP             1 S1                 0.0000
     50 ****        -1.9052   1.0942   1.8830 LP             1 S1                 0.0000
     51 ****         0.0409  -0.7346   3.2667 LP             1 S1                 0.0000
     52 ****        -0.0124   0.7680   2.6296 LP             1 S1                 0.0000
     53 ****         4.6257   1.5663   0.3201 LP             1 S1                 0.0000
@<TRIPOS>BOND
    1    1    2 1     
    2    1   25 1     
    3    1   26 1     
    4    1   27 1     
    5    2   24 1     
    6    2    3 2     
    7    3    4 1     
    8    4    5 2     
    9    4   28 1     
   10    5    6 1     
   11    5   24 1     
   12    6    7 1     
   13    6   29 1     
   14    6   30 1     
   15    7    8 1     
   16    7    9 1     
   17    8   31 1     
   18    8   32 1     
   19    8   33 1     
   20    9   10 1     
   21    9   34 1     
   22    9   35 1     
   23   10   11 1     
   24   10   12 1     
   25   10   36 1     
   26   11   37 1     
   27   12   13 1     
   28   12   38 1     
   29   12   39 1     
   30   13   23 1     
   31   13   14 1     
   32   14   15 2     
   33   14   40 1     
   34   15   16 1     
   35   16   23 ar    
   36   16   17 ar    
   37   17   18 ar    
   38   17   41 1     
   39   18   19 1     
   40   18   20 ar    
   41   19   42 1     
   42   19   43 1     
   43   19   44 1     
   44   20   21 1     
   45   20   22 ar    
   46   21   45 1     
   47   21   46 1     
   48   21   47 1     
   49   22   23 ar    
   50   22   48 1     
   51    3   49 1     
   52    7   50 1     
   53   11   51 1     
   54   11   52 1     
   55   15   53 1     
@<TRIPOS>SUBSTRUCTURE
      1 S1             1
@<TRIPOS>SET
LONE_PAIRS      STATIC     ATOMS    <user>   **** ""
5 49 50 51 52 53
DONOR_HYDROGENS      STATIC     ATOMS    <user>   **** ""
1 37
ATOM$BLUE        STATIC     ATOMS    COLORGROUP SYSTEM
5 49 50 51 52 53
ATOM$RED        STATIC     ATOMS    COLORGROUP SYSTEM
1 37
