AV-unprocessed.smi:3052|AV-procd|sdf|11636|dock3
  -GOLD-   2272017 23D 1   1.00000     0.00000
 Structure written by MMmdl.
 41 43  0  0  0  0  0  0  0  0  1 V2000
  153.9099  137.4741  154.2256 C   0  0  0  0  0  0  0  0  0  0  0  0
  152.7452  138.3742  154.5319 C   0  0  0  0  0  0  0  0  0  0  0  0
  152.9734  139.6456  154.8261 N   0  0  0  0  0  0  0  0  0  0  0  0
  151.7188  140.2511  154.9960 O   0  0  0  0  0  0  0  0  0  0  0  0
  150.7488  139.3188  154.8062 C   0  0  0  0  0  0  0  0  0  0  0  0
  149.3354  139.7865  154.9284 C   0  0  0  0  0  0  0  0  0  0  0  0
  148.8075  140.8959  154.0538 C   0  0  0  0  0  0  0  0  0  0  0  0
  148.9845  141.1225  155.5394 C   0  0  0  0  0  0  0  0  0  0  0  0
  151.3423  138.1213  154.5316 C   0  0  0  0  0  0  0  0  0  0  0  0
  150.6467  136.9232  154.2347 N   0  0  0  0  0  0  0  0  0  0  0  0
  150.6700  135.7855  154.9445 C   0  0  0  0  0  0  0  0  0  0  0  0
  151.3376  135.6109  155.9630 O   0  0  0  0  0  0  0  0  0  0  0  0
  149.8485  134.8676  154.4089 N   0  0  0  0  0  0  0  0  0  0  0  0
  149.5756  133.5017  154.8728 C   0  0  2  0  0  0  0  0  0  0  0  0
  148.4847  133.6721  155.9584 C   0  0  0  0  0  0  0  0  0  0  0  0
  150.8616  132.9363  155.5349 C   0  0  0  0  0  0  0  0  0  0  0  0
  150.6991  131.5987  155.9635 O   0  0  0  0  0  0  0  0  0  0  0  0
  149.1344  132.5773  153.7242 C   0  0  0  0  0  0  0  0  0  0  0  0
  147.7230  132.5206  153.1884 C   0  0  0  0  0  0  0  0  0  0  0  0
  148.3104  131.3231  153.9102 C   0  0  0  0  0  0  0  0  0  0  0  0
  153.6410  136.7161  153.4900 H   0  0  0  0  0  0  0  0  0  0  0  0
  154.2558  136.9632  155.1241 H   0  0  0  0  0  0  0  0  0  0  0  0
  154.7523  138.0349  153.8194 H   0  0  0  0  0  0  0  0  0  0  0  0
  148.6662  138.9538  155.1355 H   0  0  0  0  0  0  0  0  0  0  0  0
  149.5092  141.3904  153.3849 H   0  0  0  0  0  0  0  0  0  0  0  0
  147.7920  140.7977  153.6759 H   0  0  0  0  0  0  0  0  0  0  0  0
  148.0859  141.1743  156.1504 H   0  0  0  0  0  0  0  0  0  0  0  0
  149.7942  141.7820  155.8445 H   0  0  0  0  0  0  0  0  0  0  0  0
  149.9710  136.9769  153.4869 H   0  0  0  0  0  0  0  0  0  0  0  0
  149.3516  135.1428  153.5745 H   0  0  0  0  0  0  0  0  0  0  0  0
  148.1946  132.7272  156.4166 H   0  0  0  0  0  0  0  0  0  0  0  0
  147.5820  134.1374  155.5628 H   0  0  0  0  0  0  0  0  0  0  0  0
  148.8383  134.3125  156.7677 H   0  0  0  0  0  0  0  0  0  0  0  0
  151.7064  132.9642  154.8463 H   0  0  0  0  0  0  0  0  0  0  0  0
  151.1430  133.5364  156.4013 H   0  0  0  0  0  0  0  0  0  0  0  0
  149.8863  131.5327  156.4410 H   0  0  0  0  0  0  0  0  0  0  0  0
  149.9056  132.4737  152.9636 H   0  0  0  0  0  0  0  0  0  0  0  0
  146.9433  133.0798  153.6995 H   0  0  0  0  0  0  0  0  0  0  0  0
  147.6047  132.4474  152.1093 H   0  0  0  0  0  0  0  0  0  0  0  0
  148.5791  130.4583  153.3070 H   0  0  0  0  0  0  0  0  0  0  0  0
  147.9115  131.0891  154.8937 H   0  0  0  0  0  0  0  0  0  0  0  0
  1  2  1  0  0  0  0
  1 21  1  0  0  0  0
  1 22  1  0  0  0  0
  1 23  1  0  0  0  0
  2  9  1  0  0  0  0
  2  3  2  0  0  0  0
  3  4  1  0  0  0  0
  4  5  1  0  0  0  0
  5  6  1  0  0  0  0
  5  9  2  0  0  0  0
  6  8  1  0  0  0  0
  6  7  1  0  0  0  0
  6 24  1  0  0  0  0
  7  8  1  0  0  0  0
  7 25  1  0  0  0  0
  7 26  1  0  0  0  0
  8 27  1  0  0  0  0
  8 28  1  0  0  0  0
  9 10  1  0  0  0  0
 10 11  1  0  0  0  0
 10 29  1  0  0  0  0
 11 12  2  0  0  0  0
 11 13  1  0  0  0  0
 13 14  1  0  0  0  0
 13 30  1  0  0  0  0
 14 15  1  0  0  0  0
 14 16  1  0  0  0  0
 14 18  1  0  0  0  0
 15 31  1  0  0  0  0
 15 32  1  0  0  0  0
 15 33  1  0  0  0  0
 16 17  1  0  0  0  0
 16 34  1  0  0  0  0
 16 35  1  0  0  0  0
 17 36  1  0  0  0  0
 18 20  1  0  0  0  0
 18 19  1  0  0  0  0
 18 37  1  0  0  0  0
 19 20  1  0  0  0  0
 19 38  1  0  0  0  0
 19 39  1  0  0  0  0
 20 40  1  0  0  0  0
 20 41  1  0  0  0  0
M  END
> <s_m_source_file>
AV-unprocessed.smi

> <i_m_source_file_index>
3052

> <i_lp_mmshare_version>
43012

> <i_f3d_flags>
0

> <s_epik_input>
W0NIM11jMW5vYyhbQ0hdMltDSDJdW0NIMl0yKWMxW05IXUMoPU8pW05IXVtDQEBdKFtDSDNdKShbQ0gyXVtPSF0pW0NIXTNbQ0gyXVtDSDJdMw==

> <s_epik_cmdline>
J2VwaWtfcHl0aG9uJywgJy1waCcsICc3LjAnLCAnLXRuJywgJzgnLCAnLW1hJywgJzIwMCcsICctbWV0YWxfYmluZGluZycsICctaW1hZScsICc8aW5maWxlLm1hZT4nLCAnLW9tYWUnLCAnPG91dGZpbGUubWFlPic=

> <r_lp_tautomer_probability>
1

> <r_epik_Ionization_Penalty>
3.5887e-05

> <r_epik_Ionization_Penalty_Charging>
0

> <r_epik_Ionization_Penalty_Neutral>
3.5887e-05

> <r_epik_State_Penalty>
-0

> <r_epik_Charging_Adjusted_Penalty>
0

> <i_epik_Tot_Q>
0

> <i_epik_Tot_abs_Q>
0

> <r_epik_Metal_State_Penalty>
-0

> <b_epik_Metal_Only>
0

> <s_lp_Force_Field>
OPLS_2005

> <r_lp_Energy>
28.1978

> <b_lp_Chiralities_Consistent>
1

> <s_lp_Variant>
AV-unprocessed.smi:3052-2

> <Gold.Version>
5.8.1

> <Gold.Id.Protein>
6NUR|6NUR_protein|mol2

> <Gold.PLP.Fitness>
42.9737

> <Gold.PLP.PLP>
-31.7709

> <Gold.PLP.part.hbond>
-6.9422

> <Gold.PLP.part.metal>
0.0000

> <Gold.PLP.part.buried>
2.6440

> <Gold.PLP.part.nonpolar>
-27.9487

> <Gold.PLP.part.repulsive>
0.2322

> <Gold.PLP.ligand.clash>
0.0000

> <Gold.PLP.ligand.torsion>
2.0517

> <Gold.PLP.Chemscore.Hbond>
4.4227

> <Gold.PLP.Chemscore.CHOScore>
0.0000

> <Gold.PLP.Chemscore.Metal>
0.0000

> <Gold.Chemscore.Hbonds>
donor molecule, donor type, donor heavy atom, donor atom, acceptor molecule, acceptor atom, score
      L1  H    10    29       P1  7948  1.00
      L1  H    13    30       P1  7948  0.85
      P1  H  7989  7998       L1     4  0.58
      P1  H  7997  8009       L1     3  1.00
      P1  H 10752 10763       L1    12  0.94

> <Gold.PLP.Chemscore.Internal.Correction>
2.0383

> <Gold.Rescore>
     Score         DG    S(hbond)    S(metal)    S(lipo)     H(rot)  DE(clash)    DE(int)     intcor
     12.22     -17.42       2.36        0.00      81.99       2.16       1.87       3.33       ----

> <Gold.Chemscore.Fitness>
12.2232

> <Gold.Chemscore.DG>
-17.4240

> <Gold.Chemscore.ZeroCoef>
-5.4800

> <Gold.Chemscore.Hbond>
2.3573

> <Gold.Chemscore.Metal>
0.0000

> <Gold.Chemscore.Lipo>
81.9856

> <Gold.Chemscore.Internal_Hbond>
0.0000

> <Gold.Chemscore.DEClash>
1.8679

> <Gold.Chemscore.DEInternal>
3.3328

> <Gold.Chemscore.Rot>
2.1569

> <Gold.Chemscore.Internal.Correction>
   9.000000E+99

> <Gold.Chemscore.Hbonds>
donor molecule, donor type, donor heavy atom, donor atom, acceptor molecule, acceptor atom, score
      L1  H    10    29       P1  7948  0.27
      L1  H    13    30       P1  7948  0.14
      P1  H  7989  7998       L1     4  0.01
      P1  H  7997  8009       L1     3  0.95
      P1  H 10752 10763       L1    12  0.22

> <Gold.Chemscore.Hbond.Weighted>
-7.8734

> <Gold.Chemscore.Metal.Weighted>
-0.0000

> <Gold.Chemscore.Lipo.Weighted>
-9.5923

> <Gold.Chemscore.Internal_Hbond.Weighted>
0.0000

> <Gold.Chemscore.DEClash.Weighted>
1.8679

> <Gold.Chemscore.DEInternal.Weighted>
3.3328

> <Gold.Chemscore.Rot.Weighted>
5.5218

> <Gold.Chemscore.Internal.Correction.Weighted>
   9.000000E+99

> <Gold.Protein.RotatedTorsions>
[ 6907 6896 6895 6894 ] final  153.25 input  -60.11 | X-H torsion
[ 7974 7965 7964 7962 ] final   88.40 input  175.53 | X-H torsion
[ 8008 7997 7996 7995 ] final -142.30 input   59.86 | X-H torsion
[ 10167 10162 10161 10158 ] final   49.14 input  -65.29 | X-H torsion
[ 10718 10713 10712 10709 ] final  -17.03 input   66.30 | X-H torsion
[ 10763 10752 10751 10750 ] final   96.88 input  -60.55 | X-H torsion
[ 11005 11000 10999 10996 ] final  -58.19 input  -57.11 | X-H torsion

> <Gold.Protein.ActiveResidues>
 VAL166  LYS551  ARG553  GLY616  TRP617  ASP618  TYR619  PRO620  LYS621  CYS622 
 ASP623  PHE694  ASN695  SER759  ASP760  ASP761  ALA762  ILE779  LEU786  VAL792 
 PHE793  MET794  SER795  GLU796  ALA797  LYS798  CYS799  TRP800  GLU811  SER814 

> <Gold.Protein.RotatedAtoms>
  152.0754  133.4126  159.4477 H   0  0  0  0  0  0  0  0  0  0  0  0  # atno 6907 bound_to 6896
  150.6863  134.3044  159.4729 H   0  0  0  0  0  0  0  0  0  0  0  0  # atno 6908 bound_to 6896
  152.0880  134.9426  160.0623 H   0  0  0  0  0  0  0  0  0  0  0  0  # atno 6909 bound_to 6896
  145.5462  139.2292  143.2538 H   0  0  0  0  0  0  0  0  0  0  0  0  # atno 7974 bound_to 7965
  155.4920  140.0568  157.2952 H   0  0  0  0  0  0  0  0  0  0  0  0  # atno 8008 bound_to 7997
  154.4620  140.2000  156.0171 H   0  0  0  0  0  0  0  0  0  0  0  0  # atno 8009 bound_to 7997
  156.0906  140.3234  155.7815 H   0  0  0  0  0  0  0  0  0  0  0  0  # atno 8010 bound_to 7997
  140.2859  144.3102  150.6252 H   0  0  0  0  0  0  0  0  0  0  0  0  # atno 10167 bound_to 10162
  156.5792  130.4770  149.6328 H   0  0  0  0  0  0  0  0  0  0  0  0  # atno 10718 bound_to 10713
  153.2702  135.4203  155.0980 H   0  0  0  0  0  0  0  0  0  0  0  0  # atno 10763 bound_to 10752
  154.8453  135.3470  154.6254 H   0  0  0  0  0  0  0  0  0  0  0  0  # atno 10764 bound_to 10752
  153.6674  135.7045  153.5215 H   0  0  0  0  0  0  0  0  0  0  0  0  # atno 10765 bound_to 10752
  141.1197  133.6612  156.4883 H   0  0  0  0  0  0  0  0  0  0  0  0  # atno 11005 bound_to 11000
  146.1948  140.6283  142.9129 LP  0  0  0  0  0  0  0  0  0  0  0  0  # atno 17320 bound_to 7965
  144.7552  140.5290  143.6774 LP  0  0  0  0  0  0  0  0  0  0  0  0  # atno 17321 bound_to 7965
  140.5772  143.2175  151.7493 LP  0  0  0  0  0  0  0  0  0  0  0  0  # atno 17342 bound_to 10162
  139.4950  144.4132  152.0058 LP  0  0  0  0  0  0  0  0  0  0  0  0  # atno 17343 bound_to 10162
  156.2646  130.6982  151.1761 LP  0  0  0  0  0  0  0  0  0  0  0  0  # atno 17370 bound_to 10713
  157.7330  131.0594  150.5598 LP  0  0  0  0  0  0  0  0  0  0  0  0  # atno 17371 bound_to 10713
  140.4544  134.6899  157.5055 LP  0  0  0  0  0  0  0  0  0  0  0  0  # atno 17394 bound_to 11000
  140.0144  134.6641  155.9331 LP  0  0  0  0  0  0  0  0  0  0  0  0  # atno 17395 bound_to 11000

$$$$
