#       Name:                AV-unprocessed.smi:17
#       Creating user name   scv26
#       Creation time:       Thu Mar 26 15:25:13 2020


#       File generated by GOLD software.
#

@<TRIPOS>MOLECULE
AV-unprocessed.smi:17
    64    66     1
SMALL
NO_CHARGES


@<TRIPOS>ATOM
      1 ****        -2.8963  -3.3621  -0.9776 C.3            1 S1                 0.0000
      2 ****        -2.9603  -2.4140  -2.1836 C.3            1 S1                 0.0000
      3 ****        -2.5166  -1.0566  -1.8526 N.pl3          1 S1                 0.0000
      4 ****        -1.2000  -0.8552  -1.5724 C.ar           1 S1                 0.0000
      5 ****        -0.2788  -1.5079  -2.3296 N.ar           1 S1                 0.0000
      6 ****         1.0272  -1.3418  -2.1068 C.ar           1 S1                 0.0000
      7 ****         1.6254  -0.5881  -1.1842 N.ar           1 S1                 0.0000
      8 ****         0.7114   0.0572  -0.4059 C.ar           1 S1                 0.0000
      9 ****        -0.7067  -0.0177  -0.5271 C.ar           1 S1                 0.0000
     10 ****        -1.2985   0.7630   0.4610 N.2            1 S1                 0.0000
     11 ****        -0.2940   1.2788   1.1138 C.2            1 S1                 0.0000
     12 ****         0.9495   0.9013   0.6647 N.pl3          1 S1                 0.0000
     13 ****         2.2286   1.3159   1.2147 C.3            1 S1                 0.0000
     14 ****         2.5616   0.6292   2.5624 C.3            1 S1                 0.0000
     15 ****         2.4773  -0.9149   2.4827 C.3            1 S1                 0.0000
     16 ****         3.4428  -1.4396   1.5946 O.3            1 S1                 0.0000
     17 ****         3.9192   1.1128   3.1326 C.3            1 S1                 0.0000
     18 ****         4.0106   2.6071   3.3871 C.3            1 S1                 0.0000
     19 ****         5.2016   2.6941   4.3334 C.3            1 S1                 0.0000
     20 ****         5.1377   1.5164   5.1285 O.3            1 S1                 0.0000
     21 ****         4.2608   0.5694   4.5251 C.3            1 S1                 0.0000
     22 ****        -3.4756   0.0450  -1.7111 C.3            1 S1                 0.0000
     23 ****        -4.4667  -0.2200  -0.5654 C.3            1 S1                 0.0000
     24 ****        -4.2087   0.3716  -3.0304 C.3            1 S1                 0.0000
     25 ****        -3.0994   1.0982  -4.3233 S.o2           1 S1                 0.0000
     26 ****        -2.4830  -0.3909  -5.2126 C.3            1 S1                 0.0000
     27 ****        -3.9373   1.8579  -5.2632 O.2            1 S1                 0.0000
     28 ****        -1.9542   1.7521  -3.6716 O.2            1 S1                 0.0000
     29 ****        -3.2573  -4.3542  -1.2488 H              1 S1                 0.0000
     30 ****        -3.5115  -2.9998  -0.1541 H              1 S1                 0.0000
     31 ****        -1.8759  -3.4721  -0.6098 H              1 S1                 0.0000
     32 ****        -2.3701  -2.8170  -3.0068 H              1 S1                 0.0000
     33 ****        -3.9866  -2.3833  -2.5470 H              1 S1                 0.0000
     34 ****         1.6873  -1.8917  -2.7612 H              1 S1                 0.0000
     35 ****        -0.4327   1.9457   1.9522 H              1 S1                 0.0000
     36 ****         3.0097   1.1115   0.4816 H              1 S1                 0.0000
     37 ****         2.1963   2.3990   1.3332 H              1 S1                 0.0000
     38 ****         1.7905   0.9390   3.2695 H              1 S1                 0.0000
     39 ****         2.6285  -1.3628   3.4645 H              1 S1                 0.0000
     40 ****         1.4889  -1.2388   2.1567 H              1 S1                 0.0000
     41 ****         3.3344  -2.3775   1.5512 H              1 S1                 0.0000
     42 ****         4.7226   0.8364   2.4474 H              1 S1                 0.0000
     43 ****         4.1591   3.1924   2.4791 H              1 S1                 0.0000
     44 ****         3.1091   2.9675   3.8847 H              1 S1                 0.0000
     45 ****         6.1356   2.6834   3.7699 H              1 S1                 0.0000
     46 ****         5.1857   3.5950   4.9472 H              1 S1                 0.0000
     47 ****         3.3654   0.4950   5.1439 H              1 S1                 0.0000
     48 ****         4.7223  -0.4174   4.4823 H              1 S1                 0.0000
     49 ****        -2.9393   0.9548  -1.4487 H              1 S1                 0.0000
     50 ****        -5.1122   0.6428  -0.4001 H              1 S1                 0.0000
     51 ****        -3.9435  -0.4201   0.3699 H              1 S1                 0.0000
     52 ****        -5.1084  -1.0754  -0.7779 H              1 S1                 0.0000
     53 ****        -4.7296  -0.4876  -3.4513 H              1 S1                 0.0000
     54 ****        -4.9705   1.1252  -2.8299 H              1 S1                 0.0000
     55 ****        -1.8864  -0.0757  -6.0683 H              1 S1                 0.0000
     56 ****        -3.3266  -0.9855  -5.5620 H              1 S1                 0.0000
     57 ****        -1.8613  -0.9918  -4.5528 H              1 S1                 0.0000
     58 ****        -0.5824  -2.1186  -3.0609 LP             1 S1                 0.0000
     59 ****         2.6163  -0.5067  -1.0770 LP             1 S1                 0.0000
     60 ****        -2.2744   0.8982   0.6322 LP             1 S1                 0.0000
     61 ****         4.3603  -1.2215   1.9273 LP             1 S1                 0.0000
     62 ****         3.3149  -1.0432   0.6855 LP             1 S1                 0.0000
     63 ****         4.7973   1.7497   6.0395 LP             1 S1                 0.0000
     64 ****         6.0520   1.1189   5.2060 LP             1 S1                 0.0000
@<TRIPOS>BOND
    1    1    2 1     
    2    1   29 1     
    3    1   30 1     
    4    1   31 1     
    5    2    3 1     
    6    2   32 1     
    7    2   33 1     
    8    3    4 1     
    9    3   22 1     
   10    4    9 ar    
   11    4    5 ar    
   12    5    6 ar    
   13    6    7 ar    
   14    6   34 1     
   15    7    8 ar    
   16    8   12 1     
   17    8    9 ar    
   18    9   10 1     
   19   10   11 2     
   20   11   12 1     
   21   11   35 1     
   22   12   13 1     
   23   13   14 1     
   24   13   36 1     
   25   13   37 1     
   26   14   15 1     
   27   14   17 1     
   28   14   38 1     
   29   15   16 1     
   30   15   39 1     
   31   15   40 1     
   32   16   41 1     
   33   17   21 1     
   34   17   18 1     
   35   17   42 1     
   36   18   19 1     
   37   18   43 1     
   38   18   44 1     
   39   19   20 1     
   40   19   45 1     
   41   19   46 1     
   42   20   21 1     
   43   21   47 1     
   44   21   48 1     
   45   22   23 1     
   46   22   24 1     
   47   22   49 1     
   48   23   50 1     
   49   23   51 1     
   50   23   52 1     
   51   24   25 1     
   52   24   53 1     
   53   24   54 1     
   54   25   26 1     
   55   25   27 2     
   56   25   28 2     
   57   26   55 1     
   58   26   56 1     
   59   26   57 1     
   60    5   58 1     
   61    7   59 1     
   62   10   60 1     
   63   16   61 1     
   64   16   62 1     
   65   20   63 1     
   66   20   64 1     
@<TRIPOS>SUBSTRUCTURE
      1 S1             1
@<TRIPOS>SET
LONE_PAIRS      STATIC     ATOMS    <user>   **** ""
9 58 59 60 61 62 63 64 27 28
DONOR_HYDROGENS      STATIC     ATOMS    <user>   **** ""
1 41
ATOM$BLUE        STATIC     ATOMS    COLORGROUP SYSTEM
9 58 59 60 61 62 63 64 27 28
ATOM$RED        STATIC     ATOMS    COLORGROUP SYSTEM
1 41
