AV-unprocessed.smi:115|AV-procd|sdf|1124|dock9
  -GOLD-   2262018253D 1   1.00000     0.00000
 Structure written by MMmdl.
 55 57  0  0  0  0  0  0  0  0  1 V2000
  144.7010  137.2651  151.7911 C   0  0  0  0  0  0  0  0  0  0  0  0
  145.3840  138.4643  152.1128 O   0  0  0  0  0  0  0  0  0  0  0  0
  145.6571  138.5812  153.5002 C   0  0  0  0  0  0  0  0  0  0  0  0
  146.8403  139.5502  153.7015 C   0  0  1  0  0  0  0  0  0  0  0  0
  146.5054  141.0169  153.3799 C   0  0  0  0  0  0  0  0  0  0  0  0
  147.4979  139.4105  155.0114 N   0  0  0  0  0  0  0  0  0  0  0  0
  146.8525  139.6168  156.2300 C   0  0  0  0  0  0  0  0  0  0  0  0
  145.4102  139.9983  156.3482 C   0  0  0  0  0  0  0  0  0  0  0  0
  147.7607  139.4184  157.2255 C   0  0  0  0  0  0  0  0  0  0  0  0
  149.0036  139.0595  156.6402 C   0  0  0  0  0  0  0  0  0  0  0  0
  150.2888  138.7830  157.3327 C   0  0  0  0  0  0  0  0  0  0  0  0
  151.2582  138.2634  156.7778 O   0  0  0  0  0  0  0  0  0  0  0  0
  150.3551  139.2035  158.8130 C   0  0  0  0  0  0  0  0  0  0  0  0
  151.2185  140.3566  159.0398 N   0  0  0  0  0  0  0  0  0  0  0  0
  152.4494  140.1361  159.7061 C   0  0  0  0  0  0  0  0  0  0  0  0
  152.8043  139.0147  160.0738 O   0  0  0  0  0  0  0  0  0  0  0  0
  153.2474  141.3384  159.9132 C   0  0  0  0  0  0  0  0  0  0  0  0
  154.4055  141.2587  160.5906 F   0  0  0  0  0  0  0  0  0  0  0  0
  152.8348  142.5379  159.4503 C   0  0  0  0  0  0  0  0  0  0  0  0
  151.6610  142.7152  158.7354 N   0  0  0  0  0  0  0  0  0  0  0  0
  151.1920  144.0923  158.3116 C   0  0  2  0  0  0  0  0  0  0  0  0
  152.2476  145.1982  158.4891 C   0  0  0  0  0  0  0  0  0  0  0  0
  151.7340  145.9459  159.7045 C   0  0  0  0  0  0  0  0  0  0  0  0
  150.2283  145.7534  159.5719 C   0  0  0  0  0  0  0  0  0  0  0  0
  150.0868  144.4199  159.0998 O   0  0  0  0  0  0  0  0  0  0  0  0
  150.7878  141.6172  158.5580 C   0  0  0  0  0  0  0  0  0  0  0  0
  149.7007  141.7551  157.9923 O   0  0  0  0  0  0  0  0  0  0  0  0
  148.8206  139.0211  155.2755 C   0  0  0  0  0  0  0  0  0  0  0  0
  149.7896  138.6521  154.1861 C   0  0  0  0  0  0  0  0  0  0  0  0
  144.5108  137.2286  150.7185 H   0  0  0  0  0  0  0  0  0  0  0  0
  143.7410  137.2066  152.3056 H   0  0  0  0  0  0  0  0  0  0  0  0
  145.2951  136.3897  152.0572 H   0  0  0  0  0  0  0  0  0  0  0  0
  144.7592  138.9243  154.0121 H   0  0  0  0  0  0  0  0  0  0  0  0
  145.9111  137.5972  153.8985 H   0  0  0  0  0  0  0  0  0  0  0  0
  147.5637  139.2414  152.9490 H   0  0  0  0  0  0  0  0  0  0  0  0
  146.1241  141.1130  152.3629 H   0  0  0  0  0  0  0  0  0  0  0  0
  147.3954  141.6423  153.4536 H   0  0  0  0  0  0  0  0  0  0  0  0
  145.7552  141.4346  154.0481 H   0  0  0  0  0  0  0  0  0  0  0  0
  145.0968  140.0105  157.3923 H   0  0  0  0  0  0  0  0  0  0  0  0
  144.7717  139.2886  155.8214 H   0  0  0  0  0  0  0  0  0  0  0  0
  145.2335  140.9934  155.9390 H   0  0  0  0  0  0  0  0  0  0  0  0
  147.5484  139.5285  158.2789 H   0  0  0  0  0  0  0  0  0  0  0  0
  149.3615  139.4383  159.1972 H   0  0  0  0  0  0  0  0  0  0  0  0
  150.7183  138.3845  159.4360 H   0  0  0  0  0  0  0  0  0  0  0  0
  153.4636  143.3875  159.6632 H   0  0  0  0  0  0  0  0  0  0  0  0
  150.9081  144.0107  157.2616 H   0  0  0  0  0  0  0  0  0  0  0  0
  153.2651  144.8175  158.5782 H   0  0  0  0  0  0  0  0  0  0  0  0
  152.2083  145.8470  157.6131 H   0  0  0  0  0  0  0  0  0  0  0  0
  152.0911  145.4827  160.6243 H   0  0  0  0  0  0  0  0  0  0  0  0
  152.0292  146.9954  159.7156 H   0  0  0  0  0  0  0  0  0  0  0  0
  149.6984  145.9051  160.5124 H   0  0  0  0  0  0  0  0  0  0  0  0
  149.8165  146.4410  158.8316 H   0  0  0  0  0  0  0  0  0  0  0  0
  150.5229  137.9248  154.5307 H   0  0  0  0  0  0  0  0  0  0  0  0
  150.3288  139.5311  153.8327 H   0  0  0  0  0  0  0  0  0  0  0  0
  149.3025  138.1831  153.3363 H   0  0  0  0  0  0  0  0  0  0  0  0
  1  2  1  0  0  0  0
  1 30  1  0  0  0  0
  1 31  1  0  0  0  0
  1 32  1  0  0  0  0
  2  3  1  0  0  0  0
  3  4  1  0  0  0  0
  3 33  1  0  0  0  0
  3 34  1  0  0  0  0
  4  5  1  0  0  0  0
  4  6  1  0  0  0  0
  4 35  1  0  0  0  0
  5 36  1  0  0  0  0
  5 37  1  0  0  0  0
  5 38  1  0  0  0  0
  6 28  1  0  0  0  0
  6  7  1  0  0  0  0
  7  8  1  0  0  0  0
  7  9  2  0  0  0  0
  8 39  1  0  0  0  0
  8 40  1  0  0  0  0
  8 41  1  0  0  0  0
  9 10  1  0  0  0  0
  9 42  1  0  0  0  0
 10 11  1  0  0  0  0
 10 28  2  0  0  0  0
 11 12  2  0  0  0  0
 11 13  1  0  0  0  0
 13 14  1  0  0  0  0
 13 43  1  0  0  0  0
 13 44  1  0  0  0  0
 14 26  1  0  0  0  0
 14 15  1  0  0  0  0
 15 16  2  0  0  0  0
 15 17  1  0  0  0  0
 17 18  1  0  0  0  0
 17 19  2  0  0  0  0
 19 20  1  0  0  0  0
 19 45  1  0  0  0  0
 20 21  1  0  0  0  0
 20 26  1  0  0  0  0
 21 25  1  0  0  0  0
 21 22  1  0  0  0  0
 21 46  1  0  0  0  0
 22 23  1  0  0  0  0
 22 47  1  0  0  0  0
 22 48  1  0  0  0  0
 23 24  1  0  0  0  0
 23 49  1  0  0  0  0
 23 50  1  0  0  0  0
 24 25  1  0  0  0  0
 24 51  1  0  0  0  0
 24 52  1  0  0  0  0
 26 27  2  0  0  0  0
 28 29  1  0  0  0  0
 29 53  1  0  0  0  0
 29 54  1  0  0  0  0
 29 55  1  0  0  0  0
M  END
> <s_m_source_file>
AV-unprocessed.smi

> <i_m_source_file_index>
115

> <i_lp_mmshare_version>
43012

> <i_f3d_flags>
0

> <s_epik_input>
W0NIM11PW0NIMl1bQ0BIXShbQ0gzXSluMWMoW0NIM10pW2NIXWMoYzFbQ0gzXSlDKD1PKVtDSDJdbjJjKD1PKWMoRilbY0hdbihjMj1PKVtDQEBIXTNbQ0gyXVtDSDJdW0NIMl1PMw==

> <s_epik_cmdline>
J2VwaWtfcHl0aG9uJywgJy1waCcsICc3LjAnLCAnLXRuJywgJzgnLCAnLW1hJywgJzIwMCcsICctbWV0YWxfYmluZGluZycsICctaW1hZScsICc8aW5maWxlLm1hZT4nLCAnLW9tYWUnLCAnPG91dGZpbGUubWFlPic=

> <r_lp_tautomer_probability>
1

> <r_epik_Ionization_Penalty>
5.02611e-09

> <r_epik_Ionization_Penalty_Charging>
5.01743e-09

> <r_epik_Ionization_Penalty_Neutral>
8.68114e-12

> <r_epik_State_Penalty>
-0

> <r_epik_Charging_Adjusted_Penalty>
5.01743e-09

> <i_epik_Tot_Q>
0

> <i_epik_Tot_abs_Q>
0

> <r_epik_Metal_State_Penalty>
-0

> <b_epik_Metal_Only>
0

> <s_epik_Chemistry_Notes>
This compound contains an acetal/aminal-like group ( X-CH(R)-Y where X, Y are N, S, or O) that may be acid/base labile, releasing an aldehyde.

> <s_lp_Force_Field>
OPLS_2005

> <r_lp_Energy>
46.8154

> <b_lp_Chiralities_Consistent>
1

> <s_lp_Variant>
AV-unprocessed.smi:115-2

> <Gold.Version>
5.8.1

> <Gold.Id.Protein>
6NUR|6NUR_protein|mol2

> <Gold.PLP.Fitness>
45.8227

> <Gold.PLP.PLP>
-46.9922

> <Gold.PLP.part.hbond>
0.0000

> <Gold.PLP.part.metal>
0.0000

> <Gold.PLP.part.buried>
-6.4354

> <Gold.PLP.part.nonpolar>
-41.8140

> <Gold.PLP.part.repulsive>
0.4776

> <Gold.PLP.ligand.clash>
0.0000

> <Gold.PLP.ligand.torsion>
0.7260

> <Gold.PLP.Chemscore.Hbond>
0.0000

> <Gold.PLP.Chemscore.CHOScore>
0.0000

> <Gold.PLP.Chemscore.Metal>
0.0000

> <Gold.PLP.Chemscore.Internal.Correction>
0.2825

> <Gold.Rescore>
     Score         DG    S(hbond)    S(metal)    S(lipo)     H(rot)  DE(clash)    DE(int)     intcor
      9.15     -12.44       0.00        0.00     107.50       2.19       1.72       1.57       ----

> <Gold.Chemscore.Fitness>
9.1485

> <Gold.Chemscore.DG>
-12.4409

> <Gold.Chemscore.ZeroCoef>
-5.4800

> <Gold.Chemscore.Hbond>
0.0000

> <Gold.Chemscore.Metal>
0.0000

> <Gold.Chemscore.Lipo>
107.4952

> <Gold.Chemscore.Internal_Hbond>
0.0000

> <Gold.Chemscore.DEClash>
1.7229

> <Gold.Chemscore.DEInternal>
1.5696

> <Gold.Chemscore.Rot>
2.1938

> <Gold.Chemscore.Internal.Correction>
   9.000000E+99

> <Gold.Chemscore.Hbond.Weighted>
-0.0000

> <Gold.Chemscore.Metal.Weighted>
-0.0000

> <Gold.Chemscore.Lipo.Weighted>
-12.5769

> <Gold.Chemscore.Internal_Hbond.Weighted>
0.0000

> <Gold.Chemscore.DEClash.Weighted>
1.7229

> <Gold.Chemscore.DEInternal.Weighted>
1.5696

> <Gold.Chemscore.Rot.Weighted>
5.6160

> <Gold.Chemscore.Internal.Correction.Weighted>
   9.000000E+99

> <Gold.Protein.RotatedTorsions>
[ 6907 6896 6895 6894 ] final  143.73 input  -60.11 | X-H torsion
[ 7974 7965 7964 7962 ] final -178.50 input  175.53 | X-H torsion
[ 8008 7997 7996 7995 ] final  124.92 input   59.86 | X-H torsion
[ 10167 10162 10161 10158 ] final   46.33 input  -65.29 | X-H torsion
[ 10718 10713 10712 10709 ] final -115.52 input   66.30 | X-H torsion
[ 10763 10752 10751 10750 ] final  169.40 input  -60.55 | X-H torsion
[ 11005 11000 10999 10996 ] final   15.75 input  -57.11 | X-H torsion

> <Gold.Protein.ActiveResidues>
 VAL166  LYS551  ARG553  GLY616  TRP617  ASP618  TYR619  PRO620  LYS621  CYS622 
 ASP623  PHE694  ASN695  SER759  ASP760  ASP761  ALA762  ILE779  LEU786  VAL792 
 PHE793  MET794  SER795  GLU796  ALA797  LYS798  CYS799  TRP800  GLU811  SER814 

> <Gold.Protein.RotatedAtoms>
  152.2026  133.4852  159.5066 H   0  0  0  0  0  0  0  0  0  0  0  0  # atno 6907 bound_to 6896
  150.6973  134.1570  159.4171 H   0  0  0  0  0  0  0  0  0  0  0  0  # atno 6908 bound_to 6896
  151.9488  135.0179  160.0591 H   0  0  0  0  0  0  0  0  0  0  0  0  # atno 6909 bound_to 6896
  144.7131  140.0860  143.6423 H   0  0  0  0  0  0  0  0  0  0  0  0  # atno 7974 bound_to 7965
  156.2817  140.2728  156.1866 H   0  0  0  0  0  0  0  0  0  0  0  0  # atno 8008 bound_to 7997
  155.0501  140.0386  157.2558 H   0  0  0  0  0  0  0  0  0  0  0  0  # atno 8009 bound_to 7997
  154.7202  140.2686  155.6554 H   0  0  0  0  0  0  0  0  0  0  0  0  # atno 8010 bound_to 7997
  140.3150  144.2775  150.6193 H   0  0  0  0  0  0  0  0  0  0  0  0  # atno 10167 bound_to 10162
  156.0901  130.6085  150.8917 H   0  0  0  0  0  0  0  0  0  0  0  0  # atno 10718 bound_to 10713
  154.3826  135.2753  155.2202 H   0  0  0  0  0  0  0  0  0  0  0  0  # atno 10763 bound_to 10752
  154.4302  135.5979  153.6067 H   0  0  0  0  0  0  0  0  0  0  0  0  # atno 10764 bound_to 10752
  152.9834  135.5994  154.4071 H   0  0  0  0  0  0  0  0  0  0  0  0  # atno 10765 bound_to 10752
  140.4548  134.1187  155.7707 H   0  0  0  0  0  0  0  0  0  0  0  0  # atno 11005 bound_to 11000
  145.9661  139.2836  143.1126 LP  0  0  0  0  0  0  0  0  0  0  0  0  # atno 17320 bound_to 7965
  145.9167  140.9143  143.0426 LP  0  0  0  0  0  0  0  0  0  0  0  0  # atno 17321 bound_to 7965
  140.5534  143.2203  151.7888 LP  0  0  0  0  0  0  0  0  0  0  0  0  # atno 17342 bound_to 10162
  139.4886  144.4445  151.9726 LP  0  0  0  0  0  0  0  0  0  0  0  0  # atno 17343 bound_to 10162
  157.6048  131.0939  150.8898 LP  0  0  0  0  0  0  0  0  0  0  0  0  # atno 17370 bound_to 10713
  156.9048  130.5259  149.5281 LP  0  0  0  0  0  0  0  0  0  0  0  0  # atno 17371 bound_to 10713
  141.1648  133.8724  157.1746 LP  0  0  0  0  0  0  0  0  0  0  0  0  # atno 17394 bound_to 11000
  139.9983  135.0038  157.0133 LP  0  0  0  0  0  0  0  0  0  0  0  0  # atno 17395 bound_to 11000

$$$$
