AV-unprocessed.smi:946|AV-procd|sdf|4236|dock9
  -GOLD-   22720 2143D 1   1.00000     0.00000
 Structure written by MMmdl.
 42 43  0  0  0  0  0  0  0  0  1 V2000
  151.4144  138.9247  155.0888 C   0  0  0  0  0  0  0  0  0  0  0  0
  152.0046  138.6100  156.4709 C   0  0  2  0  0  0  0  0  0  0  0  0
  152.4124  139.8461  157.0494 O   0  0  0  0  0  0  0  0  0  0  0  0
  151.3771  140.8028  157.2414 C   0  0  0  0  0  0  0  0  0  0  0  0
  151.9993  142.0872  157.8046 C   0  0  1  0  0  0  0  0  0  0  0  0
  151.2040  143.3428  157.3970 C   0  0  0  0  0  0  0  0  0  0  0  0
  151.8047  144.5943  158.0481 C   0  0  0  0  0  0  0  0  0  0  0  0
  151.9144  144.3878  159.5623 C   0  0  0  0  0  0  0  0  0  0  0  0
  152.6557  143.0770  159.8704 C   0  0  0  0  0  0  0  0  0  0  0  0
  152.0021  141.9875  159.2273 O   0  0  0  0  0  0  0  0  0  0  0  0
  153.2033  137.6549  156.3571 C   0  0  0  0  0  0  0  0  0  0  0  0
  153.1817  136.5779  156.9537 O   0  0  0  0  0  0  0  0  0  0  0  0
  154.2158  138.0774  155.5765 N   0  0  0  0  0  0  0  0  0  0  0  0
  155.4430  137.4210  155.2956 C   0  0  0  0  0  0  0  0  0  0  0  0
  156.3139  138.1215  154.4323 C   0  0  0  0  0  0  0  0  0  0  0  0
  157.5585  137.5556  154.0967 C   0  0  0  0  0  0  0  0  0  0  0  0
  157.9014  136.3016  154.6322 C   0  0  0  0  0  0  0  0  0  0  0  0
  156.9765  135.6632  155.4856 C   0  0  0  0  0  0  0  0  0  0  0  0
  157.2677  134.3038  156.1057 C   0  0  0  0  0  0  0  0  0  0  0  0
  157.4230  133.3603  155.1760 F   0  0  0  0  0  0  0  0  0  0  0  0
  158.3849  134.3699  156.8299 F   0  0  0  0  0  0  0  0  0  0  0  0
  156.2594  133.9484  156.9023 F   0  0  0  0  0  0  0  0  0  0  0  0
  155.7824  136.2115  155.8052 N   0  0  0  0  0  0  0  0  0  0  0  0
  151.0791  138.0172  154.5852 H   0  0  0  0  0  0  0  0  0  0  0  0
  152.1425  139.4178  154.4433 H   0  0  0  0  0  0  0  0  0  0  0  0
  150.5539  139.5881  155.1786 H   0  0  0  0  0  0  0  0  0  0  0  0
  151.2222  138.1605  157.0854 H   0  0  0  0  0  0  0  0  0  0  0  0
  150.9088  141.0105  156.2783 H   0  0  0  0  0  0  0  0  0  0  0  0
  150.5987  140.4361  157.9117 H   0  0  0  0  0  0  0  0  0  0  0  0
  153.0241  142.1749  157.4388 H   0  0  0  0  0  0  0  0  0  0  0  0
  151.2003  143.4542  156.3122 H   0  0  0  0  0  0  0  0  0  0  0  0
  150.1628  143.2353  157.7043 H   0  0  0  0  0  0  0  0  0  0  0  0
  152.7942  144.7861  157.6311 H   0  0  0  0  0  0  0  0  0  0  0  0
  151.1951  145.4707  157.8261 H   0  0  0  0  0  0  0  0  0  0  0  0
  152.4301  145.2310  160.0224 H   0  0  0  0  0  0  0  0  0  0  0  0
  150.9165  144.3532  160.0014 H   0  0  0  0  0  0  0  0  0  0  0  0
  153.6964  143.1322  159.5476 H   0  0  0  0  0  0  0  0  0  0  0  0
  152.6654  142.8963  160.9453 H   0  0  0  0  0  0  0  0  0  0  0  0
  154.0975  138.9817  155.1440 H   0  0  0  0  0  0  0  0  0  0  0  0
  156.0366  139.0855  154.0309 H   0  0  0  0  0  0  0  0  0  0  0  0
  158.2393  138.0766  153.4396 H   0  0  0  0  0  0  0  0  0  0  0  0
  158.8515  135.8493  154.3894 H   0  0  0  0  0  0  0  0  0  0  0  0
  1  2  1  0  0  0  0
  1 24  1  0  0  0  0
  1 25  1  0  0  0  0
  1 26  1  0  0  0  0
  2  3  1  0  0  0  0
  2 11  1  0  0  0  0
  2 27  1  0  0  0  0
  3  4  1  0  0  0  0
  4  5  1  0  0  0  0
  4 28  1  0  0  0  0
  4 29  1  0  0  0  0
  5 10  1  0  0  0  0
  5  6  1  0  0  0  0
  5 30  1  0  0  0  0
  6  7  1  0  0  0  0
  6 31  1  0  0  0  0
  6 32  1  0  0  0  0
  7  8  1  0  0  0  0
  7 33  1  0  0  0  0
  7 34  1  0  0  0  0
  8  9  1  0  0  0  0
  8 35  1  0  0  0  0
  8 36  1  0  0  0  0
  9 10  1  0  0  0  0
  9 37  1  0  0  0  0
  9 38  1  0  0  0  0
 11 12  2  0  0  0  0
 11 13  1  0  0  0  0
 13 14  1  0  0  0  0
 13 39  1  0  0  0  0
 14 23  1  0  0  0  0
 14 15  2  0  0  0  0
 15 16  1  0  0  0  0
 15 40  1  0  0  0  0
 16 17  2  0  0  0  0
 16 41  1  0  0  0  0
 17 18  1  0  0  0  0
 17 42  1  0  0  0  0
 18 19  1  0  0  0  0
 18 23  2  0  0  0  0
 19 20  1  0  0  0  0
 19 21  1  0  0  0  0
 19 22  1  0  0  0  0
M  END
> <s_m_source_file>
AV-unprocessed.smi

> <i_m_source_file_index>
946

> <i_lp_mmshare_version>
43012

> <i_f3d_flags>
0

> <s_epik_input>
TzFbQ0gyXVtDSDJdW0NIMl1bQ0gyXVtDQEhdMVtDSDJdT1tDQEBIXShbQ0gzXSlDKD1PKVtOSF1jMltjSF1bY0hdW2NIXWMobjIpQyhGKShGKUY=

> <s_epik_cmdline>
J2VwaWtfcHl0aG9uJywgJy1waCcsICc3LjAnLCAnLXRuJywgJzgnLCAnLW1hJywgJzIwMCcsICctbWV0YWxfYmluZGluZycsICctaW1hZScsICc8aW5maWxlLm1hZT4nLCAnLW9tYWUnLCAnPG91dGZpbGUubWFlPic=

> <r_lp_tautomer_probability>
1

> <r_epik_Ionization_Penalty>
1.32683e-06

> <r_epik_Ionization_Penalty_Charging>
0

> <r_epik_Ionization_Penalty_Neutral>
1.32683e-06

> <r_epik_State_Penalty>
-0

> <r_epik_Charging_Adjusted_Penalty>
0

> <i_epik_Tot_Q>
0

> <i_epik_Tot_abs_Q>
0

> <r_epik_Metal_State_Penalty>
-0

> <b_epik_Metal_Only>
0

> <s_lp_Force_Field>
OPLS_2005

> <r_lp_Energy>
15.6569

> <b_lp_Chiralities_Consistent>
1

> <s_lp_Variant>
AV-unprocessed.smi:946-3

> <Gold.Version>
5.8.1

> <Gold.Id.Protein>
6NUR|6NUR_protein|mol2

> <Gold.PLP.Fitness>
43.5793

> <Gold.PLP.PLP>
-36.8535

> <Gold.PLP.part.hbond>
-3.0000

> <Gold.PLP.part.metal>
0.0000

> <Gold.PLP.part.buried>
-2.6888

> <Gold.PLP.part.nonpolar>
-36.1196

> <Gold.PLP.part.repulsive>
3.2659

> <Gold.PLP.ligand.clash>
0.0000

> <Gold.PLP.ligand.torsion>
0.3814

> <Gold.PLP.Chemscore.Hbond>
2.4720

> <Gold.PLP.Chemscore.CHOScore>
0.0000

> <Gold.PLP.Chemscore.Metal>
0.0000

> <Gold.Chemscore.Hbonds>
donor molecule, donor type, donor heavy atom, donor atom, acceptor molecule, acceptor atom, score
      P1  H  7997  8008       L1     3  0.99
      P1  H 10752 10764       L1    12  0.83
      P1  H 10752 10765       L1    23  0.07

> <Gold.PLP.Chemscore.Internal.Correction>
0.0725

> <Gold.Rescore>
     Score         DG    S(hbond)    S(metal)    S(lipo)     H(rot)  DE(clash)    DE(int)     intcor
     18.20     -21.79       1.91        0.00     123.22       1.76       1.85       1.73       ----

> <Gold.Chemscore.Fitness>
18.2021

> <Gold.Chemscore.DG>
-21.7857

> <Gold.Chemscore.ZeroCoef>
-5.4800

> <Gold.Chemscore.Hbond>
1.9111

> <Gold.Chemscore.Metal>
0.0000

> <Gold.Chemscore.Lipo>
123.2239

> <Gold.Chemscore.Internal_Hbond>
0.0000

> <Gold.Chemscore.DEClash>
1.8536

> <Gold.Chemscore.DEInternal>
1.7300

> <Gold.Chemscore.Rot>
1.7557

> <Gold.Chemscore.Internal.Correction>
   9.000000E+99

> <Gold.Chemscore.Hbonds>
donor molecule, donor type, donor heavy atom, donor atom, acceptor molecule, acceptor atom, score
      P1  H  7997  8008       L1     3  0.51
      P1  H 10752 10764       L1    12  0.13

> <Gold.Chemscore.Hbond.Weighted>
-6.3831

> <Gold.Chemscore.Metal.Weighted>
-0.0000

> <Gold.Chemscore.Lipo.Weighted>
-14.4172

> <Gold.Chemscore.Internal_Hbond.Weighted>
0.0000

> <Gold.Chemscore.DEClash.Weighted>
1.8536

> <Gold.Chemscore.DEInternal.Weighted>
1.7300

> <Gold.Chemscore.Rot.Weighted>
4.4946

> <Gold.Chemscore.Internal.Correction.Weighted>
   9.000000E+99

> <Gold.Protein.RotatedTorsions>
[ 6907 6896 6895 6894 ] final  -15.86 input  -60.11 | X-H torsion
[ 7974 7965 7964 7962 ] final -160.71 input  175.53 | X-H torsion
[ 8008 7997 7996 7995 ] final  -48.69 input   59.86 | X-H torsion
[ 10167 10162 10161 10158 ] final -147.52 input  -65.29 | X-H torsion
[ 10718 10713 10712 10709 ] final  -25.73 input   66.30 | X-H torsion
[ 10763 10752 10751 10750 ] final    0.92 input  -60.55 | X-H torsion
[ 11005 11000 10999 10996 ] final  128.82 input  -57.11 | X-H torsion

> <Gold.Protein.ActiveResidues>
 VAL166  LYS551  ARG553  GLY616  TRP617  ASP618  TYR619  PRO620  LYS621  CYS622 
 ASP623  PHE694  ASN695  SER759  ASP760  ASP761  ALA762  ILE779  LEU786  VAL792 
 PHE793  MET794  SER795  GLU796  ALA797  LYS798  CYS799  TRP800  GLU811  SER814 

> <Gold.Protein.RotatedAtoms>
  151.3175  135.0810  159.9293 H   0  0  0  0  0  0  0  0  0  0  0  0  # atno 6907 bound_to 6896
  152.5264  133.9673  159.7756 H   0  0  0  0  0  0  0  0  0  0  0  0  # atno 6908 bound_to 6896
  150.9988  133.6024  159.2728 H   0  0  0  0  0  0  0  0  0  0  0  0  # atno 6909 bound_to 6896
  144.7417  140.3502  143.6117 H   0  0  0  0  0  0  0  0  0  0  0  0  # atno 7974 bound_to 7965
  154.4032  140.1315  156.4380 H   0  0  0  0  0  0  0  0  0  0  0  0  # atno 8008 bound_to 7997
  155.7487  140.3488  155.5119 H   0  0  0  0  0  0  0  0  0  0  0  0  # atno 8009 bound_to 7997
  155.8970  140.1013  157.1367 H   0  0  0  0  0  0  0  0  0  0  0  0  # atno 8010 bound_to 7997
  139.7614  143.8371  152.2608 H   0  0  0  0  0  0  0  0  0  0  0  0  # atno 10167 bound_to 10162
  156.4605  130.4503  149.6932 H   0  0  0  0  0  0  0  0  0  0  0  0  # atno 10718 bound_to 10713
  153.3146  135.6965  153.7085 H   0  0  0  0  0  0  0  0  0  0  0  0  # atno 10763 bound_to 10752
  153.5949  135.3473  155.2925 H   0  0  0  0  0  0  0  0  0  0  0  0  # atno 10764 bound_to 10752
  154.8583  135.4326  154.2293 H   0  0  0  0  0  0  0  0  0  0  0  0  # atno 10765 bound_to 10752
  139.9581  134.9608  156.9058 H   0  0  0  0  0  0  0  0  0  0  0  0  # atno 11005 bound_to 11000
  145.7284  139.1729  143.2444 LP  0  0  0  0  0  0  0  0  0  0  0  0  # atno 17320 bound_to 7965
  146.1225  140.7291  142.9451 LP  0  0  0  0  0  0  0  0  0  0  0  0  # atno 17321 bound_to 7965
  139.8378  144.7224  150.9369 LP  0  0  0  0  0  0  0  0  0  0  0  0  # atno 17342 bound_to 10162
  140.7807  143.4011  151.1148 LP  0  0  0  0  0  0  0  0  0  0  0  0  # atno 17343 bound_to 10162
  156.3721  130.7536  151.2520 LP  0  0  0  0  0  0  0  0  0  0  0  0  # atno 17370 bound_to 10713
  157.7498  131.0320  150.4206 LP  0  0  0  0  0  0  0  0  0  0  0  0  # atno 17371 bound_to 10713
  140.5562  134.0579  155.7384 LP  0  0  0  0  0  0  0  0  0  0  0  0  # atno 17394 bound_to 11000
  141.1256  133.9389  157.2643 LP  0  0  0  0  0  0  0  0  0  0  0  0  # atno 17395 bound_to 11000

$$$$
