AV-unprocessed.smi:1726|AV-procd|sdf|6963|dock4
  -GOLD-   22720 8173D 1   1.00000     0.00000
 Structure written by MMmdl.
 42 43  0  0  0  0  0  0  0  0  3 V2000
  147.0584  132.6311  151.7945 C   0  0  0  0  0  0  0  0  0  0  0  0
  146.2293  133.6506  150.9997 C   0  0  0  0  0  0  0  0  0  0  0  0
  146.2111  134.9873  151.6440 N   0  3  1  0  0  0  0  0  0  0  0  0
  145.5041  136.0055  150.8241 C   0  0  0  0  0  0  0  0  0  0  0  0
  145.6350  137.4095  151.4418 C   0  0  0  0  0  0  0  0  0  0  0  0
  145.1700  137.4271  152.9084 C   0  0  0  0  0  0  0  0  0  0  0  0
  145.8818  136.3329  153.7244 C   0  0  2  0  0  0  0  0  0  0  0  0
  147.2994  136.6653  153.8690 N   0  0  0  0  0  0  0  0  0  0  0  0
  147.8546  137.2679  154.9298 C   0  0  0  0  0  0  0  0  0  0  0  0
  147.2071  137.6366  155.9093 O   0  0  0  0  0  0  0  0  0  0  0  0
  149.1871  137.3665  154.7777 N   0  0  0  0  0  0  0  0  0  0  0  0
  150.1458  137.8956  155.6574 C   0  0  0  0  0  0  0  0  0  0  0  0
  149.8667  138.7061  156.7156 C   0  0  0  0  0  0  0  0  0  0  0  0
  150.9074  139.2308  157.5908 C   0  0  0  0  0  0  0  0  0  0  0  0
  150.6416  140.1952  158.7331 C   0  0  0  0  0  0  0  0  0  0  0  0
  151.1286  139.6978  159.8690 F   0  0  0  0  0  0  0  0  0  0  0  0
  151.2248  141.3735  158.5111 F   0  0  0  0  0  0  0  0  0  0  0  0
  149.3336  140.3972  158.8942 F   0  0  0  0  0  0  0  0  0  0  0  0
  152.1717  138.8366  157.1974 C   0  0  0  0  0  0  0  0  0  0  0  0
  152.5319  138.0336  156.1723 N   0  5  0  0  0  0  0  0  0  0  0  0
  151.5501  137.5410  155.3658 C   0  0  0  0  0  0  0  0  0  0  0  0
  151.8077  136.8098  154.4086 O   0  0  0  0  0  0  0  0  0  0  0  0
  145.6854  134.9646  153.0348 C   0  0  0  0  0  0  0  0  0  0  0  0
  147.1305  131.6888  151.2509 H   0  0  0  0  0  0  0  0  0  0  0  0
  146.6178  132.4093  152.7659 H   0  0  0  0  0  0  0  0  0  0  0  0
  148.0733  132.9938  151.9610 H   0  0  0  0  0  0  0  0  0  0  0  0
  146.6747  133.7367  150.0077 H   0  0  0  0  0  0  0  0  0  0  0  0
  145.2102  133.2905  150.8509 H   0  0  0  0  0  0  0  0  0  0  0  0
  145.9177  136.0210  149.8150 H   0  0  0  0  0  0  0  0  0  0  0  0
  144.4518  135.7313  150.7315 H   0  0  0  0  0  0  0  0  0  0  0  0
  146.6731  137.7383  151.3802 H   0  0  0  0  0  0  0  0  0  0  0  0
  145.0545  138.1262  150.8604 H   0  0  0  0  0  0  0  0  0  0  0  0
  145.3442  138.4093  153.3498 H   0  0  0  0  0  0  0  0  0  0  0  0
  144.0925  137.2618  152.9460 H   0  0  0  0  0  0  0  0  0  0  0  0
  145.4369  136.2995  154.7204 H   0  0  0  0  0  0  0  0  0  0  0  0
  147.9071  136.4046  153.1059 H   0  0  0  0  0  0  0  0  0  0  0  0
  149.5773  136.9564  153.9418 H   0  0  0  0  0  0  0  0  0  0  0  0
  148.8536  139.0020  156.9329 H   0  0  0  0  0  0  0  0  0  0  0  0
  153.0224  139.2281  157.7951 H   0  0  0  0  0  0  0  0  0  0  0  0
  144.6259  134.7040  153.0167 H   0  0  0  0  0  0  0  0  0  0  0  0
  146.1767  134.1863  153.6170 H   0  0  0  0  0  0  0  0  0  0  0  0
  147.1740  135.2874  151.7001 H   0  0  0  0  0  0  0  0  0  0  0  0
  1  2  1  0  0  0  0
  1 24  1  0  0  0  0
  1 25  1  0  0  0  0
  1 26  1  0  0  0  0
  2  3  1  0  0  0  0
  2 27  1  0  0  0  0
  2 28  1  0  0  0  0
  3 23  1  0  0  0  0
  3  4  1  0  0  0  0
  3 42  1  0  0  0  0
  4  5  1  0  0  0  0
  4 29  1  0  0  0  0
  4 30  1  0  0  0  0
  5  6  1  0  0  0  0
  5 31  1  0  0  0  0
  5 32  1  0  0  0  0
  6  7  1  0  0  0  0
  6 33  1  0  0  0  0
  6 34  1  0  0  0  0
  7  8  1  0  0  0  0
  7 23  1  0  0  0  0
  7 35  1  0  0  0  0
  8  9  1  0  0  0  0
  8 36  1  0  0  0  0
  9 10  2  0  0  0  0
  9 11  1  0  0  0  0
 11 12  1  0  0  0  0
 11 37  1  0  0  0  0
 12 21  1  0  0  0  0
 12 13  2  0  0  0  0
 13 14  1  0  0  0  0
 13 38  1  0  0  0  0
 14 15  1  0  0  0  0
 14 19  2  0  0  0  0
 15 16  1  0  0  0  0
 15 17  1  0  0  0  0
 15 18  1  0  0  0  0
 19 20  1  0  0  0  0
 19 39  1  0  0  0  0
 20 21  1  0  0  0  0
 21 22  2  0  0  0  0
 23 40  1  0  0  0  0
 23 41  1  0  0  0  0
M  CHG  1   3   1
M  CHG  1  20  -1
M  END
> <s_m_source_file>
AV-unprocessed.smi

> <i_m_source_file_index>
1726

> <i_lp_mmshare_version>
43012

> <i_f3d_flags>
0

> <s_epik_input>
W0NIM11bQ0gyXU4xW0NIMl1bQ0gyXVtDSDJdW0NASF0oW0NIMl0xKVtOSF1DKD1PKVtOSF1jMltjSF1jKEMoRikoRilGKVtjSF1bbkhdYzI9Tw==

> <s_epik_cmdline>
J2VwaWtfcHl0aG9uJywgJy1waCcsICc3LjAnLCAnLXRuJywgJzgnLCAnLW1hJywgJzIwMCcsICctbWV0YWxfYmluZGluZycsICctaW1hZScsICc8aW5maWxlLm1hZT4nLCAnLW9tYWUnLCAnPG91dGZpbGUubWFlPic=

> <r_lp_tautomer_probability>
1

> <r_epik_Ionization_Penalty>
3.01007

> <r_epik_Ionization_Penalty_Charging>
0.14897

> <r_epik_Ionization_Penalty_Neutral>
2.8611

> <r_epik_State_Penalty>
2.85632

> <r_epik_Charging_Adjusted_Penalty>
3.00529

> <i_epik_Tot_Q>
0

> <i_epik_Tot_abs_Q>
2

> <r_epik_Metal_State_Penalty>
0.443826

> <b_epik_Metal_Only>
1

> <s_lp_Force_Field>
OPLS_2005

> <r_lp_Energy>
34.1377

> <b_lp_Chiralities_Consistent>
1

> <s_lp_Variant>
AV-unprocessed.smi:1726-7

> <Gold.Version>
5.8.1

> <Gold.Id.Protein>
6NUR|6NUR_protein|mol2

> <Gold.PLP.Fitness>
44.5235

> <Gold.PLP.PLP>
-31.7873

> <Gold.PLP.part.hbond>
-4.2947

> <Gold.PLP.part.metal>
0.0000

> <Gold.PLP.part.buried>
-3.0704

> <Gold.PLP.part.nonpolar>
-27.6216

> <Gold.PLP.part.repulsive>
0.8629

> <Gold.PLP.ligand.clash>
0.0000

> <Gold.PLP.ligand.torsion>
0.4170

> <Gold.PLP.Chemscore.Hbond>
4.4973

> <Gold.PLP.Chemscore.CHOScore>
0.0000

> <Gold.PLP.Chemscore.Metal>
0.0000

> <Gold.Chemscore.Hbonds>
donor molecule, donor type, donor heavy atom, donor atom, acceptor molecule, acceptor atom, score
      L1  H     3    42       P1  7948  2.00
      L1  H     8    36       P1  7948  1.00
      L1  H    11    37       P1  7948  0.36
      P1  H 10752 10765       L1    22  1.00

> <Gold.PLP.Chemscore.Internal.Correction>
0.0783

> <Gold.Rescore>
     Score         DG    S(hbond)    S(metal)    S(lipo)     H(rot)  DE(clash)    DE(int)     intcor
     17.41     -21.27       3.47        0.00      63.84       1.28       2.26       1.61       ----

> <Gold.Chemscore.Fitness>
17.4081

> <Gold.Chemscore.DG>
-21.2720

> <Gold.Chemscore.ZeroCoef>
-5.4800

> <Gold.Chemscore.Hbond>
3.4726

> <Gold.Chemscore.Metal>
0.0000

> <Gold.Chemscore.Lipo>
63.8417

> <Gold.Chemscore.Internal_Hbond>
0.0000

> <Gold.Chemscore.DEClash>
2.2577

> <Gold.Chemscore.DEInternal>
1.6062

> <Gold.Chemscore.Rot>
1.2796

> <Gold.Chemscore.Internal.Correction>
   9.000000E+99

> <Gold.Chemscore.Hbonds>
donor molecule, donor type, donor heavy atom, donor atom, acceptor molecule, acceptor atom, score
      L1  H     3    42       P1  7948  0.96
      L1  H     8    36       P1  7948  1.00
      L1  H    11    37       P1  7948  0.29
      P1  H 10752 10765       L1    22  0.94

> <Gold.Chemscore.Hbond.Weighted>
-11.5984

> <Gold.Chemscore.Metal.Weighted>
-0.0000

> <Gold.Chemscore.Lipo.Weighted>
-7.4695

> <Gold.Chemscore.Internal_Hbond.Weighted>
0.0000

> <Gold.Chemscore.DEClash.Weighted>
2.2577

> <Gold.Chemscore.DEInternal.Weighted>
1.6062

> <Gold.Chemscore.Rot.Weighted>
3.2759

> <Gold.Chemscore.Internal.Correction.Weighted>
   9.000000E+99

> <Gold.Protein.RotatedTorsions>
[ 6907 6896 6895 6894 ] final   26.18 input  -60.11 | X-H torsion
[ 7974 7965 7964 7962 ] final  -22.83 input  175.53 | X-H torsion
[ 8008 7997 7996 7995 ] final -110.28 input   59.86 | X-H torsion
[ 10167 10162 10161 10158 ] final  -78.29 input  -65.29 | X-H torsion
[ 10718 10713 10712 10709 ] final  139.09 input   66.30 | X-H torsion
[ 10763 10752 10751 10750 ] final  147.99 input  -60.55 | X-H torsion
[ 11005 11000 10999 10996 ] final  127.13 input  -57.11 | X-H torsion

> <Gold.Protein.ActiveResidues>
 VAL166  LYS551  ARG553  GLY616  TRP617  ASP618  TYR619  PRO620  LYS621  CYS622 
 ASP623  PHE694  ASN695  SER759  ASP760  ASP761  ALA762  ILE779  LEU786  VAL792 
 PHE793  MET794  SER795  GLU796  ALA797  LYS798  CYS799  TRP800  GLU811  SER814 

> <Gold.Protein.RotatedAtoms>
  151.9837  135.0015  160.0558 H   0  0  0  0  0  0  0  0  0  0  0  0  # atno 6907 bound_to 6896
  152.1673  133.4616  159.4899 H   0  0  0  0  0  0  0  0  0  0  0  0  # atno 6908 bound_to 6896
  150.6896  134.1915  159.4330 H   0  0  0  0  0  0  0  0  0  0  0  0  # atno 6909 bound_to 6896
  146.1653  140.4532  142.8555 H   0  0  0  0  0  0  0  0  0  0  0  0  # atno 7974 bound_to 7965
  154.9722  140.0397  157.2239 H   0  0  0  0  0  0  0  0  0  0  0  0  # atno 8008 bound_to 7997
  154.7791  140.2815  155.6056 H   0  0  0  0  0  0  0  0  0  0  0  0  # atno 8009 bound_to 7997
  156.2933  140.2595  156.2612 H   0  0  0  0  0  0  0  0  0  0  0  0  # atno 8010 bound_to 7997
  140.4696  143.2430  151.8226 H   0  0  0  0  0  0  0  0  0  0  0  0  # atno 10167 bound_to 10162
  157.4182  131.1035  151.0382 H   0  0  0  0  0  0  0  0  0  0  0  0  # atno 10718 bound_to 10713
  154.0475  135.2884  155.3345 H   0  0  0  0  0  0  0  0  0  0  0  0  # atno 10763 bound_to 10752
  154.6890  135.5234  153.8370 H   0  0  0  0  0  0  0  0  0  0  0  0  # atno 10764 bound_to 10752
  153.0574  135.6601  154.0674 H   0  0  0  0  0  0  0  0  0  0  0  0  # atno 10765 bound_to 10752
  139.9492  134.9625  156.8809 H   0  0  0  0  0  0  0  0  0  0  0  0  # atno 11005 bound_to 11000
  144.8083  140.6340  143.6432 LP  0  0  0  0  0  0  0  0  0  0  0  0  # atno 17320 bound_to 7965
  145.4484  139.1526  143.3932 LP  0  0  0  0  0  0  0  0  0  0  0  0  # atno 17321 bound_to 7965
  139.4816  144.4909  151.9187 LP  0  0  0  0  0  0  0  0  0  0  0  0  # atno 17342 bound_to 10162
  140.3994  144.2513  150.5894 LP  0  0  0  0  0  0  0  0  0  0  0  0  # atno 17343 bound_to 10162
  157.1322  130.6107  149.5532 LP  0  0  0  0  0  0  0  0  0  0  0  0  # atno 17370 bound_to 10713
  155.9872  130.4910  150.7113 LP  0  0  0  0  0  0  0  0  0  0  0  0  # atno 17371 bound_to 10713
  140.5761  134.0397  155.7447 LP  0  0  0  0  0  0  0  0  0  0  0  0  # atno 17394 bound_to 11000
  141.1150  133.9555  157.2839 LP  0  0  0  0  0  0  0  0  0  0  0  0  # atno 17395 bound_to 11000

$$$$
