AV-unprocessed.smi:2238|AV-procd|sdf|9055|dock2
  -GOLD-   2272012263D 1   1.00000     0.00000
 Structure written by MMmdl.
 38 39  0  0  0  0  0  0  0  0  1 V2000
  151.4659  145.0277  158.8098 C   0  0  0  0  0  0  0  0  0  0  0  0
  152.0568  143.6761  159.1547 C   0  0  0  0  0  0  0  0  0  0  0  0
  152.7826  143.5007  160.3492 C   0  0  0  0  0  0  0  0  0  0  0  0
  153.3302  142.2427  160.6593 C   0  0  0  0  0  0  0  0  0  0  0  0
  153.1550  141.1576  159.7787 C   0  0  0  0  0  0  0  0  0  0  0  0
  153.8383  139.6235  160.1845 Cl  0  0  0  0  0  0  0  0  0  0  0  0
  152.4297  141.3164  158.5767 C   0  0  0  0  0  0  0  0  0  0  0  0
  152.2985  140.2094  157.7640 O   0  0  0  0  0  0  0  0  0  0  0  0
  151.3632  140.2608  156.6954 C   0  0  0  0  0  0  0  0  0  0  0  0
  151.7513  139.2015  155.6487 C   0  0  1  0  0  0  0  0  0  0  0  0
  152.7822  139.7355  154.8439 O   0  0  0  0  0  0  0  0  0  0  0  0
  152.2891  137.8870  156.2609 C   0  0  0  0  0  0  0  0  0  0  0  0
  151.2218  136.9816  156.7235 N   0  0  0  0  0  0  0  0  0  0  0  0
  150.8929  137.0356  158.0931 C   0  0  0  0  0  0  0  0  0  0  0  0
  149.9716  136.2825  158.6047 N   0  0  0  0  0  0  0  0  0  0  0  0
  149.2798  135.3846  157.7863 C   0  0  0  0  0  0  0  0  0  0  0  0
  148.2059  134.5344  158.4329 C   0  0  0  0  0  0  0  0  0  0  0  0
  149.5630  135.2869  156.4671 C   0  0  0  0  0  0  0  0  0  0  0  0
  150.6037  136.1197  155.8634 C   0  0  0  0  0  0  0  0  0  0  0  0
  150.8992  136.0484  154.6704 O   0  0  0  0  0  0  0  0  0  0  0  0
  151.8823  142.5895  158.2734 C   0  0  0  0  0  0  0  0  0  0  0  0
  151.5306  145.7167  159.6526 H   0  0  0  0  0  0  0  0  0  0  0  0
  150.4154  144.9254  158.5359 H   0  0  0  0  0  0  0  0  0  0  0  0
  151.9996  145.4677  157.9670 H   0  0  0  0  0  0  0  0  0  0  0  0
  152.9225  144.3273  161.0304 H   0  0  0  0  0  0  0  0  0  0  0  0
  153.8862  142.1109  161.5760 H   0  0  0  0  0  0  0  0  0  0  0  0
  150.3409  140.1037  157.0439 H   0  0  0  0  0  0  0  0  0  0  0  0
  151.4175  141.2556  156.2534 H   0  0  0  0  0  0  0  0  0  0  0  0
  150.8960  138.9862  155.0074 H   0  0  0  0  0  0  0  0  0  0  0  0
  153.0842  139.0578  154.2580 H   0  0  0  0  0  0  0  0  0  0  0  0
  152.8882  137.3589  155.5164 H   0  0  0  0  0  0  0  0  0  0  0  0
  152.9933  138.1206  157.0622 H   0  0  0  0  0  0  0  0  0  0  0  0
  151.4606  137.7550  158.6855 H   0  0  0  0  0  0  0  0  0  0  0  0
  148.3166  133.4903  158.1388 H   0  0  0  0  0  0  0  0  0  0  0  0
  147.2180  134.8763  158.1231 H   0  0  0  0  0  0  0  0  0  0  0  0
  148.2609  134.5875  159.5209 H   0  0  0  0  0  0  0  0  0  0  0  0
  149.0180  134.5889  155.8479 H   0  0  0  0  0  0  0  0  0  0  0  0
  151.3224  142.7583  157.3659 H   0  0  0  0  0  0  0  0  0  0  0  0
  1  2  1  0  0  0  0
  1 22  1  0  0  0  0
  1 23  1  0  0  0  0
  1 24  1  0  0  0  0
  2 21  1  0  0  0  0
  2  3  2  0  0  0  0
  3  4  1  0  0  0  0
  3 25  1  0  0  0  0
  4  5  2  0  0  0  0
  4 26  1  0  0  0  0
  5  6  1  0  0  0  0
  5  7  1  0  0  0  0
  7  8  1  0  0  0  0
  7 21  2  0  0  0  0
  8  9  1  0  0  0  0
  9 10  1  0  0  0  0
  9 27  1  0  0  0  0
  9 28  1  0  0  0  0
 10 11  1  0  0  0  0
 10 12  1  0  0  0  0
 10 29  1  0  0  0  0
 11 30  1  0  0  0  0
 12 13  1  0  0  0  0
 12 31  1  0  0  0  0
 12 32  1  0  0  0  0
 13 19  1  0  0  0  0
 13 14  1  0  0  0  0
 14 15  2  0  0  0  0
 14 33  1  0  0  0  0
 15 16  1  0  0  0  0
 16 17  1  0  0  0  0
 16 18  2  0  0  0  0
 17 34  1  0  0  0  0
 17 35  1  0  0  0  0
 17 36  1  0  0  0  0
 18 19  1  0  0  0  0
 18 37  1  0  0  0  0
 19 20  2  0  0  0  0
 21 38  1  0  0  0  0
M  END
> <s_m_source_file>
AV-unprocessed.smi

> <i_m_source_file_index>
2238

> <i_lp_mmshare_version>
43012

> <i_f3d_flags>
0

> <s_epik_input>
W0NIM11jMVtjSF1bY0hdYyhDbCljKFtjSF0xKU9bQ0gyXVtDQEhdKFtPSF0pW0NIMl1uMltjSF1uYyhbQ0gzXSlbY0hdYzI9Tw==

> <s_epik_cmdline>
J2VwaWtfcHl0aG9uJywgJy1waCcsICc3LjAnLCAnLXRuJywgJzgnLCAnLW1hJywgJzIwMCcsICctbWV0YWxfYmluZGluZycsICctaW1hZScsICc8aW5maWxlLm1hZT4nLCAnLW9tYWUnLCAnPG91dGZpbGUubWFlPic=

> <r_lp_tautomer_probability>
1

> <r_epik_Ionization_Penalty>
1.78029e-05

> <r_epik_Ionization_Penalty_Charging>
3.78421e-08

> <r_epik_Ionization_Penalty_Neutral>
1.7765e-05

> <r_epik_State_Penalty>
-0

> <r_epik_Charging_Adjusted_Penalty>
3.78421e-08

> <i_epik_Tot_Q>
0

> <i_epik_Tot_abs_Q>
0

> <r_epik_Metal_State_Penalty>
-0

> <b_epik_Metal_Only>
0

> <s_lp_Force_Field>
OPLS_2005

> <r_lp_Energy>
22.1977

> <b_lp_Chiralities_Consistent>
1

> <s_lp_Variant>
AV-unprocessed.smi:2238-2

> <Gold.Version>
5.8.1

> <Gold.Id.Protein>
6NUR|6NUR_protein|mol2

> <Gold.PLP.Fitness>
47.2421

> <Gold.PLP.PLP>
-38.9905

> <Gold.PLP.part.hbond>
-4.4196

> <Gold.PLP.part.metal>
0.0000

> <Gold.PLP.part.buried>
-5.7352

> <Gold.PLP.part.nonpolar>
-30.6307

> <Gold.PLP.part.repulsive>
0.5846

> <Gold.PLP.ligand.clash>
0.0000

> <Gold.PLP.ligand.torsion>
0.9934

> <Gold.PLP.Chemscore.Hbond>
3.3868

> <Gold.PLP.Chemscore.CHOScore>
0.0000

> <Gold.PLP.Chemscore.Metal>
0.0000

> <Gold.Chemscore.Hbonds>
donor molecule, donor type, donor heavy atom, donor atom, acceptor molecule, acceptor atom, score
      P1  H  6896  6908       L1    15  0.90
      P1  H  7989  7998       L1    11  0.41
      P1  H  7997  8008       L1    11  0.90
      P1  H 10752 10763       L1    20  0.89

> <Gold.PLP.Chemscore.Internal.Correction>
0.0779

> <Gold.Rescore>
     Score         DG    S(hbond)    S(metal)    S(lipo)     H(rot)  DE(clash)    DE(int)     intcor
     17.62     -18.57       1.95        0.00     110.26       2.47       0.00       0.95       ----

> <Gold.Chemscore.Fitness>
17.6180

> <Gold.Chemscore.DG>
-18.5680

> <Gold.Chemscore.ZeroCoef>
-5.4800

> <Gold.Chemscore.Hbond>
1.9506

> <Gold.Chemscore.Metal>
0.0000

> <Gold.Chemscore.Lipo>
110.2626

> <Gold.Chemscore.Internal_Hbond>
0.0000

> <Gold.Chemscore.DEClash>
0.0009

> <Gold.Chemscore.DEInternal>
0.9491

> <Gold.Chemscore.Rot>
2.4718

> <Gold.Chemscore.Internal.Correction>
   9.000000E+99

> <Gold.Chemscore.Hbonds>
donor molecule, donor type, donor heavy atom, donor atom, acceptor molecule, acceptor atom, score
      P1  H  6896  6908       L1    15  0.09
      P1  H  7989  7998       L1    11  0.03
      P1  H  7997  8008       L1    11  0.19
      P1  H 10752 10763       L1    20  0.56

> <Gold.Chemscore.Hbond.Weighted>
-6.5152

> <Gold.Chemscore.Metal.Weighted>
-0.0000

> <Gold.Chemscore.Lipo.Weighted>
-12.9007

> <Gold.Chemscore.Internal_Hbond.Weighted>
0.0000

> <Gold.Chemscore.DEClash.Weighted>
0.0009

> <Gold.Chemscore.DEInternal.Weighted>
0.9491

> <Gold.Chemscore.Rot.Weighted>
6.3279

> <Gold.Chemscore.Internal.Correction.Weighted>
   9.000000E+99

> <Gold.Protein.RotatedTorsions>
[ 6907 6896 6895 6894 ] final -162.23 input  -60.11 | X-H torsion
[ 7974 7965 7964 7962 ] final  176.37 input  175.53 | X-H torsion
[ 8008 7997 7996 7995 ] final   -2.21 input   59.86 | X-H torsion
[ 10167 10162 10161 10158 ] final  -94.63 input  -65.29 | X-H torsion
[ 10718 10713 10712 10709 ] final   88.71 input   66.30 | X-H torsion
[ 10763 10752 10751 10750 ] final   56.06 input  -60.55 | X-H torsion
[ 11005 11000 10999 10996 ] final  -82.34 input  -57.11 | X-H torsion

> <Gold.Protein.ActiveResidues>
 VAL166  LYS551  ARG553  GLY616  TRP617  ASP618  TYR619  PRO620  LYS621  CYS622 
 ASP623  PHE694  ASN695  SER759  ASP760  ASP761  ALA762  ILE779  LEU786  VAL792 
 PHE793  MET794  SER795  GLU796  ALA797  LYS798  CYS799  TRP800  GLU811  SER814 

> <Gold.Protein.RotatedAtoms>
  151.3771  133.3834  159.2705 H   0  0  0  0  0  0  0  0  0  0  0  0  # atno 6907 bound_to 6896
  150.9606  134.8995  159.7738 H   0  0  0  0  0  0  0  0  0  0  0  0  # atno 6908 bound_to 6896
  152.5148  134.3730  159.9377 H   0  0  0  0  0  0  0  0  0  0  0  0  # atno 6909 bound_to 6896
  144.7185  140.0087  143.6440 H   0  0  0  0  0  0  0  0  0  0  0  0  # atno 7974 bound_to 7965
  154.6382  140.2540  155.7353 H   0  0  0  0  0  0  0  0  0  0  0  0  # atno 8008 bound_to 7997
  156.2515  140.2893  156.0684 H   0  0  0  0  0  0  0  0  0  0  0  0  # atno 8009 bound_to 7997
  155.1638  140.0385  157.2838 H   0  0  0  0  0  0  0  0  0  0  0  0  # atno 8010 bound_to 7997
  140.3125  143.3097  152.0134 H   0  0  0  0  0  0  0  0  0  0  0  0  # atno 10167 bound_to 10162
  157.6951  131.0305  150.3316 H   0  0  0  0  0  0  0  0  0  0  0  0  # atno 10718 bound_to 10713
  152.9826  135.5689  154.5167 H   0  0  0  0  0  0  0  0  0  0  0  0  # atno 10763 bound_to 10752
  154.4662  135.2783  155.1678 H   0  0  0  0  0  0  0  0  0  0  0  0  # atno 10764 bound_to 10752
  154.3245  135.6262  153.5576 H   0  0  0  0  0  0  0  0  0  0  0  0  # atno 10765 bound_to 10752
  141.1663  133.7240  156.8557 H   0  0  0  0  0  0  0  0  0  0  0  0  # atno 11005 bound_to 11000
  146.0276  139.3306  143.0775 LP  0  0  0  0  0  0  0  0  0  0  0  0  # atno 17320 bound_to 7965
  145.8492  140.9538  143.0758 LP  0  0  0  0  0  0  0  0  0  0  0  0  # atno 17321 bound_to 7965
  139.4891  144.6374  151.6948 LP  0  0  0  0  0  0  0  0  0  0  0  0  # atno 17342 bound_to 10162
  140.5556  144.0354  150.6146 LP  0  0  0  0  0  0  0  0  0  0  0  0  # atno 17343 bound_to 10162
  156.3789  130.3877  149.7117 LP  0  0  0  0  0  0  0  0  0  0  0  0  # atno 17370 bound_to 10713
  156.4506  130.7905  151.2926 LP  0  0  0  0  0  0  0  0  0  0  0  0  # atno 17371 bound_to 10713
  140.1884  134.8983  157.3031 LP  0  0  0  0  0  0  0  0  0  0  0  0  # atno 17394 bound_to 11000
  140.2317  134.3901  155.7519 LP  0  0  0  0  0  0  0  0  0  0  0  0  # atno 17395 bound_to 11000

$$$$
