AV-unprocessed.smi:1668|AV-procd|sdf|6681|dock4
  -GOLD-   22720 7393D 1   1.00000     0.00000
 Structure written by MMmdl.
 44 46  0  0  0  0  0  0  0  0  1 V2000
  148.8458  136.3614  159.3327 C   0  0  0  0  0  0  0  0  0  0  0  0
  149.5715  137.4062  158.7017 O   0  0  0  0  0  0  0  0  0  0  0  0
  148.8582  138.4371  158.1290 C   0  0  0  0  0  0  0  0  0  0  0  0
  147.4465  138.4834  158.0537 C   0  0  0  0  0  0  0  0  0  0  0  0
  146.8001  139.5822  157.4588 C   0  0  0  0  0  0  0  0  0  0  0  0
  147.5453  140.6615  156.9239 C   0  0  0  0  0  0  0  0  0  0  0  0
  146.9589  141.7707  156.3497 O   0  0  0  0  0  0  0  0  0  0  0  0
  145.5416  141.8422  156.3124 C   0  0  0  0  0  0  0  0  0  0  0  0
  148.9600  140.6150  156.9901 C   0  0  0  0  0  0  0  0  0  0  0  0
  149.8071  141.7753  156.4654 C   0  0  2  0  0  0  0  0  0  0  0  0
  149.5085  142.1038  155.1233 O   0  0  0  0  0  0  0  0  0  0  0  0
  151.3238  141.4968  156.5661 C   0  0  0  0  0  0  0  0  0  0  0  0
  151.8513  141.7665  157.9044 N   0  0  0  0  0  0  0  0  0  0  0  0
  152.6321  140.9366  158.6362 C   0  0  0  0  0  0  0  0  0  0  0  0
  152.9849  139.8034  158.3098 O   0  0  0  0  0  0  0  0  0  0  0  0
  152.9871  141.5849  159.7696 N   0  0  0  0  0  0  0  0  0  0  0  0
  153.8621  141.0859  160.8232 C   0  0  0  0  0  0  0  0  0  0  0  0
  152.4320  142.8707  159.7572 C   0  0  0  0  0  0  0  0  0  0  0  0
  152.5306  143.9267  160.6793 C   0  0  0  0  0  0  0  0  0  0  0  0
  151.8548  145.1277  160.3604 C   0  0  0  0  0  0  0  0  0  0  0  0
  151.1133  145.2470  159.1565 C   0  0  0  0  0  0  0  0  0  0  0  0
  151.0302  144.1673  158.2469 C   0  0  0  0  0  0  0  0  0  0  0  0
  151.7110  142.9850  158.5873 C   0  0  0  0  0  0  0  0  0  0  0  0
  149.5978  139.5079  157.5928 C   0  0  0  0  0  0  0  0  0  0  0  0
  149.5457  135.6290  159.7347 H   0  0  0  0  0  0  0  0  0  0  0  0
  148.1968  135.8434  158.6253 H   0  0  0  0  0  0  0  0  0  0  0  0
  148.2481  136.7367  160.1645 H   0  0  0  0  0  0  0  0  0  0  0  0
  146.8332  137.6881  158.4491 H   0  0  0  0  0  0  0  0  0  0  0  0
  145.7216  139.5725  157.4270 H   0  0  0  0  0  0  0  0  0  0  0  0
  145.2438  142.8197  155.9333 H   0  0  0  0  0  0  0  0  0  0  0  0
  145.1112  141.7324  157.3091 H   0  0  0  0  0  0  0  0  0  0  0  0
  145.1198  141.0872  155.6481 H   0  0  0  0  0  0  0  0  0  0  0  0
  149.5770  142.6738  157.0383 H   0  0  0  0  0  0  0  0  0  0  0  0
  149.3290  143.0304  155.0755 H   0  0  0  0  0  0  0  0  0  0  0  0
  151.5363  140.4634  156.2907 H   0  0  0  0  0  0  0  0  0  0  0  0
  151.8633  142.1131  155.8447 H   0  0  0  0  0  0  0  0  0  0  0  0
  153.4664  141.3458  161.8055 H   0  0  0  0  0  0  0  0  0  0  0  0
  154.8543  141.5271  160.7251 H   0  0  0  0  0  0  0  0  0  0  0  0
  153.9669  140.0007  160.7834 H   0  0  0  0  0  0  0  0  0  0  0  0
  153.1007  143.8300  161.5912 H   0  0  0  0  0  0  0  0  0  0  0  0
  151.9056  145.9649  161.0409 H   0  0  0  0  0  0  0  0  0  0  0  0
  150.6080  146.1743  158.9302 H   0  0  0  0  0  0  0  0  0  0  0  0
  150.4730  144.2572  157.3263 H   0  0  0  0  0  0  0  0  0  0  0  0
  150.6756  139.4809  157.6613 H   0  0  0  0  0  0  0  0  0  0  0  0
  1  2  1  0  0  0  0
  1 25  1  0  0  0  0
  1 26  1  0  0  0  0
  1 27  1  0  0  0  0
  2  3  1  0  0  0  0
  3 24  1  0  0  0  0
  3  4  2  0  0  0  0
  4  5  1  0  0  0  0
  4 28  1  0  0  0  0
  5  6  2  0  0  0  0
  5 29  1  0  0  0  0
  6  7  1  0  0  0  0
  6  9  1  0  0  0  0
  7  8  1  0  0  0  0
  8 30  1  0  0  0  0
  8 31  1  0  0  0  0
  8 32  1  0  0  0  0
  9 10  1  0  0  0  0
  9 24  2  0  0  0  0
 10 11  1  0  0  0  0
 10 12  1  0  0  0  0
 10 33  1  0  0  0  0
 11 34  1  0  0  0  0
 12 13  1  0  0  0  0
 12 35  1  0  0  0  0
 12 36  1  0  0  0  0
 13 23  1  0  0  0  0
 13 14  1  0  0  0  0
 14 15  2  0  0  0  0
 14 16  1  0  0  0  0
 16 17  1  0  0  0  0
 16 18  1  0  0  0  0
 17 37  1  0  0  0  0
 17 38  1  0  0  0  0
 17 39  1  0  0  0  0
 18 23  2  0  0  0  0
 18 19  1  0  0  0  0
 19 20  2  0  0  0  0
 19 40  1  0  0  0  0
 20 21  1  0  0  0  0
 20 41  1  0  0  0  0
 21 22  2  0  0  0  0
 21 42  1  0  0  0  0
 22 23  1  0  0  0  0
 22 43  1  0  0  0  0
 24 44  1  0  0  0  0
M  END
> <s_m_source_file>
AV-unprocessed.smi

> <i_m_source_file_index>
1668

> <i_lp_mmshare_version>
43012

> <i_f3d_flags>
0

> <s_epik_input>
W0NIM11PYzFbY0hdW2NIXWMoT1tDSDNdKWMoW2NIXTEpW0NASF0oW09IXSlbQ0gyXW4oYyg9TyluMltDSDNdKWMoYzIzKVtjSF1bY0hdW2NIXVtjSF0z

> <s_epik_cmdline>
J2VwaWtfcHl0aG9uJywgJy1waCcsICc3LjAnLCAnLXRuJywgJzgnLCAnLW1hJywgJzIwMCcsICctbWV0YWxfYmluZGluZycsICctaW1hZScsICc8aW5maWxlLm1hZT4nLCAnLW9tYWUnLCAnPG91dGZpbGUubWFlPic=

> <r_lp_tautomer_probability>
1

> <r_epik_Ionization_Penalty>
1.34538e-06

> <r_epik_Ionization_Penalty_Charging>
1.76928e-09

> <r_epik_Ionization_Penalty_Neutral>
1.34362e-06

> <r_epik_State_Penalty>
-0

> <r_epik_Charging_Adjusted_Penalty>
1.76928e-09

> <i_epik_Tot_Q>
0

> <i_epik_Tot_abs_Q>
0

> <r_epik_Metal_State_Penalty>
-0

> <b_epik_Metal_Only>
0

> <s_lp_Force_Field>
OPLS_2005

> <r_lp_Energy>
46.5536

> <b_lp_Chiralities_Consistent>
1

> <s_lp_Variant>
AV-unprocessed.smi:1668-1

> <Gold.Version>
5.8.1

> <Gold.Id.Protein>
6NUR|6NUR_protein|mol2

> <Gold.PLP.Fitness>
48.4502

> <Gold.PLP.PLP>
-43.2432

> <Gold.PLP.part.hbond>
-2.0665

> <Gold.PLP.part.metal>
0.0000

> <Gold.PLP.part.buried>
-6.8065

> <Gold.PLP.part.nonpolar>
-34.0334

> <Gold.PLP.part.repulsive>
0.1049

> <Gold.PLP.ligand.clash>
0.0000

> <Gold.PLP.ligand.torsion>
0.4199

> <Gold.PLP.Chemscore.Hbond>
1.9913

> <Gold.PLP.Chemscore.CHOScore>
0.0000

> <Gold.PLP.Chemscore.Metal>
0.0000

> <Gold.Chemscore.Hbonds>
donor molecule, donor type, donor heavy atom, donor atom, acceptor molecule, acceptor atom, score
      L1  H    11    34       P1  8028  1.00
      P1  H  7997  8010       L1    15  0.91

> <Gold.PLP.Chemscore.Internal.Correction>
0.0732

> <Gold.Rescore>
     Score         DG    S(hbond)    S(metal)    S(lipo)     H(rot)  DE(clash)    DE(int)     intcor
     17.94     -18.41       1.93        0.00     104.55       2.24       0.02       0.45       ----

> <Gold.Chemscore.Fitness>
17.9393

> <Gold.Chemscore.DG>
-18.4119

> <Gold.Chemscore.ZeroCoef>
-5.4800

> <Gold.Chemscore.Hbond>
1.9300

> <Gold.Chemscore.Metal>
0.0000

> <Gold.Chemscore.Lipo>
104.5498

> <Gold.Chemscore.Internal_Hbond>
0.0000

> <Gold.Chemscore.DEClash>
0.0226

> <Gold.Chemscore.DEInternal>
0.4501

> <Gold.Chemscore.Rot>
2.2448

> <Gold.Chemscore.Internal.Correction>
   9.000000E+99

> <Gold.Chemscore.Hbonds>
donor molecule, donor type, donor heavy atom, donor atom, acceptor molecule, acceptor atom, score
      L1  H    11    34       P1  8028  0.99
      P1  H  7997  8010       L1    15  0.48

> <Gold.Chemscore.Hbond.Weighted>
-6.4463

> <Gold.Chemscore.Metal.Weighted>
-0.0000

> <Gold.Chemscore.Lipo.Weighted>
-12.2323

> <Gold.Chemscore.Internal_Hbond.Weighted>
0.0000

> <Gold.Chemscore.DEClash.Weighted>
0.0226

> <Gold.Chemscore.DEInternal.Weighted>
0.4501

> <Gold.Chemscore.Rot.Weighted>
5.7467

> <Gold.Chemscore.Internal.Correction.Weighted>
   9.000000E+99

> <Gold.Protein.RotatedTorsions>
[ 6907 6896 6895 6894 ] final   32.57 input  -60.11 | X-H torsion
[ 7974 7965 7964 7962 ] final   16.71 input  175.53 | X-H torsion
[ 8008 7997 7996 7995 ] final   37.78 input   59.86 | X-H torsion
[ 10167 10162 10161 10158 ] final -150.69 input  -65.29 | X-H torsion
[ 10718 10713 10712 10709 ] final   47.64 input   66.30 | X-H torsion
[ 10763 10752 10751 10750 ] final  -33.98 input  -60.55 | X-H torsion
[ 11005 11000 10999 10996 ] final -165.45 input  -57.11 | X-H torsion

> <Gold.Protein.ActiveResidues>
 VAL166  LYS551  ARG553  GLY616  TRP617  ASP618  TYR619  PRO620  LYS621  CYS622 
 ASP623  PHE694  ASN695  SER759  ASP760  ASP761  ALA762  ILE779  LEU786  VAL792 
 PHE793  MET794  SER795  GLU796  ALA797  LYS798  CYS799  TRP800  GLU811  SER814 

> <Gold.Protein.RotatedAtoms>
  152.0764  134.9500  160.0573 H   0  0  0  0  0  0  0  0  0  0  0  0  # atno 6907 bound_to 6896
  152.0806  133.4146  159.4507 H   0  0  0  0  0  0  0  0  0  0  0  0  # atno 6908 bound_to 6896
  150.6836  134.2906  159.4708 H   0  0  0  0  0  0  0  0  0  0  0  0  # atno 6909 bound_to 6896
  146.2241  139.8707  142.8588 H   0  0  0  0  0  0  0  0  0  0  0  0  # atno 7974 bound_to 7965
  155.2094  140.3322  155.4331 H   0  0  0  0  0  0  0  0  0  0  0  0  # atno 8008 bound_to 7997
  156.2376  140.1880  156.7125 H   0  0  0  0  0  0  0  0  0  0  0  0  # atno 8009 bound_to 7997
  154.6088  140.0612  156.9452 H   0  0  0  0  0  0  0  0  0  0  0  0  # atno 8010 bound_to 7997
  139.7333  143.8775  152.2541 H   0  0  0  0  0  0  0  0  0  0  0  0  # atno 10167 bound_to 10162
  157.4605  130.8194  149.7882 H   0  0  0  0  0  0  0  0  0  0  0  0  # atno 10718 bound_to 10713
  153.8392  135.6859  153.4805 H   0  0  0  0  0  0  0  0  0  0  0  0  # atno 10763 bound_to 10752
  153.1464  135.4636  154.9570 H   0  0  0  0  0  0  0  0  0  0  0  0  # atno 10764 bound_to 10752
  154.7852  135.3282  154.7847 H   0  0  0  0  0  0  0  0  0  0  0  0  # atno 10765 bound_to 10752
  140.5755  134.5194  157.5169 H   0  0  0  0  0  0  0  0  0  0  0  0  # atno 11005 bound_to 11000
  145.2611  141.0077  143.3826 LP  0  0  0  0  0  0  0  0  0  0  0  0  # atno 17320 bound_to 7965
  144.9298  139.4312  143.6500 LP  0  0  0  0  0  0  0  0  0  0  0  0  # atno 17321 bound_to 7965
  139.8704  144.7071  150.8994 LP  0  0  0  0  0  0  0  0  0  0  0  0  # atno 17342 bound_to 10162
  140.7775  143.3743  151.1592 LP  0  0  0  0  0  0  0  0  0  0  0  0  # atno 17343 bound_to 10162
  156.0027  130.3872  150.2546 LP  0  0  0  0  0  0  0  0  0  0  0  0  # atno 17370 bound_to 10713
  157.0724  131.0120  151.3185 LP  0  0  0  0  0  0  0  0  0  0  0  0  # atno 17371 bound_to 10713
  139.9341  134.7907  156.0849 LP  0  0  0  0  0  0  0  0  0  0  0  0  # atno 17394 bound_to 11000
  141.1029  133.6670  156.2796 LP  0  0  0  0  0  0  0  0  0  0  0  0  # atno 17395 bound_to 11000

$$$$
