AV-unprocessed.smi:1292|AV-procd|sdf|5396|dock7
  -GOLD-   22720 4553D 1   1.00000     0.00000
 Structure written by MMmdl.
 40 41  0  0  0  0  0  0  0  0  1 V2000
  151.8134  144.5066  158.2805 C   0  0  0  0  0  0  0  0  0  0  0  0
  152.2318  143.0300  158.2966 C   0  0  1  0  0  0  0  0  0  0  0  0
  152.7942  142.6202  159.6668 C   0  0  0  0  0  0  0  0  0  0  0  0
  153.2241  141.1481  159.6481 C   0  0  0  0  0  0  0  0  0  0  0  0
  152.0843  140.2224  159.1885 C   0  0  0  0  0  0  0  0  0  0  0  0
  151.4540  140.6901  157.9363 N   0  0  0  0  0  0  0  0  0  0  0  0
  151.6037  139.8033  156.4472 S   0  0  0  0  0  0  0  0  0  0  0  0
  151.0883  140.6183  155.3362 O   0  0  0  0  0  0  0  0  0  0  0  0
  152.9559  139.2267  156.4031 O   0  0  0  0  0  0  0  0  0  0  0  0
  150.5046  138.5057  156.7454 N   0  0  0  0  0  0  0  0  0  0  0  0
  150.6139  137.2101  156.0727 C   0  0  0  0  0  0  0  0  0  0  0  0
  150.4817  136.0616  157.0848 C   0  0  0  0  0  0  0  0  0  0  0  0
  150.2860  134.7116  156.4164 C   0  0  0  0  0  0  0  0  0  0  0  0
  149.9181  134.6258  155.0564 C   0  0  0  0  0  0  0  0  0  0  0  0
  149.7751  133.3494  154.4791 C   0  0  0  0  0  0  0  0  0  0  0  0
  150.0042  132.2136  155.2794 C   0  0  0  0  0  0  0  0  0  0  0  0
  150.3656  132.4057  156.6277 C   0  0  0  0  0  0  0  0  0  0  0  0
  150.5056  133.6251  157.1911 N   0  0  0  0  0  0  0  0  0  0  0  0
  151.0572  142.1104  157.9105 C   0  0  0  0  0  0  0  0  0  0  0  0
  151.0221  144.7028  159.0045 H   0  0  0  0  0  0  0  0  0  0  0  0
  151.4453  144.7987  157.2966 H   0  0  0  0  0  0  0  0  0  0  0  0
  152.6554  145.1556  158.5226 H   0  0  0  0  0  0  0  0  0  0  0  0
  153.0198  142.9102  157.5529 H   0  0  0  0  0  0  0  0  0  0  0  0
  153.6455  143.2485  159.9309 H   0  0  0  0  0  0  0  0  0  0  0  0
  152.0403  142.7735  160.4402 H   0  0  0  0  0  0  0  0  0  0  0  0
  154.0900  141.0234  159.0026 H   0  0  0  0  0  0  0  0  0  0  0  0
  153.5543  140.8510  160.6436 H   0  0  0  0  0  0  0  0  0  0  0  0
  152.4500  139.2024  159.0772 H   0  0  0  0  0  0  0  0  0  0  0  0
  151.3151  140.1889  159.9606 H   0  0  0  0  0  0  0  0  0  0  0  0
  149.5567  138.7984  156.9811 H   0  0  0  0  0  0  0  0  0  0  0  0
  149.8320  137.1280  155.3209 H   0  0  0  0  0  0  0  0  0  0  0  0
  151.5727  137.1431  155.5588 H   0  0  0  0  0  0  0  0  0  0  0  0
  151.3774  136.0173  157.7058 H   0  0  0  0  0  0  0  0  0  0  0  0
  149.6518  136.2565  157.7655 H   0  0  0  0  0  0  0  0  0  0  0  0
  149.7570  135.5163  154.4665 H   0  0  0  0  0  0  0  0  0  0  0  0
  149.4982  133.2440  153.4405 H   0  0  0  0  0  0  0  0  0  0  0  0
  149.9064  131.2193  154.8694 H   0  0  0  0  0  0  0  0  0  0  0  0
  150.5496  131.5574  157.2700 H   0  0  0  0  0  0  0  0  0  0  0  0
  150.2272  142.2504  158.6040 H   0  0  0  0  0  0  0  0  0  0  0  0
  150.6817  142.3719  156.9209 H   0  0  0  0  0  0  0  0  0  0  0  0
  1  2  1  0  0  0  0
  1 20  1  0  0  0  0
  1 21  1  0  0  0  0
  1 22  1  0  0  0  0
  2 19  1  0  0  0  0
  2  3  1  0  0  0  0
  2 23  1  0  0  0  0
  3  4  1  0  0  0  0
  3 24  1  0  0  0  0
  3 25  1  0  0  0  0
  4  5  1  0  0  0  0
  4 26  1  0  0  0  0
  4 27  1  0  0  0  0
  5  6  1  0  0  0  0
  5 28  1  0  0  0  0
  5 29  1  0  0  0  0
  6  7  1  0  0  0  0
  6 19  1  0  0  0  0
  7  8  2  0  0  0  0
  7  9  2  0  0  0  0
  7 10  1  0  0  0  0
 10 11  1  0  0  0  0
 10 30  1  0  0  0  0
 11 12  1  0  0  0  0
 11 31  1  0  0  0  0
 11 32  1  0  0  0  0
 12 13  1  0  0  0  0
 12 33  1  0  0  0  0
 12 34  1  0  0  0  0
 13 18  1  0  0  0  0
 13 14  2  0  0  0  0
 14 15  1  0  0  0  0
 14 35  1  0  0  0  0
 15 16  2  0  0  0  0
 15 36  1  0  0  0  0
 16 17  1  0  0  0  0
 16 37  1  0  0  0  0
 17 18  2  0  0  0  0
 17 38  1  0  0  0  0
 19 39  1  0  0  0  0
 19 40  1  0  0  0  0
M  END
> <s_m_source_file>
AV-unprocessed.smi

> <i_m_source_file_index>
1292

> <i_lp_mmshare_version>
43012

> <i_f3d_flags>
0

> <s_epik_input>
W0NIM11bQ0BASF0xW0NIMl1bQ0gyXVtDSDJdTihbQ0gyXTEpUyg9TykoPU8pW05IXVtDSDJdW0NIMl1jMltjSF1bY0hdW2NIXVtjSF1uMg==

> <s_epik_cmdline>
J2VwaWtfcHl0aG9uJywgJy1waCcsICc3LjAnLCAnLXRuJywgJzgnLCAnLW1hJywgJzIwMCcsICctbWV0YWxfYmluZGluZycsICctaW1hZScsICc8aW5maWxlLm1hZT4nLCAnLW9tYWUnLCAnPG91dGZpbGUubWFlPic=

> <r_epik_Ionization_Penalty>
0.0252758

> <r_epik_Ionization_Penalty_Charging>
0

> <r_epik_Ionization_Penalty_Neutral>
0.0252758

> <r_epik_State_Penalty>
0.0138562

> <r_epik_Charging_Adjusted_Penalty>
0.0138562

> <i_epik_Tot_Q>
0

> <i_epik_Tot_abs_Q>
0

> <r_epik_Metal_State_Penalty>
0.204365

> <b_epik_Metal_Only>
0

> <s_lp_Force_Field>
OPLS_2005

> <r_lp_Energy>
8.19125

> <b_lp_Chiralities_Consistent>
1

> <s_lp_Variant>
AV-unprocessed.smi:1292-2

> <Gold.Version>
5.8.1

> <Gold.Id.Protein>
6NUR|6NUR_protein|mol2

> <Gold.PLP.Fitness>
44.1063

> <Gold.PLP.PLP>
-36.8142

> <Gold.PLP.part.hbond>
-3.0000

> <Gold.PLP.part.metal>
0.0000

> <Gold.PLP.part.buried>
-5.2347

> <Gold.PLP.part.nonpolar>
-29.1308

> <Gold.PLP.part.repulsive>
0.0413

> <Gold.PLP.ligand.clash>
0.0000

> <Gold.PLP.ligand.torsion>
1.9567

> <Gold.PLP.Chemscore.Hbond>
2.7366

> <Gold.PLP.Chemscore.CHOScore>
0.0000

> <Gold.PLP.Chemscore.Metal>
0.0000

> <Gold.Chemscore.Hbonds>
donor molecule, donor type, donor heavy atom, donor atom, acceptor molecule, acceptor atom, score
      P1  H  6896  6908       L1    18  0.77
      P1  H  7989  7998       L1     8  0.88
      P1  H  7997  8010       L1     9  1.00

> <Gold.PLP.Chemscore.Internal.Correction>
2.9957

> <Gold.Rescore>
     Score         DG    S(hbond)    S(metal)    S(lipo)     H(rot)  DE(clash)    DE(int)     intcor
     19.82     -21.74       2.69        0.00      90.72       1.30       0.07       1.85       ----

> <Gold.Chemscore.Fitness>
19.8239

> <Gold.Chemscore.DG>
-21.7445

> <Gold.Chemscore.ZeroCoef>
-5.4800

> <Gold.Chemscore.Hbond>
2.6911

> <Gold.Chemscore.Metal>
0.0000

> <Gold.Chemscore.Lipo>
90.7208

> <Gold.Chemscore.Internal_Hbond>
0.0000

> <Gold.Chemscore.DEClash>
0.0706

> <Gold.Chemscore.DEInternal>
1.8501

> <Gold.Chemscore.Rot>
1.3039

> <Gold.Chemscore.Internal.Correction>
   9.000000E+99

> <Gold.Chemscore.Hbonds>
donor molecule, donor type, donor heavy atom, donor atom, acceptor molecule, acceptor atom, score
      P1  H  6896  6908       L1    18  0.69
      P1  H  7989  7998       L1     8  0.86
      P1  H  7997  8010       L1     9  0.99

> <Gold.Chemscore.Hbond.Weighted>
-8.9881

> <Gold.Chemscore.Metal.Weighted>
-0.0000

> <Gold.Chemscore.Lipo.Weighted>
-10.6143

> <Gold.Chemscore.Internal_Hbond.Weighted>
0.0000

> <Gold.Chemscore.DEClash.Weighted>
0.0706

> <Gold.Chemscore.DEInternal.Weighted>
1.8501

> <Gold.Chemscore.Rot.Weighted>
3.3379

> <Gold.Chemscore.Internal.Correction.Weighted>
   9.000000E+99

> <Gold.Protein.RotatedTorsions>
[ 6907 6896 6895 6894 ] final  108.91 input  -60.11 | X-H torsion
[ 7974 7965 7964 7962 ] final   77.44 input  175.53 | X-H torsion
[ 8008 7997 7996 7995 ] final   73.77 input   59.86 | X-H torsion
[ 10167 10162 10161 10158 ] final -179.60 input  -65.29 | X-H torsion
[ 10718 10713 10712 10709 ] final   44.82 input   66.30 | X-H torsion
[ 10763 10752 10751 10750 ] final   52.58 input  -60.55 | X-H torsion
[ 11005 11000 10999 10996 ] final  -77.69 input  -57.11 | X-H torsion

> <Gold.Protein.ActiveResidues>
 VAL166  LYS551  ARG553  GLY616  TRP617  ASP618  TYR619  PRO620  LYS621  CYS622 
 ASP623  PHE694  ASN695  SER759  ASP760  ASP761  ALA762  ILE779  LEU786  VAL792 
 PHE793  MET794  SER795  GLU796  ALA797  LYS798  CYS799  TRP800  GLU811  SER814 

> <Gold.Protein.RotatedAtoms>
  152.5091  133.9020  159.7445 H   0  0  0  0  0  0  0  0  0  0  0  0  # atno 6907 bound_to 6896
  150.9434  133.6622  159.2793 H   0  0  0  0  0  0  0  0  0  0  0  0  # atno 6908 bound_to 6896
  151.3926  135.0963  159.9583 H   0  0  0  0  0  0  0  0  0  0  0  0  # atno 6909 bound_to 6896
  145.6900  139.2549  143.1765 H   0  0  0  0  0  0  0  0  0  0  0  0  # atno 7974 bound_to 7965
  155.7886  140.3480  155.5336 H   0  0  0  0  0  0  0  0  0  0  0  0  # atno 8008 bound_to 7997
  155.8657  140.0978  157.1604 H   0  0  0  0  0  0  0  0  0  0  0  0  # atno 8009 bound_to 7997
  154.4014  140.1350  156.4003 H   0  0  0  0  0  0  0  0  0  0  0  0  # atno 8010 bound_to 7997
  139.5379  144.2446  152.0833 H   0  0  0  0  0  0  0  0  0  0  0  0  # atno 10167 bound_to 10162
  157.4310  130.8024  149.7603 H   0  0  0  0  0  0  0  0  0  0  0  0  # atno 10718 bound_to 10713
  152.9790  135.5807  154.4602 H   0  0  0  0  0  0  0  0  0  0  0  0  # atno 10763 bound_to 10752
  154.4179  135.2771  155.1997 H   0  0  0  0  0  0  0  0  0  0  0  0  # atno 10764 bound_to 10752
  154.3758  135.6157  153.5818 H   0  0  0  0  0  0  0  0  0  0  0  0  # atno 10765 bound_to 10752
  141.1661  133.7032  156.7858 H   0  0  0  0  0  0  0  0  0  0  0  0  # atno 11005 bound_to 11000
  146.0890  140.7678  142.9604 LP  0  0  0  0  0  0  0  0  0  0  0  0  # atno 17320 bound_to 7965
  144.6999  140.3607  143.7164 LP  0  0  0  0  0  0  0  0  0  0  0  0  # atno 17321 bound_to 7965
  140.1919  144.4743  150.6474 LP  0  0  0  0  0  0  0  0  0  0  0  0  # atno 17342 bound_to 10162
  140.6594  143.2247  151.5891 LP  0  0  0  0  0  0  0  0  0  0  0  0  # atno 17343 bound_to 10162
  155.9913  130.3938  150.2990 LP  0  0  0  0  0  0  0  0  0  0  0  0  # atno 17370 bound_to 10713
  157.1147  131.0231  151.3034 LP  0  0  0  0  0  0  0  0  0  0  0  0  # atno 17371 bound_to 10713
  140.2361  134.8649  157.3526 LP  0  0  0  0  0  0  0  0  0  0  0  0  # atno 17394 bound_to 11000
  140.1842  134.4452  155.7754 LP  0  0  0  0  0  0  0  0  0  0  0  0  # atno 17395 bound_to 11000

$$$$
