AV-unprocessed.smi:193|AV-procd|sdf|1512|dock5
  -GOLD-   2262019343D 1   1.00000     0.00000
 Structure written by MMmdl.
 61 65  0  0  0  0  0  0  0  0  1 V2000
  149.5013  141.5101  154.8482 C   0  0  0  0  0  0  0  0  0  0  0  0
  150.5141  141.2245  155.9683 C   0  0  2  0  0  0  0  0  0  0  0  0
  150.2508  139.8198  156.5530 C   0  0  0  0  0  0  0  0  0  0  0  0
  151.3747  139.2543  157.3033 N   0  0  0  0  0  0  0  0  0  0  0  0
  151.6537  137.9355  157.1208 C   0  0  0  0  0  0  0  0  0  0  0  0
  152.7356  137.3954  157.7437 N   0  0  0  0  0  0  0  0  0  0  0  0
  153.0445  136.1069  157.5748 C   0  0  0  0  0  0  0  0  0  0  0  0
  152.4158  135.1887  156.8401 N   0  0  0  0  0  0  0  0  0  0  0  0
  151.3233  135.7161  156.2183 C   0  0  0  0  0  0  0  0  0  0  0  0
  150.8747  137.0657  156.3012 C   0  0  0  0  0  0  0  0  0  0  0  0
  149.7238  137.2229  155.5363 N   0  0  0  0  0  0  0  0  0  0  0  0
  149.5142  136.0425  155.0221 C   0  0  0  0  0  0  0  0  0  0  0  0
  150.4201  135.0735  155.3889 N   0  0  0  0  0  0  0  0  0  0  0  0
  150.4223  133.6800  154.9673 C   0  0  0  0  0  0  0  0  0  0  0  0
  149.1602  132.8826  155.3968 C   0  0  0  0  0  0  0  0  0  0  0  0
  148.8828  133.2127  156.7452 O   0  0  0  0  0  0  0  0  0  0  0  0
  147.9239  133.2804  154.5661 C   0  0  0  0  0  0  0  0  0  0  0  0
  147.9769  132.6852  153.1474 C   0  0  0  0  0  0  0  0  0  0  0  0
  148.1152  131.2701  153.2168 O   0  0  0  0  0  0  0  0  0  0  0  0
  149.3162  130.8578  153.8600 C   0  0  0  0  0  0  0  0  0  0  0  0
  149.3252  131.3495  155.3183 C   0  0  0  0  0  0  0  0  0  0  0  0
  152.3848  140.1109  157.9249 C   0  0  0  0  0  0  0  0  0  0  0  0
  151.7747  141.2700  158.7250 C   0  0  0  0  0  0  0  0  0  0  0  0
  151.6066  142.4478  157.8791 N   0  0  0  0  0  0  0  0  0  0  0  0
  151.4352  143.6085  158.7397 C   0  0  2  0  0  0  0  0  0  0  0  0
  152.4174  144.7470  158.5798 C   0  0  0  0  0  0  0  0  0  0  0  0
  152.4885  143.8577  159.7986 C   0  0  1  0  0  0  0  0  0  0  0  0
  152.1022  144.3900  161.1614 C   0  0  0  0  0  0  0  0  0  0  0  0
  150.4130  142.3296  157.0431 C   0  0  0  0  0  0  0  0  0  0  0  0
  148.4783  141.4933  155.2252 H   0  0  0  0  0  0  0  0  0  0  0  0
  149.5749  140.7698  154.0512 H   0  0  0  0  0  0  0  0  0  0  0  0
  149.6746  142.4882  154.3985 H   0  0  0  0  0  0  0  0  0  0  0  0
  151.5024  141.2505  155.5063 H   0  0  0  0  0  0  0  0  0  0  0  0
  149.3661  139.8337  157.1901 H   0  0  0  0  0  0  0  0  0  0  0  0
  150.0188  139.1531  155.7215 H   0  0  0  0  0  0  0  0  0  0  0  0
  153.9216  135.7634  158.1034 H   0  0  0  0  0  0  0  0  0  0  0  0
  148.6831  135.8434  154.3610 H   0  0  0  0  0  0  0  0  0  0  0  0
  150.5231  133.6604  153.8812 H   0  0  0  0  0  0  0  0  0  0  0  0
  151.3269  133.2130  155.3559 H   0  0  0  0  0  0  0  0  0  0  0  0
  148.0004  132.9394  156.9445 H   0  0  0  0  0  0  0  0  0  0  0  0
  147.0200  132.9137  155.0554 H   0  0  0  0  0  0  0  0  0  0  0  0
  147.8245  134.3654  154.5170 H   0  0  0  0  0  0  0  0  0  0  0  0
  147.0562  132.9187  152.6126 H   0  0  0  0  0  0  0  0  0  0  0  0
  148.7933  133.1140  152.5653 H   0  0  0  0  0  0  0  0  0  0  0  0
  149.3707  129.7695  153.8346 H   0  0  0  0  0  0  0  0  0  0  0  0
  150.1802  131.2277  153.3080 H   0  0  0  0  0  0  0  0  0  0  0  0
  150.2309  131.0186  155.8263 H   0  0  0  0  0  0  0  0  0  0  0  0
  148.4979  130.8675  155.8417 H   0  0  0  0  0  0  0  0  0  0  0  0
  152.9636  139.5113  158.6287 H   0  0  0  0  0  0  0  0  0  0  0  0
  153.0920  140.4709  157.1764 H   0  0  0  0  0  0  0  0  0  0  0  0
  150.8485  140.9860  159.2275 H   0  0  0  0  0  0  0  0  0  0  0  0
  152.4867  141.5237  159.5117 H   0  0  0  0  0  0  0  0  0  0  0  0
  150.4231  143.9071  159.0086 H   0  0  0  0  0  0  0  0  0  0  0  0
  153.2061  144.6412  157.8372 H   0  0  0  0  0  0  0  0  0  0  0  0
  152.0343  145.7572  158.7088 H   0  0  0  0  0  0  0  0  0  0  0  0
  153.3214  143.1573  159.8260 H   0  0  0  0  0  0  0  0  0  0  0  0
  151.2678  145.0874  161.0832 H   0  0  0  0  0  0  0  0  0  0  0  0
  152.9477  144.9080  161.6141 H   0  0  0  0  0  0  0  0  0  0  0  0
  151.8078  143.5675  161.8134 H   0  0  0  0  0  0  0  0  0  0  0  0
  150.2794  143.2864  156.5362 H   0  0  0  0  0  0  0  0  0  0  0  0
  149.5245  142.1857  157.6601 H   0  0  0  0  0  0  0  0  0  0  0  0
  1  2  1  0  0  0  0
  1 30  1  0  0  0  0
  1 31  1  0  0  0  0
  1 32  1  0  0  0  0
  2 29  1  0  0  0  0
  2  3  1  0  0  0  0
  2 33  1  0  0  0  0
  3  4  1  0  0  0  0
  3 34  1  0  0  0  0
  3 35  1  0  0  0  0
  4  5  1  0  0  0  0
  4 22  1  0  0  0  0
  5 10  1  0  0  0  0
  5  6  2  0  0  0  0
  6  7  1  0  0  0  0
  7  8  2  0  0  0  0
  7 36  1  0  0  0  0
  8  9  1  0  0  0  0
  9 13  1  0  0  0  0
  9 10  2  0  0  0  0
 10 11  1  0  0  0  0
 11 12  2  0  0  0  0
 12 13  1  0  0  0  0
 12 37  1  0  0  0  0
 13 14  1  0  0  0  0
 14 15  1  0  0  0  0
 14 38  1  0  0  0  0
 14 39  1  0  0  0  0
 15 21  1  0  0  0  0
 15 16  1  0  0  0  0
 15 17  1  0  0  0  0
 16 40  1  0  0  0  0
 17 18  1  0  0  0  0
 17 41  1  0  0  0  0
 17 42  1  0  0  0  0
 18 19  1  0  0  0  0
 18 43  1  0  0  0  0
 18 44  1  0  0  0  0
 19 20  1  0  0  0  0
 20 21  1  0  0  0  0
 20 45  1  0  0  0  0
 20 46  1  0  0  0  0
 21 47  1  0  0  0  0
 21 48  1  0  0  0  0
 22 23  1  0  0  0  0
 22 49  1  0  0  0  0
 22 50  1  0  0  0  0
 23 24  1  0  0  0  0
 23 51  1  0  0  0  0
 23 52  1  0  0  0  0
 24 25  1  0  0  0  0
 24 29  1  0  0  0  0
 25 27  1  0  0  0  0
 25 26  1  0  0  0  0
 25 53  1  0  0  0  0
 26 27  1  0  0  0  0
 26 54  1  0  0  0  0
 26 55  1  0  0  0  0
 27 28  1  0  0  0  0
 27 56  1  0  0  0  0
 28 57  1  0  0  0  0
 28 58  1  0  0  0  0
 28 59  1  0  0  0  0
 29 60  1  0  0  0  0
 29 61  1  0  0  0  0
M  END
> <s_m_source_file>
AV-unprocessed.smi

> <i_m_source_file_index>
193

> <i_lp_mmshare_version>
43012

> <i_f3d_flags>
0

> <s_epik_input>
W0NIM11bQ0BASF0xW0NIMl1bQ0BIXTFOKFtDSDJdMilbQ0gyXVtDSDJdTihbQ0gyXVtDQEhdMltDSDNdKWMobltjSF1uMyljKGMzNCluW2NIXW40W0NIMl1DNShbT0hdKVtDSDJdW0NIMl1PW0NIMl1bQ0gyXTU=

> <s_epik_cmdline>
J2VwaWtfcHl0aG9uJywgJy1waCcsICc3LjAnLCAnLXRuJywgJzgnLCAnLW1hJywgJzIwMCcsICctbWV0YWxfYmluZGluZycsICctaW1hZScsICc8aW5maWxlLm1hZT4nLCAnLW9tYWUnLCAnPG91dGZpbGUubWFlPic=

> <r_lp_tautomer_probability>
1

> <r_epik_Ionization_Penalty>
1.45227

> <r_epik_Ionization_Penalty_Charging>
0

> <r_epik_Ionization_Penalty_Neutral>
1.45227

> <r_epik_State_Penalty>
2.02377

> <r_epik_Charging_Adjusted_Penalty>
2.02377

> <i_epik_Tot_Q>
0

> <i_epik_Tot_abs_Q>
0

> <r_epik_Metal_State_Penalty>
2.01937

> <b_epik_Metal_Only>
0

> <s_lp_Force_Field>
OPLS_2005

> <r_lp_Energy>
48.8748

> <b_lp_Chiralities_Consistent>
1

> <s_lp_Variant>
AV-unprocessed.smi:193-17

> <Gold.Version>
5.8.1

> <Gold.Id.Protein>
6NUR|6NUR_protein|mol2

> <Gold.PLP.Fitness>
47.6330

> <Gold.PLP.PLP>
-44.2071

> <Gold.PLP.part.hbond>
-1.0000

> <Gold.PLP.part.metal>
0.0000

> <Gold.PLP.part.buried>
-2.8991

> <Gold.PLP.part.nonpolar>
-40.1126

> <Gold.PLP.part.repulsive>
0.5913

> <Gold.PLP.ligand.clash>
0.0000

> <Gold.PLP.ligand.torsion>
0.9779

> <Gold.PLP.Chemscore.Hbond>
0.6000

> <Gold.PLP.Chemscore.CHOScore>
0.7743

> <Gold.PLP.Chemscore.Metal>
0.0000

> <Gold.Chemscore.Hbonds>
donor molecule, donor type, donor heavy atom, donor atom, acceptor molecule, acceptor atom, score
      P1  H 10752 10765       L1     8  0.56
      L1  C    12    37       P1  7948  0.78

> <Gold.PLP.Chemscore.Internal.Correction>
1.2587

> <Gold.Rescore>
     Score         DG    S(hbond)    S(metal)    S(lipo)     H(rot)  DE(clash)    DE(int)     intcor
     12.51     -14.77       0.00        0.00     121.11       1.91       0.06       2.19       ----

> <Gold.Chemscore.Fitness>
12.5144

> <Gold.Chemscore.DG>
-14.7712

> <Gold.Chemscore.ZeroCoef>
-5.4800

> <Gold.Chemscore.Hbond>
0.0007

> <Gold.Chemscore.Metal>
0.0000

> <Gold.Chemscore.Lipo>
121.1123

> <Gold.Chemscore.Internal_Hbond>
0.0000

> <Gold.Chemscore.DEClash>
0.0645

> <Gold.Chemscore.DEInternal>
2.1924

> <Gold.Chemscore.Rot>
1.9068

> <Gold.Chemscore.Internal.Correction>
   9.000000E+99

> <Gold.Chemscore.Hbonds>
donor molecule, donor type, donor heavy atom, donor atom, acceptor molecule, acceptor atom, score
      P1  H 10752 10765       L1     8  0.01

> <Gold.Chemscore.Hbond.Weighted>
-0.0025

> <Gold.Chemscore.Metal.Weighted>
-0.0000

> <Gold.Chemscore.Lipo.Weighted>
-14.1701

> <Gold.Chemscore.Internal_Hbond.Weighted>
0.0000

> <Gold.Chemscore.DEClash.Weighted>
0.0645

> <Gold.Chemscore.DEInternal.Weighted>
2.1924

> <Gold.Chemscore.Rot.Weighted>
4.8814

> <Gold.Chemscore.Internal.Correction.Weighted>
   9.000000E+99

> <Gold.Protein.RotatedTorsions>
[ 6907 6896 6895 6894 ] final  158.38 input  -60.11 | X-H torsion
[ 7974 7965 7964 7962 ] final  117.72 input  175.53 | X-H torsion
[ 8008 7997 7996 7995 ] final   75.27 input   59.86 | X-H torsion
[ 10167 10162 10161 10158 ] final -172.96 input  -65.29 | X-H torsion
[ 10718 10713 10712 10709 ] final -121.08 input   66.30 | X-H torsion
[ 10763 10752 10751 10750 ] final -121.74 input  -60.55 | X-H torsion
[ 11005 11000 10999 10996 ] final -170.78 input  -57.11 | X-H torsion

> <Gold.Protein.ActiveResidues>
 VAL166  LYS551  ARG553  GLY616  TRP617  ASP618  TYR619  PRO620  LYS621  CYS622 
 ASP623  PHE694  ASN695  SER759  ASP760  ASP761  ALA762  ILE779  LEU786  VAL792 
 PHE793  MET794  SER795  GLU796  ALA797  LYS798  CYS799  TRP800  GLU811  SER814 

> <Gold.Protein.RotatedAtoms>
  152.0012  133.3826  159.4182 H   0  0  0  0  0  0  0  0  0  0  0  0  # atno 6907 bound_to 6896
  150.6910  134.3831  159.5052 H   0  0  0  0  0  0  0  0  0  0  0  0  # atno 6908 bound_to 6896
  152.1579  134.8936  160.0594 H   0  0  0  0  0  0  0  0  0  0  0  0  # atno 6909 bound_to 6896
  145.1639  139.3139  143.4503 H   0  0  0  0  0  0  0  0  0  0  0  0  # atno 7974 bound_to 7965
  155.8105  140.3473  155.5455 H   0  0  0  0  0  0  0  0  0  0  0  0  # atno 8008 bound_to 7997
  155.8445  140.0946  157.1734 H   0  0  0  0  0  0  0  0  0  0  0  0  # atno 8009 bound_to 7997
  154.4006  140.1388  156.3757 H   0  0  0  0  0  0  0  0  0  0  0  0  # atno 8010 bound_to 7997
  139.5715  144.1631  152.1390 H   0  0  0  0  0  0  0  0  0  0  0  0  # atno 10167 bound_to 10162
  156.1308  130.6394  150.9618 H   0  0  0  0  0  0  0  0  0  0  0  0  # atno 10718 bound_to 10713
  154.8675  135.4157  154.2669 H   0  0  0  0  0  0  0  0  0  0  0  0  # atno 10763 bound_to 10752
  153.3587  135.7002  153.6735 H   0  0  0  0  0  0  0  0  0  0  0  0  # atno 10764 bound_to 10752
  153.5645  135.3603  155.2785 H   0  0  0  0  0  0  0  0  0  0  0  0  # atno 10765 bound_to 10752
  140.5156  134.5759  157.5032 H   0  0  0  0  0  0  0  0  0  0  0  0  # atno 11005 bound_to 11000
  146.3478  140.1759  142.8589 LP  0  0  0  0  0  0  0  0  0  0  0  0  # atno 17320 bound_to 7965
  145.0303  140.8865  143.5114 LP  0  0  0  0  0  0  0  0  0  0  0  0  # atno 17321 bound_to 7965
  140.1165  144.5411  150.6890 LP  0  0  0  0  0  0  0  0  0  0  0  0  # atno 17342 bound_to 10162
  140.6999  143.2428  151.4895 LP  0  0  0  0  0  0  0  0  0  0  0  0  # atno 17343 bound_to 10162
  157.6486  131.0900  150.8099 LP  0  0  0  0  0  0  0  0  0  0  0  0  # atno 17370 bound_to 10713
  156.8184  130.4976  149.5346 LP  0  0  0  0  0  0  0  0  0  0  0  0  # atno 17371 bound_to 10713
  139.9634  134.7414  156.0189 LP  0  0  0  0  0  0  0  0  0  0  0  0  # atno 17394 bound_to 11000
  141.1362  133.6574  156.3600 LP  0  0  0  0  0  0  0  0  0  0  0  0  # atno 17395 bound_to 11000

$$$$
