#       Name:                AV-unprocessed.smi:255
#       Creating user name   scv26
#       Creation time:       Thu Mar 26 21:09:17 2020


#       File generated by GOLD software.
#

@<TRIPOS>MOLECULE
AV-unprocessed.smi:255
    54    57     1
SMALL
NO_CHARGES


@<TRIPOS>ATOM
      1 ****        -2.6833  -2.3796   1.9337 O.3            1 S1                 0.0000
      2 ****        -3.6724  -1.3849   1.7728 C.3            1 S1                 0.0000
      3 ****        -3.2145  -0.0601   2.4118 C.3            1 S1                 0.0000
      4 ****        -4.3779   0.8343   2.8404 C.3            1 S1                 0.0000
      5 ****        -3.6917   2.1886   2.9753 C.3            1 S1                 0.0000
      6 ****        -4.5451   3.2070   2.8723 F              1 S1                 0.0000
      7 ****        -2.6469   2.1790   1.8553 C.3            1 S1                 0.0000
      8 ****        -2.4493   0.7777   1.4908 N.3            1 S1                 0.0000
      9 ****        -1.1649   0.4018   1.3052 C.ar           1 S1                 0.0000
     10 ****        -0.2685   0.5041   2.3218 N.ar           1 S1                 0.0000
     11 ****         0.9961   0.1136   2.1355 C.ar           1 S1                 0.0000
     12 ****         1.5600  -0.3956   1.0374 N.ar           1 S1                 0.0000
     13 ****         0.6594  -0.4975   0.0175 C.ar           1 S1                 0.0000
     14 ****        -0.7131  -0.1277   0.0691 C.ar           1 S1                 0.0000
     15 ****        -1.3250  -0.3845  -1.1503 N.2            1 S1                 0.0000
     16 ****        -0.3647  -0.8746  -1.8864 C.2            1 S1                 0.0000
     17 ****         0.8630  -0.9681  -1.2683 N.pl3          1 S1                 0.0000
     18 ****         2.0963  -1.4735  -1.8531 C.3            1 S1                 0.0000
     19 ****         2.8256  -0.4449  -2.7516 C.3            1 S1                 0.0000
     20 ****         2.0063  -0.1529  -3.8695 O.3            1 S1                 0.0000
     21 ****         4.1782  -0.9601  -3.2482 C.3            1 S1                 0.0000
     22 ****         5.1861  -0.1427  -2.4495 C.3            1 S1                 0.0000
     23 ****         4.5464   1.1166  -2.3462 O.3            1 S1                 0.0000
     24 ****         3.1853   0.8680  -2.0259 C.3            1 S1                 0.0000
     25 ****        -2.6181  -0.2723   3.3016 H              1 S1                 0.0000
     26 ****        -3.2005   2.2650   3.9463 H              1 S1                 0.0000
     27 ****        -1.9023  -2.1028   1.4794 H              1 S1                 0.0000
     28 ****        -3.9219  -1.2597   0.7185 H              1 S1                 0.0000
     29 ****        -4.5707  -1.7479   2.2729 H              1 S1                 0.0000
     30 ****        -5.1373   0.8729   2.0574 H              1 S1                 0.0000
     31 ****        -4.8543   0.5037   3.7639 H              1 S1                 0.0000
     32 ****        -3.0304   2.6977   0.9761 H              1 S1                 0.0000
     33 ****        -1.7308   2.6870   2.1602 H              1 S1                 0.0000
     34 ****         1.6496   0.2238   2.9883 H              1 S1                 0.0000
     35 ****        -0.5250  -1.1794  -2.9104 H              1 S1                 0.0000
     36 ****         2.7535  -1.7929  -1.0432 H              1 S1                 0.0000
     37 ****         1.8588  -2.3726  -2.4235 H              1 S1                 0.0000
     38 ****         2.4533   0.4813  -4.4091 H              1 S1                 0.0000
     39 ****         4.3125  -2.0341  -3.1132 H              1 S1                 0.0000
     40 ****         4.3138  -0.7453  -4.3097 H              1 S1                 0.0000
     41 ****         5.3357  -0.5654  -1.4545 H              1 S1                 0.0000
     42 ****         6.1546  -0.0651  -2.9437 H              1 S1                 0.0000
     43 ****         2.5503   1.7102  -2.3034 H              1 S1                 0.0000
     44 ****         3.1221   0.7517  -0.9440 H              1 S1                 0.0000
     45 ****        -3.0084  -3.2437   1.5496 LP             1 S1                 0.0000
     46 ****        -2.4826  -2.5015   2.9058 LP             1 S1                 0.0000
     47 ****        -2.8119   0.6443   0.5685 LP             1 S1                 0.0000
     48 ****        -0.5545   0.8707   3.2071 LP             1 S1                 0.0000
     49 ****         2.5200  -0.6676   0.9710 LP             1 S1                 0.0000
     50 ****        -2.2794  -0.2300  -1.4055 LP             1 S1                 0.0000
     51 ****         1.1331   0.2231  -3.5593 LP             1 S1                 0.0000
     52 ****         1.8420  -0.9876  -4.3951 LP             1 S1                 0.0000
     53 ****         4.6104   1.6063  -3.2158 LP             1 S1                 0.0000
     54 ****         4.9748   1.6609  -1.6249 LP             1 S1                 0.0000
@<TRIPOS>BOND
    1    1    2 1     
    2    1   27 1     
    3    2    3 1     
    4    2   28 1     
    5    2   29 1     
    6    3   25 1     
    7    3    8 1     
    8    3    4 1     
    9    4    5 1     
   10    4   30 1     
   11    4   31 1     
   12    5   26 1     
   13    5    6 1     
   14    5    7 1     
   15    7    8 1     
   16    7   32 1     
   17    7   33 1     
   18    8    9 1     
   19    9   14 ar    
   20    9   10 ar    
   21   10   11 ar    
   22   11   12 ar    
   23   11   34 1     
   24   12   13 ar    
   25   13   17 1     
   26   13   14 ar    
   27   14   15 1     
   28   15   16 2     
   29   16   17 1     
   30   16   35 1     
   31   17   18 1     
   32   18   19 1     
   33   18   36 1     
   34   18   37 1     
   35   19   24 1     
   36   19   20 1     
   37   19   21 1     
   38   20   38 1     
   39   21   22 1     
   40   21   39 1     
   41   21   40 1     
   42   22   23 1     
   43   22   41 1     
   44   22   42 1     
   45   23   24 1     
   46   24   43 1     
   47   24   44 1     
   48    1   45 1     
   49    1   46 1     
   50    8   47 1     
   51   10   48 1     
   52   12   49 1     
   53   15   50 1     
   54   20   51 1     
   55   20   52 1     
   56   23   53 1     
   57   23   54 1     
@<TRIPOS>SUBSTRUCTURE
      1 S1             1
@<TRIPOS>SET
LONE_PAIRS      STATIC     ATOMS    <user>   **** ""
10 45 46 47 48 49 50 51 52 53 54
DONOR_HYDROGENS      STATIC     ATOMS    <user>   **** ""
2 27 38
ATOM$BLUE        STATIC     ATOMS    COLORGROUP SYSTEM
10 45 46 47 48 49 50 51 52 53 54
ATOM$RED        STATIC     ATOMS    COLORGROUP SYSTEM
2 27 38
