AV-unprocessed.smi:767|AV-procd|sdf|3666|dock4
  -GOLD-   22720 1 73D 1   1.00000     0.00000
 Structure written by MMmdl.
 48 50  0  0  0  0  0  0  0  0  2 V2000
  142.8848  132.6920  148.0914 C   0  0  0  0  0  0  0  0  0  0  0  0
  143.9274  132.7137  149.1890 C   0  0  0  0  0  0  0  0  0  0  0  0
  145.1618  132.0393  149.0709 C   0  0  0  0  0  0  0  0  0  0  0  0
  146.0844  132.0999  150.1361 C   0  0  0  0  0  0  0  0  0  0  0  0
  145.7548  132.8336  151.2968 C   0  0  0  0  0  0  0  0  0  0  0  0
  146.7208  132.9069  152.4626 C   0  0  0  0  0  0  0  0  0  0  0  0
  146.2437  133.8904  153.5433 C   0  0  0  0  0  0  0  0  0  0  0  0
  147.0582  135.0992  153.5680 N   0  0  0  0  0  0  0  0  0  0  0  0
  147.2080  135.8974  154.6338 C   0  0  0  0  0  0  0  0  0  0  0  0
  146.6839  135.6906  155.7285 O   0  0  0  0  0  0  0  0  0  0  0  0
  147.9886  136.9512  154.3625 N   0  0  0  0  0  0  0  0  0  0  0  0
  148.3189  138.0062  155.3261 C   0  0  1  0  0  0  0  0  0  0  0  0
  149.8280  138.1927  155.5057 C   0  0  1  0  0  0  0  0  0  0  0  0
  151.0436  137.3906  155.2108 C   0  0  0  0  0  0  0  0  0  0  0  0
  151.9181  138.5556  154.6721 C   0  0  0  0  0  0  0  0  0  0  0  0
  151.0251  139.6892  154.5216 O   0  0  0  0  0  0  0  0  0  0  0  0
  149.7612  139.0980  154.2934 C   0  0  2  0  0  0  0  0  0  0  0  0
  148.3333  139.4767  154.7466 C   0  0  0  0  0  0  0  0  0  0  0  0
  147.3484  139.7938  153.6156 C   0  0  0  0  0  0  0  0  0  0  0  0
  148.1973  140.6307  155.7561 C   0  0  0  0  0  0  0  0  0  0  0  0
  144.5065  133.4889  151.3582 C   0  0  0  0  0  0  0  0  0  0  0  0
  143.6499  133.4061  150.3167 N   0  3  0  0  0  0  0  0  0  0  0  0
  143.2342  132.1244  147.2285 H   0  0  0  0  0  0  0  0  0  0  0  0
  142.6580  133.7064  147.7621 H   0  0  0  0  0  0  0  0  0  0  0  0
  141.9639  132.2317  148.4510 H   0  0  0  0  0  0  0  0  0  0  0  0
  145.4012  131.4803  148.1780 H   0  0  0  0  0  0  0  0  0  0  0  0
  147.0318  131.5858  150.0621 H   0  0  0  0  0  0  0  0  0  0  0  0
  146.8406  131.9079  152.8841 H   0  0  0  0  0  0  0  0  0  0  0  0
  147.7033  133.2034  152.0925 H   0  0  0  0  0  0  0  0  0  0  0  0
  145.2107  134.1825  153.3522 H   0  0  0  0  0  0  0  0  0  0  0  0
  146.2547  133.4144  154.5257 H   0  0  0  0  0  0  0  0  0  0  0  0
  147.5284  135.3530  152.7112 H   0  0  0  0  0  0  0  0  0  0  0  0
  148.3744  137.0395  153.4340 H   0  0  0  0  0  0  0  0  0  0  0  0
  147.7890  137.9202  156.2762 H   0  0  0  0  0  0  0  0  0  0  0  0
  149.9951  138.7429  156.4350 H   0  0  0  0  0  0  0  0  0  0  0  0
  151.4693  136.9219  156.0984 H   0  0  0  0  0  0  0  0  0  0  0  0
  150.8635  136.6282  154.4517 H   0  0  0  0  0  0  0  0  0  0  0  0
  152.7222  138.8140  155.3614 H   0  0  0  0  0  0  0  0  0  0  0  0
  152.3661  138.2940  153.7127 H   0  0  0  0  0  0  0  0  0  0  0  0
  149.7594  138.5642  153.3374 H   0  0  0  0  0  0  0  0  0  0  0  0
  147.4986  140.7996  153.2221 H   0  0  0  0  0  0  0  0  0  0  0  0
  146.3150  139.7235  153.9567 H   0  0  0  0  0  0  0  0  0  0  0  0
  147.4572  139.1097  152.7740 H   0  0  0  0  0  0  0  0  0  0  0  0
  148.5192  141.5764  155.3193 H   0  0  0  0  0  0  0  0  0  0  0  0
  148.7836  140.4883  156.6623 H   0  0  0  0  0  0  0  0  0  0  0  0
  147.1619  140.7555  156.0750 H   0  0  0  0  0  0  0  0  0  0  0  0
  144.1669  134.0689  152.2041 H   0  0  0  0  0  0  0  0  0  0  0  0
  142.7523  133.8864  150.3854 H   0  0  0  0  0  0  0  0  0  0  0  0
  1  2  1  0  0  0  0
  1 23  1  0  0  0  0
  1 24  1  0  0  0  0
  1 25  1  0  0  0  0
  2 22  1  0  0  0  0
  2  3  2  0  0  0  0
  3  4  1  0  0  0  0
  3 26  1  0  0  0  0
  4  5  2  0  0  0  0
  4 27  1  0  0  0  0
  5  6  1  0  0  0  0
  5 21  1  0  0  0  0
  6  7  1  0  0  0  0
  6 28  1  0  0  0  0
  6 29  1  0  0  0  0
  7  8  1  0  0  0  0
  7 30  1  0  0  0  0
  7 31  1  0  0  0  0
  8  9  1  0  0  0  0
  8 32  1  0  0  0  0
  9 10  2  0  0  0  0
  9 11  1  0  0  0  0
 11 12  1  0  0  0  0
 11 33  1  0  0  0  0
 12 18  1  0  0  0  0
 12 13  1  0  0  0  0
 12 34  1  0  0  0  0
 13 17  1  0  0  0  0
 13 14  1  0  0  0  0
 13 35  1  0  0  0  0
 14 15  1  0  0  0  0
 14 36  1  0  0  0  0
 14 37  1  0  0  0  0
 15 16  1  0  0  0  0
 15 38  1  0  0  0  0
 15 39  1  0  0  0  0
 16 17  1  0  0  0  0
 17 18  1  0  0  0  0
 17 40  1  0  0  0  0
 18 19  1  0  0  0  0
 18 20  1  0  0  0  0
 19 41  1  0  0  0  0
 19 42  1  0  0  0  0
 19 43  1  0  0  0  0
 20 44  1  0  0  0  0
 20 45  1  0  0  0  0
 20 46  1  0  0  0  0
 21 22  2  0  0  0  0
 21 47  1  0  0  0  0
 22 48  1  0  0  0  0
M  CHG  1  22   1
M  END
> <s_m_source_file>
AV-unprocessed.smi

> <i_m_source_file_index>
767

> <i_lp_mmshare_version>
43012

> <i_f3d_flags>
0

> <s_epik_input>
W0NIM11jMVtjSF1bY0hdYyhbY0hdbjEpW0NIMl1bQ0gyXVtOSF1DKD1PKVtOSF1bQ0BIXTJDKFtDSDNdKShbQ0gzXSlbQ0BIXShbQ0BASF0yMylPW0NIMl1bQ0gyXTM=

> <s_epik_cmdline>
J2VwaWtfcHl0aG9uJywgJy1waCcsICc3LjAnLCAnLXRuJywgJzgnLCAnLW1hJywgJzIwMCcsICctbWV0YWxfYmluZGluZycsICctaW1hZScsICc8aW5maWxlLm1hZT4nLCAnLW9tYWUnLCAnPG91dGZpbGUubWFlPic=

> <r_epik_Ionization_Penalty>
1.41853

> <r_epik_Ionization_Penalty_Charging>
1.41848

> <r_epik_Ionization_Penalty_Neutral>
5.17407e-05

> <r_epik_State_Penalty>
1.50205

> <r_epik_Charging_Adjusted_Penalty>
2.92053

> <i_epik_Tot_Q>
1

> <i_epik_Tot_abs_Q>
1

> <r_epik_Metal_State_Penalty>
1.5544

> <b_epik_Metal_Only>
0

> <s_lp_Force_Field>
OPLS_2005

> <r_lp_Energy>
64.9812

> <b_lp_Chiralities_Consistent>
1

> <s_lp_Variant>
AV-unprocessed.smi:767-10

> <Gold.Version>
5.8.1

> <Gold.Id.Protein>
6NUR|6NUR_protein|mol2

> <Gold.PLP.Fitness>
48.3114

> <Gold.PLP.PLP>
-34.6849

> <Gold.PLP.part.hbond>
-4.0000

> <Gold.PLP.part.metal>
0.0000

> <Gold.PLP.part.buried>
1.4136

> <Gold.PLP.part.nonpolar>
-32.1072

> <Gold.PLP.part.repulsive>
0.1491

> <Gold.PLP.ligand.clash>
0.0000

> <Gold.PLP.ligand.torsion>
0.7119

> <Gold.PLP.Chemscore.Hbond>
4.9280

> <Gold.PLP.Chemscore.CHOScore>
0.0000

> <Gold.PLP.Chemscore.Metal>
0.0000

> <Gold.Chemscore.Hbonds>
donor molecule, donor type, donor heavy atom, donor atom, acceptor molecule, acceptor atom, score
      L1  H     8    32       P1  7948  0.99
      L1  H    11    33       P1  7948  0.99
      L1  H    22    48       P1 10186  2.00
      P1  H  7989  7998       L1    16  1.00

> <Gold.PLP.Chemscore.Internal.Correction>
0.2662

> <Gold.Rescore>
     Score         DG    S(hbond)    S(metal)    S(lipo)     H(rot)  DE(clash)    DE(int)     intcor
     25.60     -27.29       3.69        0.00     114.27       1.52       1.01       0.67       ----

> <Gold.Chemscore.Fitness>
25.6030

> <Gold.Chemscore.DG>
-27.2901

> <Gold.Chemscore.ZeroCoef>
-5.4800

> <Gold.Chemscore.Hbond>
3.6945

> <Gold.Chemscore.Metal>
0.0000

> <Gold.Chemscore.Lipo>
114.2721

> <Gold.Chemscore.Internal_Hbond>
0.0000

> <Gold.Chemscore.DEClash>
1.0121

> <Gold.Chemscore.DEInternal>
0.6749

> <Gold.Chemscore.Rot>
1.5233

> <Gold.Chemscore.Internal.Correction>
   9.000000E+99

> <Gold.Chemscore.Hbonds>
donor molecule, donor type, donor heavy atom, donor atom, acceptor molecule, acceptor atom, score
      L1  H     8    32       P1  7948  0.94
      L1  H    11    33       P1  7948  0.94
      L1  H    22    48       P1 10186  0.88
      P1  H  7989  7998       L1    16  0.84

> <Gold.Chemscore.Hbond.Weighted>
-12.3397

> <Gold.Chemscore.Metal.Weighted>
-0.0000

> <Gold.Chemscore.Lipo.Weighted>
-13.3698

> <Gold.Chemscore.Internal_Hbond.Weighted>
0.0000

> <Gold.Chemscore.DEClash.Weighted>
1.0121

> <Gold.Chemscore.DEInternal.Weighted>
0.6749

> <Gold.Chemscore.Rot.Weighted>
3.8995

> <Gold.Chemscore.Internal.Correction.Weighted>
   9.000000E+99

> <Gold.Protein.RotatedTorsions>
[ 6907 6896 6895 6894 ] final   54.58 input  -60.11 | X-H torsion
[ 7974 7965 7964 7962 ] final -144.11 input  175.53 | X-H torsion
[ 8008 7997 7996 7995 ] final  176.94 input   59.86 | X-H torsion
[ 10167 10162 10161 10158 ] final  132.94 input  -65.29 | X-H torsion
[ 10718 10713 10712 10709 ] final  -92.25 input   66.30 | X-H torsion
[ 10763 10752 10751 10750 ] final   -2.05 input  -60.55 | X-H torsion
[ 11005 11000 10999 10996 ] final  119.99 input  -57.11 | X-H torsion

> <Gold.Protein.ActiveResidues>
 VAL166  LYS551  ARG553  GLY616  TRP617  ASP618  TYR619  PRO620  LYS621  CYS622 
 ASP623  PHE694  ASN695  SER759  ASP760  ASP761  ALA762  ILE779  LEU786  VAL792 
 PHE793  MET794  SER795  GLU796  ALA797  LYS798  CYS799  TRP800  GLU811  SER814 

> <Gold.Protein.RotatedAtoms>
  152.3453  134.7080  160.0251 H   0  0  0  0  0  0  0  0  0  0  0  0  # atno 6907 bound_to 6896
  151.7452  133.3319  159.3384 H   0  0  0  0  0  0  0  0  0  0  0  0  # atno 6908 bound_to 6896
  150.7505  134.6175  159.6163 H   0  0  0  0  0  0  0  0  0  0  0  0  # atno 6909 bound_to 6896
  144.8321  140.5751  143.5508 H   0  0  0  0  0  0  0  0  0  0  0  0  # atno 7974 bound_to 7965
  156.0711  140.1371  156.9827 H   0  0  0  0  0  0  0  0  0  0  0  0  # atno 8008 bound_to 7997
  154.4532  140.0971  156.6732 H   0  0  0  0  0  0  0  0  0  0  0  0  # atno 8009 bound_to 7997
  155.5226  140.3456  155.4412 H   0  0  0  0  0  0  0  0  0  0  0  0  # atno 8010 bound_to 7997
  139.5318  144.6639  151.4924 H   0  0  0  0  0  0  0  0  0  0  0  0  # atno 10167 bound_to 10162
  156.0000  130.4980  150.5598 H   0  0  0  0  0  0  0  0  0  0  0  0  # atno 10718 bound_to 10713
  153.3529  135.6986  153.6774 H   0  0  0  0  0  0  0  0  0  0  0  0  # atno 10763 bound_to 10752
  153.5494  135.3557  155.2753 H   0  0  0  0  0  0  0  0  0  0  0  0  # atno 10764 bound_to 10752
  154.8656  135.4223  154.2768 H   0  0  0  0  0  0  0  0  0  0  0  0  # atno 10765 bound_to 10752
  139.9168  134.9632  156.7739 H   0  0  0  0  0  0  0  0  0  0  0  0  # atno 11005 bound_to 11000
  145.4873  139.1491  143.3729 LP  0  0  0  0  0  0  0  0  0  0  0  0  # atno 17320 bound_to 7965
  146.2623  140.5011  142.8848 LP  0  0  0  0  0  0  0  0  0  0  0  0  # atno 17321 bound_to 7965
  140.6501  143.8714  150.6777 LP  0  0  0  0  0  0  0  0  0  0  0  0  # atno 17342 bound_to 10162
  140.2076  143.3909  152.1743 LP  0  0  0  0  0  0  0  0  0  0  0  0  # atno 17343 bound_to 10162
  157.3509  131.0733  151.1714 LP  0  0  0  0  0  0  0  0  0  0  0  0  # atno 17370 bound_to 10713
  157.2531  130.6623  149.5940 LP  0  0  0  0  0  0  0  0  0  0  0  0  # atno 17371 bound_to 10713
  140.6599  133.9655  155.7799 LP  0  0  0  0  0  0  0  0  0  0  0  0  # atno 17394 bound_to 11000
  141.0651  134.0289  157.3605 LP  0  0  0  0  0  0  0  0  0  0  0  0  # atno 17395 bound_to 11000

$$$$
