AV-unprocessed.smi:652|AV-procd|sdf|3194|dock2
  -GOLD-   22720 0123D 1   1.00000     0.00000
 Structure written by MMmdl.
 48 49  0  0  0  0  0  0  0  0  2 V2000
  152.8339  144.6824  158.2900 C   0  0  0  0  0  0  0  0  0  0  0  0
  151.3069  144.8319  158.2890 C   0  0  0  0  0  0  0  0  0  0  0  0
  150.7104  144.6302  159.6897 C   0  0  0  0  0  0  0  0  0  0  0  0
  150.7280  143.8744  157.3514 N   0  0  0  0  0  0  0  0  0  0  0  0
  150.9784  142.5557  157.3248 C   0  0  0  0  0  0  0  0  0  0  0  0
  151.7584  141.9950  158.0939 O   0  0  0  0  0  0  0  0  0  0  0  0
  150.2273  141.7410  156.2704 C   0  0  0  0  0  0  0  0  0  0  0  0
  150.5015  140.2314  156.4264 C   0  0  0  0  0  0  0  0  0  0  0  0
  149.3738  139.3766  155.9613 N   0  3  1  0  0  0  0  0  0  0  0  0
  149.6810  138.6286  154.7172 C   0  0  0  0  0  0  0  0  0  0  0  0
  150.5811  137.4107  155.0046 C   0  0  0  0  0  0  0  0  0  0  0  0
  149.9734  136.5800  155.9888 O   0  0  0  0  0  0  0  0  0  0  0  0
  149.7788  137.2552  157.2269 C   0  0  2  0  0  0  0  0  0  0  0  0
  149.2253  136.2427  158.2476 C   0  0  0  0  0  0  0  0  0  0  0  0
  149.2041  136.7591  159.6130 N   0  0  0  0  0  0  0  0  0  0  0  0
  148.2488  136.3292  160.5455 C   0  0  0  0  0  0  0  0  0  0  0  0
  147.9178  134.9604  160.5976 C   0  0  0  0  0  0  0  0  0  0  0  0
  146.9473  134.5584  161.5318 C   0  0  0  0  0  0  0  0  0  0  0  0
  146.3833  135.5571  162.3462 C   0  0  0  0  0  0  0  0  0  0  0  0
  146.7388  136.8582  162.2539 N   0  0  0  0  0  0  0  0  0  0  0  0
  147.6643  137.2379  161.3659 N   0  0  0  0  0  0  0  0  0  0  0  0
  148.8261  138.4471  156.9827 C   0  0  0  0  0  0  0  0  0  0  0  0
  153.2971  145.3992  158.9685 H   0  0  0  0  0  0  0  0  0  0  0  0
  153.2441  144.8606  157.2955 H   0  0  0  0  0  0  0  0  0  0  0  0
  153.1381  143.6830  158.6031 H   0  0  0  0  0  0  0  0  0  0  0  0
  151.0771  145.8469  157.9598 H   0  0  0  0  0  0  0  0  0  0  0  0
  151.1278  145.3453  160.3989 H   0  0  0  0  0  0  0  0  0  0  0  0
  150.9144  143.6284  160.0692 H   0  0  0  0  0  0  0  0  0  0  0  0
  149.6289  144.7705  159.6818 H   0  0  0  0  0  0  0  0  0  0  0  0
  150.0769  144.2447  156.6743 H   0  0  0  0  0  0  0  0  0  0  0  0
  149.1656  141.9674  156.3580 H   0  0  0  0  0  0  0  0  0  0  0  0
  150.5333  142.0774  155.2793 H   0  0  0  0  0  0  0  0  0  0  0  0
  151.3859  139.9872  155.8359 H   0  0  0  0  0  0  0  0  0  0  0  0
  150.7600  139.9961  157.4589 H   0  0  0  0  0  0  0  0  0  0  0  0
  148.7412  138.2852  154.2825 H   0  0  0  0  0  0  0  0  0  0  0  0
  150.1385  139.2835  153.9748 H   0  0  0  0  0  0  0  0  0  0  0  0
  150.7220  136.8284  154.0940 H   0  0  0  0  0  0  0  0  0  0  0  0
  151.5736  137.7210  155.3344 H   0  0  0  0  0  0  0  0  0  0  0  0
  150.7465  137.6091  157.5806 H   0  0  0  0  0  0  0  0  0  0  0  0
  148.2063  135.9669  157.9752 H   0  0  0  0  0  0  0  0  0  0  0  0
  149.8090  135.3218  158.2189 H   0  0  0  0  0  0  0  0  0  0  0  0
  150.0169  137.2588  159.9440 H   0  0  0  0  0  0  0  0  0  0  0  0
  148.3870  134.2415  159.9421 H   0  0  0  0  0  0  0  0  0  0  0  0
  146.6458  133.5252  161.6207 H   0  0  0  0  0  0  0  0  0  0  0  0
  145.6314  135.3107  163.0811 H   0  0  0  0  0  0  0  0  0  0  0  0
  148.6062  138.9687  157.9114 H   0  0  0  0  0  0  0  0  0  0  0  0
  147.8668  138.0724  156.6230 H   0  0  0  0  0  0  0  0  0  0  0  0
  148.6316  140.0194  155.7244 H   0  0  0  0  0  0  0  0  0  0  0  0
  1  2  1  0  0  0  0
  1 23  1  0  0  0  0
  1 24  1  0  0  0  0
  1 25  1  0  0  0  0
  2  3  1  0  0  0  0
  2  4  1  0  0  0  0
  2 26  1  0  0  0  0
  3 27  1  0  0  0  0
  3 28  1  0  0  0  0
  3 29  1  0  0  0  0
  4  5  1  0  0  0  0
  4 30  1  0  0  0  0
  5  6  2  0  0  0  0
  5  7  1  0  0  0  0
  7  8  1  0  0  0  0
  7 31  1  0  0  0  0
  7 32  1  0  0  0  0
  8  9  1  0  0  0  0
  8 33  1  0  0  0  0
  8 34  1  0  0  0  0
  9 22  1  0  0  0  0
  9 10  1  0  0  0  0
  9 48  1  0  0  0  0
 10 11  1  0  0  0  0
 10 35  1  0  0  0  0
 10 36  1  0  0  0  0
 11 12  1  0  0  0  0
 11 37  1  0  0  0  0
 11 38  1  0  0  0  0
 12 13  1  0  0  0  0
 13 14  1  0  0  0  0
 13 22  1  0  0  0  0
 13 39  1  0  0  0  0
 14 15  1  0  0  0  0
 14 40  1  0  0  0  0
 14 41  1  0  0  0  0
 15 16  1  0  0  0  0
 15 42  1  0  0  0  0
 16 21  1  0  0  0  0
 16 17  2  0  0  0  0
 17 18  1  0  0  0  0
 17 43  1  0  0  0  0
 18 19  2  0  0  0  0
 18 44  1  0  0  0  0
 19 20  1  0  0  0  0
 19 45  1  0  0  0  0
 20 21  2  0  0  0  0
 22 46  1  0  0  0  0
 22 47  1  0  0  0  0
M  CHG  1   9   1
M  END
> <s_m_source_file>
AV-unprocessed.smi

> <i_m_source_file_index>
652

> <i_lp_mmshare_version>
43012

> <i_f3d_flags>
0

> <s_epik_input>
W0NIM11bQ0hdKFtDSDNdKVtOSF1DKD1PKVtDSDJdW0NIMl1OMVtDSDJdW0NIMl1PW0NASF0oW0NIMl0xKVtDSDJdW05IXWMyW2NIXVtjSF1bY0hdbm4y

> <s_epik_cmdline>
J2VwaWtfcHl0aG9uJywgJy1waCcsICc3LjAnLCAnLXRuJywgJzgnLCAnLW1hJywgJzIwMCcsICctbWV0YWxfYmluZGluZycsICctaW1hZScsICc8aW5maWxlLm1hZT4nLCAnLW9tYWUnLCAnPG91dGZpbGUubWFlPic=

> <r_lp_tautomer_probability>
0.999978

> <r_epik_Ionization_Penalty>
0.433079

> <r_epik_Ionization_Penalty_Charging>
0.413784

> <r_epik_Ionization_Penalty_Neutral>
0.0192945

> <r_epik_State_Penalty>
0.425138

> <r_epik_Charging_Adjusted_Penalty>
0.838922

> <i_epik_Tot_Q>
1

> <i_epik_Tot_abs_Q>
1

> <r_epik_Metal_State_Penalty>
0.422073

> <b_epik_Metal_Only>
0

> <s_lp_Force_Field>
OPLS_2005

> <r_lp_Energy>
22.7305

> <b_lp_Chiralities_Consistent>
1

> <s_lp_Variant>
AV-unprocessed.smi:652-3

> <Gold.Version>
5.8.1

> <Gold.Id.Protein>
6NUR|6NUR_protein|mol2

> <Gold.PLP.Fitness>
43.6216

> <Gold.PLP.PLP>
-38.2561

> <Gold.PLP.part.hbond>
-3.0000

> <Gold.PLP.part.metal>
0.0000

> <Gold.PLP.part.buried>
-6.7484

> <Gold.PLP.part.nonpolar>
-28.8364

> <Gold.PLP.part.repulsive>
0.3153

> <Gold.PLP.ligand.clash>
0.0000

> <Gold.PLP.ligand.torsion>
1.5914

> <Gold.PLP.Chemscore.Hbond>
2.7920

> <Gold.PLP.Chemscore.CHOScore>
0.0000

> <Gold.PLP.Chemscore.Metal>
0.0000

> <Gold.Chemscore.Hbonds>
donor molecule, donor type, donor heavy atom, donor atom, acceptor molecule, acceptor atom, score
      L1  H     4    30       P1  8028  1.00
      P1  H  6931  6943       L1    21  0.94
      P1  H  6934  6947       L1    21  0.82

> <Gold.PLP.Chemscore.Internal.Correction>
0.1724

> <Gold.Rescore>
     Score         DG    S(hbond)    S(metal)    S(lipo)     H(rot)  DE(clash)    DE(int)     intcor
     14.97     -17.21       2.05        0.00      91.29       2.26       0.01       2.23       ----

> <Gold.Chemscore.Fitness>
14.9676

> <Gold.Chemscore.DG>
-17.2085

> <Gold.Chemscore.ZeroCoef>
-5.4800

> <Gold.Chemscore.Hbond>
2.0453

> <Gold.Chemscore.Metal>
0.0000

> <Gold.Chemscore.Lipo>
91.2939

> <Gold.Chemscore.Internal_Hbond>
0.0000

> <Gold.Chemscore.DEClash>
0.0104

> <Gold.Chemscore.DEInternal>
2.2306

> <Gold.Chemscore.Rot>
2.2594

> <Gold.Chemscore.Internal.Correction>
   9.000000E+99

> <Gold.Chemscore.Hbonds>
donor molecule, donor type, donor heavy atom, donor atom, acceptor molecule, acceptor atom, score
      L1  H     4    30       P1  8028  0.97
      P1  H  6931  6943       L1    21  0.40
      P1  H  6934  6947       L1    21  0.36

> <Gold.Chemscore.Hbond.Weighted>
-6.8313

> <Gold.Chemscore.Metal.Weighted>
-0.0000

> <Gold.Chemscore.Lipo.Weighted>
-10.6814

> <Gold.Chemscore.Internal_Hbond.Weighted>
0.0000

> <Gold.Chemscore.DEClash.Weighted>
0.0104

> <Gold.Chemscore.DEInternal.Weighted>
2.2306

> <Gold.Chemscore.Rot.Weighted>
5.7841

> <Gold.Chemscore.Internal.Correction.Weighted>
   9.000000E+99

> <Gold.Protein.RotatedTorsions>
[ 6907 6896 6895 6894 ] final   14.33 input  -60.11 | X-H torsion
[ 7974 7965 7964 7962 ] final -149.81 input  175.53 | X-H torsion
[ 8008 7997 7996 7995 ] final   11.81 input   59.86 | X-H torsion
[ 10167 10162 10161 10158 ] final  -30.17 input  -65.29 | X-H torsion
[ 10718 10713 10712 10709 ] final   49.72 input   66.30 | X-H torsion
[ 10763 10752 10751 10750 ] final -137.63 input  -60.55 | X-H torsion
[ 11005 11000 10999 10996 ] final  -66.82 input  -57.11 | X-H torsion

> <Gold.Protein.ActiveResidues>
 VAL166  LYS551  ARG553  GLY616  TRP617  ASP618  TYR619  PRO620  LYS621  CYS622 
 ASP623  PHE694  ASN695  SER759  ASP760  ASP761  ALA762  ILE779  LEU786  VAL792 
 PHE793  MET794  SER795  GLU796  ALA797  LYS798  CYS799  TRP800  GLU811  SER814 

> <Gold.Protein.RotatedAtoms>
  151.8005  135.0710  160.0399 H   0  0  0  0  0  0  0  0  0  0  0  0  # atno 6907 bound_to 6896
  152.3092  133.5731  159.5678 H   0  0  0  0  0  0  0  0  0  0  0  0  # atno 6908 bound_to 6896
  150.7311  134.0093  159.3706 H   0  0  0  0  0  0  0  0  0  0  0  0  # atno 6909 bound_to 6896
  144.7945  140.5015  143.5750 H   0  0  0  0  0  0  0  0  0  0  0  0  # atno 7974 bound_to 7965
  154.8121  140.2870  155.5846 H   0  0  0  0  0  0  0  0  0  0  0  0  # atno 8008 bound_to 7997
  156.2989  140.2566  156.2941 H   0  0  0  0  0  0  0  0  0  0  0  0  # atno 8009 bound_to 7997
  154.9436  140.0381  157.2098 H   0  0  0  0  0  0  0  0  0  0  0  0  # atno 8010 bound_to 7997
  140.7252  143.3870  151.1497 H   0  0  0  0  0  0  0  0  0  0  0  0  # atno 10167 bound_to 10162
  157.4814  130.8318  149.8098 H   0  0  0  0  0  0  0  0  0  0  0  0  # atno 10718 bound_to 10713
  154.8657  135.3636  154.5254 H   0  0  0  0  0  0  0  0  0  0  0  0  # atno 10763 bound_to 10752
  153.5882  135.7016  153.5439 H   0  0  0  0  0  0  0  0  0  0  0  0  # atno 10764 bound_to 10752
  153.3397  135.4101  155.1523 H   0  0  0  0  0  0  0  0  0  0  0  0  # atno 10765 bound_to 10752
  141.1492  133.6707  156.6198 H   0  0  0  0  0  0  0  0  0  0  0  0  # atno 11005 bound_to 11000
  145.5709  139.1483  143.3289 LP  0  0  0  0  0  0  0  0  0  0  0  0  # atno 17320 bound_to 7965
  146.2208  140.5842  142.9018 LP  0  0  0  0  0  0  0  0  0  0  0  0  # atno 17321 bound_to 7965
  139.7469  143.8838  152.3066 LP  0  0  0  0  0  0  0  0  0  0  0  0  # atno 17342 bound_to 10162
  139.8678  144.7084  150.9023 LP  0  0  0  0  0  0  0  0  0  0  0  0  # atno 17343 bound_to 10162
  156.0124  130.3828  150.2222 LP  0  0  0  0  0  0  0  0  0  0  0  0  # atno 17370 bound_to 10713
  157.0408  131.0034  151.3284 LP  0  0  0  0  0  0  0  0  0  0  0  0  # atno 17371 bound_to 10713
  140.3549  134.7737  157.4493 LP  0  0  0  0  0  0  0  0  0  0  0  0  # atno 17394 bound_to 11000
  140.0831  134.5704  155.8520 LP  0  0  0  0  0  0  0  0  0  0  0  0  # atno 17395 bound_to 11000

$$$$
