AV-unprocessed.smi:1899|AV-procd|sdf|7708|dock2
  -GOLD-   22720 9443D 1   1.00000     0.00000
 Structure written by MMmdl.
 33 34  0  0  0  0  0  0  0  0  1 V2000
  150.4125  141.0157  158.2824 O   0  0  0  0  0  0  0  0  0  0  0  0
  150.2337  141.9930  157.5551 C   0  0  0  0  0  0  0  0  0  0  0  0
  149.5926  141.9250  156.3784 N   0  0  0  0  0  0  0  0  0  0  0  0
  148.9870  140.7211  155.8178 C   0  0  0  0  0  0  0  0  0  0  0  0
  149.7093  140.2358  154.5458 C   0  0  0  0  0  0  0  0  0  0  0  0
  150.7037  139.2188  154.8313 N   0  0  0  0  0  0  0  0  0  0  0  0
  151.8367  139.3528  155.6224 C   0  0  0  0  0  0  0  0  0  0  0  0
  152.4794  138.1357  155.5967 C   0  0  0  0  0  0  0  0  0  0  0  0
  151.7642  137.2437  154.8009 N   0  0  0  0  0  0  0  0  0  0  0  0
  150.7247  137.9552  154.3845 C   0  0  0  0  0  0  0  0  0  0  0  0
  150.7411  143.3771  157.9796 C   0  0  1  0  0  0  0  0  0  0  0  0
  149.9465  143.9084  159.1948 C   0  0  0  0  0  0  0  0  0  0  0  0
  150.5882  145.1409  159.8072 C   0  0  0  0  0  0  0  0  0  0  0  0
  151.8504  145.5235  159.5488 C   0  0  0  0  0  0  0  0  0  0  0  0
  152.7795  144.7651  158.6176 C   0  0  0  0  0  0  0  0  0  0  0  0
  152.2518  143.3559  158.2881 C   0  0  0  0  0  0  0  0  0  0  0  0
  149.4932  142.7760  155.8437 H   0  0  0  0  0  0  0  0  0  0  0  0
  149.0085  139.9406  156.5788 H   0  0  0  0  0  0  0  0  0  0  0  0
  147.9344  140.9093  155.6008 H   0  0  0  0  0  0  0  0  0  0  0  0
  148.9854  139.8173  153.8459 H   0  0  0  0  0  0  0  0  0  0  0  0
  150.1928  141.0666  154.0299 H   0  0  0  0  0  0  0  0  0  0  0  0
  152.0856  140.2773  156.1225 H   0  0  0  0  0  0  0  0  0  0  0  0
  153.3949  137.8360  156.0854 H   0  0  0  0  0  0  0  0  0  0  0  0
  149.9638  137.5502  153.7334 H   0  0  0  0  0  0  0  0  0  0  0  0
  150.5861  144.0667  157.1474 H   0  0  0  0  0  0  0  0  0  0  0  0
  148.9311  144.1620  158.8881 H   0  0  0  0  0  0  0  0  0  0  0  0
  149.8614  143.1516  159.9760 H   0  0  0  0  0  0  0  0  0  0  0  0
  149.9826  145.7161  160.4921 H   0  0  0  0  0  0  0  0  0  0  0  0
  152.2449  146.4183  160.0075 H   0  0  0  0  0  0  0  0  0  0  0  0
  152.8912  145.3492  157.7039 H   0  0  0  0  0  0  0  0  0  0  0  0
  153.7677  144.6943  159.0727 H   0  0  0  0  0  0  0  0  0  0  0  0
  152.4409  142.6981  159.1381 H   0  0  0  0  0  0  0  0  0  0  0  0
  152.8130  142.9417  157.4492 H   0  0  0  0  0  0  0  0  0  0  0  0
  1  2  2  0  0  0  0
  2  3  1  0  0  0  0
  2 11  1  0  0  0  0
  3  4  1  0  0  0  0
  3 17  1  0  0  0  0
  4  5  1  0  0  0  0
  4 18  1  0  0  0  0
  4 19  1  0  0  0  0
  5  6  1  0  0  0  0
  5 20  1  0  0  0  0
  5 21  1  0  0  0  0
  6 10  1  0  0  0  0
  6  7  1  0  0  0  0
  7  8  2  0  0  0  0
  7 22  1  0  0  0  0
  8  9  1  0  0  0  0
  8 23  1  0  0  0  0
  9 10  2  0  0  0  0
 10 24  1  0  0  0  0
 11 16  1  0  0  0  0
 11 12  1  0  0  0  0
 11 25  1  0  0  0  0
 12 13  1  0  0  0  0
 12 26  1  0  0  0  0
 12 27  1  0  0  0  0
 13 14  2  0  0  0  0
 13 28  1  0  0  0  0
 14 15  1  0  0  0  0
 14 29  1  0  0  0  0
 15 16  1  0  0  0  0
 15 30  1  0  0  0  0
 15 31  1  0  0  0  0
 16 32  1  0  0  0  0
 16 33  1  0  0  0  0
M  END
> <s_m_source_file>
AV-unprocessed.smi

> <i_m_source_file_index>
1899

> <i_lp_mmshare_version>
43012

> <i_f3d_flags>
0

> <s_epik_input>
W0NIMl0xW0NIMl1bQ0hdPVtDSF1bQ0gyXVtDQEhdMUMoPU8pW05IXVtDSDJdW0NIMl1uMltjSF1bY0hdbltjSF0y

> <s_epik_cmdline>
J2VwaWtfcHl0aG9uJywgJy1waCcsICc3LjAnLCAnLXRuJywgJzgnLCAnLW1hJywgJzIwMCcsICctbWV0YWxfYmluZGluZycsICctaW1hZScsICc8aW5maWxlLm1hZT4nLCAnLW9tYWUnLCAnPG91dGZpbGUubWFlPic=

> <r_lp_tautomer_probability>
1

> <r_epik_Ionization_Penalty>
0.598506

> <r_epik_Ionization_Penalty_Charging>
0.598506

> <r_epik_Ionization_Penalty_Neutral>
1.57027e-08

> <r_epik_State_Penalty>
0.612686

> <r_epik_Charging_Adjusted_Penalty>
1.21119

> <i_epik_Tot_Q>
0

> <i_epik_Tot_abs_Q>
0

> <r_epik_Metal_State_Penalty>
0.300712

> <b_epik_Metal_Only>
0

> <s_lp_Force_Field>
OPLS_2005

> <r_lp_Energy>
10.0214

> <b_lp_Chiralities_Consistent>
1

> <s_lp_Variant>
AV-unprocessed.smi:1899-4

> <Gold.Version>
5.8.1

> <Gold.Id.Protein>
6NUR|6NUR_protein|mol2

> <Gold.PLP.Fitness>
46.0592

> <Gold.PLP.PLP>
-37.7946

> <Gold.PLP.part.hbond>
-2.0000

> <Gold.PLP.part.metal>
0.0000

> <Gold.PLP.part.buried>
-3.2740

> <Gold.PLP.part.nonpolar>
-32.7503

> <Gold.PLP.part.repulsive>
0.2070

> <Gold.PLP.ligand.clash>
0.0000

> <Gold.PLP.ligand.torsion>
0.3582

> <Gold.PLP.Chemscore.Hbond>
1.9760

> <Gold.PLP.Chemscore.CHOScore>
1.0071

> <Gold.PLP.Chemscore.Metal>
0.0000

> <Gold.Chemscore.Hbonds>
donor molecule, donor type, donor heavy atom, donor atom, acceptor molecule, acceptor atom, score
      L1  H     3    17       P1  8028  0.96
      P1  H 10752 10764       L1     9  1.00
      L1  C    10    24       P1  7948  1.00

> <Gold.PLP.Chemscore.Internal.Correction>
0.0318

> <Gold.Rescore>
     Score         DG    S(hbond)    S(metal)    S(lipo)     H(rot)  DE(clash)    DE(int)     intcor
     16.70     -17.13       1.65        0.00      92.06       1.80       0.08       0.35       ----

> <Gold.Chemscore.Fitness>
16.6969

> <Gold.Chemscore.DG>
-17.1264

> <Gold.Chemscore.ZeroCoef>
-5.4800

> <Gold.Chemscore.Hbond>
1.6455

> <Gold.Chemscore.Metal>
0.0000

> <Gold.Chemscore.Lipo>
92.0575

> <Gold.Chemscore.Internal_Hbond>
0.0000

> <Gold.Chemscore.DEClash>
0.0835

> <Gold.Chemscore.DEInternal>
0.3460

> <Gold.Chemscore.Rot>
1.8048

> <Gold.Chemscore.Internal.Correction>
   9.000000E+99

> <Gold.Chemscore.Hbonds>
donor molecule, donor type, donor heavy atom, donor atom, acceptor molecule, acceptor atom, score
      L1  H     3    17       P1  8028  0.88
      P1  H 10752 10764       L1     9  0.63

> <Gold.Chemscore.Hbond.Weighted>
-5.4960

> <Gold.Chemscore.Metal.Weighted>
-0.0000

> <Gold.Chemscore.Lipo.Weighted>
-10.7707

> <Gold.Chemscore.Internal_Hbond.Weighted>
0.0000

> <Gold.Chemscore.DEClash.Weighted>
0.0835

> <Gold.Chemscore.DEInternal.Weighted>
0.3460

> <Gold.Chemscore.Rot.Weighted>
4.6203

> <Gold.Chemscore.Internal.Correction.Weighted>
   9.000000E+99

> <Gold.Protein.RotatedTorsions>
[ 6907 6896 6895 6894 ] final -122.00 input  -60.11 | X-H torsion
[ 7974 7965 7964 7962 ] final  142.60 input  175.53 | X-H torsion
[ 8008 7997 7996 7995 ] final -175.06 input   59.86 | X-H torsion
[ 10167 10162 10161 10158 ] final -107.05 input  -65.29 | X-H torsion
[ 10718 10713 10712 10709 ] final -118.90 input   66.30 | X-H torsion
[ 10763 10752 10751 10750 ] final  -71.53 input  -60.55 | X-H torsion
[ 11005 11000 10999 10996 ] final   26.73 input  -57.11 | X-H torsion

> <Gold.Protein.ActiveResidues>
 VAL166  LYS551  ARG553  GLY616  TRP617  ASP618  TYR619  PRO620  LYS621  CYS622 
 ASP623  PHE694  ASN695  SER759  ASP760  ASP761  ALA762  ILE779  LEU786  VAL792 
 PHE793  MET794  SER795  GLU796  ALA797  LYS798  CYS799  TRP800  GLU811  SER814 

> <Gold.Protein.RotatedAtoms>
  150.8535  133.7751  159.3016 H   0  0  0  0  0  0  0  0  0  0  0  0  # atno 6907 bound_to 6896
  151.5415  135.1067  159.9937 H   0  0  0  0  0  0  0  0  0  0  0  0  # atno 6908 bound_to 6896
  152.4571  133.7702  159.6851 H   0  0  0  0  0  0  0  0  0  0  0  0  # atno 6909 bound_to 6896
  144.8994  139.5445  143.5761 H   0  0  0  0  0  0  0  0  0  0  0  0  # atno 7974 bound_to 7965
  155.9779  140.1176  157.0753 H   0  0  0  0  0  0  0  0  0  0  0  0  # atno 8008 bound_to 7997
  154.4174  140.1150  156.5463 H   0  0  0  0  0  0  0  0  0  0  0  0  # atno 8009 bound_to 7997
  155.6510  140.3473  155.4750 H   0  0  0  0  0  0  0  0  0  0  0  0  # atno 8010 bound_to 7997
  140.1811  143.3966  152.1280 H   0  0  0  0  0  0  0  0  0  0  0  0  # atno 10167 bound_to 10162
  156.1141  130.6272  150.9349 H   0  0  0  0  0  0  0  0  0  0  0  0  # atno 10718 bound_to 10713
  154.4330  135.5959  153.6081 H   0  0  0  0  0  0  0  0  0  0  0  0  # atno 10763 bound_to 10752
  152.9800  135.5980  154.3815 H   0  0  0  0  0  0  0  0  0  0  0  0  # atno 10764 bound_to 10752
  154.3656  135.2841  155.2274 H   0  0  0  0  0  0  0  0  0  0  0  0  # atno 10765 bound_to 10752
  140.3338  134.2408  155.7698 H   0  0  0  0  0  0  0  0  0  0  0  0  # atno 11005 bound_to 11000
  146.3099  139.7711  142.9027 LP  0  0  0  0  0  0  0  0  0  0  0  0  # atno 17320 bound_to 7965
  145.3643  141.0331  143.3267 LP  0  0  0  0  0  0  0  0  0  0  0  0  # atno 17321 bound_to 7965
  139.5296  144.7143  151.5105 LP  0  0  0  0  0  0  0  0  0  0  0  0  # atno 17342 bound_to 10162
  140.6519  143.8680  150.6794 LP  0  0  0  0  0  0  0  0  0  0  0  0  # atno 17343 bound_to 10162
  157.6323  131.0920  150.8416 LP  0  0  0  0  0  0  0  0  0  0  0  0  # atno 17370 bound_to 10713
  156.8523  130.5084  149.5311 LP  0  0  0  0  0  0  0  0  0  0  0  0  # atno 17371 bound_to 10713
  141.2056  133.7855  157.0222 LP  0  0  0  0  0  0  0  0  0  0  0  0  # atno 17394 bound_to 11000
  140.0838  134.9633  157.1667 LP  0  0  0  0  0  0  0  0  0  0  0  0  # atno 17395 bound_to 11000

$$$$
