AV-unprocessed.smi:417|AV-procd|sdf|2527|dock2
  -GOLD-   2262022483D 1   1.00000     0.00000
 Structure written by MMmdl.
 37 38  0  0  0  0  0  0  0  0  1 V2000
  154.5598  134.4116  161.6962 C   0  0  0  0  0  0  0  0  0  0  0  0
  154.8258  135.8041  162.2915 C   0  0  0  0  0  0  0  0  0  0  0  0
  154.3125  135.8988  163.7381 C   0  0  0  0  0  0  0  0  0  0  0  0
  154.1958  136.8991  161.4192 C   0  0  0  0  0  0  0  0  0  0  0  0
  153.5175  136.5821  160.4411 O   0  0  0  0  0  0  0  0  0  0  0  0
  154.4405  138.1672  161.8002 N   0  0  0  0  0  0  0  0  0  0  0  0
  153.9754  139.3710  161.2068 C   0  0  0  0  0  0  0  0  0  0  0  0
  154.4059  140.5564  161.8393 C   0  0  0  0  0  0  0  0  0  0  0  0
  153.9895  141.8032  161.3354 C   0  0  0  0  0  0  0  0  0  0  0  0
  153.1414  141.8505  160.2031 C   0  0  0  0  0  0  0  0  0  0  0  0
  152.6783  143.0617  159.6444 N   0  0  0  0  0  0  0  0  0  0  0  0
  152.1128  144.0639  160.5432 C   0  0  0  0  0  0  0  0  0  0  0  0
  151.9430  145.4065  159.8117 C   0  0  0  0  0  0  0  0  0  0  0  0
  151.1607  145.2173  158.6377 O   0  0  0  0  0  0  0  0  0  0  0  0
  151.7878  144.3236  157.7239 C   0  0  0  0  0  0  0  0  0  0  0  0
  151.9581  142.9416  158.3788 C   0  0  0  0  0  0  0  0  0  0  0  0
  152.7729  140.6085  159.6366 C   0  0  0  0  0  0  0  0  0  0  0  0
  153.1722  139.4125  160.1172 N   0  0  0  0  0  0  0  0  0  0  0  0
  154.9045  134.3479  160.6634 H   0  0  0  0  0  0  0  0  0  0  0  0
  153.4973  134.1653  161.7092 H   0  0  0  0  0  0  0  0  0  0  0  0
  155.0835  133.6410  162.2623 H   0  0  0  0  0  0  0  0  0  0  0  0
  155.9062  135.9575  162.3099 H   0  0  0  0  0  0  0  0  0  0  0  0
  154.5033  136.8851  164.1630 H   0  0  0  0  0  0  0  0  0  0  0  0
  154.8088  135.1673  164.3763 H   0  0  0  0  0  0  0  0  0  0  0  0
  153.2393  135.7124  163.7970 H   0  0  0  0  0  0  0  0  0  0  0  0
  155.0213  138.2821  162.6178 H   0  0  0  0  0  0  0  0  0  0  0  0
  155.0471  140.5169  162.7080 H   0  0  0  0  0  0  0  0  0  0  0  0
  154.3203  142.7000  161.8370 H   0  0  0  0  0  0  0  0  0  0  0  0
  151.1457  143.7168  160.9098 H   0  0  0  0  0  0  0  0  0  0  0  0
  152.7626  144.2052  161.4077 H   0  0  0  0  0  0  0  0  0  0  0  0
  151.4425  146.1259  160.4600 H   0  0  0  0  0  0  0  0  0  0  0  0
  152.9130  145.8335  159.5511 H   0  0  0  0  0  0  0  0  0  0  0  0
  151.1709  144.2407  156.8290 H   0  0  0  0  0  0  0  0  0  0  0  0
  152.7521  144.7256  157.4089 H   0  0  0  0  0  0  0  0  0  0  0  0
  152.4717  142.2810  157.6816 H   0  0  0  0  0  0  0  0  0  0  0  0
  150.9800  142.4991  158.5722 H   0  0  0  0  0  0  0  0  0  0  0  0
  152.1483  140.5601  158.7571 H   0  0  0  0  0  0  0  0  0  0  0  0
  1  2  1  0  0  0  0
  1 19  1  0  0  0  0
  1 20  1  0  0  0  0
  1 21  1  0  0  0  0
  2  3  1  0  0  0  0
  2  4  1  0  0  0  0
  2 22  1  0  0  0  0
  3 23  1  0  0  0  0
  3 24  1  0  0  0  0
  3 25  1  0  0  0  0
  4  5  2  0  0  0  0
  4  6  1  0  0  0  0
  6  7  1  0  0  0  0
  6 26  1  0  0  0  0
  7 18  1  0  0  0  0
  7  8  2  0  0  0  0
  8  9  1  0  0  0  0
  8 27  1  0  0  0  0
  9 10  2  0  0  0  0
  9 28  1  0  0  0  0
 10 11  1  0  0  0  0
 10 17  1  0  0  0  0
 11 16  1  0  0  0  0
 11 12  1  0  0  0  0
 12 13  1  0  0  0  0
 12 29  1  0  0  0  0
 12 30  1  0  0  0  0
 13 14  1  0  0  0  0
 13 31  1  0  0  0  0
 13 32  1  0  0  0  0
 14 15  1  0  0  0  0
 15 16  1  0  0  0  0
 15 33  1  0  0  0  0
 15 34  1  0  0  0  0
 16 35  1  0  0  0  0
 16 36  1  0  0  0  0
 17 18  2  0  0  0  0
 17 37  1  0  0  0  0
M  END
> <s_m_source_file>
AV-unprocessed.smi

> <i_m_source_file_index>
417

> <i_lp_mmshare_version>
43012

> <i_f3d_flags>
0

> <s_epik_input>
W0NIM11bQ0hdKFtDSDNdKUMoPU8pW05IXWMxW2NIXVtjSF1jKFtjSF1uMSlOMltDSDJdW0NIMl1PW0NIMl1bQ0gyXTI=

> <s_epik_cmdline>
J2VwaWtfcHl0aG9uJywgJy1waCcsICc3LjAnLCAnLXRuJywgJzgnLCAnLW1hJywgJzIwMCcsICctbWV0YWxfYmluZGluZycsICctaW1hZScsICc8aW5maWxlLm1hZT4nLCAnLW9tYWUnLCAnPG91dGZpbGUubWFlPic=

> <r_lp_tautomer_probability>
1

> <r_epik_Ionization_Penalty>
0.00384847

> <r_epik_Ionization_Penalty_Charging>
0

> <r_epik_Ionization_Penalty_Neutral>
0.00384847

> <r_epik_State_Penalty>
0.00343319

> <r_epik_Charging_Adjusted_Penalty>
0.00343319

> <i_epik_Tot_Q>
0

> <i_epik_Tot_abs_Q>
0

> <r_epik_Metal_State_Penalty>
-0

> <b_epik_Metal_Only>
0

> <s_lp_Force_Field>
OPLS_2005

> <r_lp_Energy>
26.2331

> <b_lp_Chiralities_Consistent>
1

> <s_lp_Variant>
AV-unprocessed.smi:417-1

> <Gold.Version>
5.8.1

> <Gold.Id.Protein>
6NUR|6NUR_protein|mol2

> <Gold.PLP.Fitness>
40.4956

> <Gold.PLP.PLP>
-38.5714

> <Gold.PLP.part.hbond>
-0.6051

> <Gold.PLP.part.metal>
0.0000

> <Gold.PLP.part.buried>
-4.8793

> <Gold.PLP.part.nonpolar>
-33.5093

> <Gold.PLP.part.repulsive>
0.1447

> <Gold.PLP.ligand.clash>
0.0000

> <Gold.PLP.ligand.torsion>
0.2014

> <Gold.PLP.Chemscore.Hbond>
0.6500

> <Gold.PLP.Chemscore.CHOScore>
0.0000

> <Gold.PLP.Chemscore.Metal>
0.0000

> <Gold.Chemscore.Hbonds>
donor molecule, donor type, donor heavy atom, donor atom, acceptor molecule, acceptor atom, score
      P1  H  6896  6908       L1     5  0.75

> <Gold.PLP.Chemscore.Internal.Correction>
0.3769

> <Gold.Rescore>
     Score         DG    S(hbond)    S(metal)    S(lipo)     H(rot)  DE(clash)    DE(int)     intcor
     16.41     -18.18       0.98        0.00     106.33       1.18       0.14       1.63       ----

> <Gold.Chemscore.Fitness>
16.4120

> <Gold.Chemscore.DG>
-18.1759

> <Gold.Chemscore.ZeroCoef>
-5.4800

> <Gold.Chemscore.Hbond>
0.9769

> <Gold.Chemscore.Metal>
0.0000

> <Gold.Chemscore.Lipo>
106.3329

> <Gold.Chemscore.Internal_Hbond>
0.0000

> <Gold.Chemscore.DEClash>
0.1377

> <Gold.Chemscore.DEInternal>
1.6261

> <Gold.Chemscore.Rot>
1.1750

> <Gold.Chemscore.Internal.Correction>
   9.000000E+99

> <Gold.Chemscore.Hbonds>
donor molecule, donor type, donor heavy atom, donor atom, acceptor molecule, acceptor atom, score
      P1  H  6896  6908       L1     5  0.73

> <Gold.Chemscore.Hbond.Weighted>
-3.2629

> <Gold.Chemscore.Metal.Weighted>
-0.0000

> <Gold.Chemscore.Lipo.Weighted>
-12.4409

> <Gold.Chemscore.Internal_Hbond.Weighted>
0.0000

> <Gold.Chemscore.DEClash.Weighted>
0.1377

> <Gold.Chemscore.DEInternal.Weighted>
1.6261

> <Gold.Chemscore.Rot.Weighted>
3.0080

> <Gold.Chemscore.Internal.Correction.Weighted>
   9.000000E+99

> <Gold.Protein.RotatedTorsions>
[ 6907 6896 6895 6894 ] final  -83.79 input  -60.11 | X-H torsion
[ 7974 7965 7964 7962 ] final  -64.35 input  175.53 | X-H torsion
[ 8008 7997 7996 7995 ] final   17.97 input   59.86 | X-H torsion
[ 10167 10162 10161 10158 ] final  -40.69 input  -65.29 | X-H torsion
[ 10718 10713 10712 10709 ] final -169.49 input   66.30 | X-H torsion
[ 10763 10752 10751 10750 ] final  172.78 input  -60.55 | X-H torsion
[ 11005 11000 10999 10996 ] final  150.16 input  -57.11 | X-H torsion

> <Gold.Protein.ActiveResidues>
 VAL166  LYS551  ARG553  GLY616  TRP617  ASP618  TYR619  PRO620  LYS621  CYS622 
 ASP623  PHE694  ASN695  SER759  ASP760  ASP761  ALA762  ILE779  LEU786  VAL792 
 PHE793  MET794  SER795  GLU796  ALA797  LYS798  CYS799  TRP800  GLU811  SER814 

> <Gold.Protein.RotatedAtoms>
  150.6882  134.3457  159.4886 H   0  0  0  0  0  0  0  0  0  0  0  0  # atno 6907 bound_to 6896
  152.1305  134.9136  160.0568 H   0  0  0  0  0  0  0  0  0  0  0  0  # atno 6908 bound_to 6896
  152.0308  133.3901  159.4333 H   0  0  0  0  0  0  0  0  0  0  0  0  # atno 6909 bound_to 6896
  145.7678  140.8828  143.0396 H   0  0  0  0  0  0  0  0  0  0  0  0  # atno 7974 bound_to 7965
  154.8991  140.2998  155.5327 H   0  0  0  0  0  0  0  0  0  0  0  0  # atno 8008 bound_to 7997
  156.3019  140.2410  156.3951 H   0  0  0  0  0  0  0  0  0  0  0  0  # atno 8009 bound_to 7997
  154.8540  140.0408  157.1611 H   0  0  0  0  0  0  0  0  0  0  0  0  # atno 8010 bound_to 7997
  140.7026  143.3139  151.2960 H   0  0  0  0  0  0  0  0  0  0  0  0  # atno 10167 bound_to 10162
  156.7123  130.9238  151.3090 H   0  0  0  0  0  0  0  0  0  0  0  0  # atno 10718 bound_to 10713
  154.4308  135.2760  155.1914 H   0  0  0  0  0  0  0  0  0  0  0  0  # atno 10763 bound_to 10752
  154.3820  135.6085  153.5800 H   0  0  0  0  0  0  0  0  0  0  0  0  # atno 10764 bound_to 10752
  152.9836  135.5882  154.4619 H   0  0  0  0  0  0  0  0  0  0  0  0  # atno 10765 bound_to 10752
  140.1107  134.8926  157.1932 H   0  0  0  0  0  0  0  0  0  0  0  0  # atno 11005 bound_to 11000
  144.6818  139.9813  143.7483 LP  0  0  0  0  0  0  0  0  0  0  0  0  # atno 17320 bound_to 7965
  146.0200  139.3242  143.0819 LP  0  0  0  0  0  0  0  0  0  0  0  0  # atno 17321 bound_to 7965
  139.6570  144.0257  152.2667 LP  0  0  0  0  0  0  0  0  0  0  0  0  # atno 17342 bound_to 10162
  139.9812  144.6427  150.7899 LP  0  0  0  0  0  0  0  0  0  0  0  0  # atno 17343 bound_to 10162
  157.6931  130.9254  150.0569 LP  0  0  0  0  0  0  0  0  0  0  0  0  # atno 17370 bound_to 10713
  156.1653  130.3645  149.9242 LP  0  0  0  0  0  0  0  0  0  0  0  0  # atno 17371 bound_to 10713
  140.3094  134.3040  155.7270 LP  0  0  0  0  0  0  0  0  0  0  0  0  # atno 17394 bound_to 11000
  141.2129  133.7641  156.9755 LP  0  0  0  0  0  0  0  0  0  0  0  0  # atno 17395 bound_to 11000

$$$$
