AV-unprocessed.smi:2305|AV-procd|sdf|9246|dock8
  -GOLD-   2272012463D 1   1.00000     0.00000
 Structure written by MMmdl.
 40 41  0  0  0  0  0  0  0  0  1 V2000
  151.9683  143.8960  161.4197 C   0  0  0  0  0  0  0  0  0  0  0  0
  151.8525  143.1507  160.1017 C   0  0  0  0  0  0  0  0  0  0  0  0
  151.0101  143.7335  159.1507 N   0  0  0  0  0  0  0  0  0  0  0  0
  150.8511  143.1697  157.9980 C   0  0  0  0  0  0  0  0  0  0  0  0
  151.5011  141.9692  157.6681 N   0  0  0  0  0  0  0  0  0  0  0  0
  151.2347  141.4303  156.3237 C   0  0  0  0  0  0  0  0  0  0  0  0
  150.7741  139.9560  156.3685 C   0  0  2  0  0  0  0  0  0  0  0  0
  151.9157  139.1284  156.2583 O   0  0  0  0  0  0  0  0  0  0  0  0
  149.8310  139.6144  155.1990 C   0  0  0  0  0  0  0  0  0  0  0  0
  148.6125  140.5188  155.1445 C   0  0  0  0  0  0  0  0  0  0  0  0
  147.7069  140.5501  156.2245 C   0  0  0  0  0  0  0  0  0  0  0  0
  146.5743  141.3853  156.1750 C   0  0  0  0  0  0  0  0  0  0  0  0
  146.3365  142.2000  155.0471 C   0  0  0  0  0  0  0  0  0  0  0  0
  145.1044  143.0918  155.0016 C   0  0  0  0  0  0  0  0  0  0  0  0
  145.0681  143.8157  153.8821 F   0  0  0  0  0  0  0  0  0  0  0  0
  144.0106  142.3330  155.0562 F   0  0  0  0  0  0  0  0  0  0  0  0
  145.0992  143.9286  156.0396 F   0  0  0  0  0  0  0  0  0  0  0  0
  147.2426  142.1621  153.9644 C   0  0  0  0  0  0  0  0  0  0  0  0
  148.3763  141.3277  154.0140 C   0  0  0  0  0  0  0  0  0  0  0  0
  152.3457  141.3381  158.5345 C   0  0  0  0  0  0  0  0  0  0  0  0
  152.9222  140.2922  158.2287 O   0  0  0  0  0  0  0  0  0  0  0  0
  152.5183  141.9925  159.8415 C   0  0  0  0  0  0  0  0  0  0  0  0
  153.4527  141.3147  160.8359 C   0  0  0  0  0  0  0  0  0  0  0  0
  151.6535  143.2605  162.2478 H   0  0  0  0  0  0  0  0  0  0  0  0
  151.3419  144.7890  161.4276 H   0  0  0  0  0  0  0  0  0  0  0  0
  152.9984  144.2093  161.5917 H   0  0  0  0  0  0  0  0  0  0  0  0
  150.2122  143.5884  157.2184 H   0  0  0  0  0  0  0  0  0  0  0  0
  150.4572  142.0428  155.8638 H   0  0  0  0  0  0  0  0  0  0  0  0
  152.0909  141.5434  155.6549 H   0  0  0  0  0  0  0  0  0  0  0  0
  150.2649  139.7514  157.3113 H   0  0  0  0  0  0  0  0  0  0  0  0
  152.6817  139.6806  156.2153 H   0  0  0  0  0  0  0  0  0  0  0  0
  150.3616  139.7341  154.2535 H   0  0  0  0  0  0  0  0  0  0  0  0
  149.5238  138.5681  155.2395 H   0  0  0  0  0  0  0  0  0  0  0  0
  147.8775  139.9307  157.0932 H   0  0  0  0  0  0  0  0  0  0  0  0
  145.8852  141.3977  157.0067 H   0  0  0  0  0  0  0  0  0  0  0  0
  147.0737  142.7704  153.0883 H   0  0  0  0  0  0  0  0  0  0  0  0
  149.0621  141.3084  153.1795 H   0  0  0  0  0  0  0  0  0  0  0  0
  154.4540  141.2287  160.4122 H   0  0  0  0  0  0  0  0  0  0  0  0
  153.0946  140.3101  161.0638 H   0  0  0  0  0  0  0  0  0  0  0  0
  153.5418  141.8534  161.7778 H   0  0  0  0  0  0  0  0  0  0  0  0
  1  2  1  0  0  0  0
  1 24  1  0  0  0  0
  1 25  1  0  0  0  0
  1 26  1  0  0  0  0
  2 22  2  0  0  0  0
  2  3  1  0  0  0  0
  3  4  2  0  0  0  0
  4  5  1  0  0  0  0
  4 27  1  0  0  0  0
  5  6  1  0  0  0  0
  5 20  1  0  0  0  0
  6  7  1  0  0  0  0
  6 28  1  0  0  0  0
  6 29  1  0  0  0  0
  7  8  1  0  0  0  0
  7  9  1  0  0  0  0
  7 30  1  0  0  0  0
  8 31  1  0  0  0  0
  9 10  1  0  0  0  0
  9 32  1  0  0  0  0
  9 33  1  0  0  0  0
 10 19  1  0  0  0  0
 10 11  2  0  0  0  0
 11 12  1  0  0  0  0
 11 34  1  0  0  0  0
 12 13  2  0  0  0  0
 12 35  1  0  0  0  0
 13 14  1  0  0  0  0
 13 18  1  0  0  0  0
 14 15  1  0  0  0  0
 14 16  1  0  0  0  0
 14 17  1  0  0  0  0
 18 19  2  0  0  0  0
 18 36  1  0  0  0  0
 19 37  1  0  0  0  0
 20 21  2  0  0  0  0
 20 22  1  0  0  0  0
 22 23  1  0  0  0  0
 23 38  1  0  0  0  0
 23 39  1  0  0  0  0
 23 40  1  0  0  0  0
M  END
> <s_m_source_file>
AV-unprocessed.smi

> <i_m_source_file_index>
2305

> <i_lp_mmshare_version>
43012

> <i_f3d_flags>
0

> <s_epik_input>
W0NIM11jMW5bY0hdbihjKD1PKWMxW0NIM10pW0NIMl1bQ0BIXShbT0hdKVtDSDJdYzJbY0hdW2NIXWMoQyhGKShGKUYpW2NIXVtjSF0y

> <s_epik_cmdline>
J2VwaWtfcHl0aG9uJywgJy1waCcsICc3LjAnLCAnLXRuJywgJzgnLCAnLW1hJywgJzIwMCcsICctbWV0YWxfYmluZGluZycsICctaW1hZScsICc8aW5maWxlLm1hZT4nLCAnLW9tYWUnLCAnPG91dGZpbGUubWFlPic=

> <r_lp_tautomer_probability>
1

> <r_epik_Ionization_Penalty>
8.92636e-05

> <r_epik_Ionization_Penalty_Charging>
8.63033e-08

> <r_epik_Ionization_Penalty_Neutral>
8.91773e-05

> <r_epik_State_Penalty>
-0

> <r_epik_Charging_Adjusted_Penalty>
8.63033e-08

> <i_epik_Tot_Q>
0

> <i_epik_Tot_abs_Q>
0

> <r_epik_Metal_State_Penalty>
-0

> <b_epik_Metal_Only>
0

> <s_lp_Force_Field>
OPLS_2005

> <r_lp_Energy>
20.2426

> <b_lp_Chiralities_Consistent>
1

> <s_lp_Variant>
AV-unprocessed.smi:2305-1

> <Gold.Version>
5.8.1

> <Gold.Id.Protein>
6NUR|6NUR_protein|mol2

> <Gold.PLP.Fitness>
49.5121

> <Gold.PLP.PLP>
-44.4908

> <Gold.PLP.part.hbond>
-1.0000

> <Gold.PLP.part.metal>
0.0000

> <Gold.PLP.part.buried>
-6.6017

> <Gold.PLP.part.nonpolar>
-36.6096

> <Gold.PLP.part.repulsive>
0.0678

> <Gold.PLP.ligand.clash>
0.6135

> <Gold.PLP.ligand.torsion>
0.4619

> <Gold.PLP.Chemscore.Hbond>
0.9600

> <Gold.PLP.Chemscore.CHOScore>
1.0000

> <Gold.PLP.Chemscore.Metal>
0.0000

> <Gold.Chemscore.Hbonds>
donor molecule, donor type, donor heavy atom, donor atom, acceptor molecule, acceptor atom, score
      P1  H  7997  8008       L1    21  0.84
      L1  C     4    27       P1  8028  1.00

> <Gold.PLP.Chemscore.Internal.Correction>
0.6785

> <Gold.Rescore>
     Score         DG    S(hbond)    S(metal)    S(lipo)     H(rot)  DE(clash)    DE(int)     intcor
     10.05     -13.50       0.97        0.00      92.73       2.37       0.09       3.36       ----

> <Gold.Chemscore.Fitness>
10.0508

> <Gold.Chemscore.DG>
-13.4996

> <Gold.Chemscore.ZeroCoef>
-5.4800

> <Gold.Chemscore.Hbond>
0.9678

> <Gold.Chemscore.Metal>
0.0000

> <Gold.Chemscore.Lipo>
92.7325

> <Gold.Chemscore.Internal_Hbond>
0.0000

> <Gold.Chemscore.DEClash>
0.0917

> <Gold.Chemscore.DEInternal>
3.3572

> <Gold.Chemscore.Rot>
2.3681

> <Gold.Chemscore.Internal.Correction>
   9.000000E+99

> <Gold.Chemscore.Hbonds>
donor molecule, donor type, donor heavy atom, donor atom, acceptor molecule, acceptor atom, score
      P1  H  7997  8008       L1    21  0.79

> <Gold.Chemscore.Hbond.Weighted>
-3.2323

> <Gold.Chemscore.Metal.Weighted>
-0.0000

> <Gold.Chemscore.Lipo.Weighted>
-10.8497

> <Gold.Chemscore.Internal_Hbond.Weighted>
0.0000

> <Gold.Chemscore.DEClash.Weighted>
0.0917

> <Gold.Chemscore.DEInternal.Weighted>
3.3572

> <Gold.Chemscore.Rot.Weighted>
6.0624

> <Gold.Chemscore.Internal.Correction.Weighted>
   9.000000E+99

> <Gold.Protein.RotatedTorsions>
[ 6907 6896 6895 6894 ] final  -51.28 input  -60.11 | X-H torsion
[ 7974 7965 7964 7962 ] final -108.54 input  175.53 | X-H torsion
[ 8008 7997 7996 7995 ] final  -76.55 input   59.86 | X-H torsion
[ 10167 10162 10161 10158 ] final -111.78 input  -65.29 | X-H torsion
[ 10718 10713 10712 10709 ] final  173.14 input   66.30 | X-H torsion
[ 10763 10752 10751 10750 ] final  -38.57 input  -60.55 | X-H torsion
[ 11005 11000 10999 10996 ] final  -39.67 input  -57.11 | X-H torsion

> <Gold.Protein.ActiveResidues>
 VAL166  LYS551  ARG553  GLY616  TRP617  ASP618  TYR619  PRO620  LYS621  CYS622 
 ASP623  PHE694  ASN695  SER759  ASP760  ASP761  ALA762  ILE779  LEU786  VAL792 
 PHE793  MET794  SER795  GLU796  ALA797  LYS798  CYS799  TRP800  GLU811  SER814 

> <Gold.Protein.RotatedAtoms>
  150.8626  134.7982  159.7094 H   0  0  0  0  0  0  0  0  0  0  0  0  # atno 6907 bound_to 6896
  152.4658  134.5075  159.9753 H   0  0  0  0  0  0  0  0  0  0  0  0  # atno 6908 bound_to 6896
  151.5177  133.3434  159.2931 H   0  0  0  0  0  0  0  0  0  0  0  0  # atno 6909 bound_to 6896
  145.1916  140.9017  143.3421 H   0  0  0  0  0  0  0  0  0  0  0  0  # atno 7974 bound_to 7965
  154.5516  140.0725  156.8676 H   0  0  0  0  0  0  0  0  0  0  0  0  # atno 8008 bound_to 7997
  155.2983  140.3382  155.4231 H   0  0  0  0  0  0  0  0  0  0  0  0  # atno 8009 bound_to 7997
  156.1966  140.1706  156.7972 H   0  0  0  0  0  0  0  0  0  0  0  0  # atno 8010 bound_to 7997
  140.1298  143.4370  152.1635 H   0  0  0  0  0  0  0  0  0  0  0  0  # atno 10167 bound_to 10162
  156.9687  131.0083  151.2910 H   0  0  0  0  0  0  0  0  0  0  0  0  # atno 10718 bound_to 10713
  153.9150  135.6788  153.4749 H   0  0  0  0  0  0  0  0  0  0  0  0  # atno 10763 bound_to 10752
  153.1058  135.4806  154.8946 H   0  0  0  0  0  0  0  0  0  0  0  0  # atno 10764 bound_to 10752
  154.7507  135.3184  154.8518 H   0  0  0  0  0  0  0  0  0  0  0  0  # atno 10765 bound_to 10752
  141.0119  133.6904  156.2218 H   0  0  0  0  0  0  0  0  0  0  0  0  # atno 11005 bound_to 11000
  145.0036  139.3575  143.6155 LP  0  0  0  0  0  0  0  0  0  0  0  0  # atno 17320 bound_to 7965
  146.3435  139.9269  142.8759 LP  0  0  0  0  0  0  0  0  0  0  0  0  # atno 17321 bound_to 7965
  139.5525  144.7348  151.4391 LP  0  0  0  0  0  0  0  0  0  0  0  0  # atno 17342 bound_to 10162
  140.6823  143.8053  150.7139 LP  0  0  0  0  0  0  0  0  0  0  0  0  # atno 17343 bound_to 10162
  157.5608  130.8244  149.8263 LP  0  0  0  0  0  0  0  0  0  0  0  0  # atno 17370 bound_to 10713
  156.0292  130.3770  150.1736 LP  0  0  0  0  0  0  0  0  0  0  0  0  # atno 17371 bound_to 10713
  140.6720  134.4858  157.5587 LP  0  0  0  0  0  0  0  0  0  0  0  0  # atno 17394 bound_to 11000
  139.9094  134.8377  156.1582 LP  0  0  0  0  0  0  0  0  0  0  0  0  # atno 17395 bound_to 11000

$$$$
