AV-unprocessed.smi:2227|AV-procd|sdf|9021|dock4
  -GOLD-   2272012223D 1   1.00000     0.00000
 Structure written by MMmdl.
 43 45  0  0  0  0  0  0  0  0  2 V2000
  147.2443  138.9488  153.2805 C   0  0  0  0  0  0  0  0  0  0  0  0
  147.9994  139.8418  154.2751 C   0  0  0  0  0  0  0  0  0  0  0  0
  147.8682  141.3284  153.9115 C   0  0  0  0  0  0  0  0  0  0  0  0
  149.4394  139.4224  154.3939 C   0  0  0  0  0  0  0  0  0  0  0  0
  149.9567  138.3054  153.8661 N   0  3  0  0  0  0  0  0  0  0  0  0
  151.2822  138.1922  154.1816 C   0  0  0  0  0  0  0  0  0  0  0  0
  151.5907  139.2843  154.9477 C   0  0  0  0  0  0  0  0  0  0  0  0
  150.4398  140.0221  155.0689 N   0  0  0  0  0  0  0  0  0  0  0  0
  150.3042  141.2775  155.8228 C   0  0  0  0  0  0  0  0  0  0  0  0
  150.9263  141.1725  157.2173 C   0  0  0  0  0  0  0  0  0  0  0  0
  151.2420  140.0720  157.6689 O   0  0  0  0  0  0  0  0  0  0  0  0
  151.0834  142.3242  157.8877 N   0  0  0  0  0  0  0  0  0  0  0  0
  151.6404  142.4607  159.2292 C   0  0  0  0  0  0  0  0  0  0  0  0
  152.1026  143.8822  159.4948 C   0  0  0  0  0  0  0  0  0  0  0  0
  152.0243  144.4960  160.8726 C   0  0  0  0  0  0  0  0  0  0  0  0
  151.1098  144.9857  159.7732 C   0  0  0  0  0  0  0  0  0  0  0  0
  152.7718  141.4791  159.4892 C   0  0  0  0  0  0  0  0  0  0  0  0
  153.4542  141.4020  160.8348 C   0  0  0  0  0  0  0  0  0  0  0  0
  154.2011  141.9452  159.6386 C   0  0  0  0  0  0  0  0  0  0  0  0
  147.3039  137.8992  153.5703 H   0  0  0  0  0  0  0  0  0  0  0  0
  147.6548  139.0390  152.2745 H   0  0  0  0  0  0  0  0  0  0  0  0
  146.1887  139.2177  153.2339 H   0  0  0  0  0  0  0  0  0  0  0  0
  147.5465  139.7080  155.2558 H   0  0  0  0  0  0  0  0  0  0  0  0
  148.3717  141.9570  154.6465 H   0  0  0  0  0  0  0  0  0  0  0  0
  146.8216  141.6324  153.8814 H   0  0  0  0  0  0  0  0  0  0  0  0
  148.3027  141.5433  152.9347 H   0  0  0  0  0  0  0  0  0  0  0  0
  151.8889  137.3619  153.8505 H   0  0  0  0  0  0  0  0  0  0  0  0
  152.5209  139.5809  155.4106 H   0  0  0  0  0  0  0  0  0  0  0  0
  150.8130  142.0655  155.2663 H   0  0  0  0  0  0  0  0  0  0  0  0
  149.2493  141.5519  155.8654 H   0  0  0  0  0  0  0  0  0  0  0  0
  150.7959  143.1785  157.4322 H   0  0  0  0  0  0  0  0  0  0  0  0
  150.8488  142.2475  159.9506 H   0  0  0  0  0  0  0  0  0  0  0  0
  152.9731  144.1693  158.9073 H   0  0  0  0  0  0  0  0  0  0  0  0
  151.5730  143.9096  161.6702 H   0  0  0  0  0  0  0  0  0  0  0  0
  152.8393  145.1491  161.1780 H   0  0  0  0  0  0  0  0  0  0  0  0
  151.3142  145.9647  159.3448 H   0  0  0  0  0  0  0  0  0  0  0  0
  150.0575  144.7196  159.8475 H   0  0  0  0  0  0  0  0  0  0  0  0
  152.6443  140.5295  158.9724 H   0  0  0  0  0  0  0  0  0  0  0  0
  153.1559  142.1147  161.6010 H   0  0  0  0  0  0  0  0  0  0  0  0
  153.7337  140.4157  161.1992 H   0  0  0  0  0  0  0  0  0  0  0  0
  154.9800  141.3213  159.2048 H   0  0  0  0  0  0  0  0  0  0  0  0
  154.3966  143.0153  159.6199 H   0  0  0  0  0  0  0  0  0  0  0  0
  149.4342  137.6375  153.3134 H   0  0  0  0  0  0  0  0  0  0  0  0
  1  2  1  0  0  0  0
  1 20  1  0  0  0  0
  1 21  1  0  0  0  0
  1 22  1  0  0  0  0
  2  3  1  0  0  0  0
  2  4  1  0  0  0  0
  2 23  1  0  0  0  0
  3 24  1  0  0  0  0
  3 25  1  0  0  0  0
  3 26  1  0  0  0  0
  4  8  1  0  0  0  0
  4  5  2  0  0  0  0
  5  6  1  0  0  0  0
  5 43  1  0  0  0  0
  6  7  2  0  0  0  0
  6 27  1  0  0  0  0
  7  8  1  0  0  0  0
  7 28  1  0  0  0  0
  8  9  1  0  0  0  0
  9 10  1  0  0  0  0
  9 29  1  0  0  0  0
  9 30  1  0  0  0  0
 10 11  2  0  0  0  0
 10 12  1  0  0  0  0
 12 13  1  0  0  0  0
 12 31  1  0  0  0  0
 13 14  1  0  0  0  0
 13 17  1  0  0  0  0
 13 32  1  0  0  0  0
 14 16  1  0  0  0  0
 14 15  1  0  0  0  0
 14 33  1  0  0  0  0
 15 16  1  0  0  0  0
 15 34  1  0  0  0  0
 15 35  1  0  0  0  0
 16 36  1  0  0  0  0
 16 37  1  0  0  0  0
 17 19  1  0  0  0  0
 17 18  1  0  0  0  0
 17 38  1  0  0  0  0
 18 19  1  0  0  0  0
 18 39  1  0  0  0  0
 18 40  1  0  0  0  0
 19 41  1  0  0  0  0
 19 42  1  0  0  0  0
M  CHG  1   5   1
M  END
> <s_m_source_file>
AV-unprocessed.smi

> <i_m_source_file_index>
2227

> <i_lp_mmshare_version>
43012

> <i_f3d_flags>
0

> <s_epik_input>
W0NIM11bQ0hdKFtDSDNdKWMxbltjSF1bY0hdbjFbQ0gyXUMoPU8pW05IXVtDSF0oW0NIXTJbQ0gyXVtDSDJdMilbQ0hdM1tDSDJdW0NIMl0z

> <s_epik_cmdline>
J2VwaWtfcHl0aG9uJywgJy1waCcsICc3LjAnLCAnLXRuJywgJzgnLCAnLW1hJywgJzIwMCcsICctbWV0YWxfYmluZGluZycsICctaW1hZScsICc8aW5maWxlLm1hZT4nLCAnLW9tYWUnLCAnPG91dGZpbGUubWFlPic=

> <r_lp_tautomer_probability>
1

> <r_epik_Ionization_Penalty>
0.258813

> <r_epik_Ionization_Penalty_Charging>
0

> <r_epik_Ionization_Penalty_Neutral>
0.258813

> <r_epik_State_Penalty>
0.250457

> <r_epik_Charging_Adjusted_Penalty>
0.250457

> <i_epik_Tot_Q>
1

> <i_epik_Tot_abs_Q>
1

> <r_epik_Metal_State_Penalty>
0.539096

> <b_epik_Metal_Only>
0

> <s_lp_Force_Field>
OPLS_2005

> <r_lp_Energy>
28.4044

> <b_lp_Chiralities_Consistent>
1

> <s_lp_Variant>
AV-unprocessed.smi:2227-1

> <Gold.Version>
5.8.1

> <Gold.Id.Protein>
6NUR|6NUR_protein|mol2

> <Gold.PLP.Fitness>
51.7124

> <Gold.PLP.PLP>
-47.5589

> <Gold.PLP.part.hbond>
-1.1694

> <Gold.PLP.part.metal>
0.0000

> <Gold.PLP.part.buried>
-4.6114

> <Gold.PLP.part.nonpolar>
-41.5458

> <Gold.PLP.part.repulsive>
0.0945

> <Gold.PLP.ligand.clash>
0.0000

> <Gold.PLP.ligand.torsion>
2.0118

> <Gold.PLP.Chemscore.Hbond>
2.0000

> <Gold.PLP.Chemscore.CHOScore>
0.0000

> <Gold.PLP.Chemscore.Metal>
0.0000

> <Gold.Chemscore.Hbonds>
donor molecule, donor type, donor heavy atom, donor atom, acceptor molecule, acceptor atom, score
      L1  H     5    43       P1  7948  1.92

> <Gold.PLP.Chemscore.Internal.Correction>
2.1770

> <Gold.Rescore>
     Score         DG    S(hbond)    S(metal)    S(lipo)     H(rot)  DE(clash)    DE(int)     intcor
     13.28     -17.75       0.93        0.00     116.30       1.74       0.14       4.32       ----

> <Gold.Chemscore.Fitness>
13.2823

> <Gold.Chemscore.DG>
-17.7464

> <Gold.Chemscore.ZeroCoef>
-5.4800

> <Gold.Chemscore.Hbond>
0.9315

> <Gold.Chemscore.Metal>
0.0000

> <Gold.Chemscore.Lipo>
116.3033

> <Gold.Chemscore.Internal_Hbond>
0.0000

> <Gold.Chemscore.DEClash>
0.1407

> <Gold.Chemscore.DEInternal>
4.3234

> <Gold.Chemscore.Rot>
1.7392

> <Gold.Chemscore.Internal.Correction>
   9.000000E+99

> <Gold.Chemscore.Hbonds>
donor molecule, donor type, donor heavy atom, donor atom, acceptor molecule, acceptor atom, score
      L1  H     5    43       P1  7948  0.86

> <Gold.Chemscore.Hbond.Weighted>
-3.1113

> <Gold.Chemscore.Metal.Weighted>
-0.0000

> <Gold.Chemscore.Lipo.Weighted>
-13.6075

> <Gold.Chemscore.Internal_Hbond.Weighted>
0.0000

> <Gold.Chemscore.DEClash.Weighted>
0.1407

> <Gold.Chemscore.DEInternal.Weighted>
4.3234

> <Gold.Chemscore.Rot.Weighted>
4.4524

> <Gold.Chemscore.Internal.Correction.Weighted>
   9.000000E+99

> <Gold.Protein.RotatedTorsions>
[ 6907 6896 6895 6894 ] final -170.16 input  -60.11 | X-H torsion
[ 7974 7965 7964 7962 ] final  165.39 input  175.53 | X-H torsion
[ 8008 7997 7996 7995 ] final   36.91 input   59.86 | X-H torsion
[ 10167 10162 10161 10158 ] final   39.20 input  -65.29 | X-H torsion
[ 10718 10713 10712 10709 ] final   -5.00 input   66.30 | X-H torsion
[ 10763 10752 10751 10750 ] final  161.75 input  -60.55 | X-H torsion
[ 11005 11000 10999 10996 ] final  128.30 input  -57.11 | X-H torsion

> <Gold.Protein.ActiveResidues>
 VAL166  LYS551  ARG553  GLY616  TRP617  ASP618  TYR619  PRO620  LYS621  CYS622 
 ASP623  PHE694  ASN695  SER759  ASP760  ASP761  ALA762  ILE779  LEU786  VAL792 
 PHE793  MET794  SER795  GLU796  ALA797  LYS798  CYS799  TRP800  GLU811  SER814 

> <Gold.Protein.RotatedAtoms>
  151.5033  133.3500  159.2872 H   0  0  0  0  0  0  0  0  0  0  0  0  # atno 6907 bound_to 6896
  150.8759  134.8144  159.7200 H   0  0  0  0  0  0  0  0  0  0  0  0  # atno 6908 bound_to 6896
  152.4730  134.4924  159.9751 H   0  0  0  0  0  0  0  0  0  0  0  0  # atno 6909 bound_to 6896
  144.7504  139.8463  143.6368 H   0  0  0  0  0  0  0  0  0  0  0  0  # atno 7974 bound_to 7965
  155.1951  140.3311  155.4352 H   0  0  0  0  0  0  0  0  0  0  0  0  # atno 8008 bound_to 7997
  156.2428  140.1903  156.6991 H   0  0  0  0  0  0  0  0  0  0  0  0  # atno 8009 bound_to 7997
  154.6180  140.0599  156.9564 H   0  0  0  0  0  0  0  0  0  0  0  0  # atno 8010 bound_to 7997
  140.3862  144.1913  150.6130 H   0  0  0  0  0  0  0  0  0  0  0  0  # atno 10167 bound_to 10162
  156.7530  130.5245  149.5800 H   0  0  0  0  0  0  0  0  0  0  0  0  # atno 10718 bound_to 10713
  154.2677  135.2766  155.2751 H   0  0  0  0  0  0  0  0  0  0  0  0  # atno 10763 bound_to 10752
  154.5329  135.5724  153.6777 H   0  0  0  0  0  0  0  0  0  0  0  0  # atno 10764 bound_to 10752
  152.9950  135.6232  154.2830 H   0  0  0  0  0  0  0  0  0  0  0  0  # atno 10765 bound_to 10752
  139.9553  134.9614  156.8982 H   0  0  0  0  0  0  0  0  0  0  0  0  # atno 11005 bound_to 11000
  146.1447  139.4513  143.0087 LP  0  0  0  0  0  0  0  0  0  0  0  0  # atno 17320 bound_to 7965
  145.6964  141.0149  143.1528 LP  0  0  0  0  0  0  0  0  0  0  0  0  # atno 17321 bound_to 7965
  140.4886  143.2355  151.8851 LP  0  0  0  0  0  0  0  0  0  0  0  0  # atno 17342 bound_to 10162
  139.4792  144.5190  151.8827 LP  0  0  0  0  0  0  0  0  0  0  0  0  # atno 17343 bound_to 10162
  156.1388  130.6230  151.0438 LP  0  0  0  0  0  0  0  0  0  0  0  0  # atno 17370 bound_to 10713
  157.6768  131.0848  150.7473 LP  0  0  0  0  0  0  0  0  0  0  0  0  # atno 17371 bound_to 10713
  140.5623  134.0523  155.7403 LP  0  0  0  0  0  0  0  0  0  0  0  0  # atno 17394 bound_to 11000
  141.1224  133.9440  157.2704 LP  0  0  0  0  0  0  0  0  0  0  0  0  # atno 17395 bound_to 11000

$$$$
