AV-unprocessed.smi:1220|AV-procd|sdf|5116|dock10
  -GOLD-   22720 4173D 1   1.00000     0.00000
 Structure written by MMmdl.
 35 36  0  0  0  0  0  0  0  0  1 V2000
  153.7192  140.0668  160.6516 C   0  0  0  0  0  0  0  0  0  0  0  0
  153.2086  141.2604  159.8334 C   0  0  2  0  0  0  0  0  0  0  0  0
  152.8405  142.4513  160.7450 C   0  0  0  0  0  0  0  0  0  0  0  0
  152.6234  143.6806  160.0011 N   0  0  0  0  0  0  0  0  0  0  0  0
  152.8473  143.9229  158.6622 C   0  0  0  0  0  0  0  0  0  0  0  0
  152.4680  145.2108  158.4134 C   0  0  0  0  0  0  0  0  0  0  0  0
  152.0259  145.6840  159.6803 C   0  0  0  0  0  0  0  0  0  0  0  0
  152.1246  144.7677  160.6297 N   0  0  0  0  0  0  0  0  0  0  0  0
  152.0555  140.8360  159.0399 N   0  0  0  0  0  0  0  0  0  0  0  0
  152.1006  140.0396  157.9595 C   0  0  0  0  0  0  0  0  0  0  0  0
  153.1386  139.5215  157.5461 O   0  0  0  0  0  0  0  0  0  0  0  0
  150.7713  139.8101  157.2240 C   0  0  1  0  0  0  0  0  0  0  0  0
  150.8775  140.2190  155.7365 C   0  0  0  0  0  0  0  0  0  0  0  0
  151.4828  139.0671  154.9281 C   0  0  0  0  0  0  0  0  0  0  0  0
  150.8515  137.5422  155.7171 S   0  0  0  0  0  0  0  0  0  0  0  0
  149.6497  137.0890  155.0003 O   0  0  0  0  0  0  0  0  0  0  0  0
  151.9739  136.6251  155.9661 O   0  0  0  0  0  0  0  0  0  0  0  0
  150.3331  138.3318  157.2924 C   0  0  0  0  0  0  0  0  0  0  0  0
  154.6000  140.3393  161.2337 H   0  0  0  0  0  0  0  0  0  0  0  0
  153.9990  139.2362  160.0026 H   0  0  0  0  0  0  0  0  0  0  0  0
  152.9600  139.7059  161.3464 H   0  0  0  0  0  0  0  0  0  0  0  0
  154.0209  141.5668  159.1719 H   0  0  0  0  0  0  0  0  0  0  0  0
  151.9481  142.2238  161.3308 H   0  0  0  0  0  0  0  0  0  0  0  0
  153.6428  142.6341  161.4610 H   0  0  0  0  0  0  0  0  0  0  0  0
  153.2436  143.1636  158.0043 H   0  0  0  0  0  0  0  0  0  0  0  0
  152.4988  145.7345  157.4695 H   0  0  0  0  0  0  0  0  0  0  0  0
  151.6386  146.6589  159.9368 H   0  0  0  0  0  0  0  0  0  0  0  0
  151.1587  141.2152  159.3074 H   0  0  0  0  0  0  0  0  0  0  0  0
  150.0130  140.4259  157.7105 H   0  0  0  0  0  0  0  0  0  0  0  0
  149.8743  140.4228  155.3602 H   0  0  0  0  0  0  0  0  0  0  0  0
  151.4493  141.1377  155.5989 H   0  0  0  0  0  0  0  0  0  0  0  0
  151.2093  139.0902  153.8732 H   0  0  0  0  0  0  0  0  0  0  0  0
  152.5703  139.0662  155.0069 H   0  0  0  0  0  0  0  0  0  0  0  0
  150.7634  137.7842  158.1322 H   0  0  0  0  0  0  0  0  0  0  0  0
  149.2484  138.2549  157.3659 H   0  0  0  0  0  0  0  0  0  0  0  0
  1  2  1  0  0  0  0
  1 19  1  0  0  0  0
  1 20  1  0  0  0  0
  1 21  1  0  0  0  0
  2  3  1  0  0  0  0
  2  9  1  0  0  0  0
  2 22  1  0  0  0  0
  3  4  1  0  0  0  0
  3 23  1  0  0  0  0
  3 24  1  0  0  0  0
  4  8  1  0  0  0  0
  4  5  1  0  0  0  0
  5  6  2  0  0  0  0
  5 25  1  0  0  0  0
  6  7  1  0  0  0  0
  6 26  1  0  0  0  0
  7  8  2  0  0  0  0
  7 27  1  0  0  0  0
  9 10  1  0  0  0  0
  9 28  1  0  0  0  0
 10 11  2  0  0  0  0
 10 12  1  0  0  0  0
 12 18  1  0  0  0  0
 12 13  1  0  0  0  0
 12 29  1  0  0  0  0
 13 14  1  0  0  0  0
 13 30  1  0  0  0  0
 13 31  1  0  0  0  0
 14 15  1  0  0  0  0
 14 32  1  0  0  0  0
 14 33  1  0  0  0  0
 15 16  2  0  0  0  0
 15 17  2  0  0  0  0
 15 18  1  0  0  0  0
 18 34  1  0  0  0  0
 18 35  1  0  0  0  0
M  END
> <s_m_source_file>
AV-unprocessed.smi

> <i_m_source_file_index>
1220

> <i_lp_mmshare_version>
43012

> <i_f3d_flags>
0

> <s_epik_input>
bjFbY0hdW2NIXVtjSF1uMVtDSDJdW0NAQEhdKFtDSDNdKVtOSF1DKD1PKVtDQEBIXShbQ0gyXTIpW0NIMl1bQ0gyXVMyKD1PKT1P

> <s_epik_cmdline>
J2VwaWtfcHl0aG9uJywgJy1waCcsICc3LjAnLCAnLXRuJywgJzgnLCAnLW1hJywgJzIwMCcsICctbWV0YWxfYmluZGluZycsICctaW1hZScsICc8aW5maWxlLm1hZT4nLCAnLW9tYWUnLCAnPG91dGZpbGUubWFlPic=

> <r_lp_tautomer_probability>
1

> <r_epik_Ionization_Penalty>
0.000293905

> <r_epik_Ionization_Penalty_Charging>
0

> <r_epik_Ionization_Penalty_Neutral>
0.000293905

> <r_epik_State_Penalty>
-0

> <r_epik_Charging_Adjusted_Penalty>
0

> <i_epik_Tot_Q>
0

> <i_epik_Tot_abs_Q>
0

> <r_epik_Metal_State_Penalty>
-0

> <b_epik_Metal_Only>
0

> <s_lp_Force_Field>
OPLS_2005

> <r_lp_Energy>
1.9569

> <b_lp_Chiralities_Consistent>
1

> <s_lp_Variant>
AV-unprocessed.smi:1220-3

> <Gold.Version>
5.8.1

> <Gold.Id.Protein>
6NUR|6NUR_protein|mol2

> <Gold.PLP.Fitness>
45.6803

> <Gold.PLP.PLP>
-40.3505

> <Gold.PLP.part.hbond>
-1.8250

> <Gold.PLP.part.metal>
0.0000

> <Gold.PLP.part.buried>
-5.2554

> <Gold.PLP.part.nonpolar>
-34.1751

> <Gold.PLP.part.repulsive>
0.4665

> <Gold.PLP.ligand.clash>
0.0000

> <Gold.PLP.ligand.torsion>
0.3314

> <Gold.PLP.Chemscore.Hbond>
1.9920

> <Gold.PLP.Chemscore.CHOScore>
0.0000

> <Gold.PLP.Chemscore.Metal>
0.0000

> <Gold.Chemscore.Hbonds>
donor molecule, donor type, donor heavy atom, donor atom, acceptor molecule, acceptor atom, score
      P1  H  7997  8010       L1    11  1.00
      P1  H 10752 10763       L1    17  1.00

> <Gold.PLP.Chemscore.Internal.Correction>
0.0166

> <Gold.Rescore>
     Score         DG    S(hbond)    S(metal)    S(lipo)     H(rot)  DE(clash)    DE(int)     intcor
     17.49     -17.88       1.98        0.00      87.65       1.75       0.03       0.36       ----

> <Gold.Chemscore.Fitness>
17.4858

> <Gold.Chemscore.DG>
-17.8752

> <Gold.Chemscore.ZeroCoef>
-5.4800

> <Gold.Chemscore.Hbond>
1.9791

> <Gold.Chemscore.Metal>
0.0000

> <Gold.Chemscore.Lipo>
87.6481

> <Gold.Chemscore.Internal_Hbond>
0.0000

> <Gold.Chemscore.DEClash>
0.0270

> <Gold.Chemscore.DEInternal>
0.3624

> <Gold.Chemscore.Rot>
1.7460

> <Gold.Chemscore.Internal.Correction>
   9.000000E+99

> <Gold.Chemscore.Hbonds>
donor molecule, donor type, donor heavy atom, donor atom, acceptor molecule, acceptor atom, score
      P1  H  7997  8010       L1    11  0.98
      P1  H 10752 10763       L1    17  0.99

> <Gold.Chemscore.Hbond.Weighted>
-6.6101

> <Gold.Chemscore.Metal.Weighted>
-0.0000

> <Gold.Chemscore.Lipo.Weighted>
-10.2548

> <Gold.Chemscore.Internal_Hbond.Weighted>
0.0000

> <Gold.Chemscore.DEClash.Weighted>
0.0270

> <Gold.Chemscore.DEInternal.Weighted>
0.3624

> <Gold.Chemscore.Rot.Weighted>
4.4697

> <Gold.Chemscore.Internal.Correction.Weighted>
   9.000000E+99

> <Gold.Protein.RotatedTorsions>
[ 6907 6896 6895 6894 ] final   28.85 input  -60.11 | X-H torsion
[ 7974 7965 7964 7962 ] final   58.01 input  175.53 | X-H torsion
[ 8008 7997 7996 7995 ] final   61.69 input   59.86 | X-H torsion
[ 10167 10162 10161 10158 ] final  -84.28 input  -65.29 | X-H torsion
[ 10718 10713 10712 10709 ] final  -47.85 input   66.30 | X-H torsion
[ 10763 10752 10751 10750 ] final   76.06 input  -60.55 | X-H torsion
[ 11005 11000 10999 10996 ] final  179.70 input  -57.11 | X-H torsion

> <Gold.Protein.ActiveResidues>
 VAL166  LYS551  ARG553  GLY616  TRP617  ASP618  TYR619  PRO620  LYS621  CYS622 
 ASP623  PHE694  ASN695  SER759  ASP760  ASP761  ALA762  ILE779  LEU786  VAL792 
 PHE793  MET794  SER795  GLU796  ALA797  LYS798  CYS799  TRP800  GLU811  SER814 

> <Gold.Protein.RotatedAtoms>
  152.0230  134.9811  160.0570 H   0  0  0  0  0  0  0  0  0  0  0  0  # atno 6907 bound_to 6896
  152.1318  133.4407  159.4733 H   0  0  0  0  0  0  0  0  0  0  0  0  # atno 6908 bound_to 6896
  150.6857  134.2329  159.4485 H   0  0  0  0  0  0  0  0  0  0  0  0  # atno 6909 bound_to 6896
  145.9229  139.3744  143.0467 H   0  0  0  0  0  0  0  0  0  0  0  0  # atno 7974 bound_to 7965
  155.6024  140.3494  155.4598 H   0  0  0  0  0  0  0  0  0  0  0  0  # atno 8008 bound_to 7997
  156.0218  140.1255  157.0374 H   0  0  0  0  0  0  0  0  0  0  0  0  # atno 8009 bound_to 7997
  154.4318  140.1061  156.5960 H   0  0  0  0  0  0  0  0  0  0  0  0  # atno 8010 bound_to 7997
  140.4147  143.2608  151.8971 H   0  0  0  0  0  0  0  0  0  0  0  0  # atno 10167 bound_to 10162
  156.2044  130.4157  149.9197 H   0  0  0  0  0  0  0  0  0  0  0  0  # atno 10718 bound_to 10713
  153.0698  135.4965  154.8280 H   0  0  0  0  0  0  0  0  0  0  0  0  # atno 10763 bound_to 10752
  154.7006  135.3001  154.9348 H   0  0  0  0  0  0  0  0  0  0  0  0  # atno 10764 bound_to 10752
  154.0073  135.6758  153.4816 H   0  0  0  0  0  0  0  0  0  0  0  0  # atno 10765 bound_to 10752
  140.4091  134.6708  157.4604 H   0  0  0  0  0  0  0  0  0  0  0  0  # atno 11005 bound_to 11000
  145.8527  140.9520  143.0741 LP  0  0  0  0  0  0  0  0  0  0  0  0  # atno 17320 bound_to 7965
  144.6755  140.0427  143.7480 LP  0  0  0  0  0  0  0  0  0  0  0  0  # atno 17321 bound_to 7965
  139.4782  144.5500  151.8399 LP  0  0  0  0  0  0  0  0  0  0  0  0  # atno 17342 bound_to 10162
  140.4600  144.1736  150.5905 LP  0  0  0  0  0  0  0  0  0  0  0  0  # atno 17343 bound_to 10162
  156.6896  130.8890  151.3586 LP  0  0  0  0  0  0  0  0  0  0  0  0  # atno 17370 bound_to 10713
  157.7004  130.9327  150.0768 LP  0  0  0  0  0  0  0  0  0  0  0  0  # atno 17371 bound_to 10713
  140.0281  134.6447  155.9145 LP  0  0  0  0  0  0  0  0  0  0  0  0  # atno 17394 bound_to 11000
  141.1828  133.6549  156.5091 LP  0  0  0  0  0  0  0  0  0  0  0  0  # atno 17395 bound_to 11000

$$$$
