AV-unprocessed.smi:527|AV-procd|sdf|2829|dock7
  -GOLD-   2262023313D 1   1.00000     0.00000
 Structure written by MMmdl.
 43 44  0  0  0  0  0  0  0  0  2 V2000
  146.1885  142.4824  153.9361 C   0  0  0  0  0  0  0  0  0  0  0  0
  147.1448  141.3790  154.4180 C   0  0  2  0  0  0  0  0  0  0  0  0
  148.6182  141.8294  154.3542 C   0  0  0  0  0  0  0  0  0  0  0  0
  149.5575  140.7614  154.9364 C   0  0  0  0  0  0  0  0  0  0  0  0
  149.3547  139.3991  154.2562 C   0  0  0  0  0  0  0  0  0  0  0  0
  147.8811  138.9528  154.3233 C   0  0  2  0  0  0  0  0  0  0  0  0
  147.7339  137.6390  153.6991 N   0  0  0  0  0  0  0  0  0  0  0  0
  146.7702  136.7496  153.9802 C   0  0  0  0  0  0  0  0  0  0  0  0
  145.8578  136.9696  154.7793 O   0  0  0  0  0  0  0  0  0  0  0  0
  146.9392  135.6140  153.2754 N   0  0  0  0  0  0  0  0  0  0  0  0
  146.1057  134.5548  153.2156 C   0  0  0  0  0  0  0  0  0  0  0  0
  145.0305  134.4605  153.8106 O   0  0  0  0  0  0  0  0  0  0  0  0
  146.5577  133.4021  152.3174 C   0  0  0  0  0  0  0  0  0  0  0  0
  145.5706  133.1279  151.2683 N   0  0  0  0  0  0  0  0  0  0  0  0
  145.6920  132.2508  150.2205 C   0  0  0  0  0  0  0  0  0  0  0  0
  144.5264  132.3350  149.5031 C   0  0  0  0  0  0  0  0  0  0  0  0
  143.7435  133.2596  150.1414 N   0  3  0  0  0  0  0  0  0  0  0  0
  144.3793  133.7397  151.2151 C   0  0  0  0  0  0  0  0  0  0  0  0
  146.9319  140.0171  153.7046 C   0  0  2  0  0  0  0  0  0  0  0  0
  147.0349  140.1026  152.1640 C   0  0  0  0  0  0  0  0  0  0  0  0
  146.4105  142.7958  152.9160 H   0  0  0  0  0  0  0  0  0  0  0  0
  146.2655  143.3664  154.5700 H   0  0  0  0  0  0  0  0  0  0  0  0
  145.1517  142.1466  153.9677 H   0  0  0  0  0  0  0  0  0  0  0  0
  146.9096  141.2188  155.4715 H   0  0  0  0  0  0  0  0  0  0  0  0
  148.9016  142.0478  153.3242 H   0  0  0  0  0  0  0  0  0  0  0  0
  148.7457  142.7605  154.9073 H   0  0  0  0  0  0  0  0  0  0  0  0
  150.5950  141.0802  154.8298 H   0  0  0  0  0  0  0  0  0  0  0  0
  149.3743  140.6631  156.0072 H   0  0  0  0  0  0  0  0  0  0  0  0
  149.6862  139.4554  153.2188 H   0  0  0  0  0  0  0  0  0  0  0  0
  149.9905  138.6562  154.7393 H   0  0  0  0  0  0  0  0  0  0  0  0
  147.6267  138.8449  155.3800 H   0  0  0  0  0  0  0  0  0  0  0  0
  148.4215  137.3927  153.0022 H   0  0  0  0  0  0  0  0  0  0  0  0
  147.7856  135.5497  152.7294 H   0  0  0  0  0  0  0  0  0  0  0  0
  147.5140  133.6289  151.8430 H   0  0  0  0  0  0  0  0  0  0  0  0
  146.6946  132.4950  152.9084 H   0  0  0  0  0  0  0  0  0  0  0  0
  146.5752  131.6472  150.0666 H   0  0  0  0  0  0  0  0  0  0  0  0
  144.2039  131.8204  148.6095 H   0  0  0  0  0  0  0  0  0  0  0  0
  144.0062  134.4796  151.9014 H   0  0  0  0  0  0  0  0  0  0  0  0
  145.9099  139.7047  153.9235 H   0  0  0  0  0  0  0  0  0  0  0  0
  148.0193  140.4338  151.8361 H   0  0  0  0  0  0  0  0  0  0  0  0
  146.3006  140.7944  151.7531 H   0  0  0  0  0  0  0  0  0  0  0  0
  146.8407  139.1381  151.6956 H   0  0  0  0  0  0  0  0  0  0  0  0
  142.8175  133.5425  149.8449 H   0  0  0  0  0  0  0  0  0  0  0  0
  1  2  1  0  0  0  0
  1 21  1  0  0  0  0
  1 22  1  0  0  0  0
  1 23  1  0  0  0  0
  2 19  1  0  0  0  0
  2  3  1  0  0  0  0
  2 24  1  0  0  0  0
  3  4  1  0  0  0  0
  3 25  1  0  0  0  0
  3 26  1  0  0  0  0
  4  5  1  0  0  0  0
  4 27  1  0  0  0  0
  4 28  1  0  0  0  0
  5  6  1  0  0  0  0
  5 29  1  0  0  0  0
  5 30  1  0  0  0  0
  6  7  1  0  0  0  0
  6 19  1  0  0  0  0
  6 31  1  0  0  0  0
  7  8  1  0  0  0  0
  7 32  1  0  0  0  0
  8  9  2  0  0  0  0
  8 10  1  0  0  0  0
 10 11  1  0  0  0  0
 10 33  1  0  0  0  0
 11 12  2  0  0  0  0
 11 13  1  0  0  0  0
 13 14  1  0  0  0  0
 13 34  1  0  0  0  0
 13 35  1  0  0  0  0
 14 18  1  0  0  0  0
 14 15  1  0  0  0  0
 15 16  2  0  0  0  0
 15 36  1  0  0  0  0
 16 17  1  0  0  0  0
 16 37  1  0  0  0  0
 17 18  2  0  0  0  0
 17 43  1  0  0  0  0
 18 38  1  0  0  0  0
 19 20  1  0  0  0  0
 19 39  1  0  0  0  0
 20 40  1  0  0  0  0
 20 41  1  0  0  0  0
 20 42  1  0  0  0  0
M  CHG  1  17   1
M  END
> <s_m_source_file>
AV-unprocessed.smi

> <i_m_source_file_index>
527

> <i_lp_mmshare_version>
43012

> <i_f3d_flags>
0

> <s_epik_input>
W0NIM11bQ0BASF0xW0NIMl1bQ0gyXVtDSDJdW0NASF0oW0NASF0xW0NIM10pW05IXUMoPU8pW05IXUMoPU8pW0NIMl1uMltjSF1bY0hdbltjSF0y

> <s_epik_cmdline>
J2VwaWtfcHl0aG9uJywgJy1waCcsICc3LjAnLCAnLXRuJywgJzgnLCAnLW1hJywgJzIwMCcsICctbWV0YWxfYmluZGluZycsICctaW1hZScsICc8aW5maWxlLm1hZT4nLCAnLW9tYWUnLCAnPG91dGZpbGUubWFlPic=

> <r_lp_tautomer_probability>
1

> <r_epik_Ionization_Penalty>
0.816441

> <r_epik_Ionization_Penalty_Charging>
0

> <r_epik_Ionization_Penalty_Neutral>
0.816441

> <r_epik_State_Penalty>
0.849034

> <r_epik_Charging_Adjusted_Penalty>
0.849034

> <i_epik_Tot_Q>
1

> <i_epik_Tot_abs_Q>
1

> <r_epik_Metal_State_Penalty>
0.984327

> <b_epik_Metal_Only>
0

> <s_lp_Force_Field>
OPLS_2005

> <r_lp_Energy>
18.4408

> <b_lp_Chiralities_Consistent>
1

> <s_lp_Variant>
AV-unprocessed.smi:527-15

> <Gold.Version>
5.8.1

> <Gold.Id.Protein>
6NUR|6NUR_protein|mol2

> <Gold.PLP.Fitness>
48.1866

> <Gold.PLP.PLP>
-34.0690

> <Gold.PLP.part.hbond>
-2.9945

> <Gold.PLP.part.metal>
0.0000

> <Gold.PLP.part.buried>
0.8537

> <Gold.PLP.part.nonpolar>
-31.4556

> <Gold.PLP.part.repulsive>
0.1874

> <Gold.PLP.ligand.clash>
0.0000

> <Gold.PLP.ligand.torsion>
0.3724

> <Gold.PLP.Chemscore.Hbond>
3.9600

> <Gold.PLP.Chemscore.CHOScore>
0.9876

> <Gold.PLP.Chemscore.Metal>
0.0000

> <Gold.Chemscore.Hbonds>
donor molecule, donor type, donor heavy atom, donor atom, acceptor molecule, acceptor atom, score
      L1  H     7    32       P1  7948  0.96
      L1  H    10    33       P1  7948  1.00
      L1  H    17    43       P1 10186  1.98
      L1  C    15    36       P1 10747  1.00

> <Gold.PLP.Chemscore.Internal.Correction>
0.0197

> <Gold.Rescore>
     Score         DG    S(hbond)    S(metal)    S(lipo)     H(rot)  DE(clash)    DE(int)     intcor
     16.59     -20.10       2.91        0.00      79.13       1.71       0.55       2.96       ----

> <Gold.Chemscore.Fitness>
16.5941

> <Gold.Chemscore.DG>
-20.1036

> <Gold.Chemscore.ZeroCoef>
-5.4800

> <Gold.Chemscore.Hbond>
2.9135

> <Gold.Chemscore.Metal>
0.0000

> <Gold.Chemscore.Lipo>
79.1272

> <Gold.Chemscore.Internal_Hbond>
0.0000

> <Gold.Chemscore.DEClash>
0.5483

> <Gold.Chemscore.DEInternal>
2.9612

> <Gold.Chemscore.Rot>
1.7052

> <Gold.Chemscore.Internal.Correction>
   9.000000E+99

> <Gold.Chemscore.Hbonds>
donor molecule, donor type, donor heavy atom, donor atom, acceptor molecule, acceptor atom, score
      L1  H     7    32       P1  7948  0.92
      L1  H    10    33       P1  7948  0.95
      L1  H    17    43       P1 10186  0.92

> <Gold.Chemscore.Hbond.Weighted>
-9.7310

> <Gold.Chemscore.Metal.Weighted>
-0.0000

> <Gold.Chemscore.Lipo.Weighted>
-9.2579

> <Gold.Chemscore.Internal_Hbond.Weighted>
0.0000

> <Gold.Chemscore.DEClash.Weighted>
0.5483

> <Gold.Chemscore.DEInternal.Weighted>
2.9612

> <Gold.Chemscore.Rot.Weighted>
4.3653

> <Gold.Chemscore.Internal.Correction.Weighted>
   9.000000E+99

> <Gold.Protein.RotatedTorsions>
[ 6907 6896 6895 6894 ] final   53.79 input  -60.11 | X-H torsion
[ 7974 7965 7964 7962 ] final -133.87 input  175.53 | X-H torsion
[ 8008 7997 7996 7995 ] final -140.35 input   59.86 | X-H torsion
[ 10167 10162 10161 10158 ] final -144.75 input  -65.29 | X-H torsion
[ 10718 10713 10712 10709 ] final   71.00 input   66.30 | X-H torsion
[ 10763 10752 10751 10750 ] final  161.47 input  -60.55 | X-H torsion
[ 11005 11000 10999 10996 ] final  -48.69 input  -57.11 | X-H torsion

> <Gold.Protein.ActiveResidues>
 VAL166  LYS551  ARG553  GLY616  TRP617  ASP618  TYR619  PRO620  LYS621  CYS622 
 ASP623  PHE694  ASN695  SER759  ASP760  ASP761  ALA762  ILE779  LEU786  VAL792 
 PHE793  MET794  SER795  GLU796  ALA797  LYS798  CYS799  TRP800  GLU811  SER814 

> <Gold.Protein.RotatedAtoms>
  152.3373  134.7180  160.0273 H   0  0  0  0  0  0  0  0  0  0  0  0  # atno 6907 bound_to 6896
  151.7577  133.3326  159.3417 H   0  0  0  0  0  0  0  0  0  0  0  0  # atno 6908 bound_to 6896
  150.7458  134.6066  159.6109 H   0  0  0  0  0  0  0  0  0  0  0  0  # atno 6909 bound_to 6896
  144.9154  140.6947  143.4999 H   0  0  0  0  0  0  0  0  0  0  0  0  # atno 7974 bound_to 7965
  155.4599  140.0545  157.2992 H   0  0  0  0  0  0  0  0  0  0  0  0  # atno 8008 bound_to 7997
  154.4742  140.2053  155.9875 H   0  0  0  0  0  0  0  0  0  0  0  0  # atno 8009 bound_to 7997
  156.1104  140.3205  155.8070 H   0  0  0  0  0  0  0  0  0  0  0  0  # atno 8010 bound_to 7997
  139.7870  143.8020  152.2645 H   0  0  0  0  0  0  0  0  0  0  0  0  # atno 10167 bound_to 10162
  157.6429  130.9506  150.0729 H   0  0  0  0  0  0  0  0  0  0  0  0  # atno 10718 bound_to 10713
  154.2635  135.2768  155.2768 H   0  0  0  0  0  0  0  0  0  0  0  0  # atno 10763 bound_to 10752
  154.5364  135.5715  153.6805 H   0  0  0  0  0  0  0  0  0  0  0  0  # atno 10764 bound_to 10752
  152.9958  135.6240  154.2786 H   0  0  0  0  0  0  0  0  0  0  0  0  # atno 10765 bound_to 10752
  141.0715  133.6677  156.3477 H   0  0  0  0  0  0  0  0  0  0  0  0  # atno 11005 bound_to 11000
  145.3385  139.1739  143.4498 LP  0  0  0  0  0  0  0  0  0  0  0  0  # atno 17320 bound_to 7965
  146.3179  140.3423  142.8649 LP  0  0  0  0  0  0  0  0  0  0  0  0  # atno 17321 bound_to 7965
  139.8100  144.7339  150.9710 LP  0  0  0  0  0  0  0  0  0  0  0  0  # atno 17342 bound_to 10162
  140.7820  143.4260  151.0768 LP  0  0  0  0  0  0  0  0  0  0  0  0  # atno 17343 bound_to 10162
  156.1728  130.3647  149.9142 LP  0  0  0  0  0  0  0  0  0  0  0  0  # atno 17370 bound_to 10713
  156.7113  130.8971  151.3609 LP  0  0  0  0  0  0  0  0  0  0  0  0  # atno 17371 bound_to 10713
  140.5663  134.5885  157.5446 LP  0  0  0  0  0  0  0  0  0  0  0  0  # atno 17394 bound_to 11000
  139.9529  134.7586  156.0408 LP  0  0  0  0  0  0  0  0  0  0  0  0  # atno 17395 bound_to 11000

$$$$
