AV-unprocessed.smi:2563|AV-procd|sdf|10058|dock4
  -GOLD-   2272014 93D 1   1.00000     0.00000
 Structure written by MMmdl.
 36 37  0  0  0  0  0  0  0  0  3 V2000
  151.9666  139.4545  155.7291 C   0  0  0  0  0  0  0  0  0  0  0  0
  150.9564  139.9843  156.7553 C   0  0  0  0  0  0  0  0  0  0  0  0
  150.6685  141.4044  156.5665 N   0  0  0  0  0  0  0  0  0  0  0  0
  149.9560  141.8243  155.3585 C   0  0  0  0  0  0  0  0  0  0  0  0
  148.8923  140.8032  154.9143 C   0  0  2  0  0  0  0  0  0  0  0  0
  149.4982  139.7069  154.0151 C   0  0  0  0  0  0  0  0  0  0  0  0
  148.4418  138.7914  153.5398 N   0  3  0  0  0  0  0  0  0  0  0  0
  147.3530  139.5219  152.8628 C   0  0  0  0  0  0  0  0  0  0  0  0
  146.8150  140.6337  153.7785 C   0  0  0  0  0  0  0  0  0  0  0  0
  147.8870  141.4862  154.1684 O   0  0  0  0  0  0  0  0  0  0  0  0
  151.0942  142.3578  157.5227 C   0  0  0  0  0  0  0  0  0  0  0  0
  151.9855  142.0507  158.5803 C   0  0  0  0  0  0  0  0  0  0  0  0
  152.3451  143.0665  159.4821 C   0  0  0  0  0  0  0  0  0  0  0  0
  151.7937  144.3422  159.2796 C   0  0  0  0  0  0  0  0  0  0  0  0
  150.9455  144.6263  158.2683 N   0  0  0  0  0  0  0  0  0  0  0  0
  150.6242  143.6321  157.4234 N   0  3  0  0  0  0  0  0  0  0  0  0
  152.1461  138.3899  155.8801 H   0  0  0  0  0  0  0  0  0  0  0  0
  152.9259  139.9659  155.8102 H   0  0  0  0  0  0  0  0  0  0  0  0
  151.6028  139.5865  154.7097 H   0  0  0  0  0  0  0  0  0  0  0  0
  150.0267  139.4242  156.6514 H   0  0  0  0  0  0  0  0  0  0  0  0
  151.2967  139.7890  157.7721 H   0  0  0  0  0  0  0  0  0  0  0  0
  149.5184  142.8166  155.4704 H   0  0  0  0  0  0  0  0  0  0  0  0
  150.6970  141.9267  154.5650 H   0  0  0  0  0  0  0  0  0  0  0  0
  148.4437  140.3394  155.7948 H   0  0  0  0  0  0  0  0  0  0  0  0
  149.9981  140.1527  153.1539 H   0  0  0  0  0  0  0  0  0  0  0  0
  150.2475  139.1318  154.5597 H   0  0  0  0  0  0  0  0  0  0  0  0
  148.8407  138.1180  152.9006 H   0  0  0  0  0  0  0  0  0  0  0  0
  147.7319  139.9493  151.9335 H   0  0  0  0  0  0  0  0  0  0  0  0
  146.5589  138.8239  152.5968 H   0  0  0  0  0  0  0  0  0  0  0  0
  146.0658  141.2250  153.2516 H   0  0  0  0  0  0  0  0  0  0  0  0
  146.3281  140.2147  154.6605 H   0  0  0  0  0  0  0  0  0  0  0  0
  152.4036  141.0647  158.7132 H   0  0  0  0  0  0  0  0  0  0  0  0
  153.0226  142.8747  160.3011 H   0  0  0  0  0  0  0  0  0  0  0  0
  152.0388  145.1575  159.9447 H   0  0  0  0  0  0  0  0  0  0  0  0
  148.0566  138.3007  154.3342 H   0  0  0  0  0  0  0  0  0  0  0  0
  149.9822  143.8438  156.6595 H   0  0  0  0  0  0  0  0  0  0  0  0
  1  2  1  0  0  0  0
  1 17  1  0  0  0  0
  1 18  1  0  0  0  0
  1 19  1  0  0  0  0
  2  3  1  0  0  0  0
  2 20  1  0  0  0  0
  2 21  1  0  0  0  0
  3  4  1  0  0  0  0
  3 11  1  0  0  0  0
  4  5  1  0  0  0  0
  4 22  1  0  0  0  0
  4 23  1  0  0  0  0
  5 10  1  0  0  0  0
  5  6  1  0  0  0  0
  5 24  1  0  0  0  0
  6  7  1  0  0  0  0
  6 25  1  0  0  0  0
  6 26  1  0  0  0  0
  7  8  1  0  0  0  0
  7 27  1  0  0  0  0
  7 35  1  0  0  0  0
  8  9  1  0  0  0  0
  8 28  1  0  0  0  0
  8 29  1  0  0  0  0
  9 10  1  0  0  0  0
  9 30  1  0  0  0  0
  9 31  1  0  0  0  0
 11 16  1  0  0  0  0
 11 12  2  0  0  0  0
 12 13  1  0  0  0  0
 12 32  1  0  0  0  0
 13 14  2  0  0  0  0
 13 33  1  0  0  0  0
 14 15  1  0  0  0  0
 14 34  1  0  0  0  0
 15 16  2  0  0  0  0
 16 36  1  0  0  0  0
M  CHG  1   7   1
M  CHG  1  16   1
M  END
> <s_m_source_file>
AV-unprocessed.smi

> <i_m_source_file_index>
2563

> <i_lp_mmshare_version>
43012

> <i_f3d_flags>
0

> <s_epik_input>
bjFuW2NIXVtjSF1bY0hdYzFOKFtDSDJdW0NIM10pW0NIMl1bQ0BASF0yW0NIMl1bTkhdW0NIMl1bQ0gyXU8y

> <s_epik_cmdline>
J2VwaWtfcHl0aG9uJywgJy1waCcsICc3LjAnLCAnLXRuJywgJzgnLCAnLW1hJywgJzIwMCcsICctbWV0YWxfYmluZGluZycsICctaW1hZScsICc8aW5maWxlLm1hZT4nLCAnLW9tYWUnLCAnPG91dGZpbGUubWFlPic=

> <r_lp_tautomer_probability>
0.966961

> <r_epik_Ionization_Penalty>
1.93862

> <r_epik_Ionization_Penalty_Charging>
1.93862

> <r_epik_Ionization_Penalty_Neutral>
1.19718e-14

> <r_epik_State_Penalty>
1.51688

> <r_epik_Charging_Adjusted_Penalty>
3.4555

> <i_epik_Tot_Q>
2

> <i_epik_Tot_abs_Q>
2

> <r_epik_Metal_State_Penalty>
1.53359

> <b_epik_Metal_Only>
0

> <s_lp_Force_Field>
OPLS_2005

> <r_lp_Energy>
32.8906

> <b_lp_Chiralities_Consistent>
1

> <s_lp_Variant>
AV-unprocessed.smi:2563-3

> <Gold.Version>
5.8.1

> <Gold.Id.Protein>
6NUR|6NUR_protein|mol2

> <Gold.PLP.Fitness>
42.3275

> <Gold.PLP.PLP>
-31.8145

> <Gold.PLP.part.hbond>
-2.8480

> <Gold.PLP.part.metal>
0.0000

> <Gold.PLP.part.buried>
-0.1822

> <Gold.PLP.part.nonpolar>
-28.9169

> <Gold.PLP.part.repulsive>
0.3591

> <Gold.PLP.ligand.clash>
0.0000

> <Gold.PLP.ligand.torsion>
0.7559

> <Gold.PLP.Chemscore.Hbond>
4.0000

> <Gold.PLP.Chemscore.CHOScore>
0.0000

> <Gold.PLP.Chemscore.Metal>
0.0000

> <Gold.Chemscore.Hbonds>
donor molecule, donor type, donor heavy atom, donor atom, acceptor molecule, acceptor atom, score
      L1  H     7    27       P1  7948  1.50
      L1  H    16    36       P1  8028  2.00

> <Gold.PLP.Chemscore.Internal.Correction>
0.0248

> <Gold.Rescore>
     Score         DG    S(hbond)    S(metal)    S(lipo)     H(rot)  DE(clash)    DE(int)     intcor
     15.98     -16.97       1.88        0.00      76.12       1.44       0.12       0.87       ----

> <Gold.Chemscore.Fitness>
15.9771

> <Gold.Chemscore.DG>
-16.9661

> <Gold.Chemscore.ZeroCoef>
-5.4800

> <Gold.Chemscore.Hbond>
1.8751

> <Gold.Chemscore.Metal>
0.0000

> <Gold.Chemscore.Lipo>
76.1153

> <Gold.Chemscore.Internal_Hbond>
0.0000

> <Gold.Chemscore.DEClash>
0.1214

> <Gold.Chemscore.DEInternal>
0.8676

> <Gold.Chemscore.Rot>
1.4384

> <Gold.Chemscore.Internal.Correction>
   9.000000E+99

> <Gold.Chemscore.Hbonds>
donor molecule, donor type, donor heavy atom, donor atom, acceptor molecule, acceptor atom, score
      L1  H     7    27       P1  7948  0.74
      L1  H    16    36       P1  8028  0.99

> <Gold.Chemscore.Hbond.Weighted>
-6.2628

> <Gold.Chemscore.Metal.Weighted>
-0.0000

> <Gold.Chemscore.Lipo.Weighted>
-8.9055

> <Gold.Chemscore.Internal_Hbond.Weighted>
0.0000

> <Gold.Chemscore.DEClash.Weighted>
0.1214

> <Gold.Chemscore.DEInternal.Weighted>
0.8676

> <Gold.Chemscore.Rot.Weighted>
3.6822

> <Gold.Chemscore.Internal.Correction.Weighted>
   9.000000E+99

> <Gold.Protein.RotatedTorsions>
[ 6907 6896 6895 6894 ] final  140.08 input  -60.11 | X-H torsion
[ 7974 7965 7964 7962 ] final   31.91 input  175.53 | X-H torsion
[ 8008 7997 7996 7995 ] final  -25.29 input   59.86 | X-H torsion
[ 10167 10162 10161 10158 ] final -119.67 input  -65.29 | X-H torsion
[ 10718 10713 10712 10709 ] final -178.30 input   66.30 | X-H torsion
[ 10763 10752 10751 10750 ] final  -45.79 input  -60.55 | X-H torsion
[ 11005 11000 10999 10996 ] final  162.49 input  -57.11 | X-H torsion

> <Gold.Protein.ActiveResidues>
 VAL166  LYS551  ARG553  GLY616  TRP617  ASP618  TYR619  PRO620  LYS621  CYS622 
 ASP623  PHE694  ASN695  SER759  ASP760  ASP761  ALA762  ILE779  LEU786  VAL792 
 PHE793  MET794  SER795  GLU796  ALA797  LYS798  CYS799  TRP800  GLU811  SER814 

> <Gold.Protein.RotatedAtoms>
  152.2472  133.5185  159.5304 H   0  0  0  0  0  0  0  0  0  0  0  0  # atno 6907 bound_to 6896
  150.7082  134.1009  159.3974 H   0  0  0  0  0  0  0  0  0  0  0  0  # atno 6908 bound_to 6896
  151.8929  135.0409  160.0550 H   0  0  0  0  0  0  0  0  0  0  0  0  # atno 6909 bound_to 6896
  146.1520  139.6595  142.9092 H   0  0  0  0  0  0  0  0  0  0  0  0  # atno 7974 bound_to 7965
  154.4483  140.1930  156.0597 H   0  0  0  0  0  0  0  0  0  0  0  0  # atno 8008 bound_to 7997
  156.0592  140.3299  155.7414 H   0  0  0  0  0  0  0  0  0  0  0  0  # atno 8009 bound_to 7997
  155.5438  140.0589  157.2855 H   0  0  0  0  0  0  0  0  0  0  0  0  # atno 8010 bound_to 7997
  140.0442  143.5124  152.2115 H   0  0  0  0  0  0  0  0  0  0  0  0  # atno 10167 bound_to 10162
  156.8422  130.9690  151.3099 H   0  0  0  0  0  0  0  0  0  0  0  0  # atno 10718 bound_to 10713
  154.0344  135.6652  153.4784 H   0  0  0  0  0  0  0  0  0  0  0  0  # atno 10763 bound_to 10752
  153.0527  135.5074  154.7902 H   0  0  0  0  0  0  0  0  0  0  0  0  # atno 10764 bound_to 10752
  154.6858  135.3053  154.9515 H   0  0  0  0  0  0  0  0  0  0  0  0  # atno 10765 bound_to 10752
  140.2263  134.8158  157.3272 H   0  0  0  0  0  0  0  0  0  0  0  0  # atno 11005 bound_to 11000
  145.4799  141.0438  143.2651 LP  0  0  0  0  0  0  0  0  0  0  0  0  # atno 17320 bound_to 7965
  144.7916  139.6316  143.7111 LP  0  0  0  0  0  0  0  0  0  0  0  0  # atno 17321 bound_to 7965
  139.5994  144.7578  151.3207 LP  0  0  0  0  0  0  0  0  0  0  0  0  # atno 17342 bound_to 10162
  140.7246  143.7039  150.7823 LP  0  0  0  0  0  0  0  0  0  0  0  0  # atno 17343 bound_to 10162
  157.6349  130.8759  149.9341 LP  0  0  0  0  0  0  0  0  0  0  0  0  # atno 17370 bound_to 10713
  156.0874  130.3666  150.0461 LP  0  0  0  0  0  0  0  0  0  0  0  0  # atno 17371 bound_to 10713
  140.1797  134.4505  155.7780 LP  0  0  0  0  0  0  0  0  0  0  0  0  # atno 17394 bound_to 11000
  141.2220  133.6978  156.7847 LP  0  0  0  0  0  0  0  0  0  0  0  0  # atno 17395 bound_to 11000

$$$$
