AV-unprocessed.smi:1586|AV-procd|sdf|6384|dock6
  -GOLD-   22720 7 23D 1   1.00000     0.00000
 Structure written by MMmdl.
 46 47  0  0  0  0  0  0  0  0  3 V2000
  144.1592  132.2286  150.4314 C   0  0  0  0  0  0  0  0  0  0  0  0
  144.3534  133.2917  151.5220 C   0  0  0  0  0  0  0  0  0  0  0  0
  145.3678  134.2802  151.1488 N   0  0  0  0  0  0  0  0  0  0  0  0
  145.5674  135.3598  152.1231 C   0  0  0  0  0  0  0  0  0  0  0  0
  146.2509  134.8657  153.4163 C   0  0  0  0  0  0  0  0  0  0  0  0
  147.5484  134.2272  153.0920 N   0  3  0  0  0  0  0  0  0  0  0  0
  148.3884  133.9020  154.2817 C   0  0  1  0  0  0  0  0  0  0  0  0
  149.6106  133.0253  153.9472 C   0  0  0  0  0  0  0  0  0  0  0  0
  148.7891  135.1745  155.0609 C   0  0  0  0  0  0  0  0  0  0  0  0
  148.9317  134.9147  156.4924 N   0  0  0  0  0  0  0  0  0  0  0  0
  149.0161  135.8342  157.4650 C   0  0  0  0  0  0  0  0  0  0  0  0
  149.0361  137.0331  157.1794 O   0  0  0  0  0  0  0  0  0  0  0  0
  149.0443  135.3068  158.7088 N   0  5  0  0  0  0  0  0  0  0  0  0
  148.2492  135.8032  159.6691 C   0  0  0  0  0  0  0  0  0  0  0  0
  147.5126  135.0425  160.6179 C   0  0  0  0  0  0  0  0  0  0  0  0
  146.8860  135.9989  161.3652 C   0  0  0  0  0  0  0  0  0  0  0  0
  145.9519  135.9296  162.5245 C   0  0  0  0  0  0  0  0  0  0  0  0
  147.2163  137.2397  160.9166 O   0  0  0  0  0  0  0  0  0  0  0  0
  148.0947  137.1057  159.8346 N   0  0  0  0  0  0  0  0  0  0  0  0
  147.3549  133.1253  152.1162 C   0  0  0  0  0  0  0  0  0  0  0  0
  146.6638  133.6648  150.8467 C   0  0  0  0  0  0  0  0  0  0  0  0
  143.5035  131.4339  150.7880 H   0  0  0  0  0  0  0  0  0  0  0  0
  145.1083  131.7704  150.1508 H   0  0  0  0  0  0  0  0  0  0  0  0
  143.7025  132.6420  149.5325 H   0  0  0  0  0  0  0  0  0  0  0  0
  143.4009  133.7622  151.7631 H   0  0  0  0  0  0  0  0  0  0  0  0
  144.6853  132.7841  152.4287 H   0  0  0  0  0  0  0  0  0  0  0  0
  146.1908  136.1259  151.6594 H   0  0  0  0  0  0  0  0  0  0  0  0
  144.6216  135.8474  152.3558 H   0  0  0  0  0  0  0  0  0  0  0  0
  146.4204  135.7214  154.0707 H   0  0  0  0  0  0  0  0  0  0  0  0
  145.6113  134.1745  153.9653 H   0  0  0  0  0  0  0  0  0  0  0  0
  147.7613  133.3239  154.9624 H   0  0  0  0  0  0  0  0  0  0  0  0
  150.1184  132.7104  154.8591 H   0  0  0  0  0  0  0  0  0  0  0  0
  150.3425  133.5605  153.3417 H   0  0  0  0  0  0  0  0  0  0  0  0
  149.3218  132.1222  153.4092 H   0  0  0  0  0  0  0  0  0  0  0  0
  149.7500  135.5384  154.6961 H   0  0  0  0  0  0  0  0  0  0  0  0
  148.0785  135.9829  154.8826 H   0  0  0  0  0  0  0  0  0  0  0  0
  148.9361  133.9460  156.7784 H   0  0  0  0  0  0  0  0  0  0  0  0
  147.4513  133.9704  160.7295 H   0  0  0  0  0  0  0  0  0  0  0  0
  146.0879  135.0000  163.0774 H   0  0  0  0  0  0  0  0  0  0  0  0
  144.9163  135.9751  162.1876 H   0  0  0  0  0  0  0  0  0  0  0  0
  146.1216  136.7585  163.2120 H   0  0  0  0  0  0  0  0  0  0  0  0
  148.3196  132.6981  151.8439 H   0  0  0  0  0  0  0  0  0  0  0  0
  146.7698  132.3173  152.5556 H   0  0  0  0  0  0  0  0  0  0  0  0
  146.5322  132.8658  150.1163 H   0  0  0  0  0  0  0  0  0  0  0  0
  147.3033  134.4107  150.3723 H   0  0  0  0  0  0  0  0  0  0  0  0
  148.0716  134.9373  152.5981 H   0  0  0  0  0  0  0  0  0  0  0  0
  1  2  1  0  0  0  0
  1 22  1  0  0  0  0
  1 23  1  0  0  0  0
  1 24  1  0  0  0  0
  2  3  1  0  0  0  0
  2 25  1  0  0  0  0
  2 26  1  0  0  0  0
  3 21  1  0  0  0  0
  3  4  1  0  0  0  0
  4  5  1  0  0  0  0
  4 27  1  0  0  0  0
  4 28  1  0  0  0  0
  5  6  1  0  0  0  0
  5 29  1  0  0  0  0
  5 30  1  0  0  0  0
  6  7  1  0  0  0  0
  6 20  1  0  0  0  0
  6 46  1  0  0  0  0
  7  8  1  0  0  0  0
  7  9  1  0  0  0  0
  7 31  1  0  0  0  0
  8 32  1  0  0  0  0
  8 33  1  0  0  0  0
  8 34  1  0  0  0  0
  9 10  1  0  0  0  0
  9 35  1  0  0  0  0
  9 36  1  0  0  0  0
 10 11  1  0  0  0  0
 10 37  1  0  0  0  0
 11 12  2  0  0  0  0
 11 13  1  0  0  0  0
 13 14  1  0  0  0  0
 14 19  2  0  0  0  0
 14 15  1  0  0  0  0
 15 16  2  0  0  0  0
 15 38  1  0  0  0  0
 16 17  1  0  0  0  0
 16 18  1  0  0  0  0
 17 39  1  0  0  0  0
 17 40  1  0  0  0  0
 17 41  1  0  0  0  0
 18 19  1  0  0  0  0
 20 21  1  0  0  0  0
 20 42  1  0  0  0  0
 20 43  1  0  0  0  0
 21 44  1  0  0  0  0
 21 45  1  0  0  0  0
M  CHG  1   6   1
M  CHG  1  13  -1
M  END
> <s_m_source_file>
AV-unprocessed.smi

> <i_m_source_file_index>
1586

> <i_lp_mmshare_version>
43012

> <i_f3d_flags>
0

> <s_epik_input>
W0NIM11bQ0gyXU4xW0NIMl1bQ0gyXU4oW0NIMl1bQ0gyXTEpW0NASF0oW0NIM10pW0NIMl1bTkhdQyg9TylbTkhdYzJbY0hdYyhbQ0gzXSlvbjI=

> <s_epik_cmdline>
J2VwaWtfcHl0aG9uJywgJy1waCcsICc3LjAnLCAnLXRuJywgJzgnLCAnLW1hJywgJzIwMCcsICctbWV0YWxfYmluZGluZycsICctaW1hZScsICc8aW5maWxlLm1hZT4nLCAnLW9tYWUnLCAnPG91dGZpbGUubWFlPic=

> <r_epik_Ionization_Penalty>
6.35599

> <r_epik_Ionization_Penalty_Charging>
6.35441

> <r_epik_Ionization_Penalty_Neutral>
0.00158318

> <r_epik_State_Penalty>
7.1902

> <r_epik_Charging_Adjusted_Penalty>
13.5446

> <i_epik_Tot_Q>
0

> <i_epik_Tot_abs_Q>
2

> <r_epik_Metal_State_Penalty>
3.12491

> <b_epik_Metal_Only>
1

> <s_lp_Force_Field>
OPLS_2005

> <r_lp_Energy>
11.5798

> <b_lp_Chiralities_Consistent>
1

> <s_lp_Variant>
AV-unprocessed.smi:1586-12

> <Gold.Version>
5.8.1

> <Gold.Id.Protein>
6NUR|6NUR_protein|mol2

> <Gold.PLP.Fitness>
46.5405

> <Gold.PLP.PLP>
-32.6390

> <Gold.PLP.part.hbond>
-4.5420

> <Gold.PLP.part.metal>
0.0000

> <Gold.PLP.part.buried>
-5.4700

> <Gold.PLP.part.nonpolar>
-23.2741

> <Gold.PLP.part.repulsive>
0.1807

> <Gold.PLP.ligand.clash>
0.0000

> <Gold.PLP.ligand.torsion>
1.3134

> <Gold.PLP.Chemscore.Hbond>
5.4464

> <Gold.PLP.Chemscore.CHOScore>
0.0000

> <Gold.PLP.Chemscore.Metal>
0.0000

> <Gold.Chemscore.Hbonds>
donor molecule, donor type, donor heavy atom, donor atom, acceptor molecule, acceptor atom, score
      L1  H     6    46       P1  7948  2.00
      P1  H  6896  6907       L1    13  1.98
      P1  H  6931  6943       L1    18  0.04
      P1  H  6934  6947       L1    18  0.85

> <Gold.PLP.Chemscore.Internal.Correction>
0.1891

> <Gold.Rescore>
     Score         DG    S(hbond)    S(metal)    S(lipo)     H(rot)  DE(clash)    DE(int)     intcor
     13.59     -16.70       2.24        0.00      69.81       1.73       0.06       3.05       ----

> <Gold.Chemscore.Fitness>
13.5863

> <Gold.Chemscore.DG>
-16.6990

> <Gold.Chemscore.ZeroCoef>
-5.4800

> <Gold.Chemscore.Hbond>
2.2359

> <Gold.Chemscore.Metal>
0.0000

> <Gold.Chemscore.Lipo>
69.8051

> <Gold.Chemscore.Internal_Hbond>
0.0000

> <Gold.Chemscore.DEClash>
0.0604

> <Gold.Chemscore.DEInternal>
3.0523

> <Gold.Chemscore.Rot>
1.7250

> <Gold.Chemscore.Internal.Correction>
   9.000000E+99

> <Gold.Chemscore.Hbonds>
donor molecule, donor type, donor heavy atom, donor atom, acceptor molecule, acceptor atom, score
      L1  H     6    46       P1  7948  0.82
      P1  H  6896  6907       L1    13  0.50
      P1  H  6934  6947       L1    18  0.15

> <Gold.Chemscore.Hbond.Weighted>
-7.4679

> <Gold.Chemscore.Metal.Weighted>
-0.0000

> <Gold.Chemscore.Lipo.Weighted>
-8.1672

> <Gold.Chemscore.Internal_Hbond.Weighted>
0.0000

> <Gold.Chemscore.DEClash.Weighted>
0.0604

> <Gold.Chemscore.DEInternal.Weighted>
3.0523

> <Gold.Chemscore.Rot.Weighted>
4.4161

> <Gold.Chemscore.Internal.Correction.Weighted>
   9.000000E+99

> <Gold.Protein.RotatedTorsions>
[ 6907 6896 6895 6894 ] final  -55.57 input  -60.11 | X-H torsion
[ 7974 7965 7964 7962 ] final -138.70 input  175.53 | X-H torsion
[ 8008 7997 7996 7995 ] final  -52.28 input   59.86 | X-H torsion
[ 10167 10162 10161 10158 ] final   44.81 input  -65.29 | X-H torsion
[ 10718 10713 10712 10709 ] final  144.55 input   66.30 | X-H torsion
[ 10763 10752 10751 10750 ] final -129.45 input  -60.55 | X-H torsion
[ 11005 11000 10999 10996 ] final  168.01 input  -57.11 | X-H torsion

> <Gold.Protein.ActiveResidues>
 VAL166  LYS551  ARG553  GLY616  TRP617  ASP618  TYR619  PRO620  LYS621  CYS622 
 ASP623  PHE694  ASN695  SER759  ASP760  ASP761  ALA762  ILE779  LEU786  VAL792 
 PHE793  MET794  SER795  GLU796  ALA797  LYS798  CYS799  TRP800  GLU811  SER814 

> <Gold.Protein.RotatedAtoms>
  150.8240  134.7462  159.6796 H   0  0  0  0  0  0  0  0  0  0  0  0  # atno 6907 bound_to 6896
  152.4353  134.5695  159.9927 H   0  0  0  0  0  0  0  0  0  0  0  0  # atno 6908 bound_to 6896
  151.5872  133.3333  159.3056 H   0  0  0  0  0  0  0  0  0  0  0  0  # atno 6909 bound_to 6896
  144.8737  140.6405  143.5251 H   0  0  0  0  0  0  0  0  0  0  0  0  # atno 7974 bound_to 7965
  154.4103  140.1228  156.4965 H   0  0  0  0  0  0  0  0  0  0  0  0  # atno 8008 bound_to 7997
  155.6937  140.3495  155.4885 H   0  0  0  0  0  0  0  0  0  0  0  0  # atno 8009 bound_to 7997
  155.9446  140.1093  157.1017 H   0  0  0  0  0  0  0  0  0  0  0  0  # atno 8010 bound_to 7997
  140.3305  144.2594  150.6169 H   0  0  0  0  0  0  0  0  0  0  0  0  # atno 10167 bound_to 10162
  157.3559  131.0958  151.0959 H   0  0  0  0  0  0  0  0  0  0  0  0  # atno 10718 bound_to 10713
  154.8757  135.3895  154.3921 H   0  0  0  0  0  0  0  0  0  0  0  0  # atno 10763 bound_to 10752
  153.4656  135.7029  153.6029 H   0  0  0  0  0  0  0  0  0  0  0  0  # atno 10764 bound_to 10752
  153.4509  135.3834  155.2251 H   0  0  0  0  0  0  0  0  0  0  0  0  # atno 10765 bound_to 10752
  140.2828  134.7737  157.3772 H   0  0  0  0  0  0  0  0  0  0  0  0  # atno 11005 bound_to 11000
  145.4083  139.1585  143.4140 LP  0  0  0  0  0  0  0  0  0  0  0  0  # atno 17320 bound_to 7965
  146.2948  140.4185  142.8726 LP  0  0  0  0  0  0  0  0  0  0  0  0  # atno 17321 bound_to 7965
  140.5401  143.2225  151.8098 LP  0  0  0  0  0  0  0  0  0  0  0  0  # atno 17342 bound_to 10162
  139.4857  144.4611  151.9540 LP  0  0  0  0  0  0  0  0  0  0  0  0  # atno 17343 bound_to 10162
  157.2117  130.6441  149.5776 LP  0  0  0  0  0  0  0  0  0  0  0  0  # atno 17370 bound_to 10713
  155.9729  130.4658  150.6266 LP  0  0  0  0  0  0  0  0  0  0  0  0  # atno 17371 bound_to 10713
  140.1268  134.5148  155.8138 LP  0  0  0  0  0  0  0  0  0  0  0  0  # atno 17394 bound_to 11000
  141.2160  133.6775  156.6966 LP  0  0  0  0  0  0  0  0  0  0  0  0  # atno 17395 bound_to 11000

$$$$
