AV-unprocessed.smi:1047|AV-procd|sdf|4601|dock3
  -GOLD-   22720 3 93D 1   1.00000     0.00000
 Structure written by MMmdl.
 57 59  0  0  0  0  0  0  0  0  3 V2000
  146.3224  131.7807  151.8008 C   0  0  0  0  0  0  0  0  0  0  0  0
  147.1669  132.7377  152.6547 C   0  0  0  0  0  0  0  0  0  0  0  0
  148.5693  132.2696  152.8176 N   0  3  2  0  0  0  0  0  0  0  0  0
  148.6961  131.0690  153.6793 C   0  0  0  0  0  0  0  0  0  0  0  0
  148.5934  131.4404  155.1694 C   0  0  0  0  0  0  0  0  0  0  0  0
  149.5813  132.4145  155.4852 O   0  0  0  0  0  0  0  0  0  0  0  0
  149.4079  133.6254  154.7572 C   0  0  1  0  0  0  0  0  0  0  0  0
  150.4795  134.6160  155.2381 C   0  0  0  0  0  0  0  0  0  0  0  0
  149.9882  135.9898  155.1939 N   0  0  0  0  0  0  0  0  0  0  0  0
  150.9173  136.9201  154.5608 C   0  0  0  0  0  0  0  0  0  0  0  0
  150.4970  138.3802  154.7968 C   0  0  1  0  0  0  0  0  0  0  0  0
  149.0994  138.3998  155.0028 O   0  0  0  0  0  0  0  0  0  0  0  0
  151.2070  139.0174  156.0102 C   0  0  0  0  0  0  0  0  0  0  0  0
  150.8650  140.4358  156.1883 N   0  0  0  0  0  0  0  0  0  0  0  0
  150.0726  141.2373  155.4262 C   0  0  0  0  0  0  0  0  0  0  0  0
  150.0662  142.4728  155.9979 N   0  3  0  0  0  0  0  0  0  0  0  0
  150.8629  142.4596  157.1449 C   0  0  0  0  0  0  0  0  0  0  0  0
  151.1617  143.4658  158.0558 C   0  0  0  0  0  0  0  0  0  0  0  0
  152.0123  143.1291  159.1327 C   0  0  0  0  0  0  0  0  0  0  0  0
  152.3589  144.2058  160.1468 C   0  0  0  0  0  0  0  0  0  0  0  0
  152.5336  141.8163  159.2682 C   0  0  0  0  0  0  0  0  0  0  0  0
  153.4462  141.4649  160.4310 C   0  0  0  0  0  0  0  0  0  0  0  0
  152.2183  140.8072  158.3304 C   0  0  0  0  0  0  0  0  0  0  0  0
  151.3791  141.1553  157.2741 C   0  0  0  0  0  0  0  0  0  0  0  0
  149.5317  133.3165  153.2468 C   0  0  0  0  0  0  0  0  0  0  0  0
  145.2795  132.0984  151.7900 H   0  0  0  0  0  0  0  0  0  0  0  0
  146.3534  130.7657  152.1982 H   0  0  0  0  0  0  0  0  0  0  0  0
  146.6585  131.7485  150.7648 H   0  0  0  0  0  0  0  0  0  0  0  0
  147.1360  133.7447  152.2393 H   0  0  0  0  0  0  0  0  0  0  0  0
  146.6996  132.7999  153.6384 H   0  0  0  0  0  0  0  0  0  0  0  0
  147.9498  130.3198  153.4125 H   0  0  0  0  0  0  0  0  0  0  0  0
  149.6684  130.6121  153.4898 H   0  0  0  0  0  0  0  0  0  0  0  0
  147.5991  131.8137  155.4185 H   0  0  0  0  0  0  0  0  0  0  0  0
  148.7626  130.5572  155.7857 H   0  0  0  0  0  0  0  0  0  0  0  0
  148.4236  134.0350  154.9902 H   0  0  0  0  0  0  0  0  0  0  0  0
  150.7600  134.3678  156.2624 H   0  0  0  0  0  0  0  0  0  0  0  0
  151.3828  134.5117  154.6357 H   0  0  0  0  0  0  0  0  0  0  0  0
  149.7789  136.3080  156.1349 H   0  0  0  0  0  0  0  0  0  0  0  0
  151.9174  136.7636  154.9684 H   0  0  0  0  0  0  0  0  0  0  0  0
  150.9832  136.7195  153.4906 H   0  0  0  0  0  0  0  0  0  0  0  0
  150.7035  138.9683  153.9014 H   0  0  0  0  0  0  0  0  0  0  0  0
  148.8919  137.8158  155.7158 H   0  0  0  0  0  0  0  0  0  0  0  0
  150.9917  138.4726  156.9294 H   0  0  0  0  0  0  0  0  0  0  0  0
  152.2885  138.9702  155.8778 H   0  0  0  0  0  0  0  0  0  0  0  0
  149.5443  140.9464  154.5298 H   0  0  0  0  0  0  0  0  0  0  0  0
  150.7594  144.4624  157.9465 H   0  0  0  0  0  0  0  0  0  0  0  0
  153.4354  144.3777  160.1693 H   0  0  0  0  0  0  0  0  0  0  0  0
  152.0330  143.9120  161.1450 H   0  0  0  0  0  0  0  0  0  0  0  0
  151.8753  145.1527  159.9043 H   0  0  0  0  0  0  0  0  0  0  0  0
  153.7555  140.4197  160.3940 H   0  0  0  0  0  0  0  0  0  0  0  0
  152.9367  141.6273  161.3809 H   0  0  0  0  0  0  0  0  0  0  0  0
  154.3465  142.0796  160.4100 H   0  0  0  0  0  0  0  0  0  0  0  0
  152.6136  139.8085  158.4388 H   0  0  0  0  0  0  0  0  0  0  0  0
  150.5380  132.9519  153.0360 H   0  0  0  0  0  0  0  0  0  0  0  0
  149.4130  134.2217  152.6531 H   0  0  0  0  0  0  0  0  0  0  0  0
  148.8562  131.9769  151.8942 H   0  0  0  0  0  0  0  0  0  0  0  0
  149.5546  143.2647  155.6306 H   0  0  0  0  0  0  0  0  0  0  0  0
  1  2  1  0  0  0  0
  1 26  1  0  0  0  0
  1 27  1  0  0  0  0
  1 28  1  0  0  0  0
  2  3  1  0  0  0  0
  2 29  1  0  0  0  0
  2 30  1  0  0  0  0
  3 25  1  0  0  0  0
  3  4  1  0  0  0  0
  3 56  1  0  0  0  0
  4  5  1  0  0  0  0
  4 31  1  0  0  0  0
  4 32  1  0  0  0  0
  5  6  1  0  0  0  0
  5 33  1  0  0  0  0
  5 34  1  0  0  0  0
  6  7  1  0  0  0  0
  7  8  1  0  0  0  0
  7 25  1  0  0  0  0
  7 35  1  0  0  0  0
  8  9  1  0  0  0  0
  8 36  1  0  0  0  0
  8 37  1  0  0  0  0
  9 10  1  0  0  0  0
  9 38  1  0  0  0  0
 10 11  1  0  0  0  0
 10 39  1  0  0  0  0
 10 40  1  0  0  0  0
 11 12  1  0  0  0  0
 11 13  1  0  0  0  0
 11 41  1  0  0  0  0
 12 42  1  0  0  0  0
 13 14  1  0  0  0  0
 13 43  1  0  0  0  0
 13 44  1  0  0  0  0
 14 24  1  0  0  0  0
 14 15  1  0  0  0  0
 15 16  2  0  0  0  0
 15 45  1  0  0  0  0
 16 17  1  0  0  0  0
 16 57  1  0  0  0  0
 17 24  2  0  0  0  0
 17 18  1  0  0  0  0
 18 19  2  0  0  0  0
 18 46  1  0  0  0  0
 19 20  1  0  0  0  0
 19 21  1  0  0  0  0
 20 47  1  0  0  0  0
 20 48  1  0  0  0  0
 20 49  1  0  0  0  0
 21 22  1  0  0  0  0
 21 23  2  0  0  0  0
 22 50  1  0  0  0  0
 22 51  1  0  0  0  0
 22 52  1  0  0  0  0
 23 24  1  0  0  0  0
 23 53  1  0  0  0  0
 25 54  1  0  0  0  0
 25 55  1  0  0  0  0
M  CHG  1   3   1
M  CHG  1  16   1
M  END
> <s_m_source_file>
AV-unprocessed.smi

> <i_m_source_file_index>
1047

> <i_lp_mmshare_version>
43012

> <i_f3d_flags>
0

> <s_epik_input>
W0NIM11bQ0gyXU4xW0NIMl1bQ0gyXU9bQ0BIXShbQ0gyXTEpW0NIMl1bTkhdW0NIMl1bQ0BIXShbT0hdKVtDSDJdbihbY0hdbjIpYyhjMjMpW2NIXWMoW0NIM10pYyhbY0hdMylbQ0gzXQ==

> <s_epik_cmdline>
J2VwaWtfcHl0aG9uJywgJy1waCcsICc3LjAnLCAnLXRuJywgJzgnLCAnLW1hJywgJzIwMCcsICctbWV0YWxfYmluZGluZycsICctaW1hZScsICc8aW5maWxlLm1hZT4nLCAnLW9tYWUnLCAnPG91dGZpbGUubWFlPic=

> <r_epik_Ionization_Penalty>
2.03028

> <r_epik_Ionization_Penalty_Charging>
1.21256

> <r_epik_Ionization_Penalty_Neutral>
0.817715

> <r_epik_State_Penalty>
2.54959

> <r_epik_Charging_Adjusted_Penalty>
3.76215

> <i_epik_Tot_Q>
2

> <i_epik_Tot_abs_Q>
2

> <r_epik_Metal_State_Penalty>
6.52811

> <b_epik_Metal_Only>
0

> <s_lp_Force_Field>
OPLS_2005

> <r_lp_Energy>
33.7029

> <b_lp_Chiralities_Consistent>
1

> <s_lp_Variant>
AV-unprocessed.smi:1047-42

> <Gold.Version>
5.8.1

> <Gold.Id.Protein>
6NUR|6NUR_protein|mol2

> <Gold.PLP.Fitness>
54.8506

> <Gold.PLP.PLP>
-48.3908

> <Gold.PLP.part.hbond>
-2.0000

> <Gold.PLP.part.metal>
0.0000

> <Gold.PLP.part.buried>
-5.3300

> <Gold.PLP.part.nonpolar>
-41.0558

> <Gold.PLP.part.repulsive>
0.1453

> <Gold.PLP.ligand.clash>
0.0000

> <Gold.PLP.ligand.torsion>
1.3846

> <Gold.PLP.Chemscore.Hbond>
3.0000

> <Gold.PLP.Chemscore.CHOScore>
0.0000

> <Gold.PLP.Chemscore.Metal>
0.0000

> <Gold.Chemscore.Hbonds>
donor molecule, donor type, donor heavy atom, donor atom, acceptor molecule, acceptor atom, score
      L1  H     3    56       P1 10747  1.00
      L1  H    16    57       P1  8028  2.00

> <Gold.PLP.Chemscore.Internal.Correction>
0.2291

> <Gold.Rescore>
     Score         DG    S(hbond)    S(metal)    S(lipo)     H(rot)  DE(clash)    DE(int)     intcor
     18.23     -20.99       1.91        0.00     137.41       2.71       0.35       2.41       ----

> <Gold.Chemscore.Fitness>
18.2311

> <Gold.Chemscore.DG>
-20.9874

> <Gold.Chemscore.ZeroCoef>
-5.4800

> <Gold.Chemscore.Hbond>
1.9057

> <Gold.Chemscore.Metal>
0.0000

> <Gold.Chemscore.Lipo>
137.4117

> <Gold.Chemscore.Internal_Hbond>
0.0000

> <Gold.Chemscore.DEClash>
0.3477

> <Gold.Chemscore.DEInternal>
2.4086

> <Gold.Chemscore.Rot>
2.7088

> <Gold.Chemscore.Internal.Correction>
   9.000000E+99

> <Gold.Chemscore.Hbonds>
donor molecule, donor type, donor heavy atom, donor atom, acceptor molecule, acceptor atom, score
      L1  H     3    56       P1 10747  0.93
      L1  H    16    57       P1  8028  0.98

> <Gold.Chemscore.Hbond.Weighted>
-6.3649

> <Gold.Chemscore.Metal.Weighted>
-0.0000

> <Gold.Chemscore.Lipo.Weighted>
-16.0772

> <Gold.Chemscore.Internal_Hbond.Weighted>
0.0000

> <Gold.Chemscore.DEClash.Weighted>
0.3477

> <Gold.Chemscore.DEInternal.Weighted>
2.4086

> <Gold.Chemscore.Rot.Weighted>
6.9346

> <Gold.Chemscore.Internal.Correction.Weighted>
   9.000000E+99

> <Gold.Protein.RotatedTorsions>
[ 6907 6896 6895 6894 ] final   -4.29 input  -60.11 | X-H torsion
[ 7974 7965 7964 7962 ] final  178.14 input  175.53 | X-H torsion
[ 8008 7997 7996 7995 ] final  141.26 input   59.86 | X-H torsion
[ 10167 10162 10161 10158 ] final  -64.73 input  -65.29 | X-H torsion
[ 10718 10713 10712 10709 ] final -159.41 input   66.30 | X-H torsion
[ 10763 10752 10751 10750 ] final  -43.24 input  -60.55 | X-H torsion
[ 11005 11000 10999 10996 ] final  -74.67 input  -57.11 | X-H torsion

> <Gold.Protein.ActiveResidues>
 VAL166  LYS551  ARG553  GLY616  TRP617  ASP618  TYR619  PRO620  LYS621  CYS622 
 ASP623  PHE694  ASN695  SER759  ASP760  ASP761  ALA762  ILE779  LEU786  VAL792 
 PHE793  MET794  SER795  GLU796  ALA797  LYS798  CYS799  TRP800  GLU811  SER814 

> <Gold.Protein.RotatedAtoms>
  151.5000  135.1061  159.9826 H   0  0  0  0  0  0  0  0  0  0  0  0  # atno 6907 bound_to 6896
  152.4705  133.8016  159.6966 H   0  0  0  0  0  0  0  0  0  0  0  0  # atno 6908 bound_to 6896
  150.8712  133.7439  159.2986 H   0  0  0  0  0  0  0  0  0  0  0  0  # atno 6909 bound_to 6896
  144.7160  140.0352  143.6438 H   0  0  0  0  0  0  0  0  0  0  0  0  # atno 7974 bound_to 7965
  156.2968  140.2320  156.4536 H   0  0  0  0  0  0  0  0  0  0  0  0  # atno 8008 bound_to 7997
  154.8080  140.0444  157.1342 H   0  0  0  0  0  0  0  0  0  0  0  0  # atno 8009 bound_to 7997
  154.9456  140.3035  155.5103 H   0  0  0  0  0  0  0  0  0  0  0  0  # atno 8010 bound_to 7997
  140.5780  143.2324  151.6401 H   0  0  0  0  0  0  0  0  0  0  0  0  # atno 10167 bound_to 10162
  156.5677  130.8674  151.2828 H   0  0  0  0  0  0  0  0  0  0  0  0  # atno 10718 bound_to 10713
  153.9922  135.6704  153.4754 H   0  0  0  0  0  0  0  0  0  0  0  0  # atno 10763 bound_to 10752
  153.0700  135.4980  154.8280 H   0  0  0  0  0  0  0  0  0  0  0  0  # atno 10764 bound_to 10752
  154.7102  135.3096  154.9171 H   0  0  0  0  0  0  0  0  0  0  0  0  # atno 10765 bound_to 10752
  141.1637  133.6919  156.7399 H   0  0  0  0  0  0  0  0  0  0  0  0  # atno 11005 bound_to 11000
  146.0069  139.3137  143.0894 LP  0  0  0  0  0  0  0  0  0  0  0  0  # atno 17320 bound_to 7965
  145.8727  140.9410  143.0642 LP  0  0  0  0  0  0  0  0  0  0  0  0  # atno 17321 bound_to 7965
  139.5154  144.3381  152.0766 LP  0  0  0  0  0  0  0  0  0  0  0  0  # atno 17342 bound_to 10162
  140.2527  144.4152  150.6216 LP  0  0  0  0  0  0  0  0  0  0  0  0  # atno 17343 bound_to 10162
  157.7355  130.9763  150.2085 LP  0  0  0  0  0  0  0  0  0  0  0  0  # atno 17370 bound_to 10713
  156.2743  130.3725  149.8000 LP  0  0  0  0  0  0  0  0  0  0  0  0  # atno 17371 bound_to 10713
  140.2682  134.8413  157.3822 LP  0  0  0  0  0  0  0  0  0  0  0  0  # atno 17394 bound_to 11000
  140.1547  134.4805  155.7936 LP  0  0  0  0  0  0  0  0  0  0  0  0  # atno 17395 bound_to 11000

$$$$
