AV-unprocessed.smi:148|AV-procd|sdf|1222|dock7
  -GOLD-   2262018413D 1   1.00000     0.00000
 Structure written by MMmdl.
 63 67  0  0  0  0  0  0  0  0  1 V2000
  151.0126  144.4731  157.4242 O   0  0  0  0  0  0  0  0  0  0  0  0
  150.8888  143.5260  158.4647 C   0  0  0  0  0  0  0  0  0  0  0  0
  151.9970  142.4483  158.3752 C   0  0  2  0  0  0  0  0  0  0  0  0
  151.7968  141.4879  157.1707 C   0  0  0  0  0  0  0  0  0  0  0  0
  150.4866  140.8632  157.1565 N   0  0  0  0  0  0  0  0  0  0  0  0
  149.5997  140.7822  158.2072 C   0  0  0  0  0  0  0  0  0  0  0  0
  148.4684  140.1904  157.9363 N   0  0  0  0  0  0  0  0  0  0  0  0
  148.5933  139.8281  156.6018 C   0  0  0  0  0  0  0  0  0  0  0  0
  147.7355  139.1886  155.6703 C   0  0  0  0  0  0  0  0  0  0  0  0
  146.4891  138.7945  156.0073 N   0  0  0  0  0  0  0  0  0  0  0  0
  146.3834  137.3359  155.9324 C   0  0  0  0  0  0  0  0  0  0  0  0
  145.1052  136.8342  156.6107 C   0  0  0  0  0  0  0  0  0  0  0  0
  143.8868  137.5243  155.9957 C   0  0  0  0  0  0  0  0  0  0  0  0
  144.0462  139.0473  156.0896 C   0  0  0  0  0  0  0  0  0  0  0  0
  145.3597  139.5565  155.4334 C   0  0  1  0  0  0  0  0  0  0  0  0
  145.4856  141.1132  155.5954 C   0  0  1  0  0  0  0  0  0  0  0  0
  146.2385  141.8776  154.4826 C   0  0  0  0  0  0  0  0  0  0  0  0
  145.7425  143.3304  154.5182 C   0  0  0  0  0  0  0  0  0  0  0  0
  144.5632  143.3548  155.4943 C   0  0  0  0  0  0  0  0  0  0  0  0
  144.1542  141.8916  155.6675 C   0  0  1  0  0  0  0  0  0  0  0  0
  143.2898  141.5396  154.6012 O   0  0  0  0  0  0  0  0  0  0  0  0
  148.1964  138.9874  154.4073 N   0  0  0  0  0  0  0  0  0  0  0  0
  149.4229  139.4026  154.0747 C   0  0  0  0  0  0  0  0  0  0  0  0
  150.3264  140.0307  154.8316 N   0  0  0  0  0  0  0  0  0  0  0  0
  149.8619  140.2269  156.0993 C   0  0  0  0  0  0  0  0  0  0  0  0
  152.1980  141.7018  159.7242 C   0  0  1  0  0  0  0  0  0  0  0  0
  153.2007  140.5440  159.6872 C   0  0  0  0  0  0  0  0  0  0  0  0
  154.1153  140.8043  160.8816 C   0  0  0  0  0  0  0  0  0  0  0  0
  154.0688  142.2129  161.0306 O   0  0  0  0  0  0  0  0  0  0  0  0
  152.7111  142.5902  160.8679 C   0  0  0  0  0  0  0  0  0  0  0  0
  150.3169  144.3293  156.8007 H   0  0  0  0  0  0  0  0  0  0  0  0
  150.9159  144.0393  159.4260 H   0  0  0  0  0  0  0  0  0  0  0  0
  149.8976  143.0828  158.3705 H   0  0  0  0  0  0  0  0  0  0  0  0
  152.9280  142.9849  158.1851 H   0  0  0  0  0  0  0  0  0  0  0  0
  151.9162  142.0166  156.2252 H   0  0  0  0  0  0  0  0  0  0  0  0
  152.5440  140.6953  157.1722 H   0  0  0  0  0  0  0  0  0  0  0  0
  149.8135  141.1923  159.1836 H   0  0  0  0  0  0  0  0  0  0  0  0
  146.3892  137.0233  154.8870 H   0  0  0  0  0  0  0  0  0  0  0  0
  147.2500  136.8728  156.4076 H   0  0  0  0  0  0  0  0  0  0  0  0
  145.0214  135.7526  156.5025 H   0  0  0  0  0  0  0  0  0  0  0  0
  145.1486  137.0411  157.6807 H   0  0  0  0  0  0  0  0  0  0  0  0
  143.7791  137.2276  154.9517 H   0  0  0  0  0  0  0  0  0  0  0  0
  142.9775  137.2084  156.5078 H   0  0  0  0  0  0  0  0  0  0  0  0
  143.1709  139.4986  155.6255 H   0  0  0  0  0  0  0  0  0  0  0  0
  144.0250  139.3455  157.1390 H   0  0  0  0  0  0  0  0  0  0  0  0
  145.3131  139.3233  154.3687 H   0  0  0  0  0  0  0  0  0  0  0  0
  146.0069  141.3056  156.5351 H   0  0  0  0  0  0  0  0  0  0  0  0
  147.3192  141.8549  154.6061 H   0  0  0  0  0  0  0  0  0  0  0  0
  146.0112  141.4406  153.5094 H   0  0  0  0  0  0  0  0  0  0  0  0
  146.5279  144.0134  154.8443 H   0  0  0  0  0  0  0  0  0  0  0  0
  145.4289  143.6448  153.5223 H   0  0  0  0  0  0  0  0  0  0  0  0
  144.9026  143.7474  156.4538 H   0  0  0  0  0  0  0  0  0  0  0  0
  143.7459  143.9927  155.1552 H   0  0  0  0  0  0  0  0  0  0  0  0
  143.6355  141.7403  156.6146 H   0  0  0  0  0  0  0  0  0  0  0  0
  143.6410  140.7760  154.1694 H   0  0  0  0  0  0  0  0  0  0  0  0
  149.7195  139.2112  153.0542 H   0  0  0  0  0  0  0  0  0  0  0  0
  151.2304  141.3114  160.0419 H   0  0  0  0  0  0  0  0  0  0  0  0
  152.7127  139.5714  159.7566 H   0  0  0  0  0  0  0  0  0  0  0  0
  153.7868  140.5421  158.7696 H   0  0  0  0  0  0  0  0  0  0  0  0
  153.7253  140.3285  161.7827 H   0  0  0  0  0  0  0  0  0  0  0  0
  155.1330  140.4493  160.7179 H   0  0  0  0  0  0  0  0  0  0  0  0
  152.6070  143.6586  160.6770 H   0  0  0  0  0  0  0  0  0  0  0  0
  152.1731  142.3698  161.7914 H   0  0  0  0  0  0  0  0  0  0  0  0
  1  2  1  0  0  0  0
  1 31  1  0  0  0  0
  2  3  1  0  0  0  0
  2 32  1  0  0  0  0
  2 33  1  0  0  0  0
  3  4  1  0  0  0  0
  3 26  1  0  0  0  0
  3 34  1  0  0  0  0
  4  5  1  0  0  0  0
  4 35  1  0  0  0  0
  4 36  1  0  0  0  0
  5 25  1  0  0  0  0
  5  6  1  0  0  0  0
  6  7  2  0  0  0  0
  6 37  1  0  0  0  0
  7  8  1  0  0  0  0
  8 25  2  0  0  0  0
  8  9  1  0  0  0  0
  9 10  1  0  0  0  0
  9 22  2  0  0  0  0
 10 15  1  0  0  0  0
 10 11  1  0  0  0  0
 11 12  1  0  0  0  0
 11 38  1  0  0  0  0
 11 39  1  0  0  0  0
 12 13  1  0  0  0  0
 12 40  1  0  0  0  0
 12 41  1  0  0  0  0
 13 14  1  0  0  0  0
 13 42  1  0  0  0  0
 13 43  1  0  0  0  0
 14 15  1  0  0  0  0
 14 44  1  0  0  0  0
 14 45  1  0  0  0  0
 15 16  1  0  0  0  0
 15 46  1  0  0  0  0
 16 20  1  0  0  0  0
 16 17  1  0  0  0  0
 16 47  1  0  0  0  0
 17 18  1  0  0  0  0
 17 48  1  0  0  0  0
 17 49  1  0  0  0  0
 18 19  1  0  0  0  0
 18 50  1  0  0  0  0
 18 51  1  0  0  0  0
 19 20  1  0  0  0  0
 19 52  1  0  0  0  0
 19 53  1  0  0  0  0
 20 21  1  0  0  0  0
 20 54  1  0  0  0  0
 21 55  1  0  0  0  0
 22 23  1  0  0  0  0
 23 24  2  0  0  0  0
 23 56  1  0  0  0  0
 24 25  1  0  0  0  0
 26 30  1  0  0  0  0
 26 27  1  0  0  0  0
 26 57  1  0  0  0  0
 27 28  1  0  0  0  0
 27 58  1  0  0  0  0
 27 59  1  0  0  0  0
 28 29  1  0  0  0  0
 28 60  1  0  0  0  0
 28 61  1  0  0  0  0
 29 30  1  0  0  0  0
 30 62  1  0  0  0  0
 30 63  1  0  0  0  0
M  END
> <s_m_source_file>
AV-unprocessed.smi

> <i_m_source_file_index>
148

> <i_lp_mmshare_version>
43012

> <i_f3d_flags>
0

> <s_epik_input>
W0NIMl0xT1tDSDJdW0NIMl1bQ0BIXTFbQ0BIXShbQ0gyXVtPSF0pW0NIMl1uKFtjSF1uMiljKGMyMyluW2NIXW5jM040W0NIMl1bQ0gyXVtDSDJdW0NIMl1bQ0BIXTRbQ0BASF01W0NIMl1bQ0gyXVtDSDJdW0NASF01W09IXQ==

> <s_epik_cmdline>
J2VwaWtfcHl0aG9uJywgJy1waCcsICc3LjAnLCAnLXRuJywgJzgnLCAnLW1hJywgJzIwMCcsICctbWV0YWxfYmluZGluZycsICctaW1hZScsICc8aW5maWxlLm1hZT4nLCAnLW9tYWUnLCAnPG91dGZpbGUubWFlPic=

> <r_lp_tautomer_probability>
1

> <r_epik_Ionization_Penalty>
0.00556303

> <r_epik_Ionization_Penalty_Charging>
0

> <r_epik_Ionization_Penalty_Neutral>
0.00556303

> <r_epik_State_Penalty>
0.00401767

> <r_epik_Charging_Adjusted_Penalty>
0.00401767

> <i_epik_Tot_Q>
0

> <i_epik_Tot_abs_Q>
0

> <r_epik_Metal_State_Penalty>
-0

> <b_epik_Metal_Only>
0

> <s_lp_Force_Field>
OPLS_2005

> <r_lp_Energy>
71.6968

> <b_lp_Chiralities_Consistent>
1

> <s_lp_Variant>
AV-unprocessed.smi:148-21

> <Gold.Version>
5.8.1

> <Gold.Id.Protein>
6NUR|6NUR_protein|mol2

> <Gold.PLP.Fitness>
42.4835

> <Gold.PLP.PLP>
-33.6675

> <Gold.PLP.part.hbond>
-5.5198

> <Gold.PLP.part.metal>
0.0000

> <Gold.PLP.part.buried>
-2.5097

> <Gold.PLP.part.nonpolar>
-25.1212

> <Gold.PLP.part.repulsive>
0.1986

> <Gold.PLP.ligand.clash>
0.0023

> <Gold.PLP.ligand.torsion>
1.3544

> <Gold.PLP.Chemscore.Hbond>
2.6150

> <Gold.PLP.Chemscore.CHOScore>
1.0000

> <Gold.PLP.Chemscore.Metal>
0.0000

> <Gold.Chemscore.Hbonds>
donor molecule, donor type, donor heavy atom, donor atom, acceptor molecule, acceptor atom, score
      L1  H     1    31       P1  8028  1.00
      L1  H    21    55       P1 10175  0.50
      P1  H  7989  7998       L1    24  0.96
      L1  C    23    56       P1  7957  1.00

> <Gold.PLP.Chemscore.Internal.Correction>
0.6821

> <Gold.Rescore>
     Score         DG    S(hbond)    S(metal)    S(lipo)     H(rot)  DE(clash)    DE(int)     intcor
      9.57     -14.07       2.21        0.00      82.90       3.32       1.78       2.72       ----

> <Gold.Chemscore.Fitness>
9.5741

> <Gold.Chemscore.DG>
-14.0714

> <Gold.Chemscore.ZeroCoef>
-5.4800

> <Gold.Chemscore.Hbond>
2.2133

> <Gold.Chemscore.Metal>
0.0000

> <Gold.Chemscore.Lipo>
82.8977

> <Gold.Chemscore.Internal_Hbond>
0.0000

> <Gold.Chemscore.DEClash>
1.7798

> <Gold.Chemscore.DEInternal>
2.7175

> <Gold.Chemscore.Rot>
3.3203

> <Gold.Chemscore.Internal.Correction>
   9.000000E+99

> <Gold.Chemscore.Hbonds>
donor molecule, donor type, donor heavy atom, donor atom, acceptor molecule, acceptor atom, score
      L1  H     1    31       P1  8028  0.95
      L1  H    21    55       P1 10175  0.47
      P1  H  7989  7998       L1    24  0.45

> <Gold.Chemscore.Hbond.Weighted>
-7.3924

> <Gold.Chemscore.Metal.Weighted>
-0.0000

> <Gold.Chemscore.Lipo.Weighted>
-9.6990

> <Gold.Chemscore.Internal_Hbond.Weighted>
0.0000

> <Gold.Chemscore.DEClash.Weighted>
1.7798

> <Gold.Chemscore.DEInternal.Weighted>
2.7175

> <Gold.Chemscore.Rot.Weighted>
8.5000

> <Gold.Chemscore.Internal.Correction.Weighted>
   9.000000E+99

> <Gold.Protein.RotatedTorsions>
[ 6907 6896 6895 6894 ] final  142.38 input  -60.11 | X-H torsion
[ 7974 7965 7964 7962 ] final  121.33 input  175.53 | X-H torsion
[ 8008 7997 7996 7995 ] final  -56.05 input   59.86 | X-H torsion
[ 10167 10162 10161 10158 ] final   79.25 input  -65.29 | X-H torsion
[ 10718 10713 10712 10709 ] final  116.91 input   66.30 | X-H torsion
[ 10763 10752 10751 10750 ] final   22.72 input  -60.55 | X-H torsion
[ 11005 11000 10999 10996 ] final -139.40 input  -57.11 | X-H torsion

> <Gold.Protein.ActiveResidues>
 VAL166  LYS551  ARG553  GLY616  TRP617  ASP618  TYR619  PRO620  LYS621  CYS622 
 ASP623  PHE694  ASN695  SER759  ASP760  ASP761  ALA762  ILE779  LEU786  VAL792 
 PHE793  MET794  SER795  GLU796  ALA797  LYS798  CYS799  TRP800  GLU811  SER814 

> <Gold.Protein.RotatedAtoms>
  152.2194  133.4972  159.5153 H   0  0  0  0  0  0  0  0  0  0  0  0  # atno 6907 bound_to 6896
  150.7009  134.1362  159.4097 H   0  0  0  0  0  0  0  0  0  0  0  0  # atno 6908 bound_to 6896
  151.9282  135.0268  160.0578 H   0  0  0  0  0  0  0  0  0  0  0  0  # atno 6909 bound_to 6896
  145.1206  139.3392  143.4716 H   0  0  0  0  0  0  0  0  0  0  0  0  # atno 7974 bound_to 7965
  154.4216  140.1139  156.5574 H   0  0  0  0  0  0  0  0  0  0  0  0  # atno 8008 bound_to 7997
  155.6346  140.3496  155.4675 H   0  0  0  0  0  0  0  0  0  0  0  0  # atno 8009 bound_to 7997
  155.9920  140.1181  157.0619 H   0  0  0  0  0  0  0  0  0  0  0  0  # atno 8010 bound_to 7997
  139.9623  144.5953  150.8061 H   0  0  0  0  0  0  0  0  0  0  0  0  # atno 10167 bound_to 10162
  157.6130  131.1031  150.7541 H   0  0  0  0  0  0  0  0  0  0  0  0  # atno 10718 bound_to 10713
  153.0894  135.6642  153.9885 H   0  0  0  0  0  0  0  0  0  0  0  0  # atno 10763 bound_to 10752
  153.9486  135.2986  155.3441 H   0  0  0  0  0  0  0  0  0  0  0  0  # atno 10764 bound_to 10752
  154.7306  135.5124  153.9031 H   0  0  0  0  0  0  0  0  0  0  0  0  # atno 10765 bound_to 10752
  140.8524  134.2270  157.4753 H   0  0  0  0  0  0  0  0  0  0  0  0  # atno 11005 bound_to 11000
  146.3521  140.1163  142.8602 LP  0  0  0  0  0  0  0  0  0  0  0  0  # atno 17320 bound_to 7965
  145.0745  140.9178  143.4862 LP  0  0  0  0  0  0  0  0  0  0  0  0  # atno 17321 bound_to 7965
  140.7549  143.3036  151.3018 LP  0  0  0  0  0  0  0  0  0  0  0  0  # atno 17342 bound_to 10162
  139.6545  144.0302  152.2650 LP  0  0  0  0  0  0  0  0  0  0  0  0  # atno 17343 bound_to 10162
  156.7914  130.4891  149.5384 LP  0  0  0  0  0  0  0  0  0  0  0  0  # atno 17370 bound_to 10713
  156.1240  130.6130  151.0236 LP  0  0  0  0  0  0  0  0  0  0  0  0  # atno 17371 bound_to 10713
  139.8704  134.9689  156.4649 LP  0  0  0  0  0  0  0  0  0  0  0  0  # atno 17394 bound_to 11000
  140.8776  133.7942  155.9431 LP  0  0  0  0  0  0  0  0  0  0  0  0  # atno 17395 bound_to 11000

$$$$
