AV-unprocessed.smi:555|AV-procd|sdf|2910|dock8
  -GOLD-   2262023403D 1   1.00000     0.00000
 Structure written by MMmdl.
 50 51  0  0  0  0  0  0  0  0  2 V2000
  156.3464  136.2755  156.4876 C   0  0  0  0  0  0  0  0  0  0  0  0
  155.0575  135.6961  156.5850 O   0  0  0  0  0  0  0  0  0  0  0  0
  154.1551  136.4971  157.3318 C   0  0  0  0  0  0  0  0  0  0  0  0
  153.8559  137.7904  156.5558 C   0  0  0  0  0  0  0  0  0  0  0  0
  152.6522  137.6609  155.7269 N   0  0  0  0  0  0  0  0  0  0  0  0
  151.9738  136.4665  155.9036 N   0  0  0  0  0  0  0  0  0  0  0  0
  150.8753  136.2409  155.2585 C   0  0  0  0  0  0  0  0  0  0  0  0
  150.1096  134.9753  155.4324 C   0  0  0  0  0  0  0  0  0  0  0  0
  150.2519  134.2593  156.4249 O   0  0  0  0  0  0  0  0  0  0  0  0
  149.2624  134.6731  154.4319 N   0  0  0  0  0  0  0  0  0  0  0  0
  148.4144  133.4870  154.3715 C   0  0  2  0  0  0  0  0  0  0  0  0
  149.2713  132.2081  154.3443 C   0  0  0  0  0  0  0  0  0  0  0  0
  148.4005  130.9536  154.1611 C   0  0  0  0  0  0  0  0  0  0  0  0
  147.5632  131.0597  152.9370 N   0  3  1  0  0  0  0  0  0  0  0  0
  146.8777  129.7851  152.5735 C   0  0  0  0  0  0  0  0  0  0  0  0
  147.8915  128.6513  152.3461 C   0  0  0  0  0  0  0  0  0  0  0  0
  145.9054  129.9256  151.3860 C   0  0  0  0  0  0  0  0  0  0  0  0
  146.6887  132.2635  152.9748 C   0  0  0  0  0  0  0  0  0  0  0  0
  147.5287  133.5431  153.1164 C   0  0  0  0  0  0  0  0  0  0  0  0
  150.3405  137.2248  154.3327 C   0  0  0  0  0  0  0  0  0  0  0  0
  151.0173  138.3821  154.1651 C   0  0  0  0  0  0  0  0  0  0  0  0
  152.2579  138.6660  154.8884 C   0  0  0  0  0  0  0  0  0  0  0  0
  152.8870  139.7160  154.7602 O   0  0  0  0  0  0  0  0  0  0  0  0
  156.9977  135.6232  155.9060 H   0  0  0  0  0  0  0  0  0  0  0  0
  156.7953  136.4065  157.4730 H   0  0  0  0  0  0  0  0  0  0  0  0
  156.3071  137.2446  155.9886 H   0  0  0  0  0  0  0  0  0  0  0  0
  153.2341  135.9481  157.5346 H   0  0  0  0  0  0  0  0  0  0  0  0
  154.6015  136.7457  158.2957 H   0  0  0  0  0  0  0  0  0  0  0  0
  153.7404  138.6203  157.2550 H   0  0  0  0  0  0  0  0  0  0  0  0
  154.7162  138.0528  155.9377 H   0  0  0  0  0  0  0  0  0  0  0  0
  149.2072  135.3160  153.6546 H   0  0  0  0  0  0  0  0  0  0  0  0
  147.7630  133.4625  155.2475 H   0  0  0  0  0  0  0  0  0  0  0  0
  149.9968  132.2664  153.5315 H   0  0  0  0  0  0  0  0  0  0  0  0
  149.8480  132.1219  155.2661 H   0  0  0  0  0  0  0  0  0  0  0  0
  149.0483  130.0787  154.0952 H   0  0  0  0  0  0  0  0  0  0  0  0
  147.7647  130.8127  155.0358 H   0  0  0  0  0  0  0  0  0  0  0  0
  146.2881  129.4848  153.4408 H   0  0  0  0  0  0  0  0  0  0  0  0
  147.3817  127.6946  152.2278 H   0  0  0  0  0  0  0  0  0  0  0  0
  148.5726  128.5555  153.1922 H   0  0  0  0  0  0  0  0  0  0  0  0
  148.4907  128.8090  151.4494 H   0  0  0  0  0  0  0  0  0  0  0  0
  145.3603  128.9950  151.2249 H   0  0  0  0  0  0  0  0  0  0  0  0
  146.4257  130.1569  150.4563 H   0  0  0  0  0  0  0  0  0  0  0  0
  145.1635  130.7047  151.5600 H   0  0  0  0  0  0  0  0  0  0  0  0
  146.0915  132.3317  152.0662 H   0  0  0  0  0  0  0  0  0  0  0  0
  145.9904  132.1926  153.8099 H   0  0  0  0  0  0  0  0  0  0  0  0
  146.8704  134.4117  153.1621 H   0  0  0  0  0  0  0  0  0  0  0  0
  148.1485  133.6698  152.2270 H   0  0  0  0  0  0  0  0  0  0  0  0
  149.4267  137.0422  153.7861 H   0  0  0  0  0  0  0  0  0  0  0  0
  150.6320  139.1220  153.4788 H   0  0  0  0  0  0  0  0  0  0  0  0
  148.2192  131.2218  152.1860 H   0  0  0  0  0  0  0  0  0  0  0  0
  1  2  1  0  0  0  0
  1 24  1  0  0  0  0
  1 25  1  0  0  0  0
  1 26  1  0  0  0  0
  2  3  1  0  0  0  0
  3  4  1  0  0  0  0
  3 27  1  0  0  0  0
  3 28  1  0  0  0  0
  4  5  1  0  0  0  0
  4 29  1  0  0  0  0
  4 30  1  0  0  0  0
  5 22  1  0  0  0  0
  5  6  1  0  0  0  0
  6  7  2  0  0  0  0
  7  8  1  0  0  0  0
  7 20  1  0  0  0  0
  8  9  2  0  0  0  0
  8 10  1  0  0  0  0
 10 11  1  0  0  0  0
 10 31  1  0  0  0  0
 11 19  1  0  0  0  0
 11 12  1  0  0  0  0
 11 32  1  0  0  0  0
 12 13  1  0  0  0  0
 12 33  1  0  0  0  0
 12 34  1  0  0  0  0
 13 14  1  0  0  0  0
 13 35  1  0  0  0  0
 13 36  1  0  0  0  0
 14 15  1  0  0  0  0
 14 18  1  0  0  0  0
 14 50  1  0  0  0  0
 15 16  1  0  0  0  0
 15 17  1  0  0  0  0
 15 37  1  0  0  0  0
 16 38  1  0  0  0  0
 16 39  1  0  0  0  0
 16 40  1  0  0  0  0
 17 41  1  0  0  0  0
 17 42  1  0  0  0  0
 17 43  1  0  0  0  0
 18 19  1  0  0  0  0
 18 44  1  0  0  0  0
 18 45  1  0  0  0  0
 19 46  1  0  0  0  0
 19 47  1  0  0  0  0
 20 21  2  0  0  0  0
 20 48  1  0  0  0  0
 21 22  1  0  0  0  0
 21 49  1  0  0  0  0
 22 23  2  0  0  0  0
M  CHG  1  14   1
M  END
> <s_m_source_file>
AV-unprocessed.smi

> <i_m_source_file_index>
555

> <i_lp_mmshare_version>
43012

> <i_f3d_flags>
0

> <s_epik_input>
W0NIM11PW0NIMl1bQ0gyXW4xbmMoW2NIXVtjSF1jMT1PKUMoPU8pW05IXVtDSF0yW0NIMl1bQ0gyXU4oW0NIXShbQ0gzXSlbQ0gzXSlbQ0gyXVtDSDJdMg==

> <s_epik_cmdline>
J2VwaWtfcHl0aG9uJywgJy1waCcsICc3LjAnLCAnLXRuJywgJzgnLCAnLW1hJywgJzIwMCcsICctbWV0YWxfYmluZGluZycsICctaW1hZScsICc8aW5maWxlLm1hZT4nLCAnLW9tYWUnLCAnPG91dGZpbGUubWFlPic=

> <r_lp_tautomer_probability>
1

> <r_epik_Ionization_Penalty>
0.00560205

> <r_epik_Ionization_Penalty_Charging>
0.00559911

> <r_epik_Ionization_Penalty_Neutral>
2.94673e-06

> <r_epik_State_Penalty>
0.00410202

> <r_epik_Charging_Adjusted_Penalty>
0.00970113

> <i_epik_Tot_Q>
1

> <i_epik_Tot_abs_Q>
1

> <r_epik_Metal_State_Penalty>
-0

> <b_epik_Metal_Only>
0

> <s_lp_Force_Field>
OPLS_2005

> <r_lp_Energy>
40.4253

> <b_lp_Chiralities_Consistent>
1

> <s_lp_Variant>
AV-unprocessed.smi:555-1

> <Gold.Version>
5.8.1

> <Gold.Id.Protein>
6NUR|6NUR_protein|mol2

> <Gold.PLP.Fitness>
47.5626

> <Gold.PLP.PLP>
-34.1022

> <Gold.PLP.part.hbond>
-6.0000

> <Gold.PLP.part.metal>
0.0000

> <Gold.PLP.part.buried>
1.2489

> <Gold.PLP.part.nonpolar>
-28.6568

> <Gold.PLP.part.repulsive>
0.0589

> <Gold.PLP.ligand.clash>
0.0000

> <Gold.PLP.ligand.torsion>
0.5469

> <Gold.PLP.Chemscore.Hbond>
4.8066

> <Gold.PLP.Chemscore.CHOScore>
0.0000

> <Gold.PLP.Chemscore.Metal>
0.0000

> <Gold.Chemscore.Hbonds>
donor molecule, donor type, donor heavy atom, donor atom, acceptor molecule, acceptor atom, score
      L1  H    10    31       P1  7948  1.00
      L1  H    14    50       P1 10747  0.89
      P1  H  7989  7998       L1    23  0.37
      P1  H  7997  8009       L1    23  1.00
      P1  H 10752 10763       L1     2  1.00
      P1  H 10752 10765       L1     6  0.46

> <Gold.PLP.Chemscore.Internal.Correction>
0.1345

> <Gold.Rescore>
     Score         DG    S(hbond)    S(metal)    S(lipo)     H(rot)  DE(clash)    DE(int)     intcor
     20.70     -22.47       3.47        0.00      84.44       1.74       1.03       0.74       ----

> <Gold.Chemscore.Fitness>
20.7009

> <Gold.Chemscore.DG>
-22.4720

> <Gold.Chemscore.ZeroCoef>
-5.4800

> <Gold.Chemscore.Hbond>
3.4662

> <Gold.Chemscore.Metal>
0.0000

> <Gold.Chemscore.Lipo>
84.4366

> <Gold.Chemscore.Internal_Hbond>
0.0000

> <Gold.Chemscore.DEClash>
1.0265

> <Gold.Chemscore.DEInternal>
0.7446

> <Gold.Chemscore.Rot>
1.7438

> <Gold.Chemscore.Internal.Correction>
   9.000000E+99

> <Gold.Chemscore.Hbonds>
donor molecule, donor type, donor heavy atom, donor atom, acceptor molecule, acceptor atom, score
      L1  H    10    31       P1  7948  0.38
      L1  H    14    50       P1 10747  0.83
      P1  H  7989  7998       L1    23  0.16
      P1  H  7997  8009       L1    23  0.96
      P1  H 10752 10763       L1     2  0.53

> <Gold.Chemscore.Hbond.Weighted>
-11.5771

> <Gold.Chemscore.Metal.Weighted>
-0.0000

> <Gold.Chemscore.Lipo.Weighted>
-9.8791

> <Gold.Chemscore.Internal_Hbond.Weighted>
0.0000

> <Gold.Chemscore.DEClash.Weighted>
1.0265

> <Gold.Chemscore.DEInternal.Weighted>
0.7446

> <Gold.Chemscore.Rot.Weighted>
4.4642

> <Gold.Chemscore.Internal.Correction.Weighted>
   9.000000E+99

> <Gold.Protein.RotatedTorsions>
[ 6907 6896 6895 6894 ] final   54.85 input  -60.11 | X-H torsion
[ 7974 7965 7964 7962 ] final   86.60 input  175.53 | X-H torsion
[ 8008 7997 7996 7995 ] final -138.48 input   59.86 | X-H torsion
[ 10167 10162 10161 10158 ] final   82.01 input  -65.29 | X-H torsion
[ 10718 10713 10712 10709 ] final  -52.39 input   66.30 | X-H torsion
[ 10763 10752 10751 10750 ] final -174.63 input  -60.55 | X-H torsion
[ 11005 11000 10999 10996 ] final  155.33 input  -57.11 | X-H torsion

> <Gold.Protein.ActiveResidues>
 VAL166  LYS551  ARG553  GLY616  TRP617  ASP618  TYR619  PRO620  LYS621  CYS622 
 ASP623  PHE694  ASN695  SER759  ASP760  ASP761  ALA762  ILE779  LEU786  VAL792 
 PHE793  MET794  SER795  GLU796  ALA797  LYS798  CYS799  TRP800  GLU811  SER814 

> <Gold.Protein.RotatedAtoms>
  152.3480  134.7044  160.0244 H   0  0  0  0  0  0  0  0  0  0  0  0  # atno 6907 bound_to 6896
  151.7407  133.3316  159.3373 H   0  0  0  0  0  0  0  0  0  0  0  0  # atno 6908 bound_to 6896
  150.7522  134.6214  159.6182 H   0  0  0  0  0  0  0  0  0  0  0  0  # atno 6909 bound_to 6896
  145.5700  139.2313  143.2411 H   0  0  0  0  0  0  0  0  0  0  0  0  # atno 7974 bound_to 7965
  155.4290  140.0524  157.3020 H   0  0  0  0  0  0  0  0  0  0  0  0  # atno 8008 bound_to 7997
  154.4868  140.2104  155.9595 H   0  0  0  0  0  0  0  0  0  0  0  0  # atno 8009 bound_to 7997
  156.1286  140.3176  155.8320 H   0  0  0  0  0  0  0  0  0  0  0  0  # atno 8010 bound_to 7997
  139.9332  144.6138  150.8324 H   0  0  0  0  0  0  0  0  0  0  0  0  # atno 10167 bound_to 10162
  156.1626  130.4149  149.9770 H   0  0  0  0  0  0  0  0  0  0  0  0  # atno 10718 bound_to 10713
  154.5940  135.2848  155.0606 H   0  0  0  0  0  0  0  0  0  0  0  0  # atno 10763 bound_to 10752
  154.1896  135.6443  153.5060 H   0  0  0  0  0  0  0  0  0  0  0  0  # atno 10764 bound_to 10752
  153.0131  135.5443  154.6635 H   0  0  0  0  0  0  0  0  0  0  0  0  # atno 10765 bound_to 10752
  140.1571  134.8635  157.2528 H   0  0  0  0  0  0  0  0  0  0  0  0  # atno 11005 bound_to 11000
  146.1791  140.6526  142.9198 LP  0  0  0  0  0  0  0  0  0  0  0  0  # atno 17320 bound_to 7965
  144.7442  140.5023  143.6847 LP  0  0  0  0  0  0  0  0  0  0  0  0  # atno 17321 bound_to 7965
  140.7631  143.3216  151.2610 LP  0  0  0  0  0  0  0  0  0  0  0  0  # atno 17342 bound_to 10162
  139.6765  143.9929  152.2784 LP  0  0  0  0  0  0  0  0  0  0  0  0  # atno 17343 bound_to 10162
  156.7594  130.9145  151.3641 LP  0  0  0  0  0  0  0  0  0  0  0  0  # atno 17370 bound_to 10713
  157.6744  130.9080  150.0115 LP  0  0  0  0  0  0  0  0  0  0  0  0  # atno 17371 bound_to 10713
  140.2534  134.3656  155.7433 LP  0  0  0  0  0  0  0  0  0  0  0  0  # atno 17394 bound_to 11000
  141.2205  133.7329  156.8970 LP  0  0  0  0  0  0  0  0  0  0  0  0  # atno 17395 bound_to 11000

$$$$
