AV-unprocessed.smi:2104|AV-procd|sdf|8583|dock1
  -GOLD-   2272011313D 1   1.00000     0.00000
 Structure written by MMmdl.
 43 44  0  0  0  0  0  0  0  0  1 V2000
  149.3933  131.7958  154.9722 C   0  0  0  0  0  0  0  0  0  0  0  0
  149.7939  133.0568  155.6582 C   0  0  0  0  0  0  0  0  0  0  0  0
  150.3846  134.2080  155.2187 C   0  0  0  0  0  0  0  0  0  0  0  0
  150.4742  134.9925  156.3994 C   0  0  0  0  0  0  0  0  0  0  0  0
  151.0441  136.2909  156.3688 N   0  0  0  0  0  0  0  0  0  0  0  0
  151.5064  137.0073  157.4074 C   0  0  0  0  0  0  0  0  0  0  0  0
  151.4777  136.6483  158.5849 O   0  0  0  0  0  0  0  0  0  0  0  0
  152.0139  138.1801  157.0004 N   0  0  0  0  0  0  0  0  0  0  0  0
  152.6361  139.1746  157.8682 C   0  0  0  0  0  0  0  0  0  0  0  0
  151.6324  140.2561  158.2933 C   0  0  0  0  0  0  0  0  0  0  0  0
  152.2157  141.0549  159.3111 O   0  0  0  0  0  0  0  0  0  0  0  0
  151.7125  142.3810  159.3879 C   0  0  2  0  0  0  0  0  0  0  0  0
  151.8275  143.0433  157.9984 C   0  0  0  0  0  0  0  0  0  0  0  0
  151.4411  144.5288  158.0463 C   0  0  0  0  0  0  0  0  0  0  0  0
  152.2880  145.2833  159.0805 C   0  0  0  0  0  0  0  0  0  0  0  0
  152.1664  144.6358  160.4681 C   0  0  0  0  0  0  0  0  0  0  0  0
  152.5518  143.1430  160.4385 C   0  0  1  0  0  0  0  0  0  0  0  0
  152.4138  142.5193  161.8370 C   0  0  0  0  0  0  0  0  0  0  0  0
  149.9836  134.3754  157.4635 N   0  0  0  0  0  0  0  0  0  0  0  0
  149.5448  133.1317  156.9937 O   0  0  0  0  0  0  0  0  0  0  0  0
  149.6139  131.8449  153.9058 H   0  0  0  0  0  0  0  0  0  0  0  0
  148.3245  131.6157  155.0885 H   0  0  0  0  0  0  0  0  0  0  0  0
  149.9281  130.9424  155.3894 H   0  0  0  0  0  0  0  0  0  0  0  0
  150.7004  134.4470  154.2140 H   0  0  0  0  0  0  0  0  0  0  0  0
  151.1217  136.7136  155.4558 H   0  0  0  0  0  0  0  0  0  0  0  0
  151.9897  138.3922  156.0139 H   0  0  0  0  0  0  0  0  0  0  0  0
  153.0007  138.6529  158.7532 H   0  0  0  0  0  0  0  0  0  0  0  0
  153.5100  139.6220  157.3919 H   0  0  0  0  0  0  0  0  0  0  0  0
  151.3391  140.8545  157.4302 H   0  0  0  0  0  0  0  0  0  0  0  0
  150.7286  139.7877  158.6851 H   0  0  0  0  0  0  0  0  0  0  0  0
  150.6696  142.3747  159.7114 H   0  0  0  0  0  0  0  0  0  0  0  0
  152.8510  142.9472  157.6334 H   0  0  0  0  0  0  0  0  0  0  0  0
  151.1956  142.5301  157.2742 H   0  0  0  0  0  0  0  0  0  0  0  0
  151.5686  144.9785  157.0612 H   0  0  0  0  0  0  0  0  0  0  0  0
  150.3839  144.6249  158.2973 H   0  0  0  0  0  0  0  0  0  0  0  0
  153.3328  145.2862  158.7674 H   0  0  0  0  0  0  0  0  0  0  0  0
  151.9758  146.3269  159.1280 H   0  0  0  0  0  0  0  0  0  0  0  0
  152.8016  145.1705  161.1752 H   0  0  0  0  0  0  0  0  0  0  0  0
  151.1428  144.7453  160.8295 H   0  0  0  0  0  0  0  0  0  0  0  0
  153.6013  143.0748  160.1473 H   0  0  0  0  0  0  0  0  0  0  0  0
  151.3796  142.5434  162.1813 H   0  0  0  0  0  0  0  0  0  0  0  0
  153.0204  143.0551  162.5673 H   0  0  0  0  0  0  0  0  0  0  0  0
  152.7416  141.4794  161.8421 H   0  0  0  0  0  0  0  0  0  0  0  0
  1  2  1  0  0  0  0
  1 21  1  0  0  0  0
  1 22  1  0  0  0  0
  1 23  1  0  0  0  0
  2 20  1  0  0  0  0
  2  3  2  0  0  0  0
  3  4  1  0  0  0  0
  3 24  1  0  0  0  0
  4  5  1  0  0  0  0
  4 19  2  0  0  0  0
  5  6  1  0  0  0  0
  5 25  1  0  0  0  0
  6  7  2  0  0  0  0
  6  8  1  0  0  0  0
  8  9  1  0  0  0  0
  8 26  1  0  0  0  0
  9 10  1  0  0  0  0
  9 27  1  0  0  0  0
  9 28  1  0  0  0  0
 10 11  1  0  0  0  0
 10 29  1  0  0  0  0
 10 30  1  0  0  0  0
 11 12  1  0  0  0  0
 12 17  1  0  0  0  0
 12 13  1  0  0  0  0
 12 31  1  0  0  0  0
 13 14  1  0  0  0  0
 13 32  1  0  0  0  0
 13 33  1  0  0  0  0
 14 15  1  0  0  0  0
 14 34  1  0  0  0  0
 14 35  1  0  0  0  0
 15 16  1  0  0  0  0
 15 36  1  0  0  0  0
 15 37  1  0  0  0  0
 16 17  1  0  0  0  0
 16 38  1  0  0  0  0
 16 39  1  0  0  0  0
 17 18  1  0  0  0  0
 17 40  1  0  0  0  0
 18 41  1  0  0  0  0
 18 42  1  0  0  0  0
 18 43  1  0  0  0  0
 19 20  1  0  0  0  0
M  END
> <s_m_source_file>
AV-unprocessed.smi

> <i_m_source_file_index>
2104

> <i_lp_mmshare_version>
43012

> <i_f3d_flags>
0

> <s_epik_input>
W0NIM11jMVtjSF1jKG5vMSlbTkhdQyg9TylbTkhdW0NIMl1bQ0gyXU9bQ0BASF0yW0NIMl1bQ0gyXVtDSDJdW0NIMl1bQ0BIXTJbQ0gzXQ==

> <s_epik_cmdline>
J2VwaWtfcHl0aG9uJywgJy1waCcsICc3LjAnLCAnLXRuJywgJzgnLCAnLW1hJywgJzIwMCcsICctbWV0YWxfYmluZGluZycsICctaW1hZScsICc8aW5maWxlLm1hZT4nLCAnLW9tYWUnLCAnPG91dGZpbGUubWFlPic=

> <r_lp_tautomer_probability>
1

> <r_epik_Ionization_Penalty>
2.94418e-05

> <r_epik_Ionization_Penalty_Charging>
0

> <r_epik_Ionization_Penalty_Neutral>
2.94418e-05

> <r_epik_State_Penalty>
-0

> <r_epik_Charging_Adjusted_Penalty>
0

> <i_epik_Tot_Q>
0

> <i_epik_Tot_abs_Q>
0

> <r_epik_Metal_State_Penalty>
0.0104148

> <b_epik_Metal_Only>
0

> <s_lp_Force_Field>
OPLS_2005

> <r_lp_Energy>
8.87971

> <b_lp_Chiralities_Consistent>
1

> <s_lp_Variant>
AV-unprocessed.smi:2104-1

> <Gold.Version>
5.8.1

> <Gold.Id.Protein>
6NUR|6NUR_protein|mol2

> <Gold.PLP.Fitness>
41.7286

> <Gold.PLP.PLP>
-38.0621

> <Gold.PLP.part.hbond>
-2.0000

> <Gold.PLP.part.metal>
0.0000

> <Gold.PLP.part.buried>
-5.3634

> <Gold.PLP.part.nonpolar>
-30.6704

> <Gold.PLP.part.repulsive>
0.2003

> <Gold.PLP.ligand.clash>
0.0000

> <Gold.PLP.ligand.torsion>
0.4450

> <Gold.PLP.Chemscore.Hbond>
1.5040

> <Gold.PLP.Chemscore.CHOScore>
0.0000

> <Gold.PLP.Chemscore.Metal>
0.0000

> <Gold.Chemscore.Hbonds>
donor molecule, donor type, donor heavy atom, donor atom, acceptor molecule, acceptor atom, score
      P1  H  6896  6907       L1    19  0.80
      P1  H  6896  6908       L1     7  0.70

> <Gold.PLP.Chemscore.Internal.Correction>
0.0445

> <Gold.Rescore>
     Score         DG    S(hbond)    S(metal)    S(lipo)     H(rot)  DE(clash)    DE(int)     intcor
     15.59     -17.29       1.37        0.00     100.22       1.75       0.02       1.68       ----

> <Gold.Chemscore.Fitness>
15.5925

> <Gold.Chemscore.DG>
-17.2909

> <Gold.Chemscore.ZeroCoef>
-5.4800

> <Gold.Chemscore.Hbond>
1.3687

> <Gold.Chemscore.Metal>
0.0000

> <Gold.Chemscore.Lipo>
100.2185

> <Gold.Chemscore.Internal_Hbond>
0.0000

> <Gold.Chemscore.DEClash>
0.0202

> <Gold.Chemscore.DEInternal>
1.6782

> <Gold.Chemscore.Rot>
1.7524

> <Gold.Chemscore.Internal.Correction>
   9.000000E+99

> <Gold.Chemscore.Hbonds>
donor molecule, donor type, donor heavy atom, donor atom, acceptor molecule, acceptor atom, score
      P1  H  6896  6907       L1    19  0.19
      P1  H  6896  6908       L1     7  0.65

> <Gold.Chemscore.Hbond.Weighted>
-4.5715

> <Gold.Chemscore.Metal.Weighted>
-0.0000

> <Gold.Chemscore.Lipo.Weighted>
-11.7256

> <Gold.Chemscore.Internal_Hbond.Weighted>
0.0000

> <Gold.Chemscore.DEClash.Weighted>
0.0202

> <Gold.Chemscore.DEInternal.Weighted>
1.6782

> <Gold.Chemscore.Rot.Weighted>
4.4861

> <Gold.Chemscore.Internal.Correction.Weighted>
   9.000000E+99

> <Gold.Protein.RotatedTorsions>
[ 6907 6896 6895 6894 ] final -119.67 input  -60.11 | X-H torsion
[ 7974 7965 7964 7962 ] final   42.57 input  175.53 | X-H torsion
[ 8008 7997 7996 7995 ] final   75.50 input   59.86 | X-H torsion
[ 10167 10162 10161 10158 ] final   74.64 input  -65.29 | X-H torsion
[ 10718 10713 10712 10709 ] final -166.75 input   66.30 | X-H torsion
[ 10763 10752 10751 10750 ] final  105.33 input  -60.55 | X-H torsion
[ 11005 11000 10999 10996 ] final -148.91 input  -57.11 | X-H torsion

> <Gold.Protein.ActiveResidues>
 VAL166  LYS551  ARG553  GLY616  TRP617  ASP618  TYR619  PRO620  LYS621  CYS622 
 ASP623  PHE694  ASN695  SER759  ASP760  ASP761  ALA762  ILE779  LEU786  VAL792 
 PHE793  MET794  SER795  GLU796  ALA797  LYS798  CYS799  TRP800  GLU811  SER814 

> <Gold.Protein.RotatedAtoms>
  150.8325  133.8067  159.3092 H   0  0  0  0  0  0  0  0  0  0  0  0  # atno 6907 bound_to 6896
  151.5792  135.1057  160.0023 H   0  0  0  0  0  0  0  0  0  0  0  0  # atno 6908 bound_to 6896
  152.4403  133.7394  159.6688 H   0  0  0  0  0  0  0  0  0  0  0  0  # atno 6909 bound_to 6896
  146.0729  139.5285  142.9586 H   0  0  0  0  0  0  0  0  0  0  0  0  # atno 7974 bound_to 7965
  155.8137  140.3472  155.5473 H   0  0  0  0  0  0  0  0  0  0  0  0  # atno 8008 bound_to 7997
  155.8414  140.0942  157.1752 H   0  0  0  0  0  0  0  0  0  0  0  0  # atno 8009 bound_to 7997
  154.4005  140.1394  156.3720 H   0  0  0  0  0  0  0  0  0  0  0  0  # atno 8010 bound_to 7997
  140.0116  144.5610  150.7654 H   0  0  0  0  0  0  0  0  0  0  0  0  # atno 10167 bound_to 10162
  156.6724  130.9089  151.3045 H   0  0  0  0  0  0  0  0  0  0  0  0  # atno 10718 bound_to 10713
  153.3779  135.3913  155.1835 H   0  0  0  0  0  0  0  0  0  0  0  0  # atno 10763 bound_to 10752
  154.8703  135.3718  154.4895 H   0  0  0  0  0  0  0  0  0  0  0  0  # atno 10764 bound_to 10752
  153.5369  135.7085  153.5717 H   0  0  0  0  0  0  0  0  0  0  0  0  # atno 10765 bound_to 10752
  140.7563  134.3349  157.5113 H   0  0  0  0  0  0  0  0  0  0  0  0  # atno 11005 bound_to 11000
  145.6359  141.0294  143.1838 LP  0  0  0  0  0  0  0  0  0  0  0  0  # atno 17320 bound_to 7965
  144.7243  139.7927  143.7371 LP  0  0  0  0  0  0  0  0  0  0  0  0  # atno 17321 bound_to 7965
  140.7379  143.2771  151.3708 LP  0  0  0  0  0  0  0  0  0  0  0  0  # atno 17342 bound_to 10162
  139.6201  144.0924  152.2383 LP  0  0  0  0  0  0  0  0  0  0  0  0  # atno 17343 bound_to 10162
  157.7072  130.9399  150.0970 LP  0  0  0  0  0  0  0  0  0  0  0  0  # atno 17370 bound_to 10713
  156.1928  130.3655  149.8887 LP  0  0  0  0  0  0  0  0  0  0  0  0  # atno 17371 bound_to 10713
  139.8778  134.9174  156.3177 LP  0  0  0  0  0  0  0  0  0  0  0  0  # atno 17394 bound_to 11000
  140.9705  133.7330  156.0527 LP  0  0  0  0  0  0  0  0  0  0  0  0  # atno 17395 bound_to 11000

$$$$
