AV-unprocessed.smi:1795|AV-procd|sdf|7240|dock1
  -GOLD-   22720 8483D 1   1.00000     0.00000
 Structure written by MMmdl.
 47 48  0  0  0  0  0  0  0  0  1 V2000
  155.3302  144.3517  165.1423 C   0  0  0  0  0  0  0  0  0  0  0  0
  155.2324  142.9006  165.6251 C   0  0  1  0  0  0  0  0  0  0  0  0
  156.2324  141.9812  164.8989 C   0  0  0  0  0  0  0  0  0  0  0  0
  156.2178  140.6024  165.4012 N   0  0  0  0  0  0  0  0  0  0  0  0
  157.2126  139.7400  164.7211 C   0  0  1  0  0  0  0  0  0  0  0  0
  157.0325  138.2368  165.0525 C   0  0  0  0  0  0  0  0  0  0  0  0
  157.2247  139.9077  163.1736 C   0  0  0  0  0  0  0  0  0  0  0  0
  155.9225  139.6696  162.5570 N   0  0  0  0  0  0  0  0  0  0  0  0
  155.6456  139.8429  161.2557 C   0  0  0  0  0  0  0  0  0  0  0  0
  156.4847  140.2119  160.4325 O   0  0  0  0  0  0  0  0  0  0  0  0
  154.2053  139.5305  160.8251 C   0  0  0  0  0  0  0  0  0  0  0  0
  153.4667  140.7170  160.3608 N   0  0  0  0  0  0  0  0  0  0  0  0
  153.3731  141.8046  161.2520 C   0  0  0  0  0  0  0  0  0  0  0  0
  152.7212  142.9328  160.9292 C   0  0  0  0  0  0  0  0  0  0  0  0
  152.1047  143.0161  159.6263 C   0  0  0  0  0  0  0  0  0  0  0  0
  152.1843  141.9800  158.7677 C   0  0  0  0  0  0  0  0  0  0  0  0
  152.8936  140.7436  159.1178 C   0  0  0  0  0  0  0  0  0  0  0  0
  152.9682  139.7908  158.3411 O   0  0  0  0  0  0  0  0  0  0  0  0
  156.4215  140.6515  166.8534 C   0  0  0  0  0  0  0  0  0  0  0  0
  155.4160  141.5702  167.5730 C   0  0  1  0  0  0  0  0  0  0  0  0
  155.6932  141.6666  169.0770 C   0  0  0  0  0  0  0  0  0  0  0  0
  155.5028  142.8772  167.0206 O   0  0  0  0  0  0  0  0  0  0  0  0
  155.1159  144.4258  164.0758 H   0  0  0  0  0  0  0  0  0  0  0  0
  156.3281  144.7570  165.3124 H   0  0  0  0  0  0  0  0  0  0  0  0
  154.6182  144.9869  165.6695 H   0  0  0  0  0  0  0  0  0  0  0  0
  154.2155  142.5425  165.4546 H   0  0  0  0  0  0  0  0  0  0  0  0
  155.9702  142.0091  163.8438 H   0  0  0  0  0  0  0  0  0  0  0  0
  157.2387  142.3940  164.9877 H   0  0  0  0  0  0  0  0  0  0  0  0
  158.2007  140.0274  165.0839 H   0  0  0  0  0  0  0  0  0  0  0  0
  157.7264  137.6035  164.5012 H   0  0  0  0  0  0  0  0  0  0  0  0
  156.0230  137.8990  164.8156 H   0  0  0  0  0  0  0  0  0  0  0  0
  157.2236  138.0207  166.1026 H   0  0  0  0  0  0  0  0  0  0  0  0
  157.5469  140.9165  162.9127 H   0  0  0  0  0  0  0  0  0  0  0  0
  157.9242  139.2297  162.6875 H   0  0  0  0  0  0  0  0  0  0  0  0
  155.1789  139.3580  163.1650 H   0  0  0  0  0  0  0  0  0  0  0  0
  154.2436  138.7720  160.0420 H   0  0  0  0  0  0  0  0  0  0  0  0
  153.6718  139.0591  161.6529 H   0  0  0  0  0  0  0  0  0  0  0  0
  153.8543  141.6598  162.2083 H   0  0  0  0  0  0  0  0  0  0  0  0
  152.6559  143.7547  161.6271 H   0  0  0  0  0  0  0  0  0  0  0  0
  151.5761  143.9130  159.3392 H   0  0  0  0  0  0  0  0  0  0  0  0
  151.7157  142.0600  157.7980 H   0  0  0  0  0  0  0  0  0  0  0  0
  156.3125  139.6587  167.2869 H   0  0  0  0  0  0  0  0  0  0  0  0
  157.4383  140.9827  167.0714 H   0  0  0  0  0  0  0  0  0  0  0  0
  154.4034  141.1890  167.4282 H   0  0  0  0  0  0  0  0  0  0  0  0
  155.6268  140.6876  169.5520 H   0  0  0  0  0  0  0  0  0  0  0  0
  154.9709  142.3217  169.5644 H   0  0  0  0  0  0  0  0  0  0  0  0
  156.6892  142.0663  169.2701 H   0  0  0  0  0  0  0  0  0  0  0  0
  1  2  1  0  0  0  0
  1 23  1  0  0  0  0
  1 24  1  0  0  0  0
  1 25  1  0  0  0  0
  2 22  1  0  0  0  0
  2  3  1  0  0  0  0
  2 26  1  0  0  0  0
  3  4  1  0  0  0  0
  3 27  1  0  0  0  0
  3 28  1  0  0  0  0
  4  5  1  0  0  0  0
  4 19  1  0  0  0  0
  5  6  1  0  0  0  0
  5  7  1  0  0  0  0
  5 29  1  0  0  0  0
  6 30  1  0  0  0  0
  6 31  1  0  0  0  0
  6 32  1  0  0  0  0
  7  8  1  0  0  0  0
  7 33  1  0  0  0  0
  7 34  1  0  0  0  0
  8  9  1  0  0  0  0
  8 35  1  0  0  0  0
  9 10  2  0  0  0  0
  9 11  1  0  0  0  0
 11 12  1  0  0  0  0
 11 36  1  0  0  0  0
 11 37  1  0  0  0  0
 12 17  1  0  0  0  0
 12 13  1  0  0  0  0
 13 14  2  0  0  0  0
 13 38  1  0  0  0  0
 14 15  1  0  0  0  0
 14 39  1  0  0  0  0
 15 16  2  0  0  0  0
 15 40  1  0  0  0  0
 16 17  1  0  0  0  0
 16 41  1  0  0  0  0
 17 18  2  0  0  0  0
 19 20  1  0  0  0  0
 19 42  1  0  0  0  0
 19 43  1  0  0  0  0
 20 21  1  0  0  0  0
 20 22  1  0  0  0  0
 20 44  1  0  0  0  0
 21 45  1  0  0  0  0
 21 46  1  0  0  0  0
 21 47  1  0  0  0  0
M  END
> <s_m_source_file>
AV-unprocessed.smi

> <i_m_source_file_index>
1795

> <i_lp_mmshare_version>
43012

> <i_f3d_flags>
0

> <s_epik_input>
W0NIM11bQ0BASF0xW0NIMl1OKFtDSDJdW0NASF0oTzEpW0NIM10pW0NASF0oW0NIM10pW0NIMl1bTkhdQyg9TylbQ0gyXW4yW2NIXVtjSF1bY0hdW2NIXWMyPU8=

> <s_epik_cmdline>
J2VwaWtfcHl0aG9uJywgJy1waCcsICc3LjAnLCAnLXRuJywgJzgnLCAnLW1hJywgJzIwMCcsICctbWV0YWxfYmluZGluZycsICctaW1hZScsICc8aW5maWxlLm1hZT4nLCAnLW9tYWUnLCAnPG91dGZpbGUubWFlPic=

> <r_lp_tautomer_probability>
1

> <r_epik_Ionization_Penalty>
0.237383

> <r_epik_Ionization_Penalty_Charging>
3.58805e-07

> <r_epik_Ionization_Penalty_Neutral>
0.237382

> <r_epik_State_Penalty>
0.228245

> <r_epik_Charging_Adjusted_Penalty>
0.228245

> <i_epik_Tot_Q>
0

> <i_epik_Tot_abs_Q>
0

> <r_epik_Metal_State_Penalty>
0.228221

> <b_epik_Metal_Only>
0

> <s_lp_Force_Field>
OPLS_2005

> <r_lp_Energy>
36.5227

> <b_lp_Chiralities_Consistent>
1

> <s_lp_Variant>
AV-unprocessed.smi:1795-4

> <Gold.Version>
5.8.1

> <Gold.Id.Protein>
6NUR|6NUR_protein|mol2

> <Gold.PLP.Fitness>
46.7505

> <Gold.PLP.PLP>
-44.2053

> <Gold.PLP.part.hbond>
-2.0000

> <Gold.PLP.part.metal>
0.0000

> <Gold.PLP.part.buried>
-3.9826

> <Gold.PLP.part.nonpolar>
-37.0733

> <Gold.PLP.part.repulsive>
0.0539

> <Gold.PLP.ligand.clash>
0.0000

> <Gold.PLP.ligand.torsion>
0.2323

> <Gold.PLP.Chemscore.Hbond>
0.9760

> <Gold.PLP.Chemscore.CHOScore>
0.0000

> <Gold.PLP.Chemscore.Metal>
0.0000

> <Gold.Chemscore.Hbonds>
donor molecule, donor type, donor heavy atom, donor atom, acceptor molecule, acceptor atom, score
      P1  H  7997  8009       L1    18  0.83

> <Gold.PLP.Chemscore.Internal.Correction>
0.0817

> <Gold.Rescore>
     Score         DG    S(hbond)    S(metal)    S(lipo)     H(rot)  DE(clash)    DE(int)     intcor
     16.16     -16.39       0.96        0.00     105.82       1.83       0.03       0.20       ----

> <Gold.Chemscore.Fitness>
16.1619

> <Gold.Chemscore.DG>
-16.3906

> <Gold.Chemscore.ZeroCoef>
-5.4800

> <Gold.Chemscore.Hbond>
0.9587

> <Gold.Chemscore.Metal>
0.0000

> <Gold.Chemscore.Lipo>
105.8183

> <Gold.Chemscore.Internal_Hbond>
0.0000

> <Gold.Chemscore.DEClash>
0.0303

> <Gold.Chemscore.DEInternal>
0.1983

> <Gold.Chemscore.Rot>
1.8251

> <Gold.Chemscore.Internal.Correction>
   9.000000E+99

> <Gold.Chemscore.Hbonds>
donor molecule, donor type, donor heavy atom, donor atom, acceptor molecule, acceptor atom, score
      P1  H  7997  8009       L1    18  0.59

> <Gold.Chemscore.Hbond.Weighted>
-3.2022

> <Gold.Chemscore.Metal.Weighted>
-0.0000

> <Gold.Chemscore.Lipo.Weighted>
-12.3807

> <Gold.Chemscore.Internal_Hbond.Weighted>
0.0000

> <Gold.Chemscore.DEClash.Weighted>
0.0303

> <Gold.Chemscore.DEInternal.Weighted>
0.1983

> <Gold.Chemscore.Rot.Weighted>
4.6724

> <Gold.Chemscore.Internal.Correction.Weighted>
   9.000000E+99

> <Gold.Protein.RotatedTorsions>
[ 6907 6896 6895 6894 ] final -132.62 input  -60.11 | X-H torsion
[ 7974 7965 7964 7962 ] final   -9.44 input  175.53 | X-H torsion
[ 8008 7997 7996 7995 ] final  153.89 input   59.86 | X-H torsion
[ 10167 10162 10161 10158 ] final  128.75 input  -65.29 | X-H torsion
[ 10718 10713 10712 10709 ] final  114.15 input   66.30 | X-H torsion
[ 10763 10752 10751 10750 ] final   52.56 input  -60.55 | X-H torsion
[ 11005 11000 10999 10996 ] final   76.00 input  -57.11 | X-H torsion

> <Gold.Protein.ActiveResidues>
 VAL166  LYS551  ARG553  GLY616  TRP617  ASP618  TYR619  PRO620  LYS621  CYS622 
 ASP623  PHE694  ASN695  SER759  ASP760  ASP761  ALA762  ILE779  LEU786  VAL792 
 PHE793  MET794  SER795  GLU796  ALA797  LYS798  CYS799  TRP800  GLU811  SER814 

> <Gold.Protein.RotatedAtoms>
  150.9645  133.6409  159.2748 H   0  0  0  0  0  0  0  0  0  0  0  0  # atno 6907 bound_to 6896
  151.3720  135.0923  159.9478 H   0  0  0  0  0  0  0  0  0  0  0  0  # atno 6908 bound_to 6896
  152.5160  133.9198  159.7583 H   0  0  0  0  0  0  0  0  0  0  0  0  # atno 6909 bound_to 6896
  146.2251  140.2617  142.8352 H   0  0  0  0  0  0  0  0  0  0  0  0  # atno 7974 bound_to 7965
  156.2559  140.1981  156.6560 H   0  0  0  0  0  0  0  0  0  0  0  0  # atno 8008 bound_to 7997
  154.6500  140.0573  156.9970 H   0  0  0  0  0  0  0  0  0  0  0  0  # atno 8009 bound_to 7997
  155.1432  140.3244  155.4450 H   0  0  0  0  0  0  0  0  0  0  0  0  # atno 8010 bound_to 7997
  139.5511  144.6814  151.4320 H   0  0  0  0  0  0  0  0  0  0  0  0  # atno 10167 bound_to 10162
  157.6298  131.0994  150.7144 H   0  0  0  0  0  0  0  0  0  0  0  0  # atno 10718 bound_to 10713
  152.9789  135.5808  154.4598 H   0  0  0  0  0  0  0  0  0  0  0  0  # atno 10763 bound_to 10752
  154.4176  135.2771  155.1998 H   0  0  0  0  0  0  0  0  0  0  0  0  # atno 10764 bound_to 10752
  154.3761  135.6157  153.5820 H   0  0  0  0  0  0  0  0  0  0  0  0  # atno 10765 bound_to 10752
  139.9318  134.7565  156.1341 H   0  0  0  0  0  0  0  0  0  0  0  0  # atno 11005 bound_to 11000
  144.9334  140.8000  143.5675 LP  0  0  0  0  0  0  0  0  0  0  0  0  # atno 17320 bound_to 7965
  145.2563  139.2011  143.4916 LP  0  0  0  0  0  0  0  0  0  0  0  0  # atno 17321 bound_to 7965
  140.6774  143.8159  150.7076 LP  0  0  0  0  0  0  0  0  0  0  0  0  # atno 17342 bound_to 10162
  140.1602  143.4282  152.2072 LP  0  0  0  0  0  0  0  0  0  0  0  0  # atno 17343 bound_to 10162
  156.7486  130.4761  149.5461 LP  0  0  0  0  0  0  0  0  0  0  0  0  # atno 17370 bound_to 10713
  156.1493  130.6299  151.0574 LP  0  0  0  0  0  0  0  0  0  0  0  0  # atno 17371 bound_to 10713
  141.0910  133.6714  156.2541 LP  0  0  0  0  0  0  0  0  0  0  0  0  # atno 17394 bound_to 11000
  140.6182  134.5388  157.5544 LP  0  0  0  0  0  0  0  0  0  0  0  0  # atno 17395 bound_to 11000

$$$$
