AV-unprocessed.smi:523|AV-procd|sdf|2804|dock1
  -GOLD-   2262023283D 1   1.00000     0.00000
 Structure written by MMmdl.
 40 42  0  0  0  0  0  0  0  0  2 V2000
  149.3151  140.2946  154.8113 C   0  0  0  0  0  0  0  0  0  0  0  0
  150.6458  140.5273  155.2353 O   0  0  0  0  0  0  0  0  0  0  0  0
  150.8161  141.8084  155.8200 C   0  0  0  0  0  0  0  0  0  0  0  0
  150.3422  141.7742  157.2795 C   0  0  0  0  0  0  0  0  0  0  0  0
  151.3977  141.3235  158.1861 N   0  0  0  0  0  0  0  0  0  0  0  0
  152.2323  142.0697  158.9625 C   0  0  0  0  0  0  0  0  0  0  0  0
  152.2139  143.4654  158.9630 N   0  0  0  0  0  0  0  0  0  0  0  0
  152.0649  144.3403  157.8036 C   0  0  0  0  0  0  0  0  0  0  0  0
  151.0367  145.4502  158.0863 C   0  0  0  0  0  0  0  0  0  0  0  0
  151.4753  146.2155  159.2028 O   0  0  0  0  0  0  0  0  0  0  0  0
  151.6299  145.4110  160.3665 C   0  0  0  0  0  0  0  0  0  0  0  0
  152.6465  144.2883  160.0874 C   0  0  0  0  0  0  0  0  0  0  0  0
  153.0382  141.3585  159.7535 N   0  0  0  0  0  0  0  0  0  0  0  0
  152.7138  140.0494  159.4357 C   0  0  0  0  0  0  0  0  0  0  0  0
  151.7263  140.0005  158.5022 C   0  0  0  0  0  0  0  0  0  0  0  0
  151.1416  138.7405  157.9906 C   0  0  0  0  0  0  0  0  0  0  0  0
  150.2329  138.7508  157.1627 O   0  0  0  0  0  0  0  0  0  0  0  0
  151.7274  137.6341  158.5489 N   0  5  0  0  0  0  0  0  0  0  0  0
  152.7332  137.6382  159.4913 C   0  0  0  0  0  0  0  0  0  0  0  0
  153.2021  136.5939  159.9462 O   0  0  0  0  0  0  0  0  0  0  0  0
  153.2350  138.8293  159.9460 N   0  0  0  0  0  0  0  0  0  0  0  0
  154.2980  138.8652  160.9545 C   0  0  0  0  0  0  0  0  0  0  0  0
  149.2433  139.3049  154.3605 H   0  0  0  0  0  0  0  0  0  0  0  0
  149.0036  141.0282  154.0666 H   0  0  0  0  0  0  0  0  0  0  0  0
  148.6224  140.3327  155.6528 H   0  0  0  0  0  0  0  0  0  0  0  0
  151.8649  142.1048  155.7708 H   0  0  0  0  0  0  0  0  0  0  0  0
  150.2408  142.5505  155.2648 H   0  0  0  0  0  0  0  0  0  0  0  0
  149.9921  142.7561  157.5938 H   0  0  0  0  0  0  0  0  0  0  0  0
  149.4716  141.1323  157.3567 H   0  0  0  0  0  0  0  0  0  0  0  0
  153.0329  144.7865  157.5726 H   0  0  0  0  0  0  0  0  0  0  0  0
  151.7883  143.7660  156.9203 H   0  0  0  0  0  0  0  0  0  0  0  0
  150.9429  146.1073  157.2218 H   0  0  0  0  0  0  0  0  0  0  0  0
  150.0476  145.0327  158.2819 H   0  0  0  0  0  0  0  0  0  0  0  0
  151.9777  146.0388  161.1869 H   0  0  0  0  0  0  0  0  0  0  0  0
  150.6659  144.9981  160.6671 H   0  0  0  0  0  0  0  0  0  0  0  0
  152.7563  143.6657  160.9759 H   0  0  0  0  0  0  0  0  0  0  0  0
  153.6303  144.7082  159.8738 H   0  0  0  0  0  0  0  0  0  0  0  0
  155.1659  138.2948  160.6209 H   0  0  0  0  0  0  0  0  0  0  0  0
  153.9454  138.4338  161.8921 H   0  0  0  0  0  0  0  0  0  0  0  0
  154.6403  139.8771  161.1682 H   0  0  0  0  0  0  0  0  0  0  0  0
  1  2  1  0  0  0  0
  1 23  1  0  0  0  0
  1 24  1  0  0  0  0
  1 25  1  0  0  0  0
  2  3  1  0  0  0  0
  3  4  1  0  0  0  0
  3 26  1  0  0  0  0
  3 27  1  0  0  0  0
  4  5  1  0  0  0  0
  4 28  1  0  0  0  0
  4 29  1  0  0  0  0
  5 15  1  0  0  0  0
  5  6  1  0  0  0  0
  6  7  1  0  0  0  0
  6 13  2  0  0  0  0
  7 12  1  0  0  0  0
  7  8  1  0  0  0  0
  8  9  1  0  0  0  0
  8 30  1  0  0  0  0
  8 31  1  0  0  0  0
  9 10  1  0  0  0  0
  9 32  1  0  0  0  0
  9 33  1  0  0  0  0
 10 11  1  0  0  0  0
 11 12  1  0  0  0  0
 11 34  1  0  0  0  0
 11 35  1  0  0  0  0
 12 36  1  0  0  0  0
 12 37  1  0  0  0  0
 13 14  1  0  0  0  0
 14 21  1  0  0  0  0
 14 15  2  0  0  0  0
 15 16  1  0  0  0  0
 16 17  2  0  0  0  0
 16 18  1  0  0  0  0
 18 19  1  0  0  0  0
 19 20  2  0  0  0  0
 19 21  1  0  0  0  0
 21 22  1  0  0  0  0
 22 38  1  0  0  0  0
 22 39  1  0  0  0  0
 22 40  1  0  0  0  0
M  CHG  1  18  -1
M  END
> <s_m_source_file>
AV-unprocessed.smi

> <i_m_source_file_index>
523

> <i_lp_mmshare_version>
43012

> <i_f3d_flags>
0

> <s_epik_input>
W0NIM11uMWMoPU8pW25IXWMoPU8pYyhjMTIpbihbQ0gyXVtDSDJdT1tDSDNdKWMobjIpTjNbQ0gyXVtDSDJdT1tDSDJdW0NIMl0z

> <s_epik_cmdline>
J2VwaWtfcHl0aG9uJywgJy1waCcsICc3LjAnLCAnLXRuJywgJzgnLCAnLW1hJywgJzIwMCcsICctbWV0YWxfYmluZGluZycsICctaW1hZScsICc8aW5maWxlLm1hZT4nLCAnLW9tYWUnLCAnPG91dGZpbGUubWFlPic=

> <r_lp_tautomer_probability>
1

> <r_epik_Ionization_Penalty>
4.75788

> <r_epik_Ionization_Penalty_Charging>
0.0452179

> <r_epik_Ionization_Penalty_Neutral>
4.71266

> <r_epik_State_Penalty>
4.71244

> <r_epik_Charging_Adjusted_Penalty>
4.75766

> <i_epik_Tot_Q>
-1

> <i_epik_Tot_abs_Q>
1

> <r_epik_Metal_State_Penalty>
0.934872

> <b_epik_Metal_Only>
1

> <s_lp_Force_Field>
OPLS_2005

> <r_lp_Energy>
41.5278

> <b_lp_Chiralities_Consistent>
1

> <s_lp_Variant>
AV-unprocessed.smi:523-2

> <Gold.Version>
5.8.1

> <Gold.Id.Protein>
6NUR|6NUR_protein|mol2

> <Gold.PLP.Fitness>
45.4386

> <Gold.PLP.PLP>
-40.9367

> <Gold.PLP.part.hbond>
-3.0000

> <Gold.PLP.part.metal>
0.0000

> <Gold.PLP.part.buried>
-6.8821

> <Gold.PLP.part.nonpolar>
-30.2594

> <Gold.PLP.part.repulsive>
0.2251

> <Gold.PLP.ligand.clash>
0.0000

> <Gold.PLP.ligand.torsion>
1.0179

> <Gold.PLP.Chemscore.Hbond>
2.0000

> <Gold.PLP.Chemscore.CHOScore>
0.0000

> <Gold.PLP.Chemscore.Metal>
0.0000

> <Gold.Chemscore.Hbonds>
donor molecule, donor type, donor heavy atom, donor atom, acceptor molecule, acceptor atom, score
      P1  H  6896  6909       L1    20  1.00
      P1  H  7989  7998       L1     2  0.88

> <Gold.PLP.Chemscore.Internal.Correction>
0.5376

> <Gold.Rescore>
     Score         DG    S(hbond)    S(metal)    S(lipo)     H(rot)  DE(clash)    DE(int)     intcor
     14.90     -16.26       1.60        0.00      79.67       1.52       0.24       1.11       ----

> <Gold.Chemscore.Fitness>
14.9035

> <Gold.Chemscore.DG>
-16.2583

> <Gold.Chemscore.ZeroCoef>
-5.4800

> <Gold.Chemscore.Hbond>
1.5982

> <Gold.Chemscore.Metal>
0.0000

> <Gold.Chemscore.Lipo>
79.6668

> <Gold.Chemscore.Internal_Hbond>
0.0000

> <Gold.Chemscore.DEClash>
0.2444

> <Gold.Chemscore.DEInternal>
1.1103

> <Gold.Chemscore.Rot>
1.5159

> <Gold.Chemscore.Internal.Correction>
   9.000000E+99

> <Gold.Chemscore.Hbonds>
donor molecule, donor type, donor heavy atom, donor atom, acceptor molecule, acceptor atom, score
      P1  H  6896  6909       L1    20  0.97
      P1  H  7989  7998       L1     2  0.06

> <Gold.Chemscore.Hbond.Weighted>
-5.3378

> <Gold.Chemscore.Metal.Weighted>
-0.0000

> <Gold.Chemscore.Lipo.Weighted>
-9.3210

> <Gold.Chemscore.Internal_Hbond.Weighted>
0.0000

> <Gold.Chemscore.DEClash.Weighted>
0.2444

> <Gold.Chemscore.DEInternal.Weighted>
1.1103

> <Gold.Chemscore.Rot.Weighted>
3.8806

> <Gold.Chemscore.Internal.Correction.Weighted>
   9.000000E+99

> <Gold.Protein.RotatedTorsions>
[ 6907 6896 6895 6894 ] final  169.76 input  -60.11 | X-H torsion
[ 7974 7965 7964 7962 ] final  -55.65 input  175.53 | X-H torsion
[ 8008 7997 7996 7995 ] final  -31.91 input   59.86 | X-H torsion
[ 10167 10162 10161 10158 ] final  165.98 input  -65.29 | X-H torsion
[ 10718 10713 10712 10709 ] final  120.96 input   66.30 | X-H torsion
[ 10763 10752 10751 10750 ] final   82.19 input  -60.55 | X-H torsion
[ 11005 11000 10999 10996 ] final   92.57 input  -57.11 | X-H torsion

> <Gold.Protein.ActiveResidues>
 VAL166  LYS551  ARG553  GLY616  TRP617  ASP618  TYR619  PRO620  LYS621  CYS622 
 ASP623  PHE694  ASN695  SER759  ASP760  ASP761  ALA762  ILE779  LEU786  VAL792 
 PHE793  MET794  SER795  GLU796  ALA797  LYS798  CYS799  TRP800  GLU811  SER814 

> <Gold.Protein.RotatedAtoms>
  151.8268  133.3402  159.3600 H   0  0  0  0  0  0  0  0  0  0  0  0  # atno 6907 bound_to 6896
  150.7277  134.5521  159.5809 H   0  0  0  0  0  0  0  0  0  0  0  0  # atno 6908 bound_to 6896
  152.2965  134.7661  160.0418 H   0  0  0  0  0  0  0  0  0  0  0  0  # atno 6909 bound_to 6896
  145.8718  140.8211  142.9884 H   0  0  0  0  0  0  0  0  0  0  0  0  # atno 7974 bound_to 7965
  154.4197  140.1751  156.1643 H   0  0  0  0  0  0  0  0  0  0  0  0  # atno 8008 bound_to 7997
  155.9813  140.3377  155.6641 H   0  0  0  0  0  0  0  0  0  0  0  0  # atno 8009 bound_to 7997
  155.6496  140.0689  157.2582 H   0  0  0  0  0  0  0  0  0  0  0  0  # atno 8010 bound_to 7997
  139.4916  144.4075  151.9338 H   0  0  0  0  0  0  0  0  0  0  0  0  # atno 10167 bound_to 10162
  157.5853  131.1070  150.8107 H   0  0  0  0  0  0  0  0  0  0  0  0  # atno 10718 bound_to 10713
  153.1181  135.4737  154.9150 H   0  0  0  0  0  0  0  0  0  0  0  0  # atno 10763 bound_to 10752
  154.7548  135.3115  154.8492 H   0  0  0  0  0  0  0  0  0  0  0  0  # atno 10764 bound_to 10752
  153.9063  135.6870  153.4806 H   0  0  0  0  0  0  0  0  0  0  0  0  # atno 10765 bound_to 10752
  139.8821  134.8740  156.3591 H   0  0  0  0  0  0  0  0  0  0  0  0  # atno 11005 bound_to 11000
  144.6726  140.1250  143.7447 LP  0  0  0  0  0  0  0  0  0  0  0  0  # atno 17320 bound_to 7965
  145.9128  139.2497  143.1427 LP  0  0  0  0  0  0  0  0  0  0  0  0  # atno 17321 bound_to 7965
  140.3516  144.3082  150.5948 LP  0  0  0  0  0  0  0  0  0  0  0  0  # atno 17342 bound_to 10162
  140.5480  143.2211  151.7974 LP  0  0  0  0  0  0  0  0  0  0  0  0  # atno 17343 bound_to 10162
  156.8543  130.5091  149.5309 LP  0  0  0  0  0  0  0  0  0  0  0  0  # atno 17370 bound_to 10713
  156.0902  130.5889  150.9718 LP  0  0  0  0  0  0  0  0  0  0  0  0  # atno 17371 bound_to 10713
  140.9541  133.7431  156.0312 LP  0  0  0  0  0  0  0  0  0  0  0  0  # atno 17394 bound_to 11000
  140.8069  134.3444  157.5423 LP  0  0  0  0  0  0  0  0  0  0  0  0  # atno 17395 bound_to 11000

$$$$
