AV-unprocessed.smi:529|AV-procd|sdf|2841|dock1
  -GOLD-   2262023333D 1   1.00000     0.00000
 Structure written by MMmdl.
 30 31  0  0  0  0  0  0  0  0  1 V2000
  150.1022  139.6371  153.9266 N   0  0  0  0  0  0  0  0  0  0  0  0
  148.9605  140.2164  154.0547 C   0  0  0  0  0  0  0  0  0  0  0  0
  147.3258  139.5037  153.6559 S   0  0  0  0  0  0  0  0  0  0  0  0
  146.5608  140.9904  154.1753 C   0  0  0  0  0  0  0  0  0  0  0  0
  147.4477  141.8941  154.5885 C   0  0  0  0  0  0  0  0  0  0  0  0
  148.7736  141.5150  154.5336 N   0  0  0  0  0  0  0  0  0  0  0  0
  149.8573  142.3779  155.0050 C   0  0  0  0  0  0  0  0  0  0  0  0
  150.3855  141.9868  156.3919 C   0  0  0  0  0  0  0  0  0  0  0  0
  150.8018  140.8491  156.6166 O   0  0  0  0  0  0  0  0  0  0  0  0
  150.3439  142.9495  157.3252 N   0  0  0  0  0  0  0  0  0  0  0  0
  150.7976  142.8006  158.7053 C   0  0  0  0  0  0  0  0  0  0  0  0
  150.8155  144.1497  159.4549 C   0  0  0  0  0  0  0  0  0  0  0  0
  152.1938  144.2532  160.1102 C   0  0  0  0  0  0  0  0  0  0  0  0
  153.1089  143.4491  159.1928 C   0  0  0  0  0  0  0  0  0  0  0  0
  152.2431  142.2717  158.7439 C   0  0  0  0  0  0  0  0  0  0  0  0
  149.9806  138.7032  153.5615 H   0  0  0  0  0  0  0  0  0  0  0  0
  145.4876  141.1078  154.1470 H   0  0  0  0  0  0  0  0  0  0  0  0
  147.2285  142.8845  154.9599 H   0  0  0  0  0  0  0  0  0  0  0  0
  150.6791  142.3745  154.2870 H   0  0  0  0  0  0  0  0  0  0  0  0
  149.5037  143.4087  155.0508 H   0  0  0  0  0  0  0  0  0  0  0  0
  149.9822  143.8536  157.0586 H   0  0  0  0  0  0  0  0  0  0  0  0
  150.1488  142.0902  159.2213 H   0  0  0  0  0  0  0  0  0  0  0  0
  150.6912  144.9805  158.7582 H   0  0  0  0  0  0  0  0  0  0  0  0
  150.0106  144.2227  160.1868 H   0  0  0  0  0  0  0  0  0  0  0  0
  152.5230  145.2852  160.2348 H   0  0  0  0  0  0  0  0  0  0  0  0
  152.1666  143.7905  161.0976 H   0  0  0  0  0  0  0  0  0  0  0  0
  153.3851  144.0536  158.3278 H   0  0  0  0  0  0  0  0  0  0  0  0
  154.0277  143.1317  159.6864 H   0  0  0  0  0  0  0  0  0  0  0  0
  152.3127  141.4742  159.4849 H   0  0  0  0  0  0  0  0  0  0  0  0
  152.5789  141.8540  157.7937 H   0  0  0  0  0  0  0  0  0  0  0  0
  1  2  2  0  0  0  0
  1 16  1  0  0  0  0
  2  6  1  0  0  0  0
  2  3  1  0  0  0  0
  3  4  1  0  0  0  0
  4  5  2  0  0  0  0
  4 17  1  0  0  0  0
  5  6  1  0  0  0  0
  5 18  1  0  0  0  0
  6  7  1  0  0  0  0
  7  8  1  0  0  0  0
  7 19  1  0  0  0  0
  7 20  1  0  0  0  0
  8  9  2  0  0  0  0
  8 10  1  0  0  0  0
 10 11  1  0  0  0  0
 10 21  1  0  0  0  0
 11 15  1  0  0  0  0
 11 12  1  0  0  0  0
 11 22  1  0  0  0  0
 12 13  1  0  0  0  0
 12 23  1  0  0  0  0
 12 24  1  0  0  0  0
 13 14  1  0  0  0  0
 13 25  1  0  0  0  0
 13 26  1  0  0  0  0
 14 15  1  0  0  0  0
 14 27  1  0  0  0  0
 14 28  1  0  0  0  0
 15 29  1  0  0  0  0
 15 30  1  0  0  0  0
M  END
> <s_m_source_file>
AV-unprocessed.smi

> <i_m_source_file_index>
529

> <i_lp_mmshare_version>
43012

> <i_f3d_flags>
0

> <s_epik_input>
W0hdL049YzFcc1tjSF1bY0hdbjFbQ0gyXUMoPU8pW05IXVtDSF0yW0NIMl1bQ0gyXVtDSDJdW0NIMl0y

> <s_epik_cmdline>
J2VwaWtfcHl0aG9uJywgJy1waCcsICc3LjAnLCAnLXRuJywgJzgnLCAnLW1hJywgJzIwMCcsICctbWV0YWxfYmluZGluZycsICctaW1hZScsICc8aW5maWxlLm1hZT4nLCAnLW9tYWUnLCAnPG91dGZpbGUubWFlPic=

> <r_epik_Ionization_Penalty>
2.18041

> <r_epik_Ionization_Penalty_Charging>
2.18041

> <r_epik_Ionization_Penalty_Neutral>
1.25369e-07

> <r_epik_State_Penalty>
2.33404

> <r_epik_Charging_Adjusted_Penalty>
4.51444

> <i_epik_Tot_Q>
0

> <i_epik_Tot_abs_Q>
0

> <r_epik_Metal_State_Penalty>
2.33404

> <b_epik_Metal_Only>
0

> <s_lp_Force_Field>
OPLS_2005

> <r_lp_Energy>
18.55

> <b_lp_Chiralities_Consistent>
1

> <s_lp_Variant>
AV-unprocessed.smi:529-3

> <Gold.Version>
5.8.1

> <Gold.Id.Protein>
6NUR|6NUR_protein|mol2

> <Gold.PLP.Fitness>
38.8035

> <Gold.PLP.PLP>
-27.8069

> <Gold.PLP.part.hbond>
-3.0000

> <Gold.PLP.part.metal>
0.0000

> <Gold.PLP.part.buried>
2.8071

> <Gold.PLP.part.nonpolar>
-27.0714

> <Gold.PLP.part.repulsive>
0.0368

> <Gold.PLP.ligand.clash>
0.0000

> <Gold.PLP.ligand.torsion>
0.2973

> <Gold.PLP.Chemscore.Hbond>
1.8640

> <Gold.PLP.Chemscore.CHOScore>
1.9945

> <Gold.PLP.Chemscore.Metal>
0.0000

> <Gold.Chemscore.Hbonds>
donor molecule, donor type, donor heavy atom, donor atom, acceptor molecule, acceptor atom, score
      L1  H    10    21       P1  8028  0.85
      P1  H  7989  7998       L1     1  0.98
      L1  C     4    17       P1 10175  1.00
      L1  C     5    18       P1  8028  0.99

> <Gold.PLP.Chemscore.Internal.Correction>
0.0157

> <Gold.Rescore>
     Score         DG    S(hbond)    S(metal)    S(lipo)     H(rot)  DE(clash)    DE(int)     intcor
     14.53     -16.77       1.85        0.00      77.98       1.56       1.88       0.36       ----

> <Gold.Chemscore.Fitness>
14.5289

> <Gold.Chemscore.DG>
-16.7675

> <Gold.Chemscore.ZeroCoef>
-5.4800

> <Gold.Chemscore.Hbond>
1.8464

> <Gold.Chemscore.Metal>
0.0000

> <Gold.Chemscore.Lipo>
77.9760

> <Gold.Chemscore.Internal_Hbond>
0.0000

> <Gold.Chemscore.DEClash>
1.8828

> <Gold.Chemscore.DEInternal>
0.3558

> <Gold.Chemscore.Rot>
1.5635

> <Gold.Chemscore.Internal.Correction>
   9.000000E+99

> <Gold.Chemscore.Hbonds>
donor molecule, donor type, donor heavy atom, donor atom, acceptor molecule, acceptor atom, score
      L1  H    10    21       P1  8028  0.77
      P1  H  7989  7998       L1     1  0.81

> <Gold.Chemscore.Hbond.Weighted>
-6.1669

> <Gold.Chemscore.Metal.Weighted>
-0.0000

> <Gold.Chemscore.Lipo.Weighted>
-9.1232

> <Gold.Chemscore.Internal_Hbond.Weighted>
0.0000

> <Gold.Chemscore.DEClash.Weighted>
1.8828

> <Gold.Chemscore.DEInternal.Weighted>
0.3558

> <Gold.Chemscore.Rot.Weighted>
4.0025

> <Gold.Chemscore.Internal.Correction.Weighted>
   9.000000E+99

> <Gold.Protein.RotatedTorsions>
[ 6907 6896 6895 6894 ] final -129.32 input  -60.11 | X-H torsion
[ 7974 7965 7964 7962 ] final -103.29 input  175.53 | X-H torsion
[ 8008 7997 7996 7995 ] final   12.90 input   59.86 | X-H torsion
[ 10167 10162 10161 10158 ] final   -8.12 input  -65.29 | X-H torsion
[ 10718 10713 10712 10709 ] final -157.39 input   66.30 | X-H torsion
[ 10763 10752 10751 10750 ] final  130.41 input  -60.55 | X-H torsion
[ 11005 11000 10999 10996 ] final -106.48 input  -57.11 | X-H torsion

> <Gold.Protein.ActiveResidues>
 VAL166  LYS551  ARG553  GLY616  TRP617  ASP618  TYR619  PRO620  LYS621  CYS622 
 ASP623  PHE694  ASN695  SER759  ASP760  ASP761  ALA762  ILE779  LEU786  VAL792 
 PHE793  MET794  SER795  GLU796  ALA797  LYS798  CYS799  TRP800  GLU811  SER814 

> <Gold.Protein.RotatedAtoms>
  150.9275  133.6807  159.2817 H   0  0  0  0  0  0  0  0  0  0  0  0  # atno 6907 bound_to 6896
  151.4240  135.1000  159.9632 H   0  0  0  0  0  0  0  0  0  0  0  0  # atno 6908 bound_to 6896
  152.5010  133.8720  159.7358 H   0  0  0  0  0  0  0  0  0  0  0  0  # atno 6909 bound_to 6896
  145.2578  140.9259  143.3058 H   0  0  0  0  0  0  0  0  0  0  0  0  # atno 7974 bound_to 7965
  154.8269  140.2893  155.5748 H   0  0  0  0  0  0  0  0  0  0  0  0  # atno 8008 bound_to 7997
  156.3002  140.2539  156.3118 H   0  0  0  0  0  0  0  0  0  0  0  0  # atno 8009 bound_to 7997
  154.9275  140.0384  157.2020 H   0  0  0  0  0  0  0  0  0  0  0  0  # atno 8010 bound_to 7997
  140.7049  143.6004  150.8803 H   0  0  0  0  0  0  0  0  0  0  0  0  # atno 10167 bound_to 10162
  156.5396  130.8557  151.2744 H   0  0  0  0  0  0  0  0  0  0  0  0  # atno 10718 bound_to 10713
  153.7576  135.3200  155.3332 H   0  0  0  0  0  0  0  0  0  0  0  0  # atno 10763 bound_to 10752
  154.8241  135.4582  154.0870 H   0  0  0  0  0  0  0  0  0  0  0  0  # atno 10764 bound_to 10752
  153.2091  135.6933  153.8219 H   0  0  0  0  0  0  0  0  0  0  0  0  # atno 10765 bound_to 10752
  141.1003  133.8897  157.1860 H   0  0  0  0  0  0  0  0  0  0  0  0  # atno 11005 bound_to 11000
  144.9445  139.4151  143.6432 LP  0  0  0  0  0  0  0  0  0  0  0  0  # atno 17320 bound_to 7965
  146.3284  139.8422  142.8888 LP  0  0  0  0  0  0  0  0  0  0  0  0  # atno 17321 bound_to 7965
  139.9729  143.6037  152.2968 LP  0  0  0  0  0  0  0  0  0  0  0  0  # atno 17342 bound_to 10162
  139.6630  144.7662  151.1926 LP  0  0  0  0  0  0  0  0  0  0  0  0  # atno 17343 bound_to 10162
  157.7407  130.9856  150.2399 LP  0  0  0  0  0  0  0  0  0  0  0  0  # atno 17370 bound_to 10713
  156.2984  130.3755  149.7774 LP  0  0  0  0  0  0  0  0  0  0  0  0  # atno 17371 bound_to 10713
  139.9852  135.0084  156.9845 LP  0  0  0  0  0  0  0  0  0  0  0  0  # atno 17394 bound_to 11000
  140.5039  134.1069  155.7256 LP  0  0  0  0  0  0  0  0  0  0  0  0  # atno 17395 bound_to 11000

$$$$
