AV-unprocessed.smi:2926|AV-procd|sdf|11227|dock2
  -GOLD-   2272016113D 1   1.00000     0.00000
 Structure written by MMmdl.
 32 32  0  0  0  0  0  0  0  0  1 V2000
  144.4874  137.2358  152.7054 C   0  0  0  0  0  0  0  0  0  0  0  0
  145.9654  137.1257  153.1183 C   0  0  0  0  0  0  0  0  0  0  0  0
  146.0961  136.6085  154.5636 C   0  0  0  0  0  0  0  0  0  0  0  0
  146.7362  138.4463  152.8493 C   0  0  2  0  0  0  0  0  0  0  0  0
  146.6064  138.9755  151.4043 C   0  0  0  0  0  0  0  0  0  0  0  0
  146.4700  137.9114  150.4867 O   0  0  0  0  0  0  0  0  0  0  0  0
  148.1541  138.2729  153.1912 N   0  0  0  0  0  0  0  0  0  0  0  0
  148.6602  138.4101  154.8369 S   0  0  0  0  0  0  0  0  0  0  0  0
  147.4911  138.8240  155.6279 O   0  0  0  0  0  0  0  0  0  0  0  0
  149.3938  137.1851  155.1917 O   0  0  0  0  0  0  0  0  0  0  0  0
  149.8593  139.8065  154.7646 C   0  0  0  0  0  0  0  0  0  0  0  0
  151.2465  139.2895  155.0174 C   0  0  0  0  0  0  0  0  0  0  0  0
  151.9596  138.2870  154.3032 C   0  0  0  0  0  0  0  0  0  0  0  0
  153.1571  138.2226  154.9552 C   0  0  0  0  0  0  0  0  0  0  0  0
  153.1843  139.1035  155.9870 O   0  0  0  0  0  0  0  0  0  0  0  0
  151.9590  139.7788  156.0199 N   0  0  0  0  0  0  0  0  0  0  0  0
  146.3228  139.2049  153.5154 H   0  0  0  0  0  0  0  0  0  0  0  0
  143.9502  137.9576  153.3215 H   0  0  0  0  0  0  0  0  0  0  0  0
  143.9801  136.2759  152.8052 H   0  0  0  0  0  0  0  0  0  0  0  0
  144.3908  137.5492  151.6655 H   0  0  0  0  0  0  0  0  0  0  0  0
  146.3977  136.3606  152.4727 H   0  0  0  0  0  0  0  0  0  0  0  0
  145.6832  137.3144  155.2844 H   0  0  0  0  0  0  0  0  0  0  0  0
  147.1351  136.4220  154.8336 H   0  0  0  0  0  0  0  0  0  0  0  0
  145.5615  135.6664  154.6873 H   0  0  0  0  0  0  0  0  0  0  0  0
  145.7232  139.6064  151.3043 H   0  0  0  0  0  0  0  0  0  0  0  0
  147.4622  139.5887  151.1230 H   0  0  0  0  0  0  0  0  0  0  0  0
  145.5844  137.9119  150.1563 H   0  0  0  0  0  0  0  0  0  0  0  0
  148.7478  138.8306  152.5776 H   0  0  0  0  0  0  0  0  0  0  0  0
  149.7791  140.2787  153.7849 H   0  0  0  0  0  0  0  0  0  0  0  0
  149.5755  140.5444  155.5146 H   0  0  0  0  0  0  0  0  0  0  0  0
  151.6440  137.7112  153.4459 H   0  0  0  0  0  0  0  0  0  0  0  0
  154.0485  137.6296  154.8134 H   0  0  0  0  0  0  0  0  0  0  0  0
  1  2  1  0  0  0  0
  1 18  1  0  0  0  0
  1 19  1  0  0  0  0
  1 20  1  0  0  0  0
  2  3  1  0  0  0  0
  2  4  1  0  0  0  0
  2 21  1  0  0  0  0
  3 22  1  0  0  0  0
  3 23  1  0  0  0  0
  3 24  1  0  0  0  0
  4 17  1  0  0  0  0
  4  5  1  0  0  0  0
  4  7  1  0  0  0  0
  5  6  1  0  0  0  0
  5 25  1  0  0  0  0
  5 26  1  0  0  0  0
  6 27  1  0  0  0  0
  7  8  1  0  0  0  0
  7 28  1  0  0  0  0
  8  9  2  0  0  0  0
  8 10  2  0  0  0  0
  8 11  1  0  0  0  0
 11 12  1  0  0  0  0
 11 29  1  0  0  0  0
 11 30  1  0  0  0  0
 12 16  2  0  0  0  0
 12 13  1  0  0  0  0
 13 14  2  0  0  0  0
 13 31  1  0  0  0  0
 14 15  1  0  0  0  0
 14 32  1  0  0  0  0
 15 16  1  0  0  0  0
M  END
> <s_m_source_file>
AV-unprocessed.smi

> <i_m_source_file_index>
2926

> <i_lp_mmshare_version>
43012

> <i_f3d_flags>
0

> <s_epik_input>
W0NIM11bQ0hdKFtDSDNdKVtDQEBIXShbQ0gyXVtPSF0pW05IXVMoPU8pKD1PKVtDSDJdYzFbY0hdW2NIXW9uMQ==

> <s_epik_cmdline>
J2VwaWtfcHl0aG9uJywgJy1waCcsICc3LjAnLCAnLXRuJywgJzgnLCAnLW1hJywgJzIwMCcsICctbWV0YWxfYmluZGluZycsICctaW1hZScsICc8aW5maWxlLm1hZT4nLCAnLW9tYWUnLCAnPG91dGZpbGUubWFlPic=

> <r_lp_tautomer_probability>
1

> <r_epik_Ionization_Penalty>
0.000193122

> <r_epik_Ionization_Penalty_Charging>
0

> <r_epik_Ionization_Penalty_Neutral>
0.000193122

> <r_epik_State_Penalty>
-0

> <r_epik_Charging_Adjusted_Penalty>
0

> <i_epik_Tot_Q>
0

> <i_epik_Tot_abs_Q>
0

> <r_epik_Metal_State_Penalty>
0.130256

> <b_epik_Metal_Only>
0

> <s_lp_Force_Field>
OPLS_2005

> <r_lp_Energy>
0.568984

> <b_lp_Chiralities_Consistent>
1

> <s_lp_Variant>
AV-unprocessed.smi:2926-2

> <Gold.Version>
5.8.1

> <Gold.Id.Protein>
6NUR|6NUR_protein|mol2

> <Gold.PLP.Fitness>
38.1821

> <Gold.PLP.PLP>
-27.7599

> <Gold.PLP.part.hbond>
-5.3581

> <Gold.PLP.part.metal>
0.0000

> <Gold.PLP.part.buried>
-1.7929

> <Gold.PLP.part.nonpolar>
-21.5380

> <Gold.PLP.part.repulsive>
0.1107

> <Gold.PLP.ligand.clash>
0.0000

> <Gold.PLP.ligand.torsion>
0.8455

> <Gold.PLP.Chemscore.Hbond>
3.9440

> <Gold.PLP.Chemscore.CHOScore>
0.0000

> <Gold.PLP.Chemscore.Metal>
0.0000

> <Gold.Chemscore.Hbonds>
donor molecule, donor type, donor heavy atom, donor atom, acceptor molecule, acceptor atom, score
      L1  H     6    27       P1 10171  1.00
      L1  H     7    28       P1  7957  0.99
      P1  H  7954  7966       L1     6  0.87
      P1  H  7997  8008       L1    15  1.00

> <Gold.PLP.Chemscore.Internal.Correction>
0.2812

> <Gold.Rescore>
     Score         DG    S(hbond)    S(metal)    S(lipo)     H(rot)  DE(clash)    DE(int)     intcor
     12.55     -15.97       3.36        0.00      58.56       2.96       0.16       3.27       ----

> <Gold.Chemscore.Fitness>
12.5472

> <Gold.Chemscore.DG>
-15.9733

> <Gold.Chemscore.ZeroCoef>
-5.4800

> <Gold.Chemscore.Hbond>
3.3565

> <Gold.Chemscore.Metal>
0.0000

> <Gold.Chemscore.Lipo>
58.5578

> <Gold.Chemscore.Internal_Hbond>
0.0000

> <Gold.Chemscore.DEClash>
0.1572

> <Gold.Chemscore.DEInternal>
3.2689

> <Gold.Chemscore.Rot>
2.9564

> <Gold.Chemscore.Internal.Correction>
   9.000000E+99

> <Gold.Chemscore.Hbonds>
donor molecule, donor type, donor heavy atom, donor atom, acceptor molecule, acceptor atom, score
      L1  H     6    27       P1 10171  0.99
      L1  H     7    28       P1  7957  0.91
      P1  H  7954  7966       L1     6  0.19
      P1  H  7997  8008       L1    15  0.68

> <Gold.Chemscore.Hbond.Weighted>
-11.2106

> <Gold.Chemscore.Metal.Weighted>
-0.0000

> <Gold.Chemscore.Lipo.Weighted>
-6.8513

> <Gold.Chemscore.Internal_Hbond.Weighted>
0.0000

> <Gold.Chemscore.DEClash.Weighted>
0.1572

> <Gold.Chemscore.DEInternal.Weighted>
3.2689

> <Gold.Chemscore.Rot.Weighted>
7.5685

> <Gold.Chemscore.Internal.Correction.Weighted>
   9.000000E+99

> <Gold.Protein.RotatedTorsions>
[ 6907 6896 6895 6894 ] final   86.77 input  -60.11 | X-H torsion
[ 7974 7965 7964 7962 ] final    2.95 input  175.53 | X-H torsion
[ 8008 7997 7996 7995 ] final  -24.94 input   59.86 | X-H torsion
[ 10167 10162 10161 10158 ] final   37.99 input  -65.29 | X-H torsion
[ 10718 10713 10712 10709 ] final -175.48 input   66.30 | X-H torsion
[ 10763 10752 10751 10750 ] final    0.59 input  -60.55 | X-H torsion
[ 11005 11000 10999 10996 ] final  -22.27 input  -57.11 | X-H torsion

> <Gold.Protein.ActiveResidues>
 VAL166  LYS551  ARG553  GLY616  TRP617  ASP618  TYR619  PRO620  LYS621  CYS622 
 ASP623  PHE694  ASN695  SER759  ASP760  ASP761  ALA762  ILE779  LEU786  VAL792 
 PHE793  MET794  SER795  GLU796  ALA797  LYS798  CYS799  TRP800  GLU811  SER814 

> <Gold.Protein.RotatedAtoms>
  152.5400  134.2380  159.8850 H   0  0  0  0  0  0  0  0  0  0  0  0  # atno 6907 bound_to 6896
  151.2349  133.4423  159.2612 H   0  0  0  0  0  0  0  0  0  0  0  0  # atno 6908 bound_to 6896
  151.0681  134.9794  159.8350 H   0  0  0  0  0  0  0  0  0  0  0  0  # atno 6909 bound_to 6896
  146.2444  140.0759  142.8360 H   0  0  0  0  0  0  0  0  0  0  0  0  # atno 7974 bound_to 7965
  154.4502  140.1940  156.0542 H   0  0  0  0  0  0  0  0  0  0  0  0  # atno 8008 bound_to 7997
  156.0631  140.3294  155.7458 H   0  0  0  0  0  0  0  0  0  0  0  0  # atno 8009 bound_to 7997
  155.5380  140.0584  157.2866 H   0  0  0  0  0  0  0  0  0  0  0  0  # atno 8010 bound_to 7997
  140.3980  144.1762  150.6132 H   0  0  0  0  0  0  0  0  0  0  0  0  # atno 10167 bound_to 10162
  156.8004  130.9550  151.3119 H   0  0  0  0  0  0  0  0  0  0  0  0  # atno 10718 bound_to 10713
  153.3188  135.6968  153.7049 H   0  0  0  0  0  0  0  0  0  0  0  0  # atno 10763 bound_to 10752
  153.5898  135.3482  155.2907 H   0  0  0  0  0  0  0  0  0  0  0  0  # atno 10764 bound_to 10752
  154.8593  135.4315  154.2346 H   0  0  0  0  0  0  0  0  0  0  0  0  # atno 10765 bound_to 10752
  140.8641  133.7767  156.0109 H   0  0  0  0  0  0  0  0  0  0  0  0  # atno 11005 bound_to 11000
  145.0775  140.9198  143.4845 LP  0  0  0  0  0  0  0  0  0  0  0  0  # atno 17320 bound_to 7965
  145.0906  139.2893  143.5737 LP  0  0  0  0  0  0  0  0  0  0  0  0  # atno 17321 bound_to 7965
  140.4770  143.2392  151.9009 LP  0  0  0  0  0  0  0  0  0  0  0  0  # atno 17342 bound_to 10162
  139.4786  144.5310  151.8667 LP  0  0  0  0  0  0  0  0  0  0  0  0  # atno 17343 bound_to 10162
  157.6556  130.8922  149.9723 LP  0  0  0  0  0  0  0  0  0  0  0  0  # atno 17370 bound_to 10713
  156.1104  130.3650  150.0058 LP  0  0  0  0  0  0  0  0  0  0  0  0  # atno 17371 bound_to 10713
  140.8649  134.2796  157.5217 LP  0  0  0  0  0  0  0  0  0  0  0  0  # atno 17394 bound_to 11000
  139.8708  134.9537  156.4154 LP  0  0  0  0  0  0  0  0  0  0  0  0  # atno 17395 bound_to 11000

$$$$
