AV-unprocessed.smi:1600|AV-procd|sdf|6427|dock1
  -GOLD-   22720 7 73D 1   1.00000     0.00000
 Structure written by MMmdl.
 46 47  0  0  0  0  0  0  0  0  2 V2000
  151.7730  141.6672  157.8405 C   0  0  0  0  0  0  0  0  0  0  0  0
  151.4223  140.6790  156.7675 C   0  0  0  0  0  0  0  0  0  0  0  0
  150.1356  140.3894  156.2278 C   0  0  0  0  0  0  0  0  0  0  0  0
  150.4087  139.4203  155.3012 C   0  0  0  0  0  0  0  0  0  0  0  0
  149.5530  138.7669  154.4709 N   0  0  0  0  0  0  0  0  0  0  0  0
  148.2203  138.9053  154.3653 C   0  0  0  0  0  0  0  0  0  0  0  0
  147.5175  139.6152  155.0839 O   0  0  0  0  0  0  0  0  0  0  0  0
  147.7371  138.1841  153.3434 N   0  0  0  0  0  0  0  0  0  0  0  0
  146.3392  138.1383  152.9134 C   0  0  0  0  0  0  0  0  0  0  0  0
  145.5635  136.8921  153.4127 C   0  0  2  0  0  0  0  0  0  0  0  0
  146.0869  136.3186  154.7386 C   0  0  0  0  0  0  0  0  0  0  0  0
  146.8057  135.0086  154.3799 C   0  0  0  0  0  0  0  0  0  0  0  0
  146.7699  134.8860  152.9049 N   0  3  1  0  0  0  0  0  0  0  0  0
  146.8361  133.4963  152.3740 C   0  0  0  0  0  0  0  0  0  0  0  0
  145.5439  132.7212  152.6918 C   0  0  0  0  0  0  0  0  0  0  0  0
  148.0471  132.7320  152.9412 C   0  0  0  0  0  0  0  0  0  0  0  0
  145.6181  135.6952  152.4571 C   0  0  0  0  0  0  0  0  0  0  0  0
  151.7637  139.1734  155.3015 N   0  0  0  0  0  0  0  0  0  0  0  0
  152.5335  138.2396  154.5028 C   0  0  0  0  0  0  0  0  0  0  0  0
  152.3859  139.9531  156.2117 N   0  0  0  0  0  0  0  0  0  0  0  0
  150.8891  142.2024  158.1876 H   0  0  0  0  0  0  0  0  0  0  0  0
  152.4862  142.4070  157.4762 H   0  0  0  0  0  0  0  0  0  0  0  0
  152.2180  141.1693  158.7024 H   0  0  0  0  0  0  0  0  0  0  0  0
  149.1867  140.8301  156.4939 H   0  0  0  0  0  0  0  0  0  0  0  0
  149.9882  138.1227  153.8269 H   0  0  0  0  0  0  0  0  0  0  0  0
  148.3881  137.6228  152.8132 H   0  0  0  0  0  0  0  0  0  0  0  0
  145.8574  139.0345  153.3054 H   0  0  0  0  0  0  0  0  0  0  0  0
  146.2712  138.2177  151.8271 H   0  0  0  0  0  0  0  0  0  0  0  0
  144.5219  137.1936  153.5319 H   0  0  0  0  0  0  0  0  0  0  0  0
  146.7469  137.0137  155.2591 H   0  0  0  0  0  0  0  0  0  0  0  0
  145.2556  136.1085  155.4129 H   0  0  0  0  0  0  0  0  0  0  0  0
  147.8357  135.0024  154.7382 H   0  0  0  0  0  0  0  0  0  0  0  0
  146.2846  134.1686  154.8423 H   0  0  0  0  0  0  0  0  0  0  0  0
  146.9462  133.5497  151.2898 H   0  0  0  0  0  0  0  0  0  0  0  0
  145.6046  131.6946  152.3291 H   0  0  0  0  0  0  0  0  0  0  0  0
  144.6705  133.1713  152.2200 H   0  0  0  0  0  0  0  0  0  0  0  0
  145.3607  132.6809  153.7664 H   0  0  0  0  0  0  0  0  0  0  0  0
  148.0525  131.6972  152.5970 H   0  0  0  0  0  0  0  0  0  0  0  0
  148.0319  132.7175  154.0319 H   0  0  0  0  0  0  0  0  0  0  0  0
  148.9923  133.1720  152.6239 H   0  0  0  0  0  0  0  0  0  0  0  0
  144.7068  135.1035  152.5600 H   0  0  0  0  0  0  0  0  0  0  0  0
  145.6979  135.9990  151.4133 H   0  0  0  0  0  0  0  0  0  0  0  0
  152.1943  138.2696  153.4671 H   0  0  0  0  0  0  0  0  0  0  0  0
  152.4011  137.2304  154.8934 H   0  0  0  0  0  0  0  0  0  0  0  0
  153.5936  138.4959  154.5314 H   0  0  0  0  0  0  0  0  0  0  0  0
  147.5877  135.3704  152.5630 H   0  0  0  0  0  0  0  0  0  0  0  0
  1  2  1  0  0  0  0
  1 21  1  0  0  0  0
  1 22  1  0  0  0  0
  1 23  1  0  0  0  0
  2 20  2  0  0  0  0
  2  3  1  0  0  0  0
  3  4  2  0  0  0  0
  3 24  1  0  0  0  0
  4  5  1  0  0  0  0
  4 18  1  0  0  0  0
  5  6  1  0  0  0  0
  5 25  1  0  0  0  0
  6  7  2  0  0  0  0
  6  8  1  0  0  0  0
  8  9  1  0  0  0  0
  8 26  1  0  0  0  0
  9 10  1  0  0  0  0
  9 27  1  0  0  0  0
  9 28  1  0  0  0  0
 10 17  1  0  0  0  0
 10 11  1  0  0  0  0
 10 29  1  0  0  0  0
 11 12  1  0  0  0  0
 11 30  1  0  0  0  0
 11 31  1  0  0  0  0
 12 13  1  0  0  0  0
 12 32  1  0  0  0  0
 12 33  1  0  0  0  0
 13 14  1  0  0  0  0
 13 17  1  0  0  0  0
 13 46  1  0  0  0  0
 14 15  1  0  0  0  0
 14 16  1  0  0  0  0
 14 34  1  0  0  0  0
 15 35  1  0  0  0  0
 15 36  1  0  0  0  0
 15 37  1  0  0  0  0
 16 38  1  0  0  0  0
 16 39  1  0  0  0  0
 16 40  1  0  0  0  0
 17 41  1  0  0  0  0
 17 42  1  0  0  0  0
 18 19  1  0  0  0  0
 18 20  1  0  0  0  0
 19 43  1  0  0  0  0
 19 44  1  0  0  0  0
 19 45  1  0  0  0  0
M  CHG  1  13   1
M  END
> <s_m_source_file>
AV-unprocessed.smi

> <i_m_source_file_index>
1600

> <i_lp_mmshare_version>
43012

> <i_f3d_flags>
0

> <s_epik_input>
W0NIM11jMVtjSF1jKG4objEpW0NIM10pW05IXUMoPU8pW05IXVtDSDJdW0NAQEhdMltDSDJdW0NIMl1OKFtDSDJdMilbQ0hdKFtDSDNdKVtDSDNd

> <s_epik_cmdline>
J2VwaWtfcHl0aG9uJywgJy1waCcsICc3LjAnLCAnLXRuJywgJzgnLCAnLW1hJywgJzIwMCcsICctbWV0YWxfYmluZGluZycsICctaW1hZScsICc8aW5maWxlLm1hZT4nLCAnLW9tYWUnLCAnPG91dGZpbGUubWFlPic=

> <r_lp_tautomer_probability>
1

> <r_epik_Ionization_Penalty>
0.000297652

> <r_epik_Ionization_Penalty_Charging>
0.000213653

> <r_epik_Ionization_Penalty_Neutral>
8.3999e-05

> <r_epik_State_Penalty>
-0

> <r_epik_Charging_Adjusted_Penalty>
0.000213653

> <i_epik_Tot_Q>
1

> <i_epik_Tot_abs_Q>
1

> <r_epik_Metal_State_Penalty>
-0

> <b_epik_Metal_Only>
0

> <s_lp_Force_Field>
OPLS_2005

> <r_lp_Energy>
33.9079

> <b_lp_Chiralities_Consistent>
1

> <s_lp_Variant>
AV-unprocessed.smi:1600-1

> <Gold.Version>
5.8.1

> <Gold.Id.Protein>
6NUR|6NUR_protein|mol2

> <Gold.PLP.Fitness>
46.4710

> <Gold.PLP.PLP>
-35.6620

> <Gold.PLP.part.hbond>
-4.9837

> <Gold.PLP.part.metal>
0.0000

> <Gold.PLP.part.buried>
-1.8350

> <Gold.PLP.part.nonpolar>
-29.2315

> <Gold.PLP.part.repulsive>
0.2881

> <Gold.PLP.ligand.clash>
0.0000

> <Gold.PLP.ligand.torsion>
0.5756

> <Gold.PLP.Chemscore.Hbond>
3.9750

> <Gold.PLP.Chemscore.CHOScore>
0.0000

> <Gold.PLP.Chemscore.Metal>
0.0000

> <Gold.Chemscore.Hbonds>
donor molecule, donor type, donor heavy atom, donor atom, acceptor molecule, acceptor atom, score
      L1  H     8    26       P1  7948  1.00
      L1  H    13    46       P1  7948  2.00
      P1  H  7997  8008       L1    20  1.00

> <Gold.PLP.Chemscore.Internal.Correction>
0.0351

> <Gold.Rescore>
     Score         DG    S(hbond)    S(metal)    S(lipo)     H(rot)  DE(clash)    DE(int)     intcor
     17.56     -19.09       2.94        0.00      63.86       1.44       0.01       1.52       ----

> <Gold.Chemscore.Fitness>
17.5612

> <Gold.Chemscore.DG>
-19.0890

> <Gold.Chemscore.ZeroCoef>
-5.4800

> <Gold.Chemscore.Hbond>
2.9390

> <Gold.Chemscore.Metal>
0.0000

> <Gold.Chemscore.Lipo>
63.8564

> <Gold.Chemscore.Internal_Hbond>
0.0000

> <Gold.Chemscore.DEClash>
0.0077

> <Gold.Chemscore.DEInternal>
1.5201

> <Gold.Chemscore.Rot>
1.4369

> <Gold.Chemscore.Internal.Correction>
   9.000000E+99

> <Gold.Chemscore.Hbonds>
donor molecule, donor type, donor heavy atom, donor atom, acceptor molecule, acceptor atom, score
      L1  H     8    26       P1  7948  0.99
      L1  H    13    46       P1  7948  1.00
      P1  H  7997  8008       L1    20  0.98

> <Gold.Chemscore.Hbond.Weighted>
-9.8163

> <Gold.Chemscore.Metal.Weighted>
-0.0000

> <Gold.Chemscore.Lipo.Weighted>
-7.4712

> <Gold.Chemscore.Internal_Hbond.Weighted>
0.0000

> <Gold.Chemscore.DEClash.Weighted>
0.0077

> <Gold.Chemscore.DEInternal.Weighted>
1.5201

> <Gold.Chemscore.Rot.Weighted>
3.6785

> <Gold.Chemscore.Internal.Correction.Weighted>
   9.000000E+99

> <Gold.Protein.RotatedTorsions>
[ 6907 6896 6895 6894 ] final  -53.66 input  -60.11 | X-H torsion
[ 7974 7965 7964 7962 ] final  155.88 input  175.53 | X-H torsion
[ 8008 7997 7996 7995 ] final  -41.83 input   59.86 | X-H torsion
[ 10167 10162 10161 10158 ] final   17.86 input  -65.29 | X-H torsion
[ 10718 10713 10712 10709 ] final   91.06 input   66.30 | X-H torsion
[ 10763 10752 10751 10750 ] final  -17.59 input  -60.55 | X-H torsion
[ 11005 11000 10999 10996 ] final  167.85 input  -57.11 | X-H torsion

> <Gold.Protein.ActiveResidues>
 VAL166  LYS551  ARG553  GLY616  TRP617  ASP618  TYR619  PRO620  LYS621  CYS622 
 ASP623  PHE694  ASN695  SER759  ASP760  ASP761  ALA762  ILE779  LEU786  VAL792 
 PHE793  MET794  SER795  GLU796  ALA797  LYS798  CYS799  TRP800  GLU811  SER814 

> <Gold.Protein.RotatedAtoms>
  150.8407  134.7698  159.6929 H   0  0  0  0  0  0  0  0  0  0  0  0  # atno 6907 bound_to 6896
  152.4495  134.5421  159.9852 H   0  0  0  0  0  0  0  0  0  0  0  0  # atno 6908 bound_to 6896
  151.5561  133.3372  159.2998 H   0  0  0  0  0  0  0  0  0  0  0  0  # atno 6909 bound_to 6896
  144.7997  139.7128  143.6187 H   0  0  0  0  0  0  0  0  0  0  0  0  # atno 7974 bound_to 7965
  154.4002  140.1489  156.3255 H   0  0  0  0  0  0  0  0  0  0  0  0  # atno 8008 bound_to 7997
  155.8491  140.3458  155.5660 H   0  0  0  0  0  0  0  0  0  0  0  0  # atno 8009 bound_to 7997
  155.8004  140.0869  157.1951 H   0  0  0  0  0  0  0  0  0  0  0  0  # atno 8010 bound_to 7997
  140.5695  143.9187  150.6702 H   0  0  0  0  0  0  0  0  0  0  0  0  # atno 10167 bound_to 10162
  157.6960  131.0394  150.3673 H   0  0  0  0  0  0  0  0  0  0  0  0  # atno 10718 bound_to 10713
  153.5762  135.7006  153.5483 H   0  0  0  0  0  0  0  0  0  0  0  0  # atno 10763 bound_to 10752
  153.3301  135.4050  155.1488 H   0  0  0  0  0  0  0  0  0  0  0  0  # atno 10764 bound_to 10752
  154.8625  135.3716  154.5287 H   0  0  0  0  0  0  0  0  0  0  0  0  # atno 10765 bound_to 10752
  140.2810  134.7750  157.3758 H   0  0  0  0  0  0  0  0  0  0  0  0  # atno 11005 bound_to 11000
  146.2275  139.5750  142.9577 LP  0  0  0  0  0  0  0  0  0  0  0  0  # atno 17320 bound_to 7965
  145.5584  141.0407  143.2240 LP  0  0  0  0  0  0  0  0  0  0  0  0  # atno 17321 bound_to 7965
  140.2659  143.3490  152.1281 LP  0  0  0  0  0  0  0  0  0  0  0  0  # atno 17342 bound_to 10162
  139.5110  144.6894  151.5801 LP  0  0  0  0  0  0  0  0  0  0  0  0  # atno 17343 bound_to 10162
  156.4102  130.3932  149.6897 LP  0  0  0  0  0  0  0  0  0  0  0  0  # atno 17370 bound_to 10713
  156.4184  130.7756  151.2772 LP  0  0  0  0  0  0  0  0  0  0  0  0  # atno 17371 bound_to 10713
  140.1283  134.5129  155.8126 LP  0  0  0  0  0  0  0  0  0  0  0  0  # atno 17394 bound_to 11000
  141.2162  133.6780  156.6992 LP  0  0  0  0  0  0  0  0  0  0  0  0  # atno 17395 bound_to 11000

$$$$
