AV-unprocessed.smi:349|AV-procd|sdf|2397|dock10
  -GOLD-   2262022333D 1   1.00000     0.00000
 Structure written by MMmdl.
 43 44  0  0  0  0  0  0  0  0  1 V2000
  153.7502  135.7582  163.9512 C   0  0  0  0  0  0  0  0  0  0  0  0
  153.7609  136.0977  162.4523 C   0  0  0  0  0  0  0  0  0  0  0  0
  153.6013  137.6024  162.1416 C   0  0  1  0  0  0  0  0  0  0  0  0
  154.9383  138.3441  162.3106 C   0  0  0  0  0  0  0  0  0  0  0  0
  153.0447  137.8429  160.7304 C   0  0  0  0  0  0  0  0  0  0  0  0
  152.8213  136.8906  159.9825 O   0  0  0  0  0  0  0  0  0  0  0  0
  152.8355  139.1219  160.3799 N   0  0  0  0  0  0  0  0  0  0  0  0
  152.3403  139.5828  159.0855 C   0  0  0  0  0  0  0  0  0  0  0  0
  152.2308  141.1052  158.9851 C   0  0  0  0  0  0  0  0  0  0  0  0
  152.6708  141.9088  160.0619 C   0  0  0  0  0  0  0  0  0  0  0  0
  152.5976  143.3089  159.9588 C   0  0  0  0  0  0  0  0  0  0  0  0
  152.0898  143.8621  158.7710 C   0  0  0  0  0  0  0  0  0  0  0  0
  151.6730  143.1138  157.7298 N   0  0  0  0  0  0  0  0  0  0  0  0
  151.7406  141.7626  157.8224 C   0  0  0  0  0  0  0  0  0  0  0  0
  151.2775  141.0244  156.7182 N   0  0  0  0  0  0  0  0  0  0  0  0
  152.2245  140.1000  156.1033 C   0  0  0  0  0  0  0  0  0  0  0  0
  151.5047  139.2392  155.0514 C   0  0  0  0  0  0  0  0  0  0  0  0
  150.8768  140.0862  154.0927 O   0  0  0  0  0  0  0  0  0  0  0  0
  149.9033  140.9406  154.6870 C   0  0  0  0  0  0  0  0  0  0  0  0
  150.5748  141.8422  155.7375 C   0  0  0  0  0  0  0  0  0  0  0  0
  153.9293  134.6942  164.1062 H   0  0  0  0  0  0  0  0  0  0  0  0
  152.7925  135.9987  164.4132 H   0  0  0  0  0  0  0  0  0  0  0  0
  154.5279  136.3060  164.4839 H   0  0  0  0  0  0  0  0  0  0  0  0
  154.7041  135.7483  162.0306 H   0  0  0  0  0  0  0  0  0  0  0  0
  152.9812  135.5256  161.9471 H   0  0  0  0  0  0  0  0  0  0  0  0
  152.9004  138.0232  162.8648 H   0  0  0  0  0  0  0  0  0  0  0  0
  154.8339  139.4070  162.0889 H   0  0  0  0  0  0  0  0  0  0  0  0
  155.7076  137.9404  161.6511 H   0  0  0  0  0  0  0  0  0  0  0  0
  155.3047  138.2598  163.3340 H   0  0  0  0  0  0  0  0  0  0  0  0
  153.0468  139.8355  161.0622 H   0  0  0  0  0  0  0  0  0  0  0  0
  152.9805  139.2336  158.2741 H   0  0  0  0  0  0  0  0  0  0  0  0
  151.3804  139.0954  158.9270 H   0  0  0  0  0  0  0  0  0  0  0  0
  153.0699  141.4634  160.9605 H   0  0  0  0  0  0  0  0  0  0  0  0
  152.9276  143.9424  160.7686 H   0  0  0  0  0  0  0  0  0  0  0  0
  152.0179  144.9330  158.6522 H   0  0  0  0  0  0  0  0  0  0  0  0
  153.0334  140.6573  155.6286 H   0  0  0  0  0  0  0  0  0  0  0  0
  152.6711  139.4641  156.8687 H   0  0  0  0  0  0  0  0  0  0  0  0
  152.2188  138.5924  154.5414 H   0  0  0  0  0  0  0  0  0  0  0  0
  150.7636  138.5898  155.5203 H   0  0  0  0  0  0  0  0  0  0  0  0
  149.4426  141.5487  153.9085 H   0  0  0  0  0  0  0  0  0  0  0  0
  149.1087  140.3440  155.1382 H   0  0  0  0  0  0  0  0  0  0  0  0
  149.8272  142.4683  156.2255 H   0  0  0  0  0  0  0  0  0  0  0  0
  151.2864  142.5130  155.2540 H   0  0  0  0  0  0  0  0  0  0  0  0
  1  2  1  0  0  0  0
  1 21  1  0  0  0  0
  1 22  1  0  0  0  0
  1 23  1  0  0  0  0
  2  3  1  0  0  0  0
  2 24  1  0  0  0  0
  2 25  1  0  0  0  0
  3  4  1  0  0  0  0
  3  5  1  0  0  0  0
  3 26  1  0  0  0  0
  4 27  1  0  0  0  0
  4 28  1  0  0  0  0
  4 29  1  0  0  0  0
  5  6  2  0  0  0  0
  5  7  1  0  0  0  0
  7  8  1  0  0  0  0
  7 30  1  0  0  0  0
  8  9  1  0  0  0  0
  8 31  1  0  0  0  0
  8 32  1  0  0  0  0
  9 14  1  0  0  0  0
  9 10  2  0  0  0  0
 10 11  1  0  0  0  0
 10 33  1  0  0  0  0
 11 12  2  0  0  0  0
 11 34  1  0  0  0  0
 12 13  1  0  0  0  0
 12 35  1  0  0  0  0
 13 14  2  0  0  0  0
 14 15  1  0  0  0  0
 15 20  1  0  0  0  0
 15 16  1  0  0  0  0
 16 17  1  0  0  0  0
 16 36  1  0  0  0  0
 16 37  1  0  0  0  0
 17 18  1  0  0  0  0
 17 38  1  0  0  0  0
 17 39  1  0  0  0  0
 18 19  1  0  0  0  0
 19 20  1  0  0  0  0
 19 40  1  0  0  0  0
 19 41  1  0  0  0  0
 20 42  1  0  0  0  0
 20 43  1  0  0  0  0
M  END
> <s_m_source_file>
AV-unprocessed.smi

> <i_m_source_file_index>
349

> <i_lp_mmshare_version>
43012

> <i_f3d_flags>
0

> <s_epik_input>
W0NIM11bQ0gyXVtDQEhdKFtDSDNdKUMoPU8pW05IXVtDSDJdYzFbY0hdW2NIXVtjSF1uYzFOMltDSDJdW0NIMl1PW0NIMl1bQ0gyXTI=

> <s_epik_cmdline>
J2VwaWtfcHl0aG9uJywgJy1waCcsICc3LjAnLCAnLXRuJywgJzgnLCAnLW1hJywgJzIwMCcsICctbWV0YWxfYmluZGluZycsICctaW1hZScsICc8aW5maWxlLm1hZT4nLCAnLW9tYWUnLCAnPG91dGZpbGUubWFlPic=

> <r_lp_tautomer_probability>
1

> <r_epik_Ionization_Penalty>
0.00513869

> <r_epik_Ionization_Penalty_Charging>
0

> <r_epik_Ionization_Penalty_Neutral>
0.00513869

> <r_epik_State_Penalty>
0.00374265

> <r_epik_Charging_Adjusted_Penalty>
0.00374265

> <i_epik_Tot_Q>
0

> <i_epik_Tot_abs_Q>
0

> <r_epik_Metal_State_Penalty>
-0

> <b_epik_Metal_Only>
0

> <s_lp_Force_Field>
OPLS_2005

> <r_lp_Energy>
19.4622

> <b_lp_Chiralities_Consistent>
1

> <s_lp_Variant>
AV-unprocessed.smi:349-2

> <Gold.Version>
5.8.1

> <Gold.Id.Protein>
6NUR|6NUR_protein|mol2

> <Gold.PLP.Fitness>
45.4603

> <Gold.PLP.PLP>
-39.9945

> <Gold.PLP.part.hbond>
-1.9769

> <Gold.PLP.part.metal>
0.0000

> <Gold.PLP.part.buried>
-2.3237

> <Gold.PLP.part.nonpolar>
-35.5341

> <Gold.PLP.part.repulsive>
0.2884

> <Gold.PLP.ligand.clash>
0.0000

> <Gold.PLP.ligand.torsion>
0.3567

> <Gold.PLP.Chemscore.Hbond>
1.9913

> <Gold.PLP.Chemscore.CHOScore>
0.0000

> <Gold.PLP.Chemscore.Metal>
0.0000

> <Gold.Chemscore.Hbonds>
donor molecule, donor type, donor heavy atom, donor atom, acceptor molecule, acceptor atom, score
      P1  H  6896  6909       L1     6  1.00
      P1  H  7989  7998       L1    18  0.26

> <Gold.PLP.Chemscore.Internal.Correction>
0.2053

> <Gold.Rescore>
     Score         DG    S(hbond)    S(metal)    S(lipo)     H(rot)  DE(clash)    DE(int)     intcor
     17.81     -19.42       1.89        0.00     101.23       1.64       0.31       1.30       ----

> <Gold.Chemscore.Fitness>
17.8133

> <Gold.Chemscore.DG>
-19.4203

> <Gold.Chemscore.ZeroCoef>
-5.4800

> <Gold.Chemscore.Hbond>
1.8850

> <Gold.Chemscore.Metal>
0.0000

> <Gold.Chemscore.Lipo>
101.2338

> <Gold.Chemscore.Internal_Hbond>
0.0000

> <Gold.Chemscore.DEClash>
0.3104

> <Gold.Chemscore.DEInternal>
1.2966

> <Gold.Chemscore.Rot>
1.6407

> <Gold.Chemscore.Internal.Correction>
   9.000000E+99

> <Gold.Chemscore.Hbonds>
donor molecule, donor type, donor heavy atom, donor atom, acceptor molecule, acceptor atom, score
      P1  H  6896  6909       L1     6  0.96
      P1  H  7989  7998       L1    18  0.11

> <Gold.Chemscore.Hbond.Weighted>
-6.2961

> <Gold.Chemscore.Metal.Weighted>
-0.0000

> <Gold.Chemscore.Lipo.Weighted>
-11.8444

> <Gold.Chemscore.Internal_Hbond.Weighted>
0.0000

> <Gold.Chemscore.DEClash.Weighted>
0.3104

> <Gold.Chemscore.DEInternal.Weighted>
1.2966

> <Gold.Chemscore.Rot.Weighted>
4.2001

> <Gold.Chemscore.Internal.Correction.Weighted>
   9.000000E+99

> <Gold.Protein.RotatedTorsions>
[ 6907 6896 6895 6894 ] final  148.83 input  -60.11 | X-H torsion
[ 7974 7965 7964 7962 ] final  -12.67 input  175.53 | X-H torsion
[ 8008 7997 7996 7995 ] final   -6.77 input   59.86 | X-H torsion
[ 10167 10162 10161 10158 ] final -107.79 input  -65.29 | X-H torsion
[ 10718 10713 10712 10709 ] final  -73.89 input   66.30 | X-H torsion
[ 10763 10752 10751 10750 ] final -112.88 input  -60.55 | X-H torsion
[ 11005 11000 10999 10996 ] final  124.06 input  -57.11 | X-H torsion

> <Gold.Protein.ActiveResidues>
 VAL166  LYS551  ARG553  GLY616  TRP617  ASP618  TYR619  PRO620  LYS621  CYS622 
 ASP623  PHE694  ASN695  SER759  ASP760  ASP761  ALA762  ILE779  LEU786  VAL792 
 PHE793  MET794  SER795  GLU796  ALA797  LYS798  CYS799  TRP800  GLU811  SER814 

> <Gold.Protein.RotatedAtoms>
  152.1361  133.4436  159.4744 H   0  0  0  0  0  0  0  0  0  0  0  0  # atno 6907 bound_to 6896
  150.6882  134.2361  159.4463 H   0  0  0  0  0  0  0  0  0  0  0  0  # atno 6908 bound_to 6896
  152.0249  134.9801  160.0622 H   0  0  0  0  0  0  0  0  0  0  0  0  # atno 6909 bound_to 6896
  146.2143  140.3091  142.8381 H   0  0  0  0  0  0  0  0  0  0  0  0  # atno 7974 bound_to 7965
  154.5904  140.2424  155.7928 H   0  0  0  0  0  0  0  0  0  0  0  0  # atno 8008 bound_to 7997
  156.2243  140.2987  155.9983 H   0  0  0  0  0  0  0  0  0  0  0  0  # atno 8009 bound_to 7997
  155.2383  140.0406  157.2962 H   0  0  0  0  0  0  0  0  0  0  0  0  # atno 8010 bound_to 7997
  140.1732  143.4026  152.1338 H   0  0  0  0  0  0  0  0  0  0  0  0  # atno 10167 bound_to 10162
  156.0263  130.4404  150.2810 H   0  0  0  0  0  0  0  0  0  0  0  0  # atno 10718 bound_to 10713
  154.8370  135.4474  154.1263 H   0  0  0  0  0  0  0  0  0  0  0  0  # atno 10763 bound_to 10752
  153.2485  135.6924  153.7711 H   0  0  0  0  0  0  0  0  0  0  0  0  # atno 10764 bound_to 10752
  153.7032  135.3368  155.3205 H   0  0  0  0  0  0  0  0  0  0  0  0  # atno 10765 bound_to 10752
  139.9341  134.9640  156.8352 H   0  0  0  0  0  0  0  0  0  0  0  0  # atno 11005 bound_to 11000
  144.9001  140.7632  143.5872 LP  0  0  0  0  0  0  0  0  0  0  0  0  # atno 17320 bound_to 7965
  145.3017  139.1848  143.4686 LP  0  0  0  0  0  0  0  0  0  0  0  0  # atno 17321 bound_to 7965
  139.5329  144.7178  151.4994 LP  0  0  0  0  0  0  0  0  0  0  0  0  # atno 17342 bound_to 10162
  140.6568  143.8581  150.6844 LP  0  0  0  0  0  0  0  0  0  0  0  0  # atno 17343 bound_to 10162
  157.0913  131.0170  151.3120 LP  0  0  0  0  0  0  0  0  0  0  0  0  # atno 17370 bound_to 10713
  157.4852  130.7789  149.7453 LP  0  0  0  0  0  0  0  0  0  0  0  0  # atno 17371 bound_to 10713
  140.6123  134.0071  155.7582 LP  0  0  0  0  0  0  0  0  0  0  0  0  # atno 17394 bound_to 11000
  141.0945  133.9864  157.3182 LP  0  0  0  0  0  0  0  0  0  0  0  0  # atno 17395 bound_to 11000

$$$$
