#       Name:                AV-unprocessed.smi:2265
#       Creating user name   scv26
#       Creation time:       Fri Mar 27 12:35:21 2020


#       File generated by GOLD software.
#

@<TRIPOS>MOLECULE
AV-unprocessed.smi:2265
    41    42     1
SMALL
NO_CHARGES


@<TRIPOS>ATOM
      1 ****         5.0487   1.3565   6.6327 C.3            1 S1                 0.0000
      2 ****         3.8048   1.3095   5.7392 C.3            1 S1                 0.0000
      3 ****         4.1358   0.9413   4.2863 C.3            1 S1                 0.0000
      4 ****         2.9020   0.9008   3.4070 C.3            1 S1                 0.0000
      5 ****         2.3776   2.1649   2.7815 C.3            1 S1                 0.0000
      6 ****         3.0009   1.0949   1.9085 C.3            1 S1                 0.0000
      7 ****         2.1040   0.3622   1.0662 N.am           1 S1                 0.0000
      8 ****         2.4033  -0.3819  -0.0138 C.2            1 S1                 0.0000
      9 ****         3.5653  -0.4747  -0.4090 O.2            1 S1                 0.0000
     10 ****         1.3299  -0.9545  -0.6029 N.am           1 S1                 0.0000
     11 ****         1.2937  -1.7601  -1.7480 C.2            1 S1                 0.0000
     12 ****         2.3636  -2.1478  -2.3842 N.2            1 S1                 0.0000
     13 ****         2.2904  -2.9530  -3.5210 C.2            1 S1                 0.0000
     14 ****         1.1020  -3.3574  -4.0043 C.2            1 S1                 0.0000
     15 ****        -0.0926  -2.9794  -3.3755 N.am           1 S1                 0.0000
     16 ****        -1.3570  -3.4483  -3.9431 C.3            1 S1                 0.0000
     17 ****        -0.0808  -2.2025  -2.2582 C.2            1 S1                 0.0000
     18 ****        -1.1033  -1.8544  -1.6642 O.2            1 S1                 0.0000
     19 ****         4.7803   1.6114   7.6582 H              1 S1                 0.0000
     20 ****         5.7593   2.1042   6.2788 H              1 S1                 0.0000
     21 ****         5.5572   0.3920   6.6520 H              1 S1                 0.0000
     22 ****         3.0966   0.5874   6.1471 H              1 S1                 0.0000
     23 ****         3.3067   2.2795   5.7666 H              1 S1                 0.0000
     24 ****         4.8478   1.6574   3.8736 H              1 S1                 0.0000
     25 ****         4.6171  -0.0364   4.2492 H              1 S1                 0.0000
     26 ****         2.1508   0.1890   3.7458 H              1 S1                 0.0000
     27 ****         1.2972   2.2916   2.7452 H              1 S1                 0.0000
     28 ****         2.9467   3.0802   2.9332 H              1 S1                 0.0000
     29 ****         3.9806   1.3485   1.5062 H              1 S1                 0.0000
     30 ****         1.1221   0.4708   1.2760 H              1 S1                 0.0000
     31 ****         0.4412  -0.7583  -0.1656 H              1 S1                 0.0000
     32 ****         3.2271  -3.2285  -3.9826 H              1 S1                 0.0000
     33 ****         0.9949  -3.9821  -4.8793 H              1 S1                 0.0000
     34 ****        -2.0389  -2.6137  -4.1133 H              1 S1                 0.0000
     35 ****        -1.8407  -4.1501  -3.2624 H              1 S1                 0.0000
     36 ****        -1.2216  -3.9543  -4.8997 H              1 S1                 0.0000
     37 ****         4.2975   0.0056   0.0738 LP             1 S1                 0.0000
     38 ****         3.7771  -1.0305  -1.2129 LP             1 S1                 0.0000
     39 ****         3.2606  -1.8604  -2.0483 LP             1 S1                 0.0000
     40 ****        -1.0365  -1.2818  -0.8471 LP             1 S1                 0.0000
     41 ****        -1.9996  -2.1447  -1.9994 LP             1 S1                 0.0000
@<TRIPOS>BOND
    1    1    2 1     
    2    1   19 1     
    3    1   20 1     
    4    1   21 1     
    5    2    3 1     
    6    2   22 1     
    7    2   23 1     
    8    3    4 1     
    9    3   24 1     
   10    3   25 1     
   11    4    6 1     
   12    4    5 1     
   13    4   26 1     
   14    5    6 1     
   15    5   27 1     
   16    5   28 1     
   17    6    7 1     
   18    6   29 1     
   19    7    8 am    
   20    7   30 1     
   21    8    9 2     
   22    8   10 am    
   23   10   11 1     
   24   10   31 1     
   25   11   17 1     
   26   11   12 2     
   27   12   13 1     
   28   13   14 2     
   29   13   32 1     
   30   14   15 1     
   31   14   33 1     
   32   15   16 1     
   33   15   17 am    
   34   16   34 1     
   35   16   35 1     
   36   16   36 1     
   37   17   18 2     
   38    9   37 1     
   39    9   38 1     
   40   12   39 1     
   41   18   40 1     
   42   18   41 1     
@<TRIPOS>SUBSTRUCTURE
      1 S1             1
@<TRIPOS>SET
LONE_PAIRS      STATIC     ATOMS    <user>   **** ""
5 37 38 39 40 41
DONOR_HYDROGENS      STATIC     ATOMS    <user>   **** ""
2 30 31
ATOM$BLUE        STATIC     ATOMS    COLORGROUP SYSTEM
5 37 38 39 40 41
ATOM$RED        STATIC     ATOMS    COLORGROUP SYSTEM
2 30 31
