AV-unprocessed.smi:3243|AV-procd|sdf|12396|dock2
  -GOLD-   2272018263D 1   1.00000     0.00000
 Structure written by MMmdl.
 37 38  0  0  0  0  0  0  0  0  1 V2000
  143.8933  143.0899  156.0669 C   0  0  0  0  0  0  0  0  0  0  0  0
  144.9926  143.8515  155.3124 C   0  0  0  0  0  0  0  0  0  0  0  0
  144.4561  144.6672  154.1272 C   0  0  0  0  0  0  0  0  0  0  0  0
  146.1247  142.9575  154.9138 C   0  0  0  0  0  0  0  0  0  0  0  0
  146.9135  142.3247  155.7877 N   0  0  0  0  0  0  0  0  0  0  0  0
  147.9001  141.5531  155.1666 C   0  0  0  0  0  0  0  0  0  0  0  0
  148.8808  140.7840  155.9984 C   0  0  0  0  0  0  0  0  0  0  0  0
  150.3297  141.2346  155.7485 C   0  0  0  0  0  0  0  0  0  0  0  0
  150.6117  142.5175  156.3818 N   0  0  0  0  0  0  0  0  0  0  0  0
  151.2569  142.6775  157.5473 C   0  0  0  0  0  0  0  0  0  0  0  0
  151.6596  141.7371  158.2318 O   0  0  0  0  0  0  0  0  0  0  0  0
  151.3896  144.0972  157.9846 C   0  0  2  0  0  0  0  0  0  0  0  0
  152.7806  144.6894  158.0878 C   0  0  0  0  0  0  0  0  0  0  0  0
  152.0025  144.3963  159.3470 C   0  0  2  0  0  0  0  0  0  0  0  0
  152.4994  143.3343  160.3122 C   0  0  0  0  0  0  0  0  0  0  0  0
  147.8459  141.6073  153.7960 C   0  0  0  0  0  0  0  0  0  0  0  0
  146.5529  142.6325  153.2375 S   0  0  0  0  0  0  0  0  0  0  0  0
  144.2968  142.5896  156.9476 H   0  0  0  0  0  0  0  0  0  0  0  0
  143.4312  142.3309  155.4346 H   0  0  0  0  0  0  0  0  0  0  0  0
  143.1066  143.7662  156.4024 H   0  0  0  0  0  0  0  0  0  0  0  0
  145.4057  144.5724  156.0190 H   0  0  0  0  0  0  0  0  0  0  0  0
  145.2481  145.2611  153.6699 H   0  0  0  0  0  0  0  0  0  0  0  0
  143.6709  145.3534  154.4458 H   0  0  0  0  0  0  0  0  0  0  0  0
  144.0379  144.0191  153.3562 H   0  0  0  0  0  0  0  0  0  0  0  0
  148.6358  140.8992  157.0551 H   0  0  0  0  0  0  0  0  0  0  0  0
  148.7910  139.7177  155.7866 H   0  0  0  0  0  0  0  0  0  0  0  0
  151.0218  140.4982  156.1577 H   0  0  0  0  0  0  0  0  0  0  0  0
  150.5351  141.2924  154.6781 H   0  0  0  0  0  0  0  0  0  0  0  0
  150.2959  143.3453  155.8974 H   0  0  0  0  0  0  0  0  0  0  0  0
  150.5749  144.7533  157.6849 H   0  0  0  0  0  0  0  0  0  0  0  0
  153.6315  144.0490  157.8611 H   0  0  0  0  0  0  0  0  0  0  0  0
  152.8981  145.7296  157.7911 H   0  0  0  0  0  0  0  0  0  0  0  0
  151.5665  145.2530  159.8576 H   0  0  0  0  0  0  0  0  0  0  0  0
  153.0355  142.5415  159.7894 H   0  0  0  0  0  0  0  0  0  0  0  0
  151.6589  142.8933  160.8485 H   0  0  0  0  0  0  0  0  0  0  0  0
  153.1769  143.7816  161.0396 H   0  0  0  0  0  0  0  0  0  0  0  0
  148.4872  141.1103  153.0833 H   0  0  0  0  0  0  0  0  0  0  0  0
  1  2  1  0  0  0  0
  1 18  1  0  0  0  0
  1 19  1  0  0  0  0
  1 20  1  0  0  0  0
  2  3  1  0  0  0  0
  2  4  1  0  0  0  0
  2 21  1  0  0  0  0
  3 22  1  0  0  0  0
  3 23  1  0  0  0  0
  3 24  1  0  0  0  0
  4 17  1  0  0  0  0
  4  5  2  0  0  0  0
  5  6  1  0  0  0  0
  6  7  1  0  0  0  0
  6 16  2  0  0  0  0
  7  8  1  0  0  0  0
  7 25  1  0  0  0  0
  7 26  1  0  0  0  0
  8  9  1  0  0  0  0
  8 27  1  0  0  0  0
  8 28  1  0  0  0  0
  9 10  1  0  0  0  0
  9 29  1  0  0  0  0
 10 11  2  0  0  0  0
 10 12  1  0  0  0  0
 12 14  1  0  0  0  0
 12 13  1  0  0  0  0
 12 30  1  0  0  0  0
 13 14  1  0  0  0  0
 13 31  1  0  0  0  0
 13 32  1  0  0  0  0
 14 15  1  0  0  0  0
 14 33  1  0  0  0  0
 15 34  1  0  0  0  0
 15 35  1  0  0  0  0
 15 36  1  0  0  0  0
 16 17  1  0  0  0  0
 16 37  1  0  0  0  0
M  END
> <s_m_source_file>
AV-unprocessed.smi

> <i_m_source_file_index>
3243

> <i_lp_mmshare_version>
43012

> <i_f3d_flags>
0

> <s_epik_input>
W0NIM11bQ0hdKFtDSDNdKWMxbmMoW2NIXXMxKVtDSDJdW0NIMl1bTkhdQyg9TylbQ0BASF0yW0NIMl1bQ0BIXTJbQ0gzXQ==

> <s_epik_cmdline>
J2VwaWtfcHl0aG9uJywgJy1waCcsICc3LjAnLCAnLXRuJywgJzgnLCAnLW1hJywgJzIwMCcsICctbWV0YWxfYmluZGluZycsICctaW1hZScsICc8aW5maWxlLm1hZT4nLCAnLW9tYWUnLCAnPG91dGZpbGUubWFlPic=

> <r_epik_Ionization_Penalty>
0.00084212

> <r_epik_Ionization_Penalty_Charging>
0

> <r_epik_Ionization_Penalty_Neutral>
0.00084212

> <r_epik_State_Penalty>
0.000542609

> <r_epik_Charging_Adjusted_Penalty>
0.000542609

> <i_epik_Tot_Q>
0

> <i_epik_Tot_abs_Q>
0

> <r_epik_Metal_State_Penalty>
-0

> <b_epik_Metal_Only>
0

> <s_lp_Force_Field>
OPLS_2005

> <r_lp_Energy>
-0.500157

> <b_lp_Chiralities_Consistent>
1

> <s_lp_Variant>
AV-unprocessed.smi:3243-3

> <Gold.Version>
5.8.1

> <Gold.Id.Protein>
6NUR|6NUR_protein|mol2

> <Gold.PLP.Fitness>
45.0505

> <Gold.PLP.PLP>
-39.6137

> <Gold.PLP.part.hbond>
-1.0000

> <Gold.PLP.part.metal>
0.0000

> <Gold.PLP.part.buried>
-7.1851

> <Gold.PLP.part.nonpolar>
-31.9616

> <Gold.PLP.part.repulsive>
0.3554

> <Gold.PLP.ligand.clash>
0.0000

> <Gold.PLP.ligand.torsion>
0.3824

> <Gold.PLP.Chemscore.Hbond>
1.0000

> <Gold.PLP.Chemscore.CHOScore>
1.0000

> <Gold.PLP.Chemscore.Metal>
0.0000

> <Gold.Chemscore.Hbonds>
donor molecule, donor type, donor heavy atom, donor atom, acceptor molecule, acceptor atom, score
      L1  H     9    29       P1  8028  0.98
      L1  C    16    37       P1  7957  1.00

> <Gold.PLP.Chemscore.Internal.Correction>
0.2015

> <Gold.Rescore>
     Score         DG    S(hbond)    S(metal)    S(lipo)     H(rot)  DE(clash)    DE(int)     intcor
     14.75     -16.52       0.99        0.00      98.56       1.49       0.08       1.69       ----

> <Gold.Chemscore.Fitness>
14.7495

> <Gold.Chemscore.DG>
-16.5219

> <Gold.Chemscore.ZeroCoef>
-5.4800

> <Gold.Chemscore.Hbond>
0.9932

> <Gold.Chemscore.Metal>
0.0000

> <Gold.Chemscore.Lipo>
98.5564

> <Gold.Chemscore.Internal_Hbond>
0.0000

> <Gold.Chemscore.DEClash>
0.0823

> <Gold.Chemscore.DEInternal>
1.6900

> <Gold.Chemscore.Rot>
1.4870

> <Gold.Chemscore.Internal.Correction>
   9.000000E+99

> <Gold.Chemscore.Hbonds>
donor molecule, donor type, donor heavy atom, donor atom, acceptor molecule, acceptor atom, score
      L1  H     9    29       P1  8028  0.91

> <Gold.Chemscore.Hbond.Weighted>
-3.3174

> <Gold.Chemscore.Metal.Weighted>
-0.0000

> <Gold.Chemscore.Lipo.Weighted>
-11.5311

> <Gold.Chemscore.Internal_Hbond.Weighted>
0.0000

> <Gold.Chemscore.DEClash.Weighted>
0.0823

> <Gold.Chemscore.DEInternal.Weighted>
1.6900

> <Gold.Chemscore.Rot.Weighted>
3.8067

> <Gold.Chemscore.Internal.Correction.Weighted>
   9.000000E+99

> <Gold.Protein.RotatedTorsions>
[ 6907 6896 6895 6894 ] final  104.72 input  -60.11 | X-H torsion
[ 7974 7965 7964 7962 ] final  145.28 input  175.53 | X-H torsion
[ 8008 7997 7996 7995 ] final  116.26 input   59.86 | X-H torsion
[ 10167 10162 10161 10158 ] final -116.20 input  -65.29 | X-H torsion
[ 10718 10713 10712 10709 ] final -175.29 input   66.30 | X-H torsion
[ 10763 10752 10751 10750 ] final -141.13 input  -60.55 | X-H torsion
[ 11005 11000 10999 10996 ] final -167.36 input  -57.11 | X-H torsion

> <Gold.Protein.ActiveResidues>
 VAL166  LYS551  ARG553  GLY616  TRP617  ASP618  TYR619  PRO620  LYS621  CYS622 
 ASP623  PHE694  ASN695  SER759  ASP760  ASP761  ALA762  ILE779  LEU786  VAL792 
 PHE793  MET794  SER795  GLU796  ALA797  LYS798  CYS799  TRP800  GLU811  SER814 

> <Gold.Protein.RotatedAtoms>
  152.5255  133.9635  159.7728 H   0  0  0  0  0  0  0  0  0  0  0  0  # atno 6907 bound_to 6896
  150.9921  133.6131  159.2714 H   0  0  0  0  0  0  0  0  0  0  0  0  # atno 6908 bound_to 6896
  151.3271  135.0839  159.9379 H   0  0  0  0  0  0  0  0  0  0  0  0  # atno 6909 bound_to 6896
  144.8766  139.5763  143.5862 H   0  0  0  0  0  0  0  0  0  0  0  0  # atno 7974 bound_to 7965
  156.2429  140.2921  156.0495 H   0  0  0  0  0  0  0  0  0  0  0  0  # atno 8008 bound_to 7997
  155.1897  140.0406  157.2915 H   0  0  0  0  0  0  0  0  0  0  0  0  # atno 8009 bound_to 7997
  154.6203  140.2474  155.7565 H   0  0  0  0  0  0  0  0  0  0  0  0  # atno 8010 bound_to 7997
  140.0818  143.4780  152.1921 H   0  0  0  0  0  0  0  0  0  0  0  0  # atno 10167 bound_to 10162
  156.7977  130.9541  151.3119 H   0  0  0  0  0  0  0  0  0  0  0  0  # atno 10718 bound_to 10713
  154.8556  135.3533  154.5818 H   0  0  0  0  0  0  0  0  0  0  0  0  # atno 10763 bound_to 10752
  153.6429  135.6997  153.5240 H   0  0  0  0  0  0  0  0  0  0  0  0  # atno 10764 bound_to 10752
  153.2957  135.4221  155.1165 H   0  0  0  0  0  0  0  0  0  0  0  0  # atno 10765 bound_to 10752
  140.5541  134.5398  157.5129 H   0  0  0  0  0  0  0  0  0  0  0  0  # atno 11005 bound_to 11000
  146.2966  139.7298  142.9122 LP  0  0  0  0  0  0  0  0  0  0  0  0  # atno 17320 bound_to 7965
  145.4032  141.0387  143.3059 LP  0  0  0  0  0  0  0  0  0  0  0  0  # atno 17321 bound_to 7965
  139.5775  144.7494  151.3727 LP  0  0  0  0  0  0  0  0  0  0  0  0  # atno 17342 bound_to 10162
  140.7074  143.7480  150.7505 LP  0  0  0  0  0  0  0  0  0  0  0  0  # atno 17343 bound_to 10162
  157.6569  130.8932  149.9748 LP  0  0  0  0  0  0  0  0  0  0  0  0  # atno 17370 bound_to 10713
  156.1120  130.3649  150.0032 LP  0  0  0  0  0  0  0  0  0  0  0  0  # atno 17371 bound_to 10713
  139.9440  134.7735  156.0607 LP  0  0  0  0  0  0  0  0  0  0  0  0  # atno 17394 bound_to 11000
  141.1154  133.6629  156.3080 LP  0  0  0  0  0  0  0  0  0  0  0  0  # atno 17395 bound_to 11000

$$$$
