AV-unprocessed.smi:3234|AV-procd|sdf|12348|dock6
  -GOLD-   2272018213D 1   1.00000     0.00000
 Structure written by MMmdl.
 37 39  0  0  0  0  0  0  0  0  2 V2000
  150.3380  134.5467  155.9395 O   0  0  0  0  0  0  0  0  0  0  0  0
  149.9840  135.1110  154.9052 C   0  0  0  0  0  0  0  0  0  0  0  0
  150.3256  136.3563  154.5294 N   0  0  0  0  0  0  0  0  0  0  0  0
  151.1447  137.3144  155.1907 C   0  0  0  0  0  0  0  0  0  0  0  0
  151.1351  138.6299  154.6817 C   0  0  0  0  0  0  0  0  0  0  0  0
  151.9291  139.6103  155.3096 C   0  0  0  0  0  0  0  0  0  0  0  0
  152.7058  139.3587  156.3837 N   0  0  0  0  0  0  0  0  0  0  0  0
  152.7125  138.1010  156.8729 C   0  0  0  0  0  0  0  0  0  0  0  0
  151.9561  137.0475  156.3210 C   0  0  0  0  0  0  0  0  0  0  0  0
  149.1914  134.5320  153.9920 N   0  0  0  0  0  0  0  0  0  0  0  0
  148.6467  133.1830  154.1030 C   0  0  2  0  0  0  0  0  0  0  0  0
  149.6824  132.0976  154.3811 C   0  0  0  0  0  0  0  0  0  0  0  0
  148.9561  130.8243  153.9334 C   0  0  0  0  0  0  0  0  0  0  0  0
  147.9965  131.2294  152.8758 N   0  3  1  0  0  0  0  0  0  0  0  0
  146.6383  130.6753  153.0659 C   0  0  0  0  0  0  0  0  0  0  0  0
  146.5149  129.2254  152.6626 C   0  0  0  0  0  0  0  0  0  0  0  0
  145.9490  130.3109  151.7727 C   0  0  0  0  0  0  0  0  0  0  0  0
  148.0267  132.7064  152.7903 C   0  0  0  0  0  0  0  0  0  0  0  0
  149.9583  136.6586  153.6392 H   0  0  0  0  0  0  0  0  0  0  0  0
  150.5320  138.8897  153.8240 H   0  0  0  0  0  0  0  0  0  0  0  0
  151.9397  140.6245  154.9383 H   0  0  0  0  0  0  0  0  0  0  0  0
  153.3402  137.9272  157.7343 H   0  0  0  0  0  0  0  0  0  0  0  0
  152.0183  136.0746  156.7806 H   0  0  0  0  0  0  0  0  0  0  0  0
  148.9461  135.0616  153.1680 H   0  0  0  0  0  0  0  0  0  0  0  0
  147.8815  133.1614  154.8821 H   0  0  0  0  0  0  0  0  0  0  0  0
  150.5720  132.2551  153.7692 H   0  0  0  0  0  0  0  0  0  0  0  0
  149.9925  132.0606  155.4260 H   0  0  0  0  0  0  0  0  0  0  0  0
  149.6477  130.0660  153.5656 H   0  0  0  0  0  0  0  0  0  0  0  0
  148.4211  130.3961  154.7829 H   0  0  0  0  0  0  0  0  0  0  0  0
  146.0674  131.0666  153.9064 H   0  0  0  0  0  0  0  0  0  0  0  0
  147.4096  128.7086  152.3200 H   0  0  0  0  0  0  0  0  0  0  0  0
  145.8039  128.6100  153.2102 H   0  0  0  0  0  0  0  0  0  0  0  0
  144.8660  130.4111  151.7361 H   0  0  0  0  0  0  0  0  0  0  0  0
  146.4666  130.5148  150.8371 H   0  0  0  0  0  0  0  0  0  0  0  0
  147.0421  133.1417  152.6118 H   0  0  0  0  0  0  0  0  0  0  0  0
  148.6639  132.9786  151.9475 H   0  0  0  0  0  0  0  0  0  0  0  0
  148.3408  130.8762  151.9944 H   0  0  0  0  0  0  0  0  0  0  0  0
  1  2  2  0  0  0  0
  2  3  1  0  0  0  0
  2 10  1  0  0  0  0
  3  4  1  0  0  0  0
  3 19  1  0  0  0  0
  4  9  1  0  0  0  0
  4  5  2  0  0  0  0
  5  6  1  0  0  0  0
  5 20  1  0  0  0  0
  6  7  2  0  0  0  0
  6 21  1  0  0  0  0
  7  8  1  0  0  0  0
  8  9  2  0  0  0  0
  8 22  1  0  0  0  0
  9 23  1  0  0  0  0
 10 11  1  0  0  0  0
 10 24  1  0  0  0  0
 11 18  1  0  0  0  0
 11 12  1  0  0  0  0
 11 25  1  0  0  0  0
 12 13  1  0  0  0  0
 12 26  1  0  0  0  0
 12 27  1  0  0  0  0
 13 14  1  0  0  0  0
 13 28  1  0  0  0  0
 13 29  1  0  0  0  0
 14 15  1  0  0  0  0
 14 18  1  0  0  0  0
 14 37  1  0  0  0  0
 15 17  1  0  0  0  0
 15 16  1  0  0  0  0
 15 30  1  0  0  0  0
 16 17  1  0  0  0  0
 16 31  1  0  0  0  0
 16 32  1  0  0  0  0
 17 33  1  0  0  0  0
 17 34  1  0  0  0  0
 18 35  1  0  0  0  0
 18 36  1  0  0  0  0
M  CHG  1  14   1
M  END
> <s_m_source_file>
AV-unprocessed.smi

> <i_m_source_file_index>
3234

> <i_lp_mmshare_version>
43012

> <i_f3d_flags>
0

> <s_epik_input>
W2NIXTFbY0hdbltjSF1bY0hdYzFbTkhdQyg9TylbTkhdW0NAQEhdMltDSDJdW0NIMl1OKFtDSDJdMilbQ0hdM1tDSDJdW0NIMl0z

> <s_epik_cmdline>
J2VwaWtfcHl0aG9uJywgJy1waCcsICc3LjAnLCAnLXRuJywgJzgnLCAnLW1hJywgJzIwMCcsICctbWV0YWxfYmluZGluZycsICctaW1hZScsICc8aW5maWxlLm1hZT4nLCAnLW9tYWUnLCAnPG91dGZpbGUubWFlPic=

> <r_epik_Ionization_Penalty>
0.0934328

> <r_epik_Ionization_Penalty_Charging>
0.000606352

> <r_epik_Ionization_Penalty_Neutral>
0.0928265

> <r_epik_State_Penalty>
0.0830811

> <r_epik_Charging_Adjusted_Penalty>
0.0836875

> <i_epik_Tot_Q>
1

> <i_epik_Tot_abs_Q>
1

> <r_epik_Metal_State_Penalty>
0.0724491

> <b_epik_Metal_Only>
0

> <s_lp_Force_Field>
OPLS_2005

> <r_lp_Energy>
42.4864

> <b_lp_Chiralities_Consistent>
1

> <s_lp_Variant>
AV-unprocessed.smi:3234-1

> <Gold.Version>
5.8.1

> <Gold.Id.Protein>
6NUR|6NUR_protein|mol2

> <Gold.PLP.Fitness>
45.0852

> <Gold.PLP.PLP>
-33.3826

> <Gold.PLP.part.hbond>
-4.5829

> <Gold.PLP.part.metal>
0.0000

> <Gold.PLP.part.buried>
-2.5576

> <Gold.PLP.part.nonpolar>
-27.0083

> <Gold.PLP.part.repulsive>
0.1158

> <Gold.PLP.ligand.clash>
0.0000

> <Gold.PLP.ligand.torsion>
0.7558

> <Gold.PLP.Chemscore.Hbond>
3.9833

> <Gold.PLP.Chemscore.CHOScore>
0.0000

> <Gold.PLP.Chemscore.Metal>
0.0000

> <Gold.Chemscore.Hbonds>
donor molecule, donor type, donor heavy atom, donor atom, acceptor molecule, acceptor atom, score
      L1  H     3    19       P1  7948  0.96
      L1  H    10    24       P1  7948  1.00
      L1  H    14    37       P1 10747  1.00
      P1  H  7997  8010       L1     7  1.00

> <Gold.PLP.Chemscore.Internal.Correction>
1.2641

> <Gold.Rescore>
     Score         DG    S(hbond)    S(metal)    S(lipo)     H(rot)  DE(clash)    DE(int)     intcor
     18.37     -21.21       3.01        0.00      75.05       1.21       0.05       2.79       ----

> <Gold.Chemscore.Fitness>
18.3674

> <Gold.Chemscore.DG>
-21.2050

> <Gold.Chemscore.ZeroCoef>
-5.4800

> <Gold.Chemscore.Hbond>
3.0072

> <Gold.Chemscore.Metal>
0.0000

> <Gold.Chemscore.Lipo>
75.0473

> <Gold.Chemscore.Internal_Hbond>
0.0000

> <Gold.Chemscore.DEClash>
0.0500

> <Gold.Chemscore.DEInternal>
2.7876

> <Gold.Chemscore.Rot>
1.2108

> <Gold.Chemscore.Internal.Correction>
   9.000000E+99

> <Gold.Chemscore.Hbonds>
donor molecule, donor type, donor heavy atom, donor atom, acceptor molecule, acceptor atom, score
      L1  H     3    19       P1  7948  0.22
      L1  H    10    24       P1  7948  0.26
      L1  H    14    37       P1 10747  0.99
      P1  H  7997  8010       L1     7  0.79

> <Gold.Chemscore.Hbond.Weighted>
-10.0440

> <Gold.Chemscore.Metal.Weighted>
-0.0000

> <Gold.Chemscore.Lipo.Weighted>
-8.7805

> <Gold.Chemscore.Internal_Hbond.Weighted>
0.0000

> <Gold.Chemscore.DEClash.Weighted>
0.0500

> <Gold.Chemscore.DEInternal.Weighted>
2.7876

> <Gold.Chemscore.Rot.Weighted>
3.0996

> <Gold.Chemscore.Internal.Correction.Weighted>
   9.000000E+99

> <Gold.Protein.RotatedTorsions>
[ 6907 6896 6895 6894 ] final   79.10 input  -60.11 | X-H torsion
[ 7974 7965 7964 7962 ] final   41.51 input  175.53 | X-H torsion
[ 8008 7997 7996 7995 ] final   72.31 input   59.86 | X-H torsion
[ 10167 10162 10161 10158 ] final -159.53 input  -65.29 | X-H torsion
[ 10718 10713 10712 10709 ] final  104.60 input   66.30 | X-H torsion
[ 10763 10752 10751 10750 ] final -117.21 input  -60.55 | X-H torsion
[ 11005 11000 10999 10996 ] final  152.07 input  -57.11 | X-H torsion

> <Gold.Protein.ActiveResidues>
 VAL166  LYS551  ARG553  GLY616  TRP617  ASP618  TYR619  PRO620  LYS621  CYS622 
 ASP623  PHE694  ASN695  SER759  ASP760  ASP761  ALA762  ILE779  LEU786  VAL792 
 PHE793  MET794  SER795  GLU796  ALA797  LYS798  CYS799  TRP800  GLU811  SER814 

> <Gold.Protein.RotatedAtoms>
  152.5185  134.3563  159.9268 H   0  0  0  0  0  0  0  0  0  0  0  0  # atno 6907 bound_to 6896
  151.3514  133.3917  159.2688 H   0  0  0  0  0  0  0  0  0  0  0  0  # atno 6908 bound_to 6896
  150.9724  134.9113  159.7854 H   0  0  0  0  0  0  0  0  0  0  0  0  # atno 6909 bound_to 6896
  146.0817  139.5407  142.9532 H   0  0  0  0  0  0  0  0  0  0  0  0  # atno 7974 bound_to 7965
  155.7669  140.3485  155.5226 H   0  0  0  0  0  0  0  0  0  0  0  0  # atno 8008 bound_to 7997
  155.8860  140.1010  157.1473 H   0  0  0  0  0  0  0  0  0  0  0  0  # atno 8009 bound_to 7997
  154.4029  140.1313  156.4243 H   0  0  0  0  0  0  0  0  0  0  0  0  # atno 8010 bound_to 7997
  139.6608  143.9916  152.2224 H   0  0  0  0  0  0  0  0  0  0  0  0  # atno 10167 bound_to 10162
  157.6734  131.0808  150.5731 H   0  0  0  0  0  0  0  0  0  0  0  0  # atno 10718 bound_to 10713
  154.8547  135.4318  154.1943 H   0  0  0  0  0  0  0  0  0  0  0  0  # atno 10763 bound_to 10752
  153.3004  135.6968  153.7214 H   0  0  0  0  0  0  0  0  0  0  0  0  # atno 10764 bound_to 10752
  153.6346  135.3478  155.3027 H   0  0  0  0  0  0  0  0  0  0  0  0  # atno 10765 bound_to 10752
  140.1275  134.8823  157.2158 H   0  0  0  0  0  0  0  0  0  0  0  0  # atno 11005 bound_to 11000
  145.6205  141.0323  143.1917 LP  0  0  0  0  0  0  0  0  0  0  0  0  # atno 17320 bound_to 7965
  144.7298  139.7761  143.7351 LP  0  0  0  0  0  0  0  0  0  0  0  0  # atno 17321 bound_to 7965
  139.9655  144.6529  150.8039 LP  0  0  0  0  0  0  0  0  0  0  0  0  # atno 17342 bound_to 10162
  140.7579  143.3096  151.2878 LP  0  0  0  0  0  0  0  0  0  0  0  0  # atno 17343 bound_to 10162
  156.6032  130.4360  149.5889 LP  0  0  0  0  0  0  0  0  0  0  0  0  # atno 17370 bound_to 10713
  156.2489  130.6896  151.1627 LP  0  0  0  0  0  0  0  0  0  0  0  0  # atno 17371 bound_to 10713
  140.2885  134.3268  155.7322 LP  0  0  0  0  0  0  0  0  0  0  0  0  # atno 17394 bound_to 11000
  141.2164  133.7520  156.9468 LP  0  0  0  0  0  0  0  0  0  0  0  0  # atno 17395 bound_to 11000

$$$$
