AV-unprocessed.smi:794|AV-procd|sdf|3758|dock9
  -GOLD-   22720 1193D 1   1.00000     0.00000
 Structure written by MMmdl.
 41 43  0  0  0  0  0  0  0  0  1 V2000
  147.5672  136.7188  163.3602 C   0  0  0  0  0  0  0  0  0  0  0  0
  147.7550  136.1005  162.0088 C   0  0  0  0  0  0  0  0  0  0  0  0
  148.2194  136.8853  160.9490 N   0  0  0  0  0  0  0  0  0  0  0  0
  148.3358  136.1873  159.8149 C   0  0  0  0  0  0  0  0  0  0  0  0
  148.7874  136.7288  158.5828 N   0  0  0  0  0  0  0  0  0  0  0  0
  149.8789  137.4807  158.3566 C   0  0  0  0  0  0  0  0  0  0  0  0
  150.6913  137.8331  159.2122 O   0  0  0  0  0  0  0  0  0  0  0  0
  149.9793  137.8138  157.0623 N   0  0  0  0  0  0  0  0  0  0  0  0
  151.0454  138.6366  156.4948 C   0  0  2  0  0  0  0  0  0  0  0  0
  151.0925  140.0719  157.0773 C   0  0  2  0  0  0  0  0  0  0  0  0
  149.7104  140.7570  157.0068 C   0  0  0  0  0  0  0  0  0  0  0  0
  149.5282  140.9920  155.4959 C   0  0  0  0  0  0  0  0  0  0  0  0
  150.8385  140.4369  154.9041 C   0  0  1  0  0  0  0  0  0  0  0  0
  151.8448  140.8191  155.9838 C   0  0  0  0  0  0  0  0  0  0  0  0
  150.8227  138.8923  154.9804 C   0  0  1  0  0  0  0  0  0  0  0  0
  151.8929  138.2397  154.0844 C   0  0  0  0  0  0  0  0  0  0  0  0
  151.6612  136.8505  153.9830 O   0  0  0  0  0  0  0  0  0  0  0  0
  147.8742  134.5015  159.9755 S   0  0  0  0  0  0  0  0  0  0  0  0
  147.5208  134.7900  161.6613 C   0  0  0  0  0  0  0  0  0  0  0  0
  147.0297  133.6884  162.5406 C   0  0  0  0  0  0  0  0  0  0  0  0
  146.5753  136.5026  163.7575 H   0  0  0  0  0  0  0  0  0  0  0  0
  147.6778  137.8032  163.3274 H   0  0  0  0  0  0  0  0  0  0  0  0
  148.2984  136.3345  164.0714 H   0  0  0  0  0  0  0  0  0  0  0  0
  148.2126  136.5189  157.7802 H   0  0  0  0  0  0  0  0  0  0  0  0
  149.2718  137.4804  156.4241 H   0  0  0  0  0  0  0  0  0  0  0  0
  152.0079  138.1468  156.6575 H   0  0  0  0  0  0  0  0  0  0  0  0
  151.5531  140.1256  158.0643 H   0  0  0  0  0  0  0  0  0  0  0  0
  148.9057  140.1630  157.4403 H   0  0  0  0  0  0  0  0  0  0  0  0
  149.7304  141.7097  157.5375 H   0  0  0  0  0  0  0  0  0  0  0  0
  148.6458  140.4890  155.0989 H   0  0  0  0  0  0  0  0  0  0  0  0
  149.4269  142.0575  155.2849 H   0  0  0  0  0  0  0  0  0  0  0  0
  151.0599  140.8283  153.9105 H   0  0  0  0  0  0  0  0  0  0  0  0
  151.9067  141.8950  156.1573 H   0  0  0  0  0  0  0  0  0  0  0  0
  152.8491  140.4315  155.8068 H   0  0  0  0  0  0  0  0  0  0  0  0
  149.8452  138.5307  154.6549 H   0  0  0  0  0  0  0  0  0  0  0  0
  151.8578  138.6662  153.0815 H   0  0  0  0  0  0  0  0  0  0  0  0
  152.8979  138.4096  154.4711 H   0  0  0  0  0  0  0  0  0  0  0  0
  151.2705  136.6714  153.1413 H   0  0  0  0  0  0  0  0  0  0  0  0
  147.6761  133.5712  163.4106 H   0  0  0  0  0  0  0  0  0  0  0  0
  147.0080  132.7372  162.0086 H   0  0  0  0  0  0  0  0  0  0  0  0
  146.0204  133.8983  162.8953 H   0  0  0  0  0  0  0  0  0  0  0  0
  1  2  1  0  0  0  0
  1 21  1  0  0  0  0
  1 22  1  0  0  0  0
  1 23  1  0  0  0  0
  2 19  2  0  0  0  0
  2  3  1  0  0  0  0
  3  4  2  0  0  0  0
  4  5  1  0  0  0  0
  4 18  1  0  0  0  0
  5  6  1  0  0  0  0
  5 24  1  0  0  0  0
  6  7  2  0  0  0  0
  6  8  1  0  0  0  0
  8  9  1  0  0  0  0
  8 25  1  0  0  0  0
  9 15  1  0  0  0  0
  9 10  1  0  0  0  0
  9 26  1  0  0  0  0
 10 14  1  0  0  0  0
 10 11  1  0  0  0  0
 10 27  1  0  0  0  0
 11 12  1  0  0  0  0
 11 28  1  0  0  0  0
 11 29  1  0  0  0  0
 12 13  1  0  0  0  0
 12 30  1  0  0  0  0
 12 31  1  0  0  0  0
 13 14  1  0  0  0  0
 13 15  1  0  0  0  0
 13 32  1  0  0  0  0
 14 33  1  0  0  0  0
 14 34  1  0  0  0  0
 15 16  1  0  0  0  0
 15 35  1  0  0  0  0
 16 17  1  0  0  0  0
 16 36  1  0  0  0  0
 16 37  1  0  0  0  0
 17 38  1  0  0  0  0
 18 19  1  0  0  0  0
 19 20  1  0  0  0  0
 20 39  1  0  0  0  0
 20 40  1  0  0  0  0
 20 41  1  0  0  0  0
M  END
> <s_m_source_file>
AV-unprocessed.smi

> <i_m_source_file_index>
794

> <i_lp_mmshare_version>
43012

> <i_f3d_flags>
0

> <s_epik_input>
W0NIM11jMW5jKHNjMVtDSDNdKVtOSF1DKD1PKVtOSF1bQ0BIXShbQ0BASF0yMylbQ0BIXShbQ0gyXVtPSF0pW0NAQEhdKFtDSDJdMylbQ0gyXVtDSDJdMg==

> <s_epik_cmdline>
J2VwaWtfcHl0aG9uJywgJy1waCcsICc3LjAnLCAnLXRuJywgJzgnLCAnLW1hJywgJzIwMCcsICctbWV0YWxfYmluZGluZycsICctaW1hZScsICc8aW5maWxlLm1hZT4nLCAnLW9tYWUnLCAnPG91dGZpbGUubWFlPic=

> <r_lp_tautomer_probability>
0.999

> <r_epik_Ionization_Penalty>
0.000713029

> <r_epik_Ionization_Penalty_Charging>
0

> <r_epik_Ionization_Penalty_Neutral>
0.000713029

> <r_epik_State_Penalty>
0.000177984

> <r_epik_Charging_Adjusted_Penalty>
0.000177984

> <i_epik_Tot_Q>
0

> <i_epik_Tot_abs_Q>
0

> <r_epik_Metal_State_Penalty>
-0

> <b_epik_Metal_Only>
0

> <s_lp_Force_Field>
OPLS_2005

> <r_lp_Energy>
47.0696

> <b_lp_Chiralities_Consistent>
1

> <s_lp_Variant>
AV-unprocessed.smi:794-3

> <Gold.Version>
5.8.1

> <Gold.Id.Protein>
6NUR|6NUR_protein|mol2

> <Gold.PLP.Fitness>
43.7184

> <Gold.PLP.PLP>
-34.2852

> <Gold.PLP.part.hbond>
-4.5053

> <Gold.PLP.part.metal>
0.0000

> <Gold.PLP.part.buried>
-1.6281

> <Gold.PLP.part.nonpolar>
-27.5818

> <Gold.PLP.part.repulsive>
0.1378

> <Gold.PLP.ligand.clash>
0.0000

> <Gold.PLP.ligand.torsion>
0.5287

> <Gold.PLP.Chemscore.Hbond>
3.4914

> <Gold.PLP.Chemscore.CHOScore>
0.0000

> <Gold.PLP.Chemscore.Metal>
0.0000

> <Gold.Chemscore.Hbonds>
donor molecule, donor type, donor heavy atom, donor atom, acceptor molecule, acceptor atom, score
      L1  H    17    38       P1  7949  1.00
      P1  H  6931  6943       L1     3  1.00
      P1  H  6934  6947       L1     3  0.11
      P1  H 10752 10763       L1    17  1.00

> <Gold.PLP.Chemscore.Internal.Correction>
0.0165

> <Gold.Rescore>
     Score         DG    S(hbond)    S(metal)    S(lipo)     H(rot)  DE(clash)    DE(int)     intcor
     14.83     -18.68       2.06        0.00      92.90       1.78       3.16       0.69       ----

> <Gold.Chemscore.Fitness>
14.8252

> <Gold.Chemscore.DG>
-18.6781

> <Gold.Chemscore.ZeroCoef>
-5.4800

> <Gold.Chemscore.Hbond>
2.0614

> <Gold.Chemscore.Metal>
0.0000

> <Gold.Chemscore.Lipo>
92.8998

> <Gold.Chemscore.Internal_Hbond>
0.0000

> <Gold.Chemscore.DEClash>
3.1584

> <Gold.Chemscore.DEInternal>
0.6945

> <Gold.Chemscore.Rot>
1.7798

> <Gold.Chemscore.Internal.Correction>
   9.000000E+99

> <Gold.Chemscore.Hbonds>
donor molecule, donor type, donor heavy atom, donor atom, acceptor molecule, acceptor atom, score
      L1  H    17    38       P1  7949  0.64
      P1  H  6931  6943       L1     3  0.25
      P1  H  6934  6947       L1     3  0.10
      P1  H 10752 10763       L1    17  0.49

> <Gold.Chemscore.Hbond.Weighted>
-6.8850

> <Gold.Chemscore.Metal.Weighted>
-0.0000

> <Gold.Chemscore.Lipo.Weighted>
-10.8693

> <Gold.Chemscore.Internal_Hbond.Weighted>
0.0000

> <Gold.Chemscore.DEClash.Weighted>
3.1584

> <Gold.Chemscore.DEInternal.Weighted>
0.6945

> <Gold.Chemscore.Rot.Weighted>
4.5562

> <Gold.Chemscore.Internal.Correction.Weighted>
   9.000000E+99

> <Gold.Protein.RotatedTorsions>
[ 6907 6896 6895 6894 ] final -152.14 input  -60.11 | X-H torsion
[ 7974 7965 7964 7962 ] final   38.11 input  175.53 | X-H torsion
[ 8008 7997 7996 7995 ] final  131.81 input   59.86 | X-H torsion
[ 10167 10162 10161 10158 ] final   33.27 input  -65.29 | X-H torsion
[ 10718 10713 10712 10709 ] final  134.60 input   66.30 | X-H torsion
[ 10763 10752 10751 10750 ] final   33.14 input  -60.55 | X-H torsion
[ 11005 11000 10999 10996 ] final  -39.31 input  -57.11 | X-H torsion

> <Gold.Protein.ActiveResidues>
 VAL166  LYS551  ARG553  GLY616  TRP617  ASP618  TYR619  PRO620  LYS621  CYS622 
 ASP623  PHE694  ASN695  SER759  ASP760  ASP761  ALA762  ILE779  LEU786  VAL792 
 PHE793  MET794  SER795  GLU796  ALA797  LYS798  CYS799  TRP800  GLU811  SER814 

> <Gold.Protein.RotatedAtoms>
  151.2233  133.4490  159.2601 H   0  0  0  0  0  0  0  0  0  0  0  0  # atno 6907 bound_to 6896
  151.0864  134.9889  159.8391 H   0  0  0  0  0  0  0  0  0  0  0  0  # atno 6908 bound_to 6896
  152.5430  134.2170  159.8825 H   0  0  0  0  0  0  0  0  0  0  0  0  # atno 6909 bound_to 6896
  146.1087  139.5812  142.9366 H   0  0  0  0  0  0  0  0  0  0  0  0  # atno 7974 bound_to 7965
  156.2975  140.2562  156.2986 H   0  0  0  0  0  0  0  0  0  0  0  0  # atno 8008 bound_to 7997
  154.9440  140.0395  157.2129 H   0  0  0  0  0  0  0  0  0  0  0  0  # atno 8009 bound_to 7997
  154.8100  140.2842  155.5865 H   0  0  0  0  0  0  0  0  0  0  0  0  # atno 8010 bound_to 7997
  140.4423  144.1170  150.6176 H   0  0  0  0  0  0  0  0  0  0  0  0  # atno 10167 bound_to 10162
  157.4656  131.1076  150.9866 H   0  0  0  0  0  0  0  0  0  0  0  0  # atno 10718 bound_to 10713
  153.0226  135.6395  154.1465 H   0  0  0  0  0  0  0  0  0  0  0  0  # atno 10763 bound_to 10752
  154.1198  135.2847  155.3213 H   0  0  0  0  0  0  0  0  0  0  0  0  # atno 10764 bound_to 10752
  154.6272  135.5505  153.7702 H   0  0  0  0  0  0  0  0  0  0  0  0  # atno 10765 bound_to 10752
  141.0092  133.6916  156.2170 H   0  0  0  0  0  0  0  0  0  0  0  0  # atno 11005 bound_to 11000
  145.5708  141.0394  143.2175 LP  0  0  0  0  0  0  0  0  0  0  0  0  # atno 17320 bound_to 7965
  144.7493  139.7237  143.7279 LP  0  0  0  0  0  0  0  0  0  0  0  0  # atno 17321 bound_to 7965
  140.4304  143.2570  151.9602 LP  0  0  0  0  0  0  0  0  0  0  0  0  # atno 17342 bound_to 10162
  139.4790  144.5749  151.8028 LP  0  0  0  0  0  0  0  0  0  0  0  0  # atno 17343 bound_to 10162
  157.0648  130.5840  149.5392 LP  0  0  0  0  0  0  0  0  0  0  0  0  # atno 17370 bound_to 10713
  156.0049  130.5134  150.7794 LP  0  0  0  0  0  0  0  0  0  0  0  0  # atno 17371 bound_to 10713
  140.6761  134.4816  157.5588 LP  0  0  0  0  0  0  0  0  0  0  0  0  # atno 17394 bound_to 11000
  139.9080  134.8405  156.1631 LP  0  0  0  0  0  0  0  0  0  0  0  0  # atno 17395 bound_to 11000

$$$$
