AV-unprocessed.smi:1916|AV-procd|sdf|7764|dock1
  -GOLD-   22720 9503D 1   1.00000     0.00000
 Structure written by MMmdl.
 45 47  0  0  0  0  0  0  0  0  1 V2000
  147.9495  136.8080  155.0127 O   0  0  0  0  0  0  0  0  0  0  0  0
  148.7793  137.5534  155.5349 C   0  0  0  0  0  0  0  0  0  0  0  0
  148.9242  137.6798  156.8635 N   0  0  0  0  0  0  0  0  0  0  0  0
  148.1971  136.9086  157.8696 C   0  0  0  0  0  0  0  0  0  0  0  0
  149.0396  136.6579  159.1376 C   0  0  0  0  0  0  0  0  0  0  0  0
  148.2245  136.2061  160.3389 C   0  0  0  0  0  0  0  0  0  0  0  0
  147.9292  134.8398  160.5393 C   0  0  0  0  0  0  0  0  0  0  0  0
  147.1360  134.4798  161.6458 C   0  0  0  0  0  0  0  0  0  0  0  0
  146.6726  135.4933  162.5064 C   0  0  0  0  0  0  0  0  0  0  0  0
  147.0306  136.8269  162.2248 C   0  0  0  0  0  0  0  0  0  0  0  0
  147.7925  137.1830  161.1679 N   0  0  0  0  0  0  0  0  0  0  0  0
  149.7490  138.3628  154.6598 C   0  0  2  0  0  0  0  0  0  0  0  0
  151.1835  137.8086  154.7194 C   0  0  0  0  0  0  0  0  0  0  0  0
  151.9432  138.8535  155.5203 C   0  0  0  0  0  0  0  0  0  0  0  0
  153.0966  138.6757  155.9096 O   0  0  0  0  0  0  0  0  0  0  0  0
  151.1925  139.9408  155.7472 N   0  0  0  0  0  0  0  0  0  0  0  0
  151.6058  141.0876  156.5737 C   0  0  0  0  0  0  0  0  0  0  0  0
  152.0851  140.7397  157.9980 C   0  0  0  0  0  0  0  0  0  0  0  0
  151.7739  141.9857  158.8212 C   0  0  0  0  0  0  0  0  0  0  0  0
  150.4348  142.4617  158.2643 C   0  0  0  0  0  0  0  0  0  0  0  0
  150.4728  142.1206  156.7695 C   0  0  0  0  0  0  0  0  0  0  0  0
  149.8689  139.8205  155.1480 C   0  0  0  0  0  0  0  0  0  0  0  0
  149.6286  138.3187  157.2030 H   0  0  0  0  0  0  0  0  0  0  0  0
  147.2962  137.4619  158.1351 H   0  0  0  0  0  0  0  0  0  0  0  0
  147.8554  135.9591  157.4536 H   0  0  0  0  0  0  0  0  0  0  0  0
  149.8024  135.9079  158.9251 H   0  0  0  0  0  0  0  0  0  0  0  0
  149.5795  137.5677  159.4025 H   0  0  0  0  0  0  0  0  0  0  0  0
  148.2874  134.0861  159.8538 H   0  0  0  0  0  0  0  0  0  0  0  0
  146.8813  133.4460  161.8268 H   0  0  0  0  0  0  0  0  0  0  0  0
  146.0584  135.2546  163.3621 H   0  0  0  0  0  0  0  0  0  0  0  0
  146.6948  137.6293  162.8648 H   0  0  0  0  0  0  0  0  0  0  0  0
  149.3923  138.3487  153.6285 H   0  0  0  0  0  0  0  0  0  0  0  0
  151.2590  136.8281  155.1925 H   0  0  0  0  0  0  0  0  0  0  0  0
  151.6170  137.7337  153.7216 H   0  0  0  0  0  0  0  0  0  0  0  0
  152.4328  141.5854  156.0639 H   0  0  0  0  0  0  0  0  0  0  0  0
  151.5148  139.9151  158.4258 H   0  0  0  0  0  0  0  0  0  0  0  0
  153.1403  140.4665  158.0302 H   0  0  0  0  0  0  0  0  0  0  0  0
  151.7357  141.7837  159.8921 H   0  0  0  0  0  0  0  0  0  0  0  0
  152.5388  142.7440  158.6489 H   0  0  0  0  0  0  0  0  0  0  0  0
  149.6258  141.9084  158.7435 H   0  0  0  0  0  0  0  0  0  0  0  0
  150.2610  143.5226  158.4466 H   0  0  0  0  0  0  0  0  0  0  0  0
  150.6773  143.0124  156.1761 H   0  0  0  0  0  0  0  0  0  0  0  0
  149.5011  141.7409  156.4500 H   0  0  0  0  0  0  0  0  0  0  0  0
  149.7882  140.5122  154.3085 H   0  0  0  0  0  0  0  0  0  0  0  0
  149.0900  140.0783  155.8667 H   0  0  0  0  0  0  0  0  0  0  0  0
  1  2  2  0  0  0  0
  2  3  1  0  0  0  0
  2 12  1  0  0  0  0
  3  4  1  0  0  0  0
  3 23  1  0  0  0  0
  4  5  1  0  0  0  0
  4 24  1  0  0  0  0
  4 25  1  0  0  0  0
  5  6  1  0  0  0  0
  5 26  1  0  0  0  0
  5 27  1  0  0  0  0
  6 11  1  0  0  0  0
  6  7  2  0  0  0  0
  7  8  1  0  0  0  0
  7 28  1  0  0  0  0
  8  9  2  0  0  0  0
  8 29  1  0  0  0  0
  9 10  1  0  0  0  0
  9 30  1  0  0  0  0
 10 11  2  0  0  0  0
 10 31  1  0  0  0  0
 12 22  1  0  0  0  0
 12 13  1  0  0  0  0
 12 32  1  0  0  0  0
 13 14  1  0  0  0  0
 13 33  1  0  0  0  0
 13 34  1  0  0  0  0
 14 15  2  0  0  0  0
 14 16  1  0  0  0  0
 16 17  1  0  0  0  0
 16 22  1  0  0  0  0
 17 21  1  0  0  0  0
 17 18  1  0  0  0  0
 17 35  1  0  0  0  0
 18 19  1  0  0  0  0
 18 36  1  0  0  0  0
 18 37  1  0  0  0  0
 19 20  1  0  0  0  0
 19 38  1  0  0  0  0
 19 39  1  0  0  0  0
 20 21  1  0  0  0  0
 20 40  1  0  0  0  0
 20 41  1  0  0  0  0
 21 42  1  0  0  0  0
 21 43  1  0  0  0  0
 22 44  1  0  0  0  0
 22 45  1  0  0  0  0
M  END
> <s_m_source_file>
AV-unprocessed.smi

> <i_m_source_file_index>
1916

> <i_lp_mmshare_version>
43012

> <i_f3d_flags>
0

> <s_epik_input>
W0NIMl0xW0NIMl1bQ0gyXVtDSDJdW0NIXTFOKFtDSDJdMilDKD1PKVtDSDJdW0NASF0yQyg9TylbTkhdW0NIMl1bQ0gyXWMzW2NIXVtjSF1bY0hdW2NIXW4z

> <s_epik_cmdline>
J2VwaWtfcHl0aG9uJywgJy1waCcsICc3LjAnLCAnLXRuJywgJzgnLCAnLW1hJywgJzIwMCcsICctbWV0YWxfYmluZGluZycsICctaW1hZScsICc8aW5maWxlLm1hZT4nLCAnLW9tYWUnLCAnPG91dGZpbGUubWFlPic=

> <r_epik_Ionization_Penalty>
0.0252359

> <r_epik_Ionization_Penalty_Charging>
0

> <r_epik_Ionization_Penalty_Neutral>
0.0252359

> <r_epik_State_Penalty>
0.020532

> <r_epik_Charging_Adjusted_Penalty>
0.020532

> <i_epik_Tot_Q>
0

> <i_epik_Tot_abs_Q>
0

> <r_epik_Metal_State_Penalty>
0.0196901

> <b_epik_Metal_Only>
0

> <s_lp_Force_Field>
OPLS_2005

> <r_lp_Energy>
33.617

> <b_lp_Chiralities_Consistent>
1

> <s_lp_Variant>
AV-unprocessed.smi:1916-1

> <Gold.Version>
5.8.1

> <Gold.Id.Protein>
6NUR|6NUR_protein|mol2

> <Gold.PLP.Fitness>
47.7110

> <Gold.PLP.PLP>
-41.1207

> <Gold.PLP.part.hbond>
-3.0000

> <Gold.PLP.part.metal>
0.0000

> <Gold.PLP.part.buried>
-5.6772

> <Gold.PLP.part.nonpolar>
-33.0620

> <Gold.PLP.part.repulsive>
0.0939

> <Gold.PLP.ligand.clash>
0.0000

> <Gold.PLP.ligand.torsion>
0.9647

> <Gold.PLP.Chemscore.Hbond>
2.8000

> <Gold.PLP.Chemscore.CHOScore>
0.0000

> <Gold.PLP.Chemscore.Metal>
0.0000

> <Gold.Chemscore.Hbonds>
donor molecule, donor type, donor heavy atom, donor atom, acceptor molecule, acceptor atom, score
      P1  H  6931  6943       L1    11  0.96
      P1  H  6934  6947       L1    11  0.82
      P1  H  7997  8010       L1    15  1.00

> <Gold.PLP.Chemscore.Internal.Correction>
0.1196

> <Gold.Rescore>
     Score         DG    S(hbond)    S(metal)    S(lipo)     H(rot)  DE(clash)    DE(int)     intcor
     19.15     -20.04       2.22        0.00      96.46       1.61       0.00       0.89       ----

> <Gold.Chemscore.Fitness>
19.1495

> <Gold.Chemscore.DG>
-20.0428

> <Gold.Chemscore.ZeroCoef>
-5.4800

> <Gold.Chemscore.Hbond>
2.2159

> <Gold.Chemscore.Metal>
0.0000

> <Gold.Chemscore.Lipo>
96.4614

> <Gold.Chemscore.Internal_Hbond>
0.0000

> <Gold.Chemscore.DEClash>
0.0000

> <Gold.Chemscore.DEInternal>
0.8933

> <Gold.Chemscore.Rot>
1.6110

> <Gold.Chemscore.Internal.Correction>
   9.000000E+99

> <Gold.Chemscore.Hbonds>
donor molecule, donor type, donor heavy atom, donor atom, acceptor molecule, acceptor atom, score
      P1  H  6931  6943       L1    11  0.35
      P1  H  6934  6947       L1    11  0.21
      P1  H  7997  8010       L1    15  0.95

> <Gold.Chemscore.Hbond.Weighted>
-7.4011

> <Gold.Chemscore.Metal.Weighted>
-0.0000

> <Gold.Chemscore.Lipo.Weighted>
-11.2860

> <Gold.Chemscore.Internal_Hbond.Weighted>
0.0000

> <Gold.Chemscore.DEClash.Weighted>
0.0000

> <Gold.Chemscore.DEInternal.Weighted>
0.8933

> <Gold.Chemscore.Rot.Weighted>
4.1243

> <Gold.Chemscore.Internal.Correction.Weighted>
   9.000000E+99

> <Gold.Protein.RotatedTorsions>
[ 6907 6896 6895 6894 ] final   49.85 input  -60.11 | X-H torsion
[ 7974 7965 7964 7962 ] final  -90.10 input  175.53 | X-H torsion
[ 8008 7997 7996 7995 ] final   86.90 input   59.86 | X-H torsion
[ 10167 10162 10161 10158 ] final   10.90 input  -65.29 | X-H torsion
[ 10718 10713 10712 10709 ] final  -80.14 input   66.30 | X-H torsion
[ 10763 10752 10751 10750 ] final -149.62 input  -60.55 | X-H torsion
[ 11005 11000 10999 10996 ] final  139.18 input  -57.11 | X-H torsion

> <Gold.Protein.ActiveResidues>
 VAL166  LYS551  ARG553  GLY616  TRP617  ASP618  TYR619  PRO620  LYS621  CYS622 
 ASP623  PHE694  ASN695  SER759  ASP760  ASP761  ALA762  ILE779  LEU786  VAL792 
 PHE793  MET794  SER795  GLU796  ALA797  LYS798  CYS799  TRP800  GLU811  SER814 

> <Gold.Protein.RotatedAtoms>
  152.2954  134.7673  160.0368 H   0  0  0  0  0  0  0  0  0  0  0  0  # atno 6907 bound_to 6896
  151.8205  133.3389  159.3591 H   0  0  0  0  0  0  0  0  0  0  0  0  # atno 6908 bound_to 6896
  150.7249  134.5507  159.5838 H   0  0  0  0  0  0  0  0  0  0  0  0  # atno 6909 bound_to 6896
  145.4310  140.9556  143.2128 H   0  0  0  0  0  0  0  0  0  0  0  0  # atno 7974 bound_to 7965
  155.9687  140.3387  155.6556 H   0  0  0  0  0  0  0  0  0  0  0  0  # atno 8008 bound_to 7997
  155.6703  140.0726  157.2540 H   0  0  0  0  0  0  0  0  0  0  0  0  # atno 8009 bound_to 7997
  154.4161  140.1692  156.1860 H   0  0  0  0  0  0  0  0  0  0  0  0  # atno 8010 bound_to 7997
  140.6165  143.8296  150.7125 H   0  0  0  0  0  0  0  0  0  0  0  0  # atno 10167 bound_to 10162
  156.0076  130.4566  150.3755 H   0  0  0  0  0  0  0  0  0  0  0  0  # atno 10718 bound_to 10713
  154.8167  135.3304  154.7157 H   0  0  0  0  0  0  0  0  0  0  0  0  # atno 10763 bound_to 10752
  153.7796  135.6919  153.4895 H   0  0  0  0  0  0  0  0  0  0  0  0  # atno 10764 bound_to 10752
  153.1989  135.4523  155.0189 H   0  0  0  0  0  0  0  0  0  0  0  0  # atno 10765 bound_to 10752
  140.0236  134.9385  157.0524 H   0  0  0  0  0  0  0  0  0  0  0  0  # atno 11005 bound_to 11000
  144.8183  139.5838  143.6998 LP  0  0  0  0  0  0  0  0  0  0  0  0  # atno 17320 bound_to 7965
  146.2607  139.6403  142.9364 LP  0  0  0  0  0  0  0  0  0  0  0  0  # atno 17321 bound_to 7965
  140.1876  143.4063  152.1887 LP  0  0  0  0  0  0  0  0  0  0  0  0  # atno 17342 bound_to 10162
  139.5403  144.7250  151.4755 LP  0  0  0  0  0  0  0  0  0  0  0  0  # atno 17343 bound_to 10162
  157.1838  131.0398  151.2735 LP  0  0  0  0  0  0  0  0  0  0  0  0  # atno 17370 bound_to 10713
  157.4122  130.7391  149.6848 LP  0  0  0  0  0  0  0  0  0  0  0  0  # atno 17371 bound_to 10713
  140.4344  134.1746  155.7170 LP  0  0  0  0  0  0  0  0  0  0  0  0  # atno 17394 bound_to 11000
  141.1789  133.8455  157.1326 LP  0  0  0  0  0  0  0  0  0  0  0  0  # atno 17395 bound_to 11000

$$$$
