AV-unprocessed.smi:1396|AV-procd|sdf|5674|dock4
  -GOLD-   22720 5293D 1   1.00000     0.00000
 Structure written by MMmdl.
 46 47  0  0  0  0  0  0  0  0  1 V2000
  153.0631  143.1380  160.0982 C   0  0  0  0  0  0  0  0  0  0  0  0
  152.5625  143.0226  158.7372 N   0  0  0  0  0  0  0  0  0  0  0  0
  151.3221  142.6236  158.4206 C   0  0  0  0  0  0  0  0  0  0  0  0
  150.4733  142.3223  159.2592 O   0  0  0  0  0  0  0  0  0  0  0  0
  150.9826  142.5582  156.9266 C   0  0  0  0  0  0  0  0  0  0  0  0
  150.6674  141.2022  156.4196 N   0  0  0  0  0  0  0  0  0  0  0  0
  151.8738  140.6173  155.8243 C   0  0  0  0  0  0  0  0  0  0  0  0
  151.6194  139.1591  155.4048 C   0  0  0  0  0  0  0  0  0  0  0  0
  150.4591  139.0671  154.4046 C   0  0  0  0  0  0  0  0  0  0  0  0
  150.1655  137.6680  154.1101 N   0  0  0  0  0  0  0  0  0  0  0  0
  150.1517  136.6772  155.0128 C   0  0  0  0  0  0  0  0  0  0  0  0
  150.3666  136.8492  156.2125 O   0  0  0  0  0  0  0  0  0  0  0  0
  149.8586  135.4988  154.4370 N   0  0  0  0  0  0  0  0  0  0  0  0
  149.8264  134.2085  155.0317 C   0  0  0  0  0  0  0  0  0  0  0  0
  149.5304  133.1062  154.2051 C   0  0  0  0  0  0  0  0  0  0  0  0
  149.5176  131.8136  154.7619 C   0  0  0  0  0  0  0  0  0  0  0  0
  149.8106  131.6616  156.1316 C   0  0  0  0  0  0  0  0  0  0  0  0
  149.8001  130.3921  156.6725 O   0  0  0  0  0  0  0  0  0  0  0  0
  150.0551  130.2493  158.0657 C   0  0  0  0  0  0  0  0  0  0  0  0
  150.1080  132.7139  156.9331 N   0  0  0  0  0  0  0  0  0  0  0  0
  150.1171  133.9514  156.3938 C   0  0  0  0  0  0  0  0  0  0  0  0
  149.2307  139.7736  155.0017 C   0  0  0  0  0  0  0  0  0  0  0  0
  149.5701  141.2084  155.4408 C   0  0  0  0  0  0  0  0  0  0  0  0
  154.0908  143.5008  160.0873 H   0  0  0  0  0  0  0  0  0  0  0  0
  153.0485  142.1694  160.5994 H   0  0  0  0  0  0  0  0  0  0  0  0
  152.4604  143.8392  160.6766 H   0  0  0  0  0  0  0  0  0  0  0  0
  153.1988  143.2495  157.9865 H   0  0  0  0  0  0  0  0  0  0  0  0
  150.1462  143.2297  156.7239 H   0  0  0  0  0  0  0  0  0  0  0  0
  151.8394  142.9593  156.3831 H   0  0  0  0  0  0  0  0  0  0  0  0
  152.1986  141.2064  154.9647 H   0  0  0  0  0  0  0  0  0  0  0  0
  152.6902  140.6373  156.5474 H   0  0  0  0  0  0  0  0  0  0  0  0
  152.5248  138.7387  154.9656 H   0  0  0  0  0  0  0  0  0  0  0  0
  151.3983  138.5613  156.2906 H   0  0  0  0  0  0  0  0  0  0  0  0
  150.7543  139.5749  153.4845 H   0  0  0  0  0  0  0  0  0  0  0  0
  149.9717  137.4379  153.1465 H   0  0  0  0  0  0  0  0  0  0  0  0
  149.6066  135.5315  153.4601 H   0  0  0  0  0  0  0  0  0  0  0  0
  149.3139  133.2463  153.1559 H   0  0  0  0  0  0  0  0  0  0  0  0
  149.2899  130.9540  154.1489 H   0  0  0  0  0  0  0  0  0  0  0  0
  150.0173  129.1933  158.3331 H   0  0  0  0  0  0  0  0  0  0  0  0
  149.3055  130.7695  158.6639 H   0  0  0  0  0  0  0  0  0  0  0  0
  151.0459  130.6218  158.3304 H   0  0  0  0  0  0  0  0  0  0  0  0
  150.3889  134.7376  157.0804 H   0  0  0  0  0  0  0  0  0  0  0  0
  148.4188  139.7985  154.2739 H   0  0  0  0  0  0  0  0  0  0  0  0
  148.8578  139.2121  155.8599 H   0  0  0  0  0  0  0  0  0  0  0  0
  148.6692  141.6508  155.8651 H   0  0  0  0  0  0  0  0  0  0  0  0
  149.8413  141.8151  154.5749 H   0  0  0  0  0  0  0  0  0  0  0  0
  1  2  1  0  0  0  0
  1 24  1  0  0  0  0
  1 25  1  0  0  0  0
  1 26  1  0  0  0  0
  2  3  1  0  0  0  0
  2 27  1  0  0  0  0
  3  4  2  0  0  0  0
  3  5  1  0  0  0  0
  5  6  1  0  0  0  0
  5 28  1  0  0  0  0
  5 29  1  0  0  0  0
  6 23  1  0  0  0  0
  6  7  1  0  0  0  0
  7  8  1  0  0  0  0
  7 30  1  0  0  0  0
  7 31  1  0  0  0  0
  8  9  1  0  0  0  0
  8 32  1  0  0  0  0
  8 33  1  0  0  0  0
  9 10  1  0  0  0  0
  9 22  1  0  0  0  0
  9 34  1  0  0  0  0
 10 11  1  0  0  0  0
 10 35  1  0  0  0  0
 11 12  2  0  0  0  0
 11 13  1  0  0  0  0
 13 14  1  0  0  0  0
 13 36  1  0  0  0  0
 14 21  1  0  0  0  0
 14 15  2  0  0  0  0
 15 16  1  0  0  0  0
 15 37  1  0  0  0  0
 16 17  2  0  0  0  0
 16 38  1  0  0  0  0
 17 18  1  0  0  0  0
 17 20  1  0  0  0  0
 18 19  1  0  0  0  0
 19 39  1  0  0  0  0
 19 40  1  0  0  0  0
 19 41  1  0  0  0  0
 20 21  2  0  0  0  0
 21 42  1  0  0  0  0
 22 23  1  0  0  0  0
 22 43  1  0  0  0  0
 22 44  1  0  0  0  0
 23 45  1  0  0  0  0
 23 46  1  0  0  0  0
M  END
> <s_m_source_file>
AV-unprocessed.smi

> <i_m_source_file_index>
1396

> <i_lp_mmshare_version>
43012

> <i_f3d_flags>
0

> <s_epik_input>
W0NIM11bTkhdQyg9TylbQ0gyXU4xW0NIMl1bQ0gyXVtDSF0oW0NIMl1bQ0gyXTEpW05IXUMoPU8pW05IXWMyW2NIXVtjSF1jKE9bQ0gzXSluW2NIXTI=

> <s_epik_cmdline>
J2VwaWtfcHl0aG9uJywgJy1waCcsICc3LjAnLCAnLXRuJywgJzgnLCAnLW1hJywgJzIwMCcsICctbWV0YWxfYmluZGluZycsICctaW1hZScsICc8aW5maWxlLm1hZT4nLCAnLW9tYWUnLCAnPG91dGZpbGUubWFlPic=

> <r_lp_tautomer_probability>
1

> <r_epik_Ionization_Penalty>
0.16483

> <r_epik_Ionization_Penalty_Charging>
0

> <r_epik_Ionization_Penalty_Neutral>
0.16483

> <r_epik_State_Penalty>
0.154069

> <r_epik_Charging_Adjusted_Penalty>
0.154069

> <i_epik_Tot_Q>
0

> <i_epik_Tot_abs_Q>
0

> <r_epik_Metal_State_Penalty>
0.158584

> <b_epik_Metal_Only>
0

> <s_lp_Force_Field>
OPLS_2005

> <r_lp_Energy>
15.765

> <b_lp_Chiralities_Consistent>
1

> <s_lp_Variant>
AV-unprocessed.smi:1396-1

> <Gold.Version>
5.8.1

> <Gold.Id.Protein>
6NUR|6NUR_protein|mol2

> <Gold.PLP.Fitness>
39.4403

> <Gold.PLP.PLP>
-35.9200

> <Gold.PLP.part.hbond>
-3.5290

> <Gold.PLP.part.metal>
0.0000

> <Gold.PLP.part.buried>
-4.8239

> <Gold.PLP.part.nonpolar>
-28.5222

> <Gold.PLP.part.repulsive>
0.2422

> <Gold.PLP.ligand.clash>
0.0311

> <Gold.PLP.ligand.torsion>
0.8092

> <Gold.PLP.Chemscore.Hbond>
1.7100

> <Gold.PLP.Chemscore.CHOScore>
0.0000

> <Gold.PLP.Chemscore.Metal>
0.0000

> <Gold.Chemscore.Hbonds>
donor molecule, donor type, donor heavy atom, donor atom, acceptor molecule, acceptor atom, score
      L1  H    10    35       P1  7948  0.96
      L1  H    13    36       P1  7948  0.70

> <Gold.PLP.Chemscore.Internal.Correction>
0.0397

> <Gold.Rescore>
     Score         DG    S(hbond)    S(metal)    S(lipo)     H(rot)  DE(clash)    DE(int)     intcor
     11.35     -14.89       1.72        0.00      74.26       1.96       0.05       3.49       ----

> <Gold.Chemscore.Fitness>
11.3451

> <Gold.Chemscore.DG>
-14.8854

> <Gold.Chemscore.ZeroCoef>
-5.4800

> <Gold.Chemscore.Hbond>
1.7203

> <Gold.Chemscore.Metal>
0.0000

> <Gold.Chemscore.Lipo>
74.2617

> <Gold.Chemscore.Internal_Hbond>
0.0000

> <Gold.Chemscore.DEClash>
0.0456

> <Gold.Chemscore.DEInternal>
3.4948

> <Gold.Chemscore.Rot>
1.9645

> <Gold.Chemscore.Internal.Correction>
   9.000000E+99

> <Gold.Chemscore.Hbonds>
donor molecule, donor type, donor heavy atom, donor atom, acceptor molecule, acceptor atom, score
      L1  H    10    35       P1  7948  0.27
      L1  H    13    36       P1  7948  0.07

> <Gold.Chemscore.Hbond.Weighted>
-5.7458

> <Gold.Chemscore.Metal.Weighted>
-0.0000

> <Gold.Chemscore.Lipo.Weighted>
-8.6886

> <Gold.Chemscore.Internal_Hbond.Weighted>
0.0000

> <Gold.Chemscore.DEClash.Weighted>
0.0456

> <Gold.Chemscore.DEInternal.Weighted>
3.4948

> <Gold.Chemscore.Rot.Weighted>
5.0290

> <Gold.Chemscore.Internal.Correction.Weighted>
   9.000000E+99

> <Gold.Protein.RotatedTorsions>
[ 6907 6896 6895 6894 ] final -125.25 input  -60.11 | X-H torsion
[ 7974 7965 7964 7962 ] final   43.17 input  175.53 | X-H torsion
[ 8008 7997 7996 7995 ] final  145.74 input   59.86 | X-H torsion
[ 10167 10162 10161 10158 ] final   80.79 input  -65.29 | X-H torsion
[ 10718 10713 10712 10709 ] final -168.67 input   66.30 | X-H torsion
[ 10763 10752 10751 10750 ] final   57.59 input  -60.55 | X-H torsion
[ 11005 11000 10999 10996 ] final  112.54 input  -57.11 | X-H torsion

> <Gold.Protein.ActiveResidues>
 VAL166  LYS551  ARG553  GLY616  TRP617  ASP618  TYR619  PRO620  LYS621  CYS622 
 ASP623  PHE694  ASN695  SER759  ASP760  ASP761  ALA762  ILE779  LEU786  VAL792 
 PHE793  MET794  SER795  GLU796  ALA797  LYS798  CYS799  TRP800  GLU811  SER814 

> <Gold.Protein.RotatedAtoms>
  150.8849  133.7321  159.2921 H   0  0  0  0  0  0  0  0  0  0  0  0  # atno 6907 bound_to 6896
  151.4890  135.1055  159.9808 H   0  0  0  0  0  0  0  0  0  0  0  0  # atno 6908 bound_to 6896
  152.4784  133.8147  159.7077 H   0  0  0  0  0  0  0  0  0  0  0  0  # atno 6909 bound_to 6896
  146.0678  139.5217  142.9617 H   0  0  0  0  0  0  0  0  0  0  0  0  # atno 7974 bound_to 7965
  156.2875  140.2201  156.5265 H   0  0  0  0  0  0  0  0  0  0  0  0  # atno 8008 bound_to 7997
  154.7485  140.0482  157.0895 H   0  0  0  0  0  0  0  0  0  0  0  0  # atno 8009 bound_to 7997
  155.0140  140.3116  155.4822 H   0  0  0  0  0  0  0  0  0  0  0  0  # atno 8010 bound_to 7997
  139.9460  144.6058  150.8206 H   0  0  0  0  0  0  0  0  0  0  0  0  # atno 10167 bound_to 10162
  156.7004  130.9194  151.3079 H   0  0  0  0  0  0  0  0  0  0  0  0  # atno 10718 bound_to 10713
  152.9853  135.5636  154.5415 H   0  0  0  0  0  0  0  0  0  0  0  0  # atno 10763 bound_to 10752
  154.4868  135.2791  155.1530 H   0  0  0  0  0  0  0  0  0  0  0  0  # atno 10764 bound_to 10752
  154.3015  135.6306  153.5480 H   0  0  0  0  0  0  0  0  0  0  0  0  # atno 10765 bound_to 10752
  139.8930  134.9532  156.6601 H   0  0  0  0  0  0  0  0  0  0  0  0  # atno 11005 bound_to 11000
  145.6446  141.0277  143.1793 LP  0  0  0  0  0  0  0  0  0  0  0  0  # atno 17320 bound_to 7965
  144.7213  139.8021  143.7381 LP  0  0  0  0  0  0  0  0  0  0  0  0  # atno 17321 bound_to 7965
  140.7597  143.3134  151.2790 LP  0  0  0  0  0  0  0  0  0  0  0  0  # atno 17342 bound_to 10162
  139.6666  144.0094  152.2727 LP  0  0  0  0  0  0  0  0  0  0  0  0  # atno 17343 bound_to 10162
  157.6975  130.9297  150.0688 LP  0  0  0  0  0  0  0  0  0  0  0  0  # atno 17370 bound_to 10713
  156.1733  130.3647  149.9135 LP  0  0  0  0  0  0  0  0  0  0  0  0  # atno 17371 bound_to 10713
  140.7453  133.8943  155.8307 LP  0  0  0  0  0  0  0  0  0  0  0  0  # atno 17394 bound_to 11000
  141.0044  134.1106  157.4285 LP  0  0  0  0  0  0  0  0  0  0  0  0  # atno 17395 bound_to 11000

$$$$
