AV-unprocessed.smi:48|AV-procd|sdf|455|dock1
  -GOLD-   2262016323D 1   1.00000     0.00000
 Structure written by MMmdl.
 30 32  0  0  0  0  0  0  0  0  1 V2000
  152.4622  135.8574  156.8041 O   0  0  0  0  0  0  0  0  0  0  0  0
  151.8155  136.8017  157.6303 C   0  0  0  0  0  0  0  0  0  0  0  0
  151.1493  137.8894  156.7691 C   0  0  1  0  0  0  0  0  0  0  0  0
  150.5549  138.8905  157.5821 O   0  0  0  0  0  0  0  0  0  0  0  0
  150.3441  140.0311  156.8127 C   0  0  1  0  0  0  0  0  0  0  0  0
  150.5498  141.2260  157.6846 N   0  0  0  0  0  0  0  0  0  0  0  0
  149.8334  142.3683  157.6837 C   0  0  0  0  0  0  0  0  0  0  0  0
  150.1921  143.3190  158.5453 N   0  0  0  0  0  0  0  0  0  0  0  0
  151.2676  142.7223  159.1825 C   0  0  0  0  0  0  0  0  0  0  0  0
  152.1339  143.1592  160.2141 C   0  0  0  0  0  0  0  0  0  0  0  0
  151.9497  144.7196  160.9274 Cl  0  0  0  0  0  0  0  0  0  0  0  0
  153.1147  142.3232  160.6305 N   0  0  0  0  0  0  0  0  0  0  0  0
  153.2345  141.1182  160.0602 C   0  0  0  0  0  0  0  0  0  0  0  0
  152.4978  140.5728  159.0859 N   0  0  0  0  0  0  0  0  0  0  0  0
  151.5101  141.4175  158.6655 C   0  0  0  0  0  0  0  0  0  0  0  0
  151.3569  140.0133  155.6544 C   0  0  2  0  0  0  0  0  0  0  0  0
  150.6964  139.9948  154.4050 O   0  0  0  0  0  0  0  0  0  0  0  0
  152.0938  138.6916  155.8605 C   0  0  1  0  0  0  0  0  0  0  0  0
  153.3474  138.9175  156.4775 O   0  0  0  0  0  0  0  0  0  0  0  0
  150.3712  137.4493  156.1424 H   0  0  0  0  0  0  0  0  0  0  0  0
  149.3035  140.0889  156.4885 H   0  0  0  0  0  0  0  0  0  0  0  0
  152.0242  140.8761  155.6935 H   0  0  0  0  0  0  0  0  0  0  0  0
  152.2828  138.1653  154.9236 H   0  0  0  0  0  0  0  0  0  0  0  0
  152.4336  135.0147  157.2310 H   0  0  0  0  0  0  0  0  0  0  0  0
  151.0897  136.3052  158.2755 H   0  0  0  0  0  0  0  0  0  0  0  0
  152.5764  137.2444  158.2737 H   0  0  0  0  0  0  0  0  0  0  0  0
  149.0025  142.5117  157.0082 H   0  0  0  0  0  0  0  0  0  0  0  0
  154.0364  140.5014  160.4382 H   0  0  0  0  0  0  0  0  0  0  0  0
  150.8405  139.1516  154.0032 H   0  0  0  0  0  0  0  0  0  0  0  0
  153.5352  138.1918  157.0527 H   0  0  0  0  0  0  0  0  0  0  0  0
  1  2  1  0  0  0  0
  1 24  1  0  0  0  0
  2  3  1  0  0  0  0
  2 25  1  0  0  0  0
  2 26  1  0  0  0  0
  3 20  1  0  0  0  0
  3 18  1  0  0  0  0
  3  4  1  0  0  0  0
  4  5  1  0  0  0  0
  5 21  1  0  0  0  0
  5  6  1  0  0  0  0
  5 16  1  0  0  0  0
  6 15  1  0  0  0  0
  6  7  1  0  0  0  0
  7  8  2  0  0  0  0
  7 27  1  0  0  0  0
  8  9  1  0  0  0  0
  9 15  2  0  0  0  0
  9 10  1  0  0  0  0
 10 11  1  0  0  0  0
 10 12  2  0  0  0  0
 12 13  1  0  0  0  0
 13 14  2  0  0  0  0
 13 28  1  0  0  0  0
 14 15  1  0  0  0  0
 16 22  1  0  0  0  0
 16 17  1  0  0  0  0
 16 18  1  0  0  0  0
 17 29  1  0  0  0  0
 18 23  1  0  0  0  0
 18 19  1  0  0  0  0
 19 30  1  0  0  0  0
M  END
> <s_m_source_file>
AV-unprocessed.smi

> <i_m_source_file_index>
48

> <i_lp_mmshare_version>
43012

> <i_f3d_flags>
0

> <s_epik_input>
W09IXVtDSDJdW0NASF0xT1tDQEhdKFtDQEhdKFtPSF0pW0NAQEhdMVtPSF0pbihbY0hdbjIpYyhjMjMpbltjSF1uYzNDbA==

> <s_epik_cmdline>
J2VwaWtfcHl0aG9uJywgJy1waCcsICc3LjAnLCAnLXRuJywgJzgnLCAnLW1hJywgJzIwMCcsICctbWV0YWxfYmluZGluZycsICctaW1hZScsICc8aW5maWxlLm1hZT4nLCAnLW9tYWUnLCAnPG91dGZpbGUubWFlPic=

> <r_lp_tautomer_probability>
1

> <r_epik_Ionization_Penalty>
3.45505e-06

> <r_epik_Ionization_Penalty_Charging>
0

> <r_epik_Ionization_Penalty_Neutral>
3.45505e-06

> <r_epik_State_Penalty>
-0

> <r_epik_Charging_Adjusted_Penalty>
0

> <i_epik_Tot_Q>
0

> <i_epik_Tot_abs_Q>
0

> <r_epik_Metal_State_Penalty>
-0

> <b_epik_Metal_Only>
0

> <s_epik_Chemistry_Notes>
This compound contains an acetal/aminal-like group ( X-CH(R)-Y where X, Y are N, S, or O) that may be acid/base labile, releasing an aldehyde.

> <s_lp_Force_Field>
OPLS_2005

> <r_lp_Energy>
33.2991

> <b_lp_Chiralities_Consistent>
1

> <s_lp_Variant>
AV-unprocessed.smi:48-9

> <Gold.Version>
5.8.1

> <Gold.Id.Protein>
6NUR|6NUR_protein|mol2

> <Gold.PLP.Fitness>
40.0204

> <Gold.PLP.PLP>
-29.8900

> <Gold.PLP.part.hbond>
-2.7118

> <Gold.PLP.part.metal>
0.0000

> <Gold.PLP.part.buried>
-5.4989

> <Gold.PLP.part.nonpolar>
-21.3521

> <Gold.PLP.part.repulsive>
0.1535

> <Gold.PLP.ligand.clash>
0.0000

> <Gold.PLP.ligand.torsion>
0.5564

> <Gold.PLP.Chemscore.Hbond>
2.9675

> <Gold.PLP.Chemscore.CHOScore>
0.7784

> <Gold.PLP.Chemscore.Metal>
0.0000

> <Gold.Chemscore.Hbonds>
donor molecule, donor type, donor heavy atom, donor atom, acceptor molecule, acceptor atom, score
      P1  H  7989  7998       L1    17  0.95
      P1  H  7997  8008       L1    19  1.00
      P1  H 10752 10764       L1     1  1.00
      L1  C     7    27       P1  8028  0.66

> <Gold.PLP.Chemscore.Internal.Correction>
0.0057

> <Gold.Rescore>
     Score         DG    S(hbond)    S(metal)    S(lipo)     H(rot)  DE(clash)    DE(int)     intcor
      9.18      -9.31       2.14        0.00      54.67       3.80       0.01       0.12       ----

> <Gold.Chemscore.Fitness>
9.1833

> <Gold.Chemscore.DG>
-9.3060

> <Gold.Chemscore.ZeroCoef>
-5.4800

> <Gold.Chemscore.Hbond>
2.1443

> <Gold.Chemscore.Metal>
0.0000

> <Gold.Chemscore.Lipo>
54.6713

> <Gold.Chemscore.Internal_Hbond>
0.0000

> <Gold.Chemscore.DEClash>
0.0058

> <Gold.Chemscore.DEInternal>
0.1169

> <Gold.Chemscore.Rot>
3.8017

> <Gold.Chemscore.Internal.Correction>
   9.000000E+99

> <Gold.Chemscore.Hbonds>
donor molecule, donor type, donor heavy atom, donor atom, acceptor molecule, acceptor atom, score
      P1  H  7989  7998       L1    17  0.09
      P1  H  7997  8008       L1    19  0.75
      P1  H 10752 10764       L1     1  0.30

> <Gold.Chemscore.Hbond.Weighted>
-7.1618

> <Gold.Chemscore.Metal.Weighted>
-0.0000

> <Gold.Chemscore.Lipo.Weighted>
-6.3965

> <Gold.Chemscore.Internal_Hbond.Weighted>
0.0000

> <Gold.Chemscore.DEClash.Weighted>
0.0058

> <Gold.Chemscore.DEInternal.Weighted>
0.1169

> <Gold.Chemscore.Rot.Weighted>
9.7324

> <Gold.Chemscore.Internal.Correction.Weighted>
   9.000000E+99

> <Gold.Protein.RotatedTorsions>
[ 6907 6896 6895 6894 ] final  -84.45 input  -60.11 | X-H torsion
[ 7974 7965 7964 7962 ] final   65.77 input  175.53 | X-H torsion
[ 8008 7997 7996 7995 ] final  -60.60 input   59.86 | X-H torsion
[ 10167 10162 10161 10158 ] final -100.91 input  -65.29 | X-H torsion
[ 10718 10713 10712 10709 ] final   83.89 input   66.30 | X-H torsion
[ 10763 10752 10751 10750 ] final  -17.84 input  -60.55 | X-H torsion
[ 11005 11000 10999 10996 ] final   29.32 input  -57.11 | X-H torsion

> <Gold.Protein.ActiveResidues>
 VAL166  LYS551  ARG553  GLY616  TRP617  ASP618  TYR619  PRO620  LYS621  CYS622 
 ASP623  PHE694  ASN695  SER759  ASP760  ASP761  ALA762  ILE779  LEU786  VAL792 
 PHE793  MET794  SER795  GLU796  ALA797  LYS798  CYS799  TRP800  GLU811  SER814 

> <Gold.Protein.RotatedAtoms>
  150.6876  134.3356  159.4845 H   0  0  0  0  0  0  0  0  0  0  0  0  # atno 6907 bound_to 6896
  152.1215  134.9199  160.0572 H   0  0  0  0  0  0  0  0  0  0  0  0  # atno 6908 bound_to 6896
  152.0403  133.3940  159.4371 H   0  0  0  0  0  0  0  0  0  0  0  0  # atno 6909 bound_to 6896
  145.8345  139.3159  143.0968 H   0  0  0  0  0  0  0  0  0  0  0  0  # atno 7974 bound_to 7965
  154.4406  140.1036  156.6298 H   0  0  0  0  0  0  0  0  0  0  0  0  # atno 8008 bound_to 7997
  155.5617  140.3487  155.4474 H   0  0  0  0  0  0  0  0  0  0  0  0  # atno 8009 bound_to 7997
  156.0455  140.1292  157.0098 H   0  0  0  0  0  0  0  0  0  0  0  0  # atno 8010 bound_to 7997
  140.2468  143.3500  152.0751 H   0  0  0  0  0  0  0  0  0  0  0  0  # atno 10167 bound_to 10162
  157.6888  131.0110  150.2591 H   0  0  0  0  0  0  0  0  0  0  0  0  # atno 10718 bound_to 10713
  153.5801  135.7005  153.5467 H   0  0  0  0  0  0  0  0  0  0  0  0  # atno 10763 bound_to 10752
  153.3269  135.4058  155.1463 H   0  0  0  0  0  0  0  0  0  0  0  0  # atno 10764 bound_to 10752
  154.8619  135.3709  154.5328 H   0  0  0  0  0  0  0  0  0  0  0  0  # atno 10765 bound_to 10752
  140.3062  134.2700  155.7743 H   0  0  0  0  0  0  0  0  0  0  0  0  # atno 11005 bound_to 11000
  145.9534  140.8891  143.0248 LP  0  0  0  0  0  0  0  0  0  0  0  0  # atno 17320 bound_to 7965
  144.6737  140.1711  143.7414 LP  0  0  0  0  0  0  0  0  0  0  0  0  # atno 17321 bound_to 7965
  139.5059  144.6803  151.6024 LP  0  0  0  0  0  0  0  0  0  0  0  0  # atno 17342 bound_to 10162
  140.6071  143.9504  150.6426 LP  0  0  0  0  0  0  0  0  0  0  0  0  # atno 17343 bound_to 10162
  156.3174  130.3780  149.7606 LP  0  0  0  0  0  0  0  0  0  0  0  0  # atno 17370 bound_to 10713
  156.5187  130.8205  151.3196 LP  0  0  0  0  0  0  0  0  0  0  0  0  # atno 17371 bound_to 10713
  141.2118  133.7678  156.9841 LP  0  0  0  0  0  0  0  0  0  0  0  0  # atno 17394 bound_to 11000
  140.1065  134.9503  157.2001 LP  0  0  0  0  0  0  0  0  0  0  0  0  # atno 17395 bound_to 11000

$$$$
