AV-unprocessed.smi:2365|AV-procd|sdf|9421|dock5
  -GOLD-   2272013 53D 1   1.00000     0.00000
 Structure written by MMmdl.
 29 30  0  0  0  0  0  0  0  0  1 V2000
  151.7701  144.3754  160.8453 C   0  0  0  0  0  0  0  0  0  0  0  0
  152.3968  142.9789  160.9115 C   0  0  2  0  0  0  0  0  0  0  0  0
  153.7489  142.8681  160.2160 C   0  0  0  0  0  0  0  0  0  0  0  0
  153.8617  141.3724  159.9997 C   0  0  0  0  0  0  0  0  0  0  0  0
  152.3995  140.9206  159.8303 C   0  0  2  0  0  0  0  0  0  0  0  0
  152.0282  140.5336  158.3937 C   0  0  0  0  0  0  0  0  0  0  0  0
  152.7190  139.7204  157.7798 O   0  0  0  0  0  0  0  0  0  0  0  0
  150.9294  141.1296  157.8965 N   0  0  0  0  0  0  0  0  0  0  0  0
  150.3419  140.9720  156.6102 C   0  0  0  0  0  0  0  0  0  0  0  0
  150.9948  140.3280  155.5299 C   0  0  0  0  0  0  0  0  0  0  0  0
  150.4498  140.1946  154.3021 N   0  0  0  0  0  0  0  0  0  0  0  0
  149.2204  140.7094  154.0954 C   0  0  0  0  0  0  0  0  0  0  0  0
  148.4864  141.3841  155.0901 C   0  0  0  0  0  0  0  0  0  0  0  0
  146.9213  142.0200  154.7264 Cl  0  0  0  0  0  0  0  0  0  0  0  0
  149.0611  141.5231  156.3723 C   0  0  0  0  0  0  0  0  0  0  0  0
  148.2056  142.3493  157.6309 Cl  0  0  0  0  0  0  0  0  0  0  0  0
  151.5982  142.0393  160.2075 O   0  0  0  0  0  0  0  0  0  0  0  0
  152.3929  145.1088  161.3582 H   0  0  0  0  0  0  0  0  0  0  0  0
  150.7878  144.3827  161.3181 H   0  0  0  0  0  0  0  0  0  0  0  0
  151.6451  144.7038  159.8131 H   0  0  0  0  0  0  0  0  0  0  0  0
  152.4852  142.6534  161.9496 H   0  0  0  0  0  0  0  0  0  0  0  0
  153.7271  143.3826  159.2543 H   0  0  0  0  0  0  0  0  0  0  0  0
  154.5690  143.2775  160.8064 H   0  0  0  0  0  0  0  0  0  0  0  0
  154.5070  141.1269  159.1550 H   0  0  0  0  0  0  0  0  0  0  0  0
  154.2911  140.8999  160.8840 H   0  0  0  0  0  0  0  0  0  0  0  0
  152.1930  140.0908  160.5085 H   0  0  0  0  0  0  0  0  0  0  0  0
  150.4118  141.7083  158.5423 H   0  0  0  0  0  0  0  0  0  0  0  0
  151.9900  139.9222  155.6260 H   0  0  0  0  0  0  0  0  0  0  0  0
  148.8122  140.5848  153.1032 H   0  0  0  0  0  0  0  0  0  0  0  0
  1  2  1  0  0  0  0
  1 18  1  0  0  0  0
  1 19  1  0  0  0  0
  1 20  1  0  0  0  0
  2 17  1  0  0  0  0
  2  3  1  0  0  0  0
  2 21  1  0  0  0  0
  3  4  1  0  0  0  0
  3 22  1  0  0  0  0
  3 23  1  0  0  0  0
  4  5  1  0  0  0  0
  4 24  1  0  0  0  0
  4 25  1  0  0  0  0
  5  6  1  0  0  0  0
  5 17  1  0  0  0  0
  5 26  1  0  0  0  0
  6  7  2  0  0  0  0
  6  8  1  0  0  0  0
  8  9  1  0  0  0  0
  8 27  1  0  0  0  0
  9 15  1  0  0  0  0
  9 10  2  0  0  0  0
 10 11  1  0  0  0  0
 10 28  1  0  0  0  0
 11 12  2  0  0  0  0
 12 13  1  0  0  0  0
 12 29  1  0  0  0  0
 13 14  1  0  0  0  0
 13 15  2  0  0  0  0
 15 16  1  0  0  0  0
M  END
> <s_m_source_file>
AV-unprocessed.smi

> <i_m_source_file_index>
2365

> <i_lp_mmshare_version>
43012

> <i_f3d_flags>
0

> <s_epik_input>
W0NIM11bQ0BASF0xW0NIMl1bQ0gyXVtDQEhdKE8xKUMoPU8pW05IXWMyW2NIXW5bY0hdYyhDbCljMkNs

> <s_epik_cmdline>
J2VwaWtfcHl0aG9uJywgJy1waCcsICc3LjAnLCAnLXRuJywgJzgnLCAnLW1hJywgJzIwMCcsICctbWV0YWxfYmluZGluZycsICctaW1hZScsICc8aW5maWxlLm1hZT4nLCAnLW9tYWUnLCAnPG91dGZpbGUubWFlPic=

> <r_lp_tautomer_probability>
1

> <r_epik_Ionization_Penalty>
7.32461e-06

> <r_epik_Ionization_Penalty_Charging>
0

> <r_epik_Ionization_Penalty_Neutral>
7.32461e-06

> <r_epik_State_Penalty>
-0

> <r_epik_Charging_Adjusted_Penalty>
0

> <i_epik_Tot_Q>
0

> <i_epik_Tot_abs_Q>
0

> <r_epik_Metal_State_Penalty>
-0

> <b_epik_Metal_Only>
0

> <s_lp_Force_Field>
OPLS_2005

> <r_lp_Energy>
23.8837

> <b_lp_Chiralities_Consistent>
1

> <s_lp_Variant>
AV-unprocessed.smi:2365-3

> <Gold.Version>
5.8.1

> <Gold.Id.Protein>
6NUR|6NUR_protein|mol2

> <Gold.PLP.Fitness>
41.3751

> <Gold.PLP.PLP>
-33.2210

> <Gold.PLP.part.hbond>
-3.0000

> <Gold.PLP.part.metal>
0.0000

> <Gold.PLP.part.buried>
-1.9448

> <Gold.PLP.part.nonpolar>
-27.1703

> <Gold.PLP.part.repulsive>
0.2135

> <Gold.PLP.ligand.clash>
0.0000

> <Gold.PLP.ligand.torsion>
0.2018

> <Gold.PLP.Chemscore.Hbond>
1.8500

> <Gold.PLP.Chemscore.CHOScore>
1.0000

> <Gold.PLP.Chemscore.Metal>
0.0000

> <Gold.Chemscore.Hbonds>
donor molecule, donor type, donor heavy atom, donor atom, acceptor molecule, acceptor atom, score
      P1  H  7989  7998       L1    11  0.90
      P1  H  7997  8010       L1     7  1.00
      L1  C    12    29       P1  7957  1.00

> <Gold.PLP.Chemscore.Internal.Correction>
0.0077

> <Gold.Rescore>
     Score         DG    S(hbond)    S(metal)    S(lipo)     H(rot)  DE(clash)    DE(int)     intcor
     15.46     -17.22       1.00        0.00      93.52       1.00       0.33       1.43       ----

> <Gold.Chemscore.Fitness>
15.4570

> <Gold.Chemscore.DG>
-17.2172

> <Gold.Chemscore.ZeroCoef>
-5.4800

> <Gold.Chemscore.Hbond>
1.0044

> <Gold.Chemscore.Metal>
0.0000

> <Gold.Chemscore.Lipo>
93.5243

> <Gold.Chemscore.Internal_Hbond>
0.0000

> <Gold.Chemscore.DEClash>
0.3334

> <Gold.Chemscore.DEInternal>
1.4267

> <Gold.Chemscore.Rot>
1.0000

> <Gold.Chemscore.Internal.Correction>
   9.000000E+99

> <Gold.Chemscore.Hbonds>
donor molecule, donor type, donor heavy atom, donor atom, acceptor molecule, acceptor atom, score
      P1  H  7989  7998       L1    11  0.16
      P1  H  7997  8010       L1     7  0.96

> <Gold.Chemscore.Hbond.Weighted>
-3.3548

> <Gold.Chemscore.Metal.Weighted>
-0.0000

> <Gold.Chemscore.Lipo.Weighted>
-10.9423

> <Gold.Chemscore.Internal_Hbond.Weighted>
0.0000

> <Gold.Chemscore.DEClash.Weighted>
0.3334

> <Gold.Chemscore.DEInternal.Weighted>
1.4267

> <Gold.Chemscore.Rot.Weighted>
2.5600

> <Gold.Chemscore.Internal.Correction.Weighted>
   9.000000E+99

> <Gold.Protein.RotatedTorsions>
[ 6907 6896 6895 6894 ] final   -5.02 input  -60.11 | X-H torsion
[ 7974 7965 7964 7962 ] final -154.27 input  175.53 | X-H torsion
[ 8008 7997 7996 7995 ] final   48.24 input   59.86 | X-H torsion
[ 10167 10162 10161 10158 ] final   75.70 input  -65.29 | X-H torsion
[ 10718 10713 10712 10709 ] final  149.71 input   66.30 | X-H torsion
[ 10763 10752 10751 10750 ] final  116.00 input  -60.55 | X-H torsion
[ 11005 11000 10999 10996 ] final -144.12 input  -57.11 | X-H torsion

> <Gold.Protein.ActiveResidues>
 VAL166  LYS551  ARG553  GLY616  TRP617  ASP618  TYR619  PRO620  LYS621  CYS622 
 ASP623  PHE694  ASN695  SER759  ASP760  ASP761  ALA762  ILE779  LEU786  VAL792 
 PHE793  MET794  SER795  GLU796  ALA797  LYS798  CYS799  TRP800  GLU811  SER814 

> <Gold.Protein.RotatedAtoms>
  151.4882  135.1056  159.9796 H   0  0  0  0  0  0  0  0  0  0  0  0  # atno 6907 bound_to 6896
  152.4752  133.8117  159.7017 H   0  0  0  0  0  0  0  0  0  0  0  0  # atno 6908 bound_to 6896
  150.8785  133.7343  159.2965 H   0  0  0  0  0  0  0  0  0  0  0  0  # atno 6909 bound_to 6896
  144.7697  140.4410  143.5916 H   0  0  0  0  0  0  0  0  0  0  0  0  # atno 7974 bound_to 7965
  155.3823  140.3429  155.4247 H   0  0  0  0  0  0  0  0  0  0  0  0  # atno 8008 bound_to 7997
  156.1603  140.1599  156.8656 H   0  0  0  0  0  0  0  0  0  0  0  0  # atno 8009 bound_to 7997
  154.5134  140.0784  156.8015 H   0  0  0  0  0  0  0  0  0  0  0  0  # atno 8010 bound_to 7997
  140.0002  144.5692  150.7744 H   0  0  0  0  0  0  0  0  0  0  0  0  # atno 10167 bound_to 10162
  157.2927  131.0856  151.1450 H   0  0  0  0  0  0  0  0  0  0  0  0  # atno 10718 bound_to 10713
  153.5306  135.3579  155.2674 H   0  0  0  0  0  0  0  0  0  0  0  0  # atno 10763 bound_to 10752
  154.8727  135.4067  154.3156 H   0  0  0  0  0  0  0  0  0  0  0  0  # atno 10764 bound_to 10752
  153.3844  135.7069  153.6609 H   0  0  0  0  0  0  0  0  0  0  0  0  # atno 10765 bound_to 10752
  140.8056  134.2805  157.4961 H   0  0  0  0  0  0  0  0  0  0  0  0  # atno 11005 bound_to 11000
  145.6360  139.1543  143.2942 LP  0  0  0  0  0  0  0  0  0  0  0  0  # atno 17320 bound_to 7965
  146.1835  140.6460  142.9178 LP  0  0  0  0  0  0  0  0  0  0  0  0  # atno 17321 bound_to 7965
  140.7422  143.2828  151.3549 LP  0  0  0  0  0  0  0  0  0  0  0  0  # atno 17342 bound_to 10162
  139.6277  144.0781  152.2449 LP  0  0  0  0  0  0  0  0  0  0  0  0  # atno 17343 bound_to 10162
  157.2840  130.6763  149.6080 LP  0  0  0  0  0  0  0  0  0  0  0  0  # atno 17370 bound_to 10713
  155.9668  130.4441  150.5448 LP  0  0  0  0  0  0  0  0  0  0  0  0  # atno 17371 bound_to 10713
  139.8718  134.9454  156.3910 LP  0  0  0  0  0  0  0  0  0  0  0  0  # atno 17394 bound_to 11000
  140.9250  133.7619  155.9953 LP  0  0  0  0  0  0  0  0  0  0  0  0  # atno 17395 bound_to 11000

$$$$
