AV-unprocessed.smi:3153|AV-procd|sdf|12020|dock6
  -GOLD-   2272017433D 1   1.00000     0.00000
 Structure written by MMmdl.
 37 38  0  0  0  0  0  0  0  0  1 V2000
  149.7664  140.9215  153.3613 O   0  0  0  0  0  0  0  0  0  0  0  0
  149.2107  140.5824  154.6197 C   0  0  0  0  0  0  0  0  0  0  0  0
  150.3204  140.7837  155.6772 C   0  0  0  0  0  0  0  0  0  0  0  0
  150.5726  142.1937  155.9703 N   0  0  0  0  0  0  0  0  0  0  0  0
  150.7501  142.4665  157.3935 C   0  0  0  0  0  0  0  0  0  0  0  0
  151.8029  143.5616  157.6298 C   0  0  0  0  0  0  0  0  0  0  0  0
  152.0541  143.7938  159.0410 N   0  0  0  0  0  0  0  0  0  0  0  0
  151.9195  144.9666  159.7542 C   0  0  0  0  0  0  0  0  0  0  0  0
  152.2667  144.6978  161.0472 C   0  0  0  0  0  0  0  0  0  0  0  0
  152.6070  143.3161  161.0255 C   0  0  0  0  0  0  0  0  0  0  0  0
  152.4806  142.7784  159.8230 N   0  0  0  0  0  0  0  0  0  0  0  0
  148.0516  141.5692  154.8982 C   0  0  0  0  0  0  0  0  0  0  0  0
  146.8537  141.3787  153.9506 C   0  0  0  0  0  0  0  0  0  0  0  0
  146.3452  139.9310  153.9784 C   0  0  0  0  0  0  0  0  0  0  0  0
  147.4756  138.9488  153.6416 C   0  0  0  0  0  0  0  0  0  0  0  0
  148.6774  139.1273  154.5868 C   0  0  0  0  0  0  0  0  0  0  0  0
  149.5570  140.2344  152.7477 H   0  0  0  0  0  0  0  0  0  0  0  0
  150.0504  140.2568  156.5937 H   0  0  0  0  0  0  0  0  0  0  0  0
  151.2425  140.3220  155.3216 H   0  0  0  0  0  0  0  0  0  0  0  0
  149.8057  142.7549  155.6139 H   0  0  0  0  0  0  0  0  0  0  0  0
  149.8017  142.7668  157.8409 H   0  0  0  0  0  0  0  0  0  0  0  0
  151.0588  141.5549  157.9064 H   0  0  0  0  0  0  0  0  0  0  0  0
  152.7446  143.2796  157.1572 H   0  0  0  0  0  0  0  0  0  0  0  0
  151.4903  144.4988  157.1669 H   0  0  0  0  0  0  0  0  0  0  0  0
  151.5888  145.8831  159.2880 H   0  0  0  0  0  0  0  0  0  0  0  0
  152.2766  145.3835  161.8814 H   0  0  0  0  0  0  0  0  0  0  0  0
  152.9400  142.6924  161.8422 H   0  0  0  0  0  0  0  0  0  0  0  0
  147.7045  141.4347  155.9238 H   0  0  0  0  0  0  0  0  0  0  0  0
  148.4078  142.5985  154.8355 H   0  0  0  0  0  0  0  0  0  0  0  0
  146.0489  142.0586  154.2311 H   0  0  0  0  0  0  0  0  0  0  0  0
  147.1403  141.6469  152.9330 H   0  0  0  0  0  0  0  0  0  0  0  0
  145.9408  139.7016  154.9649 H   0  0  0  0  0  0  0  0  0  0  0  0
  145.5243  139.8111  153.2708 H   0  0  0  0  0  0  0  0  0  0  0  0
  147.1061  137.9251  153.7035 H   0  0  0  0  0  0  0  0  0  0  0  0
  147.7935  139.0974  152.6090 H   0  0  0  0  0  0  0  0  0  0  0  0
  149.4660  138.4335  154.2932 H   0  0  0  0  0  0  0  0  0  0  0  0
  148.3772  138.8345  155.5938 H   0  0  0  0  0  0  0  0  0  0  0  0
  1  2  1  0  0  0  0
  1 17  1  0  0  0  0
  2 16  1  0  0  0  0
  2  3  1  0  0  0  0
  2 12  1  0  0  0  0
  3  4  1  0  0  0  0
  3 18  1  0  0  0  0
  3 19  1  0  0  0  0
  4  5  1  0  0  0  0
  4 20  1  0  0  0  0
  5  6  1  0  0  0  0
  5 21  1  0  0  0  0
  5 22  1  0  0  0  0
  6  7  1  0  0  0  0
  6 23  1  0  0  0  0
  6 24  1  0  0  0  0
  7 11  1  0  0  0  0
  7  8  1  0  0  0  0
  8  9  2  0  0  0  0
  8 25  1  0  0  0  0
  9 10  1  0  0  0  0
  9 26  1  0  0  0  0
 10 11  2  0  0  0  0
 10 27  1  0  0  0  0
 12 13  1  0  0  0  0
 12 28  1  0  0  0  0
 12 29  1  0  0  0  0
 13 14  1  0  0  0  0
 13 30  1  0  0  0  0
 13 31  1  0  0  0  0
 14 15  1  0  0  0  0
 14 32  1  0  0  0  0
 14 33  1  0  0  0  0
 15 16  1  0  0  0  0
 15 34  1  0  0  0  0
 15 35  1  0  0  0  0
 16 36  1  0  0  0  0
 16 37  1  0  0  0  0
M  END
> <s_m_source_file>
AV-unprocessed.smi

> <i_m_source_file_index>
3153

> <i_lp_mmshare_version>
43012

> <i_f3d_flags>
0

> <s_epik_input>
W0NIMl0xW0NIMl1bQ0gyXVtDSDJdW0NIMl1DMShbT0hdKVtDSDJdW05IXVtDSDJdW0NIMl1uMltjSF1bY0hdW2NIXW4y

> <s_epik_cmdline>
J2VwaWtfcHl0aG9uJywgJy1waCcsICc3LjAnLCAnLXRuJywgJzgnLCAnLW1hJywgJzIwMCcsICctbWV0YWxfYmluZGluZycsICctaW1hZScsICc8aW5maWxlLm1hZT4nLCAnLW9tYWUnLCAnPG91dGZpbGUubWFlPic=

> <r_lp_tautomer_probability>
1

> <r_epik_Ionization_Penalty>
1.91265

> <r_epik_Ionization_Penalty_Charging>
0

> <r_epik_Ionization_Penalty_Neutral>
1.91265

> <r_epik_State_Penalty>
2.0334

> <r_epik_Charging_Adjusted_Penalty>
2.0334

> <i_epik_Tot_Q>
0

> <i_epik_Tot_abs_Q>
0

> <r_epik_Metal_State_Penalty>
2.03214

> <b_epik_Metal_Only>
0

> <s_lp_Force_Field>
OPLS_2005

> <r_lp_Energy>
22.2281

> <b_lp_Chiralities_Consistent>
1

> <s_lp_Variant>
AV-unprocessed.smi:3153-2

> <Gold.Version>
5.8.1

> <Gold.Id.Protein>
6NUR|6NUR_protein|mol2

> <Gold.PLP.Fitness>
44.5924

> <Gold.PLP.PLP>
-37.5525

> <Gold.PLP.part.hbond>
-3.0713

> <Gold.PLP.part.metal>
0.0000

> <Gold.PLP.part.buried>
-0.6609

> <Gold.PLP.part.nonpolar>
-33.1770

> <Gold.PLP.part.repulsive>
0.0000

> <Gold.PLP.ligand.clash>
0.0000

> <Gold.PLP.ligand.torsion>
0.7447

> <Gold.PLP.Chemscore.Hbond>
2.8256

> <Gold.PLP.Chemscore.CHOScore>
0.0000

> <Gold.PLP.Chemscore.Metal>
0.0000

> <Gold.Chemscore.Hbonds>
donor molecule, donor type, donor heavy atom, donor atom, acceptor molecule, acceptor atom, score
      L1  H     1    17       P1  7957  0.72
      L1  H     4    20       P1  8028  0.58
      P1  H  7989  7998       L1     1  0.24
      P1  H  8011  8017       L1     1  1.00

> <Gold.PLP.Chemscore.Internal.Correction>
0.0525

> <Gold.Rescore>
     Score         DG    S(hbond)    S(metal)    S(lipo)     H(rot)  DE(clash)    DE(int)     intcor
     17.29     -18.42       2.12        0.00      97.64       2.18       0.16       0.98       ----

> <Gold.Chemscore.Fitness>
17.2878

> <Gold.Chemscore.DG>
-18.4189

> <Gold.Chemscore.ZeroCoef>
-5.4800

> <Gold.Chemscore.Hbond>
2.1211

> <Gold.Chemscore.Metal>
0.0000

> <Gold.Chemscore.Lipo>
97.6419

> <Gold.Chemscore.Internal_Hbond>
0.0000

> <Gold.Chemscore.DEClash>
0.1558

> <Gold.Chemscore.DEInternal>
0.9753

> <Gold.Chemscore.Rot>
2.1756

> <Gold.Chemscore.Internal.Correction>
   9.000000E+99

> <Gold.Chemscore.Hbonds>
donor molecule, donor type, donor heavy atom, donor atom, acceptor molecule, acceptor atom, score
      L1  H     1    17       P1  7957  0.71
      L1  H     4    20       P1  8028  0.57
      P1  H  7989  7998       L1     1  0.08
      P1  H  8011  8017       L1     1  0.39

> <Gold.Chemscore.Hbond.Weighted>
-7.0844

> <Gold.Chemscore.Metal.Weighted>
-0.0000

> <Gold.Chemscore.Lipo.Weighted>
-11.4241

> <Gold.Chemscore.Internal_Hbond.Weighted>
0.0000

> <Gold.Chemscore.DEClash.Weighted>
0.1558

> <Gold.Chemscore.DEInternal.Weighted>
0.9753

> <Gold.Chemscore.Rot.Weighted>
5.5696

> <Gold.Chemscore.Internal.Correction.Weighted>
   9.000000E+99

> <Gold.Protein.RotatedTorsions>
[ 6907 6896 6895 6894 ] final  135.67 input  -60.11 | X-H torsion
[ 7974 7965 7964 7962 ] final  102.93 input  175.53 | X-H torsion
[ 8008 7997 7996 7995 ] final   91.28 input   59.86 | X-H torsion
[ 10167 10162 10161 10158 ] final -103.72 input  -65.29 | X-H torsion
[ 10718 10713 10712 10709 ] final  -12.57 input   66.30 | X-H torsion
[ 10763 10752 10751 10750 ] final  105.36 input  -60.55 | X-H torsion
[ 11005 11000 10999 10996 ] final   75.22 input  -57.11 | X-H torsion

> <Gold.Protein.ActiveResidues>
 VAL166  LYS551  ARG553  GLY616  TRP617  ASP618  TYR619  PRO620  LYS621  CYS622 
 ASP623  PHE694  ASN695  SER759  ASP760  ASP761  ALA762  ILE779  LEU786  VAL792 
 PHE793  MET794  SER795  GLU796  ALA797  LYS798  CYS799  TRP800  GLU811  SER814 

> <Gold.Protein.RotatedAtoms>
  152.2978  133.5625  159.5598 H   0  0  0  0  0  0  0  0  0  0  0  0  # atno 6907 bound_to 6896
  150.7264  134.0335  159.3750 H   0  0  0  0  0  0  0  0  0  0  0  0  # atno 6908 bound_to 6896
  151.8237  135.0644  160.0479 H   0  0  0  0  0  0  0  0  0  0  0  0  # atno 6909 bound_to 6896
  145.3526  139.2436  143.3550 H   0  0  0  0  0  0  0  0  0  0  0  0  # atno 7974 bound_to 7965
  156.0219  140.3339  155.7047 H   0  0  0  0  0  0  0  0  0  0  0  0  # atno 8008 bound_to 7997
  155.6010  140.0655  157.2750 H   0  0  0  0  0  0  0  0  0  0  0  0  # atno 8009 bound_to 7997
  154.4319  140.1810  156.1161 H   0  0  0  0  0  0  0  0  0  0  0  0  # atno 8010 bound_to 7997
  140.2169  143.3704  152.1003 H   0  0  0  0  0  0  0  0  0  0  0  0  # atno 10167 bound_to 10162
  156.6427  130.4932  149.6089 H   0  0  0  0  0  0  0  0  0  0  0  0  # atno 10718 bound_to 10713
  153.3783  135.3912  155.1838 H   0  0  0  0  0  0  0  0  0  0  0  0  # atno 10763 bound_to 10752
  154.8704  135.3719  154.4890 H   0  0  0  0  0  0  0  0  0  0  0  0  # atno 10764 bound_to 10752
  153.5364  135.7085  153.5719 H   0  0  0  0  0  0  0  0  0  0  0  0  # atno 10765 bound_to 10752
  139.9354  134.7499  156.1244 H   0  0  0  0  0  0  0  0  0  0  0  0  # atno 11005 bound_to 11000
  146.2961  140.4145  142.8721 LP  0  0  0  0  0  0  0  0  0  0  0  0  # atno 17320 bound_to 7965
  144.8706  140.7267  143.6049 LP  0  0  0  0  0  0  0  0  0  0  0  0  # atno 17321 bound_to 7965
  139.5158  144.6969  151.5605 LP  0  0  0  0  0  0  0  0  0  0  0  0  # atno 17342 bound_to 10162
  140.6283  143.9126  150.6583 LP  0  0  0  0  0  0  0  0  0  0  0  0  # atno 17343 bound_to 10162
  156.2146  130.6700  151.1305 LP  0  0  0  0  0  0  0  0  0  0  0  0  # atno 17370 bound_to 10713
  157.7166  131.0706  150.6303 LP  0  0  0  0  0  0  0  0  0  0  0  0  # atno 17371 bound_to 10713
  141.0965  133.6694  156.2656 LP  0  0  0  0  0  0  0  0  0  0  0  0  # atno 17394 bound_to 11000
  140.6090  134.5478  157.5530 LP  0  0  0  0  0  0  0  0  0  0  0  0  # atno 17395 bound_to 11000

$$$$
