#       Name:                AV-unprocessed.smi:434
#       Creating user name   scv26
#       Creation time:       Thu Mar 26 22:52:19 2020


#       File generated by GOLD software.
#

@<TRIPOS>MOLECULE
AV-unprocessed.smi:434
    46    48     1
SMALL
NO_CHARGES


@<TRIPOS>ATOM
      1 ****        -1.8747   1.2153   2.8255 C.3            1 S1                 0.0000
      2 ****        -2.4080   1.4469   1.4516 C.2            1 S1                 0.0000
      3 ****        -3.7230   1.5480   1.1088 N.pl3          1 S1                 1.0000
      4 ****        -3.8373   1.7659  -0.2648 C.ar           1 S1                 0.0000
      5 ****        -4.9603   1.9304  -1.0698 C.ar           1 S1                 0.0000
      6 ****        -4.7286   2.1314  -2.4463 C.ar           1 S1                 0.0000
      7 ****        -3.4212   2.1624  -2.9734 C.ar           1 S1                 0.0000
      8 ****        -2.2903   1.9964  -2.1469 C.ar           1 S1                 0.0000
      9 ****        -2.5274   1.7993  -0.7864 C.ar           1 S1                 0.0000
     10 ****        -1.6787   1.6002   0.3098 N.pl3          1 S1                 0.0000
     11 ****        -0.2199   1.5805   0.1132 C.3            1 S1                 0.0000
     12 ****         0.3429   0.1554  -0.0603 C.3            1 S1                 0.0000
     13 ****        -0.2169  -0.4306  -1.2185 O.3            1 S1                 0.0000
     14 ****         1.8719   0.1571  -0.2103 C.3            1 S1                 0.0000
     15 ****         2.3645  -1.1351   0.1025 O.3            1 S1                 0.0000
     16 ****         3.7747  -1.2242  -0.0045 C.3            1 S1                 0.0000
     17 ****         4.1382  -2.6281   0.3414 C.2            1 S1                 0.0000
     18 ****         4.4200  -3.2637   1.5190 C.2            1 S1                 0.0000
     19 ****         4.6887  -4.6206   1.1878 C.2            1 S1                 0.0000
     20 ****         4.5505  -4.7114  -0.1680 C.2            1 S1                 0.0000
     21 ****         4.2144  -3.5045  -0.6998 O.3            1 S1                 0.0000
     22 ****        -2.6886   1.0303   3.5269 H              1 S1                 0.0000
     23 ****        -1.3170   2.0889   3.1633 H              1 S1                 0.0000
     24 ****        -1.2092   0.3521   2.8325 H              1 S1                 0.0000
     25 ****        -5.9626   1.9038  -0.6684 H              1 S1                 0.0000
     26 ****        -5.5702   2.2624  -3.1112 H              1 S1                 0.0000
     27 ****        -3.2822   2.3146  -4.0339 H              1 S1                 0.0000
     28 ****        -1.2943   2.0148  -2.5636 H              1 S1                 0.0000
     29 ****         0.0412   2.2170  -0.7326 H              1 S1                 0.0000
     30 ****         0.2258   2.0499   0.9911 H              1 S1                 0.0000
     31 ****         0.0633  -0.4442   0.8070 H              1 S1                 0.0000
     32 ****         0.1328  -1.3044  -1.3075 H              1 S1                 0.0000
     33 ****         2.1706   0.4675  -1.2134 H              1 S1                 0.0000
     34 ****         2.3095   0.8683   0.4921 H              1 S1                 0.0000
     35 ****         4.1014  -0.9832  -1.0173 H              1 S1                 0.0000
     36 ****         4.2582  -0.5277   0.6819 H              1 S1                 0.0000
     37 ****         4.4299  -2.8080   2.4980 H              1 S1                 0.0000
     38 ****         4.9494  -5.4278   1.8563 H              1 S1                 0.0000
     39 ****         4.6493  -5.5177  -0.8798 H              1 S1                 0.0000
     40 ****        -4.4859   1.4716   1.7693 H              1 S1                 0.0000
     41 ****         0.0233   0.1133  -2.0226 LP             1 S1                 0.0000
     42 ****        -1.2121  -0.4720  -1.1293 LP             1 S1                 0.0000
     43 ****         1.9537  -1.7949  -0.5268 LP             1 S1                 0.0000
     44 ****         2.1001  -1.3597   1.0404 LP             1 S1                 0.0000
     45 ****         4.9132  -3.2074  -1.3505 LP             1 S1                 0.0000
     46 ****         3.3310  -3.5660  -1.1644 LP             1 S1                 0.0000
@<TRIPOS>BOND
    1    1    2 1     
    2    1   22 1     
    3    1   23 1     
    4    1   24 1     
    5    2   10 1     
    6    2    3 2     
    7    3    4 1     
    8    3   40 1     
    9    4    9 ar    
   10    4    5 ar    
   11    5    6 ar    
   12    5   25 1     
   13    6    7 ar    
   14    6   26 1     
   15    7    8 ar    
   16    7   27 1     
   17    8    9 ar    
   18    8   28 1     
   19    9   10 1     
   20   10   11 1     
   21   11   12 1     
   22   11   29 1     
   23   11   30 1     
   24   12   13 1     
   25   12   14 1     
   26   12   31 1     
   27   13   32 1     
   28   14   15 1     
   29   14   33 1     
   30   14   34 1     
   31   15   16 1     
   32   16   17 1     
   33   16   35 1     
   34   16   36 1     
   35   17   21 1     
   36   17   18 2     
   37   18   19 1     
   38   18   37 1     
   39   19   20 2     
   40   19   38 1     
   41   20   21 1     
   42   20   39 1     
   43   13   41 1     
   44   13   42 1     
   45   15   43 1     
   46   15   44 1     
   47   21   45 1     
   48   21   46 1     
@<TRIPOS>SUBSTRUCTURE
      1 S1             1
@<TRIPOS>SET
LONE_PAIRS      STATIC     ATOMS    <user>   **** ""
6 41 42 43 44 45 46
DONOR_HYDROGENS      STATIC     ATOMS    <user>   **** ""
2 40 32
ATOM$BLUE        STATIC     ATOMS    COLORGROUP SYSTEM
6 41 42 43 44 45 46
ATOM$RED        STATIC     ATOMS    COLORGROUP SYSTEM
2 40 32
