#       Name:                AV-unprocessed.smi:2662
#       Creating user name   scv26
#       Creation time:       Fri Mar 27 14:33:47 2020


#       File generated by GOLD software.
#

@<TRIPOS>MOLECULE
AV-unprocessed.smi:2662
    41    43     1
SMALL
NO_CHARGES


@<TRIPOS>ATOM
      1 ****        -1.4968   3.5516   0.7390 O.3            1 S1                 0.0000
      2 ****        -1.4778   3.0101  -0.5628 C.3            1 S1                 0.0000
      3 ****        -1.9291   1.5860  -0.5916 C.2            1 S1                 0.0000
      4 ****        -3.2278   1.1717  -0.5787 N.pl3          1 S1                 1.0000
      5 ****        -3.2813  -0.2221  -0.5980 C.ar           1 S1                 0.0000
      6 ****        -4.3664  -1.0933  -0.5923 C.ar           1 S1                 0.0000
      7 ****        -4.0707  -2.4722  -0.6144 C.ar           1 S1                 0.0000
      8 ****        -2.7398  -2.9376  -0.6409 C.ar           1 S1                 0.0000
      9 ****        -1.6479  -2.0445  -0.6457 C.ar           1 S1                 0.0000
     10 ****        -1.9495  -0.6829  -0.6238 C.ar           1 S1                 0.0000
     11 ****        -1.1490   0.4648  -0.6164 N.pl3          1 S1                 0.0000
     12 ****         0.3147   0.3073  -0.6238 C.3            1 S1                 0.0000
     13 ****         0.8927  -0.0084   0.7703 C.3            1 S1                 0.0000
     14 ****         0.5124   1.0017   1.6858 O.3            1 S1                 0.0000
     15 ****         2.4006  -0.2108   0.7042 C.ar           1 S1                 0.0000
     16 ****         3.2841   0.8801   0.8699 C.ar           1 S1                 0.0000
     17 ****         4.6769   0.6862   0.7944 C.ar           1 S1                 0.0000
     18 ****         5.5158   1.7365   0.9563 F              1 S1                 0.0000
     19 ****         5.1970  -0.5981   0.5472 C.ar           1 S1                 0.0000
     20 ****         4.3232  -1.6880   0.3733 C.ar           1 S1                 0.0000
     21 ****         2.9297  -1.4965   0.4492 C.ar           1 S1                 0.0000
     22 ****         2.1019  -2.5539   0.2686 F              1 S1                 0.0000
     23 ****        -1.1776   4.4403   0.6999 H              1 S1                 0.0000
     24 ****        -2.1302   3.6052  -1.2021 H              1 S1                 0.0000
     25 ****        -0.4721   3.0977  -0.9715 H              1 S1                 0.0000
     26 ****        -5.3867  -0.7390  -0.5709 H              1 S1                 0.0000
     27 ****        -4.8807  -3.1871  -0.6097 H              1 S1                 0.0000
     28 ****        -2.5522  -4.0015  -0.6567 H              1 S1                 0.0000
     29 ****        -0.6320  -2.4111  -0.6634 H              1 S1                 0.0000
     30 ****         0.5700  -0.4782  -1.3363 H              1 S1                 0.0000
     31 ****         0.7549   1.2229  -1.0180 H              1 S1                 0.0000
     32 ****         0.4446  -0.9308   1.1409 H              1 S1                 0.0000
     33 ****         0.7808   0.7380   2.5529 H              1 S1                 0.0000
     34 ****         2.9000   1.8731   1.0522 H              1 S1                 0.0000
     35 ****         6.2652  -0.7465   0.4867 H              1 S1                 0.0000
     36 ****         4.7221  -2.6724   0.1777 H              1 S1                 0.0000
     37 ****        -4.0187   1.8021  -0.5498 H              1 S1                 0.0000
     38 ****        -0.9091   3.0084   1.3386 LP             1 S1                 0.0000
     39 ****        -2.4319   3.5446   1.0933 LP             1 S1                 0.0000
     40 ****        -0.4801   1.1220   1.6620 LP             1 S1                 0.0000
     41 ****         0.9584   1.8629   1.4421 LP             1 S1                 0.0000
@<TRIPOS>BOND
    1    1    2 1     
    2    1   23 1     
    3    2    3 1     
    4    2   24 1     
    5    2   25 1     
    6    3   11 1     
    7    3    4 2     
    8    4    5 1     
    9    4   37 1     
   10    5   10 ar    
   11    5    6 ar    
   12    6    7 ar    
   13    6   26 1     
   14    7    8 ar    
   15    7   27 1     
   16    8    9 ar    
   17    8   28 1     
   18    9   10 ar    
   19    9   29 1     
   20   10   11 1     
   21   11   12 1     
   22   12   13 1     
   23   12   30 1     
   24   12   31 1     
   25   13   14 1     
   26   13   15 1     
   27   13   32 1     
   28   14   33 1     
   29   15   21 ar    
   30   15   16 ar    
   31   16   17 ar    
   32   16   34 1     
   33   17   18 1     
   34   17   19 ar    
   35   19   20 ar    
   36   19   35 1     
   37   20   21 ar    
   38   20   36 1     
   39   21   22 1     
   40    1   38 1     
   41    1   39 1     
   42   14   40 1     
   43   14   41 1     
@<TRIPOS>SUBSTRUCTURE
      1 S1             1
@<TRIPOS>SET
LONE_PAIRS      STATIC     ATOMS    <user>   **** ""
4 38 39 40 41
DONOR_HYDROGENS      STATIC     ATOMS    <user>   **** ""
3 23 37 33
ATOM$BLUE        STATIC     ATOMS    COLORGROUP SYSTEM
4 38 39 40 41
ATOM$RED        STATIC     ATOMS    COLORGROUP SYSTEM
3 23 37 33
