AV-unprocessed.smi:1255|AV-procd|sdf|5281|dock2
  -GOLD-   22720 4403D 1   1.00000     0.00000
 Structure written by MMmdl.
 40 41  0  0  0  0  0  0  0  0  1 V2000
  146.7780  138.4192  151.0434 C   0  0  0  0  0  0  0  0  0  0  0  0
  146.2663  138.0012  152.4322 C   0  0  2  0  0  0  0  0  0  0  0  0
  144.8190  138.2089  152.4626 N   0  0  0  0  0  0  0  0  0  0  0  0
  143.9116  137.2613  152.7403 C   0  0  0  0  0  0  0  0  0  0  0  0
  142.6648  137.7338  152.7290 N   0  0  0  0  0  0  0  0  0  0  0  0
  144.1817  136.0865  152.9823 O   0  0  0  0  0  0  0  0  0  0  0  0
  146.9623  138.8837  153.4822 C   0  0  0  0  0  0  0  0  0  0  0  0
  146.3061  139.6949  154.1369 O   0  0  0  0  0  0  0  0  0  0  0  0
  148.2883  138.6937  153.6106 N   0  0  0  0  0  0  0  0  0  0  0  0
  149.1990  139.3506  154.4815 C   0  0  0  0  0  0  0  0  0  0  0  0
  150.6058  139.2308  154.4032 C   0  0  0  0  0  0  0  0  0  0  0  0
  151.4023  139.9182  155.3388 C   0  0  0  0  0  0  0  0  0  0  0  0
  150.7783  140.7019  156.3379 C   0  0  0  0  0  0  0  0  0  0  0  0
  151.5592  141.4000  157.2848 N   0  0  0  0  0  0  0  0  0  0  0  0
  151.8131  140.6996  158.5415 C   0  0  0  0  0  0  0  0  0  0  0  0
  152.9170  141.4150  159.3394 C   0  0  0  0  0  0  0  0  0  0  0  0
  152.5696  142.7832  159.5271 O   0  0  0  0  0  0  0  0  0  0  0  0
  152.4380  143.4708  158.2876 C   0  0  0  0  0  0  0  0  0  0  0  0
  151.3127  142.8307  157.4578 C   0  0  0  0  0  0  0  0  0  0  0  0
  149.4289  140.8077  156.4145 N   0  0  0  0  0  0  0  0  0  0  0  0
  148.6690  140.1461  155.5167 C   0  0  0  0  0  0  0  0  0  0  0  0
  147.8569  138.2810  150.9606 H   0  0  0  0  0  0  0  0  0  0  0  0
  146.5588  139.4659  150.8262 H   0  0  0  0  0  0  0  0  0  0  0  0
  146.3144  137.8173  150.2610 H   0  0  0  0  0  0  0  0  0  0  0  0
  146.4960  136.9478  152.6056 H   0  0  0  0  0  0  0  0  0  0  0  0
  144.4915  139.1469  152.2841 H   0  0  0  0  0  0  0  0  0  0  0  0
  141.8860  137.1198  152.9170 H   0  0  0  0  0  0  0  0  0  0  0  0
  142.5053  138.7099  152.5250 H   0  0  0  0  0  0  0  0  0  0  0  0
  148.6792  137.9394  153.0647 H   0  0  0  0  0  0  0  0  0  0  0  0
  151.0897  138.6209  153.6566 H   0  0  0  0  0  0  0  0  0  0  0  0
  152.4773  139.8443  155.2711 H   0  0  0  0  0  0  0  0  0  0  0  0
  150.8900  140.6754  159.1223 H   0  0  0  0  0  0  0  0  0  0  0  0
  152.1099  139.6650  158.3761 H   0  0  0  0  0  0  0  0  0  0  0  0
  153.0395  140.9437  160.3146 H   0  0  0  0  0  0  0  0  0  0  0  0
  153.8775  141.3395  158.8269 H   0  0  0  0  0  0  0  0  0  0  0  0
  152.2096  144.5184  158.4841 H   0  0  0  0  0  0  0  0  0  0  0  0
  153.3838  143.4475  157.7436 H   0  0  0  0  0  0  0  0  0  0  0  0
  151.2548  143.3248  156.4871 H   0  0  0  0  0  0  0  0  0  0  0  0
  150.3530  142.9746  157.9564 H   0  0  0  0  0  0  0  0  0  0  0  0
  147.6006  140.2613  155.6279 H   0  0  0  0  0  0  0  0  0  0  0  0
  1  2  1  0  0  0  0
  1 22  1  0  0  0  0
  1 23  1  0  0  0  0
  1 24  1  0  0  0  0
  2  3  1  0  0  0  0
  2  7  1  0  0  0  0
  2 25  1  0  0  0  0
  3  4  1  0  0  0  0
  3 26  1  0  0  0  0
  4  5  1  0  0  0  0
  4  6  2  0  0  0  0
  5 27  1  0  0  0  0
  5 28  1  0  0  0  0
  7  8  2  0  0  0  0
  7  9  1  0  0  0  0
  9 10  1  0  0  0  0
  9 29  1  0  0  0  0
 10 21  1  0  0  0  0
 10 11  2  0  0  0  0
 11 12  1  0  0  0  0
 11 30  1  0  0  0  0
 12 13  2  0  0  0  0
 12 31  1  0  0  0  0
 13 14  1  0  0  0  0
 13 20  1  0  0  0  0
 14 19  1  0  0  0  0
 14 15  1  0  0  0  0
 15 16  1  0  0  0  0
 15 32  1  0  0  0  0
 15 33  1  0  0  0  0
 16 17  1  0  0  0  0
 16 34  1  0  0  0  0
 16 35  1  0  0  0  0
 17 18  1  0  0  0  0
 18 19  1  0  0  0  0
 18 36  1  0  0  0  0
 18 37  1  0  0  0  0
 19 38  1  0  0  0  0
 19 39  1  0  0  0  0
 20 21  2  0  0  0  0
 21 40  1  0  0  0  0
M  END
> <s_m_source_file>
AV-unprocessed.smi

> <i_m_source_file_index>
1255

> <i_lp_mmshare_version>
43012

> <i_f3d_flags>
0

> <s_epik_input>
W05IMl1DKD1PKVtOSF1bQ0BASF0oW0NIM10pQyg9TylbTkhdYzFbY0hdW2NIXWMobltjSF0xKU4yW0NIMl1bQ0gyXU9bQ0gyXVtDSDJdMg==

> <s_epik_cmdline>
J2VwaWtfcHl0aG9uJywgJy1waCcsICc3LjAnLCAnLXRuJywgJzgnLCAnLW1hJywgJzIwMCcsICctbWV0YWxfYmluZGluZycsICctaW1hZScsICc8aW5maWxlLm1hZT4nLCAnLW9tYWUnLCAnPG91dGZpbGUubWFlPic=

> <r_lp_tautomer_probability>
1

> <r_epik_Ionization_Penalty>
0.00069351

> <r_epik_Ionization_Penalty_Charging>
0

> <r_epik_Ionization_Penalty_Neutral>
0.00069351

> <r_epik_State_Penalty>
0.000408291

> <r_epik_Charging_Adjusted_Penalty>
0.000408291

> <i_epik_Tot_Q>
0

> <i_epik_Tot_abs_Q>
0

> <r_epik_Metal_State_Penalty>
-0

> <b_epik_Metal_Only>
0

> <s_lp_Force_Field>
OPLS_2005

> <r_lp_Energy>
17.9712

> <b_lp_Chiralities_Consistent>
1

> <s_lp_Variant>
AV-unprocessed.smi:1255-1

> <Gold.Version>
5.8.1

> <Gold.Id.Protein>
6NUR|6NUR_protein|mol2

> <Gold.PLP.Fitness>
39.6402

> <Gold.PLP.PLP>
-32.4846

> <Gold.PLP.part.hbond>
-4.9610

> <Gold.PLP.part.metal>
0.0000

> <Gold.PLP.part.buried>
3.5987

> <Gold.PLP.part.nonpolar>
-30.6760

> <Gold.PLP.part.repulsive>
0.3617

> <Gold.PLP.ligand.clash>
0.0000

> <Gold.PLP.ligand.torsion>
0.5221

> <Gold.PLP.Chemscore.Hbond>
2.6101

> <Gold.PLP.Chemscore.CHOScore>
0.0000

> <Gold.PLP.Chemscore.Metal>
0.0000

> <Gold.Chemscore.Hbonds>
donor molecule, donor type, donor heavy atom, donor atom, acceptor molecule, acceptor atom, score
      L1  H     3    26       P1 10175  1.00
      L1  H     5    28       P1 10175  0.74
      L1  H     9    29       P1  7948  0.86

> <Gold.PLP.Chemscore.Internal.Correction>
0.3696

> <Gold.Rescore>
     Score         DG    S(hbond)    S(metal)    S(lipo)     H(rot)  DE(clash)    DE(int)     intcor
     15.46     -18.00       2.53        0.00      76.47       1.91       0.69       1.85       ----

> <Gold.Chemscore.Fitness>
15.4560

> <Gold.Chemscore.DG>
-17.9971

> <Gold.Chemscore.ZeroCoef>
-5.4800

> <Gold.Chemscore.Hbond>
2.5302

> <Gold.Chemscore.Metal>
0.0000

> <Gold.Chemscore.Lipo>
76.4733

> <Gold.Chemscore.Internal_Hbond>
0.0000

> <Gold.Chemscore.DEClash>
0.6930

> <Gold.Chemscore.DEInternal>
1.8480

> <Gold.Chemscore.Rot>
1.9067

> <Gold.Chemscore.Internal.Correction>
   9.000000E+99

> <Gold.Chemscore.Hbonds>
donor molecule, donor type, donor heavy atom, donor atom, acceptor molecule, acceptor atom, score
      L1  H     3    26       P1 10175  0.94
      L1  H     5    28       P1 10175  0.69
      L1  H     9    29       P1  7948  0.84

> <Gold.Chemscore.Hbond.Weighted>
-8.4508

> <Gold.Chemscore.Metal.Weighted>
-0.0000

> <Gold.Chemscore.Lipo.Weighted>
-8.9474

> <Gold.Chemscore.Internal_Hbond.Weighted>
0.0000

> <Gold.Chemscore.DEClash.Weighted>
0.6930

> <Gold.Chemscore.DEInternal.Weighted>
1.8480

> <Gold.Chemscore.Rot.Weighted>
4.8811

> <Gold.Chemscore.Internal.Correction.Weighted>
   9.000000E+99

> <Gold.Protein.RotatedTorsions>
[ 6907 6896 6895 6894 ] final   27.76 input  -60.11 | X-H torsion
[ 7974 7965 7964 7962 ] final  110.91 input  175.53 | X-H torsion
[ 8008 7997 7996 7995 ] final  158.29 input   59.86 | X-H torsion
[ 10167 10162 10161 10158 ] final  123.44 input  -65.29 | X-H torsion
[ 10718 10713 10712 10709 ] final  142.19 input   66.30 | X-H torsion
[ 10763 10752 10751 10750 ] final  -75.36 input  -60.55 | X-H torsion
[ 11005 11000 10999 10996 ] final   40.29 input  -57.11 | X-H torsion

> <Gold.Protein.ActiveResidues>
 VAL166  LYS551  ARG553  GLY616  TRP617  ASP618  TYR619  PRO620  LYS621  CYS622 
 ASP623  PHE694  ASN695  SER759  ASP760  ASP761  ALA762  ILE779  LEU786  VAL792 
 PHE793  MET794  SER795  GLU796  ALA797  LYS798  CYS799  TRP800  GLU811  SER814 

> <Gold.Protein.RotatedAtoms>
  152.0070  134.9897  160.0566 H   0  0  0  0  0  0  0  0  0  0  0  0  # atno 6907 bound_to 6896
  152.1465  133.4490  159.4800 H   0  0  0  0  0  0  0  0  0  0  0  0  # atno 6908 bound_to 6896
  150.6870  134.2160  159.4421 H   0  0  0  0  0  0  0  0  0  0  0  0  # atno 6909 bound_to 6896
  145.2490  139.2747  143.4077 H   0  0  0  0  0  0  0  0  0  0  0  0  # atno 7974 bound_to 7965
  156.2312  140.1862  156.7237 H   0  0  0  0  0  0  0  0  0  0  0  0  # atno 8008 bound_to 7997
  154.6026  140.0634  156.9416 H   0  0  0  0  0  0  0  0  0  0  0  0  # atno 8009 bound_to 7997
  155.2149  140.3303  155.4326 H   0  0  0  0  0  0  0  0  0  0  0  0  # atno 8010 bound_to 7997
  139.5799  144.6981  151.3554 H   0  0  0  0  0  0  0  0  0  0  0  0  # atno 10167 bound_to 10162
  157.3834  131.0995  151.0716 H   0  0  0  0  0  0  0  0  0  0  0  0  # atno 10718 bound_to 10713
  154.4855  135.5833  153.6421 H   0  0  0  0  0  0  0  0  0  0  0  0  # atno 10763 bound_to 10752
  152.9854  135.6100  154.3191 H   0  0  0  0  0  0  0  0  0  0  0  0  # atno 10764 bound_to 10752
  154.3086  135.2845  155.2556 H   0  0  0  0  0  0  0  0  0  0  0  0  # atno 10765 bound_to 10752
  140.1945  134.3946  155.8129 H   0  0  0  0  0  0  0  0  0  0  0  0  # atno 11005 bound_to 11000
  146.3308  140.2875  142.8613 LP  0  0  0  0  0  0  0  0  0  0  0  0  # atno 17320 bound_to 7965
  144.9520  140.8188  143.5566 LP  0  0  0  0  0  0  0  0  0  0  0  0  # atno 17321 bound_to 7965
  140.7079  143.7467  150.7514 LP  0  0  0  0  0  0  0  0  0  0  0  0  # atno 17342 bound_to 10162
  140.0997  143.4799  152.2432 LP  0  0  0  0  0  0  0  0  0  0  0  0  # atno 17343 bound_to 10162
  157.1777  130.6295  149.5661 LP  0  0  0  0  0  0  0  0  0  0  0  0  # atno 17370 bound_to 10713
  155.9781  130.4764  150.6635 LP  0  0  0  0  0  0  0  0  0  0  0  0  # atno 17371 bound_to 10713
  141.2227  133.7063  156.8152 LP  0  0  0  0  0  0  0  0  0  0  0  0  # atno 17394 bound_to 11000
  140.2123  134.8818  157.3287 LP  0  0  0  0  0  0  0  0  0  0  0  0  # atno 17395 bound_to 11000

$$$$
