AV-unprocessed.smi:845|AV-procd|sdf|3928|dock10
  -GOLD-   22720 1393D 1   1.00000     0.00000
 Structure written by MMmdl.
 43 44  0  0  0  0  0  0  0  0  2 V2000
  144.8848  139.9228  155.3967 C   0  0  0  0  0  0  0  0  0  0  0  0
  146.3298  140.4437  155.2703 C   0  0  0  0  0  0  0  0  0  0  0  0
  146.3066  141.8187  154.5762 C   0  0  0  0  0  0  0  0  0  0  0  0
  147.2533  139.4286  154.5340 C   0  0  1  0  0  0  0  0  0  0  0  0
  147.0515  139.3550  152.9937 C   0  0  0  0  0  0  0  0  0  0  0  0
  147.0729  137.9919  152.4633 N   0  0  0  0  0  0  0  0  0  0  0  0
  145.9991  137.2139  152.2660 C   0  0  0  0  0  0  0  0  0  0  0  0
  144.8496  137.5619  152.5365 O   0  0  0  0  0  0  0  0  0  0  0  0
  146.3494  136.0230  151.7498 N   0  0  0  0  0  0  0  0  0  0  0  0
  145.5083  134.9250  151.4290 C   0  0  0  0  0  0  0  0  0  0  0  0
  144.1735  134.9447  151.5227 N   0  0  0  0  0  0  0  0  0  0  0  0
  143.6034  133.7257  151.1466 C   0  0  0  0  0  0  0  0  0  0  0  0
  144.5257  132.7816  150.7689 C   0  0  0  0  0  0  0  0  0  0  0  0
  146.1567  133.3897  150.8710 S   0  0  0  0  0  0  0  0  0  0  0  0
  148.6840  139.5885  154.9394 N   0  3  0  0  0  0  0  0  0  0  0  0
  149.6252  138.6671  154.2570 C   0  0  0  0  0  0  0  0  0  0  0  0
  151.0140  138.7577  154.9123 C   0  0  0  0  0  0  0  0  0  0  0  0
  151.4768  140.1029  154.8756 O   0  0  0  0  0  0  0  0  0  0  0  0
  150.6179  140.9873  155.5866 C   0  0  0  0  0  0  0  0  0  0  0  0
  149.2214  140.9715  154.9448 C   0  0  0  0  0  0  0  0  0  0  0  0
  144.4486  139.7211  154.4179 H   0  0  0  0  0  0  0  0  0  0  0  0
  144.2477  140.6530  155.8968 H   0  0  0  0  0  0  0  0  0  0  0  0
  144.8313  139.0050  155.9824 H   0  0  0  0  0  0  0  0  0  0  0  0
  146.7048  140.5993  156.2820 H   0  0  0  0  0  0  0  0  0  0  0  0
  145.9679  141.7355  153.5429 H   0  0  0  0  0  0  0  0  0  0  0  0
  147.2890  142.2900  154.5673 H   0  0  0  0  0  0  0  0  0  0  0  0
  145.6330  142.5056  155.0893 H   0  0  0  0  0  0  0  0  0  0  0  0
  146.9589  138.4489  154.9140 H   0  0  0  0  0  0  0  0  0  0  0  0
  146.1533  139.8945  152.6933 H   0  0  0  0  0  0  0  0  0  0  0  0
  147.8708  139.8841  152.5063 H   0  0  0  0  0  0  0  0  0  0  0  0
  147.9767  137.6213  152.2079 H   0  0  0  0  0  0  0  0  0  0  0  0
  147.3319  135.8825  151.5662 H   0  0  0  0  0  0  0  0  0  0  0  0
  142.5294  133.6167  151.1779 H   0  0  0  0  0  0  0  0  0  0  0  0
  144.3450  131.7694  150.4384 H   0  0  0  0  0  0  0  0  0  0  0  0
  149.2615  137.6409  154.3185 H   0  0  0  0  0  0  0  0  0  0  0  0
  149.7009  138.9197  153.1990 H   0  0  0  0  0  0  0  0  0  0  0  0
  150.9819  138.4017  155.9433 H   0  0  0  0  0  0  0  0  0  0  0  0
  151.7232  138.1242  154.3792 H   0  0  0  0  0  0  0  0  0  0  0  0
  150.5680  140.7017  156.6384 H   0  0  0  0  0  0  0  0  0  0  0  0
  151.0373  141.9927  155.5488 H   0  0  0  0  0  0  0  0  0  0  0  0
  149.3003  141.3465  153.9253 H   0  0  0  0  0  0  0  0  0  0  0  0
  148.5577  141.6414  155.4906 H   0  0  0  0  0  0  0  0  0  0  0  0
  148.6998  139.2955  155.9058 H   0  0  0  0  0  0  0  0  0  0  0  0
  1  2  1  0  0  0  0
  1 21  1  0  0  0  0
  1 22  1  0  0  0  0
  1 23  1  0  0  0  0
  2  3  1  0  0  0  0
  2  4  1  0  0  0  0
  2 24  1  0  0  0  0
  3 25  1  0  0  0  0
  3 26  1  0  0  0  0
  3 27  1  0  0  0  0
  4  5  1  0  0  0  0
  4 15  1  0  0  0  0
  4 28  1  0  0  0  0
  5  6  1  0  0  0  0
  5 29  1  0  0  0  0
  5 30  1  0  0  0  0
  6  7  1  0  0  0  0
  6 31  1  0  0  0  0
  7  8  2  0  0  0  0
  7  9  1  0  0  0  0
  9 10  1  0  0  0  0
  9 32  1  0  0  0  0
 10 14  1  0  0  0  0
 10 11  2  0  0  0  0
 11 12  1  0  0  0  0
 12 13  2  0  0  0  0
 12 33  1  0  0  0  0
 13 14  1  0  0  0  0
 13 34  1  0  0  0  0
 15 20  1  0  0  0  0
 15 16  1  0  0  0  0
 15 43  1  0  0  0  0
 16 17  1  0  0  0  0
 16 35  1  0  0  0  0
 16 36  1  0  0  0  0
 17 18  1  0  0  0  0
 17 37  1  0  0  0  0
 17 38  1  0  0  0  0
 18 19  1  0  0  0  0
 19 20  1  0  0  0  0
 19 39  1  0  0  0  0
 19 40  1  0  0  0  0
 20 41  1  0  0  0  0
 20 42  1  0  0  0  0
M  CHG  1  15   1
M  END
> <s_m_source_file>
AV-unprocessed.smi

> <i_m_source_file_index>
845

> <i_lp_mmshare_version>
43012

> <i_f3d_flags>
0

> <s_epik_input>
W0NIMl0xW0NIMl1PW0NIMl1bQ0gyXU4xW0NASF0oW0NIXShbQ0gzXSlbQ0gzXSlbQ0gyXVtOSF1DKD1PKVtOSF1jMm5bY0hdW2NIXXMy

> <s_epik_cmdline>
J2VwaWtfcHl0aG9uJywgJy1waCcsICc3LjAnLCAnLXRuJywgJzgnLCAnLW1hJywgJzIwMCcsICctbWV0YWxfYmluZGluZycsICctaW1hZScsICc8aW5maWxlLm1hZT4nLCAnLW9tYWUnLCAnPG91dGZpbGUubWFlPic=

> <r_lp_tautomer_probability>
0.999

> <r_epik_Ionization_Penalty>
0.398341

> <r_epik_Ionization_Penalty_Charging>
0.398119

> <r_epik_Ionization_Penalty_Neutral>
0.000222117

> <r_epik_State_Penalty>
0.397286

> <r_epik_Charging_Adjusted_Penalty>
0.795404

> <i_epik_Tot_Q>
1

> <i_epik_Tot_abs_Q>
1

> <r_epik_Metal_State_Penalty>
0.407542

> <b_epik_Metal_Only>
0

> <s_lp_Force_Field>
OPLS_2005

> <r_lp_Energy>
31.69

> <b_lp_Chiralities_Consistent>
1

> <s_lp_Variant>
AV-unprocessed.smi:845-2

> <Gold.Version>
5.8.1

> <Gold.Id.Protein>
6NUR|6NUR_protein|mol2

> <Gold.PLP.Fitness>
40.7320

> <Gold.PLP.PLP>
-31.4060

> <Gold.PLP.part.hbond>
-2.6803

> <Gold.PLP.part.metal>
0.0000

> <Gold.PLP.part.buried>
-3.4271

> <Gold.PLP.part.nonpolar>
-25.6623

> <Gold.PLP.part.repulsive>
0.6579

> <Gold.PLP.ligand.clash>
0.0000

> <Gold.PLP.ligand.torsion>
1.2673

> <Gold.PLP.Chemscore.Hbond>
2.9033

> <Gold.PLP.Chemscore.CHOScore>
0.9573

> <Gold.PLP.Chemscore.Metal>
0.0000

> <Gold.Chemscore.Hbonds>
donor molecule, donor type, donor heavy atom, donor atom, acceptor molecule, acceptor atom, score
      L1  H     6    31       P1  7948  0.98
      L1  H     9    32       P1  7948  1.00
      P1  H  7989  7998       L1    18  1.00
      L1  C    12    33       P1 10186  0.93

> <Gold.PLP.Chemscore.Internal.Correction>
0.2790

> <Gold.Rescore>
     Score         DG    S(hbond)    S(metal)    S(lipo)     H(rot)  DE(clash)    DE(int)     intcor
     14.93     -17.80       2.72        0.00      67.14       1.80       0.13       2.73       ----

> <Gold.Chemscore.Fitness>
14.9289

> <Gold.Chemscore.DG>
-17.7954

> <Gold.Chemscore.ZeroCoef>
-5.4800

> <Gold.Chemscore.Hbond>
2.7183

> <Gold.Chemscore.Metal>
0.0000

> <Gold.Chemscore.Lipo>
67.1446

> <Gold.Chemscore.Internal_Hbond>
0.0000

> <Gold.Chemscore.DEClash>
0.1339

> <Gold.Chemscore.DEInternal>
2.7326

> <Gold.Chemscore.Rot>
1.8046

> <Gold.Chemscore.Internal.Correction>
   9.000000E+99

> <Gold.Chemscore.Hbonds>
donor molecule, donor type, donor heavy atom, donor atom, acceptor molecule, acceptor atom, score
      L1  H     6    31       P1  7948  0.93
      L1  H     9    32       P1  7948  0.97
      P1  H  7989  7998       L1    18  0.33

> <Gold.Chemscore.Hbond.Weighted>
-9.0792

> <Gold.Chemscore.Metal.Weighted>
-0.0000

> <Gold.Chemscore.Lipo.Weighted>
-7.8559

> <Gold.Chemscore.Internal_Hbond.Weighted>
0.0000

> <Gold.Chemscore.DEClash.Weighted>
0.1339

> <Gold.Chemscore.DEInternal.Weighted>
2.7326

> <Gold.Chemscore.Rot.Weighted>
4.6197

> <Gold.Chemscore.Internal.Correction.Weighted>
   9.000000E+99

> <Gold.Protein.RotatedTorsions>
[ 6907 6896 6895 6894 ] final  -17.15 input  -60.11 | X-H torsion
[ 7974 7965 7964 7962 ] final -124.87 input  175.53 | X-H torsion
[ 8008 7997 7996 7995 ] final   -8.59 input   59.86 | X-H torsion
[ 10167 10162 10161 10158 ] final   -6.66 input  -65.29 | X-H torsion
[ 10718 10713 10712 10709 ] final   38.85 input   66.30 | X-H torsion
[ 10763 10752 10751 10750 ] final  -34.66 input  -60.55 | X-H torsion
[ 11005 11000 10999 10996 ] final   96.96 input  -57.11 | X-H torsion

> <Gold.Protein.ActiveResidues>
 VAL166  LYS551  ARG553  GLY616  TRP617  ASP618  TYR619  PRO620  LYS621  CYS622 
 ASP623  PHE694  ASN695  SER759  ASP760  ASP761  ALA762  ILE779  LEU786  VAL792 
 PHE793  MET794  SER795  GLU796  ALA797  LYS798  CYS799  TRP800  GLU811  SER814 

> <Gold.Protein.RotatedAtoms>
  151.2977  135.0760  159.9226 H   0  0  0  0  0  0  0  0  0  0  0  0  # atno 6907 bound_to 6896
  152.5304  133.9866  159.7841 H   0  0  0  0  0  0  0  0  0  0  0  0  # atno 6908 bound_to 6896
  151.0147  133.5881  159.2709 H   0  0  0  0  0  0  0  0  0  0  0  0  # atno 6909 bound_to 6896
  145.0035  140.7842  143.4482 H   0  0  0  0  0  0  0  0  0  0  0  0  # atno 7974 bound_to 7965
  154.5727  140.2377  155.8168 H   0  0  0  0  0  0  0  0  0  0  0  0  # atno 8008 bound_to 7997
  156.2119  140.3023  155.9709 H   0  0  0  0  0  0  0  0  0  0  0  0  # atno 8009 bound_to 7997
  155.2683  140.0417  157.2995 H   0  0  0  0  0  0  0  0  0  0  0  0  # atno 8010 bound_to 7997
  140.7004  143.6169  150.8650 H   0  0  0  0  0  0  0  0  0  0  0  0  # atno 10167 bound_to 10162
  157.3637  130.7663  149.7066 H   0  0  0  0  0  0  0  0  0  0  0  0  # atno 10718 bound_to 10713
  153.8504  135.6849  153.4793 H   0  0  0  0  0  0  0  0  0  0  0  0  # atno 10763 bound_to 10752
  153.1400  135.4661  154.9479 H   0  0  0  0  0  0  0  0  0  0  0  0  # atno 10764 bound_to 10752
  154.7805  135.3267  154.7949 H   0  0  0  0  0  0  0  0  0  0  0  0  # atno 10765 bound_to 10752
  139.8778  134.8977  156.4236 H   0  0  0  0  0  0  0  0  0  0  0  0  # atno 11005 bound_to 11000
  145.2120  139.2200  143.5138 LP  0  0  0  0  0  0  0  0  0  0  0  0  # atno 17320 bound_to 7965
  146.3456  140.1960  142.8589 LP  0  0  0  0  0  0  0  0  0  0  0  0  # atno 17321 bound_to 7965
  139.9891  143.5867  152.2916 LP  0  0  0  0  0  0  0  0  0  0  0  0  # atno 17342 bound_to 10162
  139.6515  144.7661  151.2138 LP  0  0  0  0  0  0  0  0  0  0  0  0  # atno 17343 bound_to 10162
  155.9742  130.4107  150.3942 LP  0  0  0  0  0  0  0  0  0  0  0  0  # atno 17370 bound_to 10713
  157.2022  131.0441  151.2644 LP  0  0  0  0  0  0  0  0  0  0  0  0  # atno 17371 bound_to 10713
  140.9116  133.7707  155.9799 LP  0  0  0  0  0  0  0  0  0  0  0  0  # atno 17394 bound_to 11000
  140.8540  134.2920  157.5263 LP  0  0  0  0  0  0  0  0  0  0  0  0  # atno 17395 bound_to 11000

$$$$
