AV-unprocessed.smi:3170|AV-procd|sdf|12108|dock3
  -GOLD-   2272017543D 1   1.00000     0.00000
 Structure written by MMmdl.
 36 37  0  0  0  0  0  0  0  0  2 V2000
  145.8514  138.0016  154.4033 O   0  0  0  0  0  0  0  0  0  0  0  0
  146.6355  137.4826  153.6084 C   0  0  0  0  0  0  0  0  0  0  0  0
  146.2795  136.5692  152.6945 N   0  0  0  0  0  0  0  0  0  0  0  0
  144.9231  136.0682  152.5080 C   0  0  0  0  0  0  0  0  0  0  0  0
  144.6671  135.6584  151.0482 C   0  0  0  0  0  0  0  0  0  0  0  0
  145.0988  134.2845  150.7895 N   0  0  0  0  0  0  0  0  0  0  0  0
  144.3266  133.2356  150.3614 C   0  0  0  0  0  0  0  0  0  0  0  0
  145.1605  132.1511  150.2653 C   0  0  0  0  0  0  0  0  0  0  0  0
  146.4046  132.5840  150.6396 N   0  3  0  0  0  0  0  0  0  0  0  0
  146.3647  133.8817  150.9588 C   0  0  0  0  0  0  0  0  0  0  0  0
  147.9457  137.7584  153.5559 N   0  0  0  0  0  0  0  0  0  0  0  0
  148.6350  138.7055  154.4258 C   0  0  0  0  0  0  0  0  0  0  0  0
  150.1609  138.6824  154.2143 C   0  0  1  0  0  0  0  0  0  0  0  0
  150.9534  139.5216  155.1973 C   0  0  0  0  0  0  0  0  0  0  0  0
  152.3524  138.9306  155.0543 C   0  0  0  0  0  0  0  0  0  0  0  0
  152.1619  137.5536  154.7411 O   0  0  0  0  0  0  0  0  0  0  0  0
  150.7950  137.3076  154.4230 C   0  0  0  0  0  0  0  0  0  0  0  0
  146.9935  136.2006  152.0834 H   0  0  0  0  0  0  0  0  0  0  0  0
  144.7441  135.2271  153.1803 H   0  0  0  0  0  0  0  0  0  0  0  0
  144.2266  136.8536  152.8023 H   0  0  0  0  0  0  0  0  0  0  0  0
  143.6053  135.7281  150.8080 H   0  0  0  0  0  0  0  0  0  0  0  0
  145.1965  136.3146  150.3554 H   0  0  0  0  0  0  0  0  0  0  0  0
  143.2693  133.3360  150.1627 H   0  0  0  0  0  0  0  0  0  0  0  0
  144.9667  131.1310  149.9672 H   0  0  0  0  0  0  0  0  0  0  0  0
  147.1916  134.4851  151.2894 H   0  0  0  0  0  0  0  0  0  0  0  0
  148.5083  137.2800  152.8676 H   0  0  0  0  0  0  0  0  0  0  0  0
  148.2417  139.7011  154.2184 H   0  0  0  0  0  0  0  0  0  0  0  0
  148.3957  138.4922  155.4690 H   0  0  0  0  0  0  0  0  0  0  0  0
  150.3966  139.0170  153.2027 H   0  0  0  0  0  0  0  0  0  0  0  0
  150.9209  140.5890  154.9769 H   0  0  0  0  0  0  0  0  0  0  0  0
  150.5853  139.3697  156.2131 H   0  0  0  0  0  0  0  0  0  0  0  0
  152.8820  139.4037  154.2266 H   0  0  0  0  0  0  0  0  0  0  0  0
  152.9521  139.0558  155.9561 H   0  0  0  0  0  0  0  0  0  0  0  0
  150.3354  136.7924  155.2676 H   0  0  0  0  0  0  0  0  0  0  0  0
  150.6996  136.6677  153.5456 H   0  0  0  0  0  0  0  0  0  0  0  0
  147.2360  132.0074  150.6720 H   0  0  0  0  0  0  0  0  0  0  0  0
  1  2  2  0  0  0  0
  2  3  1  0  0  0  0
  2 11  1  0  0  0  0
  3  4  1  0  0  0  0
  3 18  1  0  0  0  0
  4  5  1  0  0  0  0
  4 19  1  0  0  0  0
  4 20  1  0  0  0  0
  5  6  1  0  0  0  0
  5 21  1  0  0  0  0
  5 22  1  0  0  0  0
  6 10  1  0  0  0  0
  6  7  1  0  0  0  0
  7  8  2  0  0  0  0
  7 23  1  0  0  0  0
  8  9  1  0  0  0  0
  8 24  1  0  0  0  0
  9 10  2  0  0  0  0
  9 36  1  0  0  0  0
 10 25  1  0  0  0  0
 11 12  1  0  0  0  0
 11 26  1  0  0  0  0
 12 13  1  0  0  0  0
 12 27  1  0  0  0  0
 12 28  1  0  0  0  0
 13 17  1  0  0  0  0
 13 14  1  0  0  0  0
 13 29  1  0  0  0  0
 14 15  1  0  0  0  0
 14 30  1  0  0  0  0
 14 31  1  0  0  0  0
 15 16  1  0  0  0  0
 15 32  1  0  0  0  0
 15 33  1  0  0  0  0
 16 17  1  0  0  0  0
 17 34  1  0  0  0  0
 17 35  1  0  0  0  0
M  CHG  1   9   1
M  END
> <s_m_source_file>
AV-unprocessed.smi

> <i_m_source_file_index>
3170

> <i_lp_mmshare_version>
43012

> <i_f3d_flags>
0

> <s_epik_input>
W0NIMl0xT1tDSDJdW0NIMl1bQ0BIXTFbQ0gyXVtOSF1DKD1PKVtOSF1bQ0gyXVtDSDJdbjJbY0hdW2NIXW5bY0hdMg==

> <s_epik_cmdline>
J2VwaWtfcHl0aG9uJywgJy1waCcsICc3LjAnLCAnLXRuJywgJzgnLCAnLW1hJywgJzIwMCcsICctbWV0YWxfYmluZGluZycsICctaW1hZScsICc8aW5maWxlLm1hZT4nLCAnLW9tYWUnLCAnPG91dGZpbGUubWFlPic=

> <r_lp_tautomer_probability>
1

> <r_epik_Ionization_Penalty>
0.255699

> <r_epik_Ionization_Penalty_Charging>
0

> <r_epik_Ionization_Penalty_Neutral>
0.255699

> <r_epik_State_Penalty>
0.247169

> <r_epik_Charging_Adjusted_Penalty>
0.247169

> <i_epik_Tot_Q>
1

> <i_epik_Tot_abs_Q>
1

> <r_epik_Metal_State_Penalty>
0.536793

> <b_epik_Metal_Only>
0

> <s_lp_Force_Field>
OPLS_2005

> <r_lp_Energy>
18.8209

> <b_lp_Chiralities_Consistent>
1

> <s_lp_Variant>
AV-unprocessed.smi:3170-2

> <Gold.Version>
5.8.1

> <Gold.Id.Protein>
6NUR|6NUR_protein|mol2

> <Gold.PLP.Fitness>
46.5481

> <Gold.PLP.PLP>
-31.4436

> <Gold.PLP.part.hbond>
-3.5267

> <Gold.PLP.part.metal>
0.0000

> <Gold.PLP.part.buried>
-4.4313

> <Gold.PLP.part.nonpolar>
-24.6583

> <Gold.PLP.part.repulsive>
0.3020

> <Gold.PLP.ligand.clash>
0.0000

> <Gold.PLP.ligand.torsion>
0.3653

> <Gold.PLP.Chemscore.Hbond>
3.3033

> <Gold.PLP.Chemscore.CHOScore>
1.9697

> <Gold.PLP.Chemscore.Metal>
0.0000

> <Gold.Chemscore.Hbonds>
donor molecule, donor type, donor heavy atom, donor atom, acceptor molecule, acceptor atom, score
      L1  H     3    18       P1  7948  0.83
      L1  H     9    36       P1 10747  0.78
      L1  H    11    26       P1  7948  0.94
      P1  H 10752 10764       L1    16  0.66
      L1  C     7    23       P1 10186  0.87
      L1  C    10    25       P1  7948  1.00

> <Gold.PLP.Chemscore.Internal.Correction>
0.0163

> <Gold.Rescore>
     Score         DG    S(hbond)    S(metal)    S(lipo)     H(rot)  DE(clash)    DE(int)     intcor
     17.39     -17.97       3.43        0.00      59.66       2.33       0.14       0.44       ----

> <Gold.Chemscore.Fitness>
17.3919

> <Gold.Chemscore.DG>
-17.9710

> <Gold.Chemscore.ZeroCoef>
-5.4800

> <Gold.Chemscore.Hbond>
3.4347

> <Gold.Chemscore.Metal>
0.0000

> <Gold.Chemscore.Lipo>
59.6638

> <Gold.Chemscore.Internal_Hbond>
0.0000

> <Gold.Chemscore.DEClash>
0.1425

> <Gold.Chemscore.DEInternal>
0.4365

> <Gold.Chemscore.Rot>
2.3288

> <Gold.Chemscore.Internal.Correction>
   9.000000E+99

> <Gold.Chemscore.Hbonds>
donor molecule, donor type, donor heavy atom, donor atom, acceptor molecule, acceptor atom, score
      L1  H     3    18       P1  7948  0.81
      L1  H     9    36       P1 10747  0.77
      L1  H    11    26       P1  7948  0.90
      P1  H 10752 10764       L1    16  0.17

> <Gold.Chemscore.Hbond.Weighted>
-11.4720

> <Gold.Chemscore.Metal.Weighted>
-0.0000

> <Gold.Chemscore.Lipo.Weighted>
-6.9807

> <Gold.Chemscore.Internal_Hbond.Weighted>
0.0000

> <Gold.Chemscore.DEClash.Weighted>
0.1425

> <Gold.Chemscore.DEInternal.Weighted>
0.4365

> <Gold.Chemscore.Rot.Weighted>
5.9617

> <Gold.Chemscore.Internal.Correction.Weighted>
   9.000000E+99

> <Gold.Protein.RotatedTorsions>
[ 6907 6896 6895 6894 ] final -175.80 input  -60.11 | X-H torsion
[ 7974 7965 7964 7962 ] final  167.19 input  175.53 | X-H torsion
[ 8008 7997 7996 7995 ] final   23.41 input   59.86 | X-H torsion
[ 10167 10162 10161 10158 ] final   84.30 input  -65.29 | X-H torsion
[ 10718 10713 10712 10709 ] final -137.70 input   66.30 | X-H torsion
[ 10763 10752 10751 10750 ] final  -70.27 input  -60.55 | X-H torsion
[ 11005 11000 10999 10996 ] final  -87.99 input  -57.11 | X-H torsion

> <Gold.Protein.ActiveResidues>
 VAL166  LYS551  ARG553  GLY616  TRP617  ASP618  TYR619  PRO620  LYS621  CYS622 
 ASP623  PHE694  ASN695  SER759  ASP760  ASP761  ALA762  ILE779  LEU786  VAL792 
 PHE793  MET794  SER795  GLU796  ALA797  LYS798  CYS799  TRP800  GLU811  SER814 

> <Gold.Protein.RotatedAtoms>
  151.5944  133.3363  159.3034 H   0  0  0  0  0  0  0  0  0  0  0  0  # atno 6907 bound_to 6896
  150.8242  134.7469  159.6810 H   0  0  0  0  0  0  0  0  0  0  0  0  # atno 6908 bound_to 6896
  152.4333  134.5741  159.9981 H   0  0  0  0  0  0  0  0  0  0  0  0  # atno 6909 bound_to 6896
  144.7433  139.8725  143.6390 H   0  0  0  0  0  0  0  0  0  0  0  0  # atno 7974 bound_to 7965
  154.9805  140.3101  155.4948 H   0  0  0  0  0  0  0  0  0  0  0  0  # atno 8008 bound_to 7997
  156.2954  140.2267  156.4844 H   0  0  0  0  0  0  0  0  0  0  0  0  # atno 8009 bound_to 7997
  154.7793  140.0447  157.1103 H   0  0  0  0  0  0  0  0  0  0  0  0  # atno 8010 bound_to 7997
  139.9095  144.6280  150.8552 H   0  0  0  0  0  0  0  0  0  0  0  0  # atno 10167 bound_to 10162
  156.2910  130.7375  151.1400 H   0  0  0  0  0  0  0  0  0  0  0  0  # atno 10718 bound_to 10713
  154.4153  135.5999  153.5977 H   0  0  0  0  0  0  0  0  0  0  0  0  # atno 10763 bound_to 10752
  152.9791  135.5939  154.4021 H   0  0  0  0  0  0  0  0  0  0  0  0  # atno 10764 bound_to 10752
  154.3839  135.2841  155.2173 H   0  0  0  0  0  0  0  0  0  0  0  0  # atno 10765 bound_to 10752
  141.1609  133.7543  156.9386 H   0  0  0  0  0  0  0  0  0  0  0  0  # atno 11005 bound_to 11000
  146.1270  139.4298  143.0192 LP  0  0  0  0  0  0  0  0  0  0  0  0  # atno 17320 bound_to 7965
  145.7220  141.0072  143.1397 LP  0  0  0  0  0  0  0  0  0  0  0  0  # atno 17321 bound_to 7965
  140.7688  143.3376  151.2275 LP  0  0  0  0  0  0  0  0  0  0  0  0  # atno 17342 bound_to 10162
  139.6955  143.9620  152.2880 LP  0  0  0  0  0  0  0  0  0  0  0  0  # atno 17343 bound_to 10162
  157.7342  131.0584  150.5535 LP  0  0  0  0  0  0  0  0  0  0  0  0  # atno 17370 bound_to 10713
  156.5651  130.4265  149.6045 LP  0  0  0  0  0  0  0  0  0  0  0  0  # atno 17371 bound_to 10713
  140.1337  134.9339  157.2372 LP  0  0  0  0  0  0  0  0  0  0  0  0  # atno 17394 bound_to 11000
  140.2921  134.3228  155.7312 LP  0  0  0  0  0  0  0  0  0  0  0  0  # atno 17395 bound_to 11000

$$$$
