AV-unprocessed.smi:2655|AV-procd|sdf|10300|dock10
  -GOLD-   2272014313D 1   1.00000     0.00000
 Structure written by MMmdl.
 34 35  0  0  0  0  0  0  0  0  1 V2000
  148.7836  141.5386  154.2864 C   0  0  0  0  0  0  0  0  0  0  0  0
  149.4044  140.1770  154.4153 C   0  0  0  0  0  0  0  0  0  0  0  0
  150.6740  140.0849  154.7985 N   0  0  0  0  0  0  0  0  0  0  0  0
  150.9200  138.7616  154.8263 N   0  0  0  0  0  0  0  0  0  0  0  0
  149.8156  138.0342  154.4657 C   0  0  0  0  0  0  0  0  0  0  0  0
  149.8526  136.6751  154.4369 O   0  0  0  0  0  0  0  0  0  0  0  0
  148.8001  138.9012  154.1844 C   0  0  0  0  0  0  0  0  0  0  0  0
  147.3929  138.5943  153.7488 C   0  0  0  0  0  0  0  0  0  0  0  0
  146.3887  138.8314  154.8884 C   0  0  0  0  0  0  0  0  0  0  0  0
  145.0189  138.9060  154.3937 N   0  0  0  0  0  0  0  0  0  0  0  0
  144.0148  138.1115  154.7927 C   0  0  0  0  0  0  0  0  0  0  0  0
  144.1481  137.2178  155.6293 O   0  0  0  0  0  0  0  0  0  0  0  0
  142.8674  138.4186  154.1632 N   0  0  0  0  0  0  0  0  0  0  0  0
  141.6030  137.7948  154.3187 C   0  0  0  0  0  0  0  0  0  0  0  0
  140.4139  138.4366  153.8809 C   0  0  0  0  0  0  0  0  0  0  0  0
  139.4408  137.5309  154.1977 C   0  0  0  0  0  0  0  0  0  0  0  0
  137.9603  137.5299  154.0269 C   0  0  0  0  0  0  0  0  0  0  0  0
  139.9890  136.4312  154.7820 O   0  0  0  0  0  0  0  0  0  0  0  0
  141.3759  136.6063  154.8565 N   0  0  0  0  0  0  0  0  0  0  0  0
  147.8535  141.5013  153.7197 H   0  0  0  0  0  0  0  0  0  0  0  0
  149.4521  142.2314  153.7745 H   0  0  0  0  0  0  0  0  0  0  0  0
  148.5566  141.9572  155.2671 H   0  0  0  0  0  0  0  0  0  0  0  0
  151.8201  138.3854  155.0879 H   0  0  0  0  0  0  0  0  0  0  0  0
  147.3195  137.5611  153.4072 H   0  0  0  0  0  0  0  0  0  0  0  0
  147.1162  139.2056  152.8893 H   0  0  0  0  0  0  0  0  0  0  0  0
  146.4718  138.0448  155.6405 H   0  0  0  0  0  0  0  0  0  0  0  0
  146.6157  139.7698  155.3951 H   0  0  0  0  0  0  0  0  0  0  0  0
  144.8230  139.6139  153.7010 H   0  0  0  0  0  0  0  0  0  0  0  0
  142.9030  139.1770  153.4983 H   0  0  0  0  0  0  0  0  0  0  0  0
  140.2913  139.4006  153.4100 H   0  0  0  0  0  0  0  0  0  0  0  0
  137.6370  138.3738  153.4172 H   0  0  0  0  0  0  0  0  0  0  0  0
  137.4609  137.5989  154.9934 H   0  0  0  0  0  0  0  0  0  0  0  0
  137.6280  136.6138  153.5383 H   0  0  0  0  0  0  0  0  0  0  0  0
  149.6644  136.3994  153.5527 H   0  0  0  0  0  0  0  0  0  0  0  0
  1 20  1  0  0  0  0
  1 21  1  0  0  0  0
  1 22  1  0  0  0  0
  1  2  1  0  0  0  0
  2  7  1  0  0  0  0
  2  3  2  0  0  0  0
  3  4  1  0  0  0  0
  4 23  1  0  0  0  0
  4  5  1  0  0  0  0
  5  7  2  0  0  0  0
  5  6  1  0  0  0  0
  6 34  1  0  0  0  0
  7  8  1  0  0  0  0
  8  9  1  0  0  0  0
  8 24  1  0  0  0  0
  8 25  1  0  0  0  0
  9 10  1  0  0  0  0
  9 26  1  0  0  0  0
  9 27  1  0  0  0  0
 10 11  1  0  0  0  0
 10 28  1  0  0  0  0
 11 12  2  0  0  0  0
 11 13  1  0  0  0  0
 13 14  1  0  0  0  0
 13 29  1  0  0  0  0
 14 19  2  0  0  0  0
 14 15  1  0  0  0  0
 15 16  2  0  0  0  0
 15 30  1  0  0  0  0
 16 17  1  0  0  0  0
 16 18  1  0  0  0  0
 17 31  1  0  0  0  0
 17 32  1  0  0  0  0
 17 33  1  0  0  0  0
 18 19  1  0  0  0  0
M  END
> <s_m_source_file>
AV-unprocessed.smi

> <i_m_source_file_index>
2655

> <i_lp_mmshare_version>
43012

> <i_f3d_flags>
0

> <s_epik_input>
W0NIM11DMT1OW05IXUMoPU8pW0NASF0xW0NIMl1bQ0gyXVtOSF1DKD1PKVtOSF1jMltjSF1jKFtDSDNdKW9uMg==

> <s_epik_cmdline>
J2VwaWtfcHl0aG9uJywgJy1waCcsICc3LjAnLCAnLXRuJywgJzgnLCAnLW1hJywgJzIwMCcsICctbWV0YWxfYmluZGluZycsICctaW1hZScsICc8aW5maWxlLm1hZT4nLCAnLW9tYWUnLCAnPG91dGZpbGUubWFlPic=

> <r_lp_tautomer_probability>
0.0227396

> <r_epik_Ionization_Penalty>
3.51829

> <r_epik_Ionization_Penalty_Charging>
0

> <r_epik_Ionization_Penalty_Neutral>
3.51829

> <r_epik_State_Penalty>
1.61027

> <r_epik_Charging_Adjusted_Penalty>
1.61027

> <i_epik_Tot_Q>
0

> <i_epik_Tot_abs_Q>
0

> <r_epik_Metal_State_Penalty>
3.01397

> <b_epik_Metal_Only>
0

> <s_lp_Force_Field>
OPLS_2005

> <r_lp_Energy>
-1.25166

> <b_lp_Chiralities_Consistent>
1

> <s_lp_Variant>
AV-unprocessed.smi:2655-3

> <Gold.Version>
5.8.1

> <Gold.Id.Protein>
6NUR|6NUR_protein|mol2

> <Gold.PLP.Fitness>
42.6059

> <Gold.PLP.PLP>
-28.4762

> <Gold.PLP.part.hbond>
-5.9734

> <Gold.PLP.part.metal>
0.0000

> <Gold.PLP.part.buried>
-4.4599

> <Gold.PLP.part.nonpolar>
-18.7804

> <Gold.PLP.part.repulsive>
0.2880

> <Gold.PLP.ligand.clash>
0.0000

> <Gold.PLP.ligand.torsion>
0.2913

> <Gold.PLP.Chemscore.Hbond>
4.9000

> <Gold.PLP.Chemscore.CHOScore>
0.0000

> <Gold.PLP.Chemscore.Metal>
0.0000

> <Gold.Chemscore.Hbonds>
donor molecule, donor type, donor heavy atom, donor atom, acceptor molecule, acceptor atom, score
      L1  H     6    34       P1  7948  1.00
      L1  H    10    28       P1 10175  1.00
      L1  H    13    29       P1 10175  1.00
      P1  H  7989  7998       L1     3  1.00
      P1  H 11000 11005       L1    18  0.60

> <Gold.PLP.Chemscore.Internal.Correction>
0.0122

> <Gold.Rescore>
     Score         DG    S(hbond)    S(metal)    S(lipo)     H(rot)  DE(clash)    DE(int)     intcor
     13.94     -15.57       3.20        0.00      50.32       2.53       0.06       1.57       ----

> <Gold.Chemscore.Fitness>
13.9413

> <Gold.Chemscore.DG>
-15.5737

> <Gold.Chemscore.ZeroCoef>
-5.4800

> <Gold.Chemscore.Hbond>
3.1999

> <Gold.Chemscore.Metal>
0.0000

> <Gold.Chemscore.Lipo>
50.3193

> <Gold.Chemscore.Internal_Hbond>
0.0000

> <Gold.Chemscore.DEClash>
0.0605

> <Gold.Chemscore.DEInternal>
1.5719

> <Gold.Chemscore.Rot>
2.5318

> <Gold.Chemscore.Internal.Correction>
   9.000000E+99

> <Gold.Chemscore.Hbonds>
donor molecule, donor type, donor heavy atom, donor atom, acceptor molecule, acceptor atom, score
      L1  H     6    34       P1  7948  0.45
      L1  H    10    28       P1 10175  0.96
      L1  H    13    29       P1 10175  0.99
      P1  H  7989  7998       L1     3  0.41
      P1  H 11000 11005       L1    18  0.06

> <Gold.Chemscore.Hbond.Weighted>
-10.6878

> <Gold.Chemscore.Metal.Weighted>
-0.0000

> <Gold.Chemscore.Lipo.Weighted>
-5.8874

> <Gold.Chemscore.Internal_Hbond.Weighted>
0.0000

> <Gold.Chemscore.DEClash.Weighted>
0.0605

> <Gold.Chemscore.DEInternal.Weighted>
1.5719

> <Gold.Chemscore.Rot.Weighted>
6.4815

> <Gold.Chemscore.Internal.Correction.Weighted>
   9.000000E+99

> <Gold.Protein.RotatedTorsions>
[ 6907 6896 6895 6894 ] final   -1.69 input  -60.11 | X-H torsion
[ 7974 7965 7964 7962 ] final  -55.94 input  175.53 | X-H torsion
[ 8008 7997 7996 7995 ] final  130.59 input   59.86 | X-H torsion
[ 10167 10162 10161 10158 ] final  -30.55 input  -65.29 | X-H torsion
[ 10718 10713 10712 10709 ] final    7.16 input   66.30 | X-H torsion
[ 10763 10752 10751 10750 ] final  124.21 input  -60.55 | X-H torsion
[ 11005 11000 10999 10996 ] final   64.67 input  -57.11 | X-H torsion

> <Gold.Protein.ActiveResidues>
 VAL166  LYS551  ARG553  GLY616  TRP617  ASP618  TYR619  PRO620  LYS621  CYS622 
 ASP623  PHE694  ASN695  SER759  ASP760  ASP761  ALA762  ILE779  LEU786  VAL792 
 PHE793  MET794  SER795  GLU796  ALA797  LYS798  CYS799  TRP800  GLU811  SER814 

> <Gold.Protein.RotatedAtoms>
  151.5419  135.1068  159.9928 H   0  0  0  0  0  0  0  0  0  0  0  0  # atno 6907 bound_to 6896
  152.4531  133.7665  159.6786 H   0  0  0  0  0  0  0  0  0  0  0  0  # atno 6908 bound_to 6896
  150.8466  133.7786  159.3065 H   0  0  0  0  0  0  0  0  0  0  0  0  # atno 6909 bound_to 6896
  145.8684  140.8234  142.9901 H   0  0  0  0  0  0  0  0  0  0  0  0  # atno 7974 bound_to 7965
  156.2957  140.2592  156.2787 H   0  0  0  0  0  0  0  0  0  0  0  0  # atno 8008 bound_to 7997
  154.9623  140.0392  157.2214 H   0  0  0  0  0  0  0  0  0  0  0  0  # atno 8009 bound_to 7997
  154.7935  140.2816  155.5978 H   0  0  0  0  0  0  0  0  0  0  0  0  # atno 8010 bound_to 7997
  140.7248  143.3840  151.1548 H   0  0  0  0  0  0  0  0  0  0  0  0  # atno 10167 bound_to 10162
  156.9329  130.5832  149.5650 H   0  0  0  0  0  0  0  0  0  0  0  0  # atno 10718 bound_to 10713
  153.6578  135.3351  155.3118 H   0  0  0  0  0  0  0  0  0  0  0  0  # atno 10763 bound_to 10752
  154.8522  135.4356  154.1836 H   0  0  0  0  0  0  0  0  0  0  0  0  # atno 10764 bound_to 10752
  153.2795  135.7007  153.7475 H   0  0  0  0  0  0  0  0  0  0  0  0  # atno 10765 bound_to 10752
  139.9944  134.6541  156.0036 H   0  0  0  0  0  0  0  0  0  0  0  0  # atno 11005 bound_to 11000
  144.6726  140.1201  143.7450 LP  0  0  0  0  0  0  0  0  0  0  0  0  # atno 17320 bound_to 7965
  145.9166  139.2519  143.1406 LP  0  0  0  0  0  0  0  0  0  0  0  0  # atno 17321 bound_to 7965
  139.7434  143.8889  152.3056 LP  0  0  0  0  0  0  0  0  0  0  0  0  # atno 17342 bound_to 10162
  139.8718  144.7064  150.8979 LP  0  0  0  0  0  0  0  0  0  0  0  0  # atno 17343 bound_to 10162
  156.0439  130.5518  150.8835 LP  0  0  0  0  0  0  0  0  0  0  0  0  # atno 17370 bound_to 10713
  157.5835  131.0946  150.9233 LP  0  0  0  0  0  0  0  0  0  0  0  0  # atno 17371 bound_to 10713
  141.1592  133.6540  156.4262 LP  0  0  0  0  0  0  0  0  0  0  0  0  # atno 17394 bound_to 11000
  140.4847  134.6632  157.5186 LP  0  0  0  0  0  0  0  0  0  0  0  0  # atno 17395 bound_to 11000

$$$$
