AV-unprocessed.smi:1655|AV-procd|sdf|6644|dock7
  -GOLD-   22720 7343D 1   1.00000     0.00000
 Structure written by MMmdl.
 34 35  0  0  0  0  0  0  0  0  1 V2000
  150.7641  142.1289  156.5996 C   0  0  0  0  0  0  0  0  0  0  0  0
  150.5159  141.0028  155.6555 C   0  0  0  0  0  0  0  0  0  0  0  0
  149.4037  140.5797  154.9835 C   0  0  0  0  0  0  0  0  0  0  0  0
  149.8750  139.4490  154.2643 C   0  0  0  0  0  0  0  0  0  0  0  0
  149.0057  138.7049  153.4264 N   0  0  0  0  0  0  0  0  0  0  0  0
  147.7041  138.9364  153.1833 C   0  0  0  0  0  0  0  0  0  0  0  0
  147.0445  139.8566  153.6676 O   0  0  0  0  0  0  0  0  0  0  0  0
  147.1993  138.0308  152.3329 N   0  0  0  0  0  0  0  0  0  0  0  0
  145.8193  138.0009  151.8614 C   0  0  0  0  0  0  0  0  0  0  0  0
  144.9736  136.9843  152.6466 C   0  0  0  0  0  0  0  0  0  0  0  0
  145.1259  135.5518  152.1141 C   0  0  2  0  0  0  0  0  0  0  0  0
  144.7984  135.4016  150.6301 C   0  0  0  0  0  0  0  0  0  0  0  0
  144.4111  133.9367  150.4998 C   0  0  0  0  0  0  0  0  0  0  0  0
  144.1509  133.4879  151.9412 C   0  0  0  0  0  0  0  0  0  0  0  0
  144.1852  134.6780  152.7170 O   0  0  0  0  0  0  0  0  0  0  0  0
  151.1595  139.2057  154.4765 N   0  0  0  0  0  0  0  0  0  0  0  0
  151.5767  140.2004  155.3686 O   0  0  0  0  0  0  0  0  0  0  0  0
  149.8299  142.6155  156.8805 H   0  0  0  0  0  0  0  0  0  0  0  0
  151.4124  142.8781  156.1453 H   0  0  0  0  0  0  0  0  0  0  0  0
  151.2456  141.7713  157.5098 H   0  0  0  0  0  0  0  0  0  0  0  0
  148.4140  141.0111  155.0068 H   0  0  0  0  0  0  0  0  0  0  0  0
  149.4207  137.9137  152.9574 H   0  0  0  0  0  0  0  0  0  0  0  0
  147.8135  137.3087  151.9857 H   0  0  0  0  0  0  0  0  0  0  0  0
  145.4021  139.0012  151.9798 H   0  0  0  0  0  0  0  0  0  0  0  0
  145.7925  137.7790  150.7930 H   0  0  0  0  0  0  0  0  0  0  0  0
  145.2456  137.0116  153.7027 H   0  0  0  0  0  0  0  0  0  0  0  0
  143.9235  137.2740  152.5915 H   0  0  0  0  0  0  0  0  0  0  0  0
  146.1335  135.1793  152.3090 H   0  0  0  0  0  0  0  0  0  0  0  0
  143.9442  136.0274  150.3676 H   0  0  0  0  0  0  0  0  0  0  0  0
  145.6311  135.6806  149.9840 H   0  0  0  0  0  0  0  0  0  0  0  0
  143.5266  133.8206  149.8730 H   0  0  0  0  0  0  0  0  0  0  0  0
  145.2163  133.3499  150.0566 H   0  0  0  0  0  0  0  0  0  0  0  0
  143.1960  132.9744  152.0544 H   0  0  0  0  0  0  0  0  0  0  0  0
  144.9404  132.8160  152.2807 H   0  0  0  0  0  0  0  0  0  0  0  0
  1  2  1  0  0  0  0
  1 18  1  0  0  0  0
  1 19  1  0  0  0  0
  1 20  1  0  0  0  0
  2 17  1  0  0  0  0
  2  3  2  0  0  0  0
  3  4  1  0  0  0  0
  3 21  1  0  0  0  0
  4  5  1  0  0  0  0
  4 16  2  0  0  0  0
  5  6  1  0  0  0  0
  5 22  1  0  0  0  0
  6  7  2  0  0  0  0
  6  8  1  0  0  0  0
  8  9  1  0  0  0  0
  8 23  1  0  0  0  0
  9 10  1  0  0  0  0
  9 24  1  0  0  0  0
  9 25  1  0  0  0  0
 10 11  1  0  0  0  0
 10 26  1  0  0  0  0
 10 27  1  0  0  0  0
 11 15  1  0  0  0  0
 11 12  1  0  0  0  0
 11 28  1  0  0  0  0
 12 13  1  0  0  0  0
 12 29  1  0  0  0  0
 12 30  1  0  0  0  0
 13 14  1  0  0  0  0
 13 31  1  0  0  0  0
 13 32  1  0  0  0  0
 14 15  1  0  0  0  0
 14 33  1  0  0  0  0
 14 34  1  0  0  0  0
 16 17  1  0  0  0  0
M  END
> <s_m_source_file>
AV-unprocessed.smi

> <i_m_source_file_index>
1655

> <i_lp_mmshare_version>
43012

> <i_f3d_flags>
0

> <s_epik_input>
W0NIM11jMVtjSF1jKG5vMSlbTkhdQyg9TylbTkhdW0NIMl1bQ0gyXVtDQEBIXTJbQ0gyXVtDSDJdW0NIMl1PMg==

> <s_epik_cmdline>
J2VwaWtfcHl0aG9uJywgJy1waCcsICc3LjAnLCAnLXRuJywgJzgnLCAnLW1hJywgJzIwMCcsICctbWV0YWxfYmluZGluZycsICctaW1hZScsICc8aW5maWxlLm1hZT4nLCAnLW9tYWUnLCAnPG91dGZpbGUubWFlPic=

> <r_lp_tautomer_probability>
1

> <r_epik_Ionization_Penalty>
2.23964e-05

> <r_epik_Ionization_Penalty_Charging>
0

> <r_epik_Ionization_Penalty_Neutral>
2.23964e-05

> <r_epik_State_Penalty>
-0

> <r_epik_Charging_Adjusted_Penalty>
0

> <i_epik_Tot_Q>
0

> <i_epik_Tot_abs_Q>
0

> <r_epik_Metal_State_Penalty>
-0

> <b_epik_Metal_Only>
0

> <s_lp_Force_Field>
OPLS_2005

> <r_lp_Energy>
15.5425

> <b_lp_Chiralities_Consistent>
1

> <s_lp_Variant>
AV-unprocessed.smi:1655-1

> <Gold.Version>
5.8.1

> <Gold.Id.Protein>
6NUR|6NUR_protein|mol2

> <Gold.PLP.Fitness>
33.7693

> <Gold.PLP.PLP>
-28.7051

> <Gold.PLP.part.hbond>
-5.0828

> <Gold.PLP.part.metal>
0.0000

> <Gold.PLP.part.buried>
0.4058

> <Gold.PLP.part.nonpolar>
-25.1935

> <Gold.PLP.part.repulsive>
0.5577

> <Gold.PLP.ligand.clash>
0.0000

> <Gold.PLP.ligand.torsion>
0.2945

> <Gold.PLP.Chemscore.Hbond>
1.8800

> <Gold.PLP.Chemscore.CHOScore>
0.0000

> <Gold.PLP.Chemscore.Metal>
0.0000

> <Gold.Chemscore.Hbonds>
donor molecule, donor type, donor heavy atom, donor atom, acceptor molecule, acceptor atom, score
      L1  H     5    22       P1  7948  0.88
      L1  H     8    23       P1  7948  1.00

> <Gold.PLP.Chemscore.Internal.Correction>
0.0132

> <Gold.Rescore>
     Score         DG    S(hbond)    S(metal)    S(lipo)     H(rot)  DE(clash)    DE(int)     intcor
     11.77     -14.56       1.88        0.00      57.92       1.55       1.08       1.71       ----

> <Gold.Chemscore.Fitness>
11.7710

> <Gold.Chemscore.DG>
-14.5637

> <Gold.Chemscore.ZeroCoef>
-5.4800

> <Gold.Chemscore.Hbond>
1.8790

> <Gold.Chemscore.Metal>
0.0000

> <Gold.Chemscore.Lipo>
57.9199

> <Gold.Chemscore.Internal_Hbond>
0.0000

> <Gold.Chemscore.DEClash>
1.0785

> <Gold.Chemscore.DEInternal>
1.7143

> <Gold.Chemscore.Rot>
1.5503

> <Gold.Chemscore.Internal.Correction>
   9.000000E+99

> <Gold.Chemscore.Hbonds>
donor molecule, donor type, donor heavy atom, donor atom, acceptor molecule, acceptor atom, score
      L1  H     5    22       P1  7948  0.73
      L1  H     8    23       P1  7948  0.95

> <Gold.Chemscore.Hbond.Weighted>
-6.2758

> <Gold.Chemscore.Metal.Weighted>
-0.0000

> <Gold.Chemscore.Lipo.Weighted>
-6.7766

> <Gold.Chemscore.Internal_Hbond.Weighted>
0.0000

> <Gold.Chemscore.DEClash.Weighted>
1.0785

> <Gold.Chemscore.DEInternal.Weighted>
1.7143

> <Gold.Chemscore.Rot.Weighted>
3.9687

> <Gold.Chemscore.Internal.Correction.Weighted>
   9.000000E+99

> <Gold.Protein.RotatedTorsions>
[ 6907 6896 6895 6894 ] final   62.11 input  -60.11 | X-H torsion
[ 7974 7965 7964 7962 ] final   18.30 input  175.53 | X-H torsion
[ 8008 7997 7996 7995 ] final -144.75 input   59.86 | X-H torsion
[ 10167 10162 10161 10158 ] final  141.79 input  -65.29 | X-H torsion
[ 10718 10713 10712 10709 ] final -171.08 input   66.30 | X-H torsion
[ 10763 10752 10751 10750 ] final -171.44 input  -60.55 | X-H torsion
[ 11005 11000 10999 10996 ] final -162.43 input  -57.11 | X-H torsion

> <Gold.Protein.ActiveResidues>
 VAL166  LYS551  ARG553  GLY616  TRP617  ASP618  TYR619  PRO620  LYS621  CYS622 
 ASP623  PHE694  ASN695  SER759  ASP760  ASP761  ALA762  ILE779  LEU786  VAL792 
 PHE793  MET794  SER795  GLU796  ALA797  LYS798  CYS799  TRP800  GLU811  SER814 

> <Gold.Protein.RotatedAtoms>
  152.4145  134.6066  160.0014 H   0  0  0  0  0  0  0  0  0  0  0  0  # atno 6907 bound_to 6896
  151.6234  133.3332  159.3101 H   0  0  0  0  0  0  0  0  0  0  0  0  # atno 6908 bound_to 6896
  150.8034  134.7182  159.6688 H   0  0  0  0  0  0  0  0  0  0  0  0  # atno 6909 bound_to 6896
  146.2189  139.8477  142.8628 H   0  0  0  0  0  0  0  0  0  0  0  0  # atno 7974 bound_to 7965
  155.5320  140.0600  157.2887 H   0  0  0  0  0  0  0  0  0  0  0  0  # atno 8008 bound_to 7997
  154.4481  140.1934  156.0548 H   0  0  0  0  0  0  0  0  0  0  0  0  # atno 8009 bound_to 7997
  156.0645  140.3268  155.7506 H   0  0  0  0  0  0  0  0  0  0  0  0  # atno 8010 bound_to 7997
  139.5011  144.6149  151.6187 H   0  0  0  0  0  0  0  0  0  0  0  0  # atno 10167 bound_to 10162
  156.7356  130.9323  151.3107 H   0  0  0  0  0  0  0  0  0  0  0  0  # atno 10718 bound_to 10713
  154.6305  135.2886  155.0222 H   0  0  0  0  0  0  0  0  0  0  0  0  # atno 10763 bound_to 10752
  154.1384  135.6522  153.4941 H   0  0  0  0  0  0  0  0  0  0  0  0  # atno 10764 bound_to 10752
  153.0277  135.5327  154.7131 H   0  0  0  0  0  0  0  0  0  0  0  0  # atno 10765 bound_to 10752
  140.6093  134.4866  157.5214 H   0  0  0  0  0  0  0  0  0  0  0  0  # atno 11005 bound_to 11000
  145.2834  141.0145  143.3704 LP  0  0  0  0  0  0  0  0  0  0  0  0  # atno 17320 bound_to 7965
  144.9132  139.4502  143.6577 LP  0  0  0  0  0  0  0  0  0  0  0  0  # atno 17321 bound_to 7965
  140.5834  143.9906  150.6281 LP  0  0  0  0  0  0  0  0  0  0  0  0  # atno 17342 bound_to 10162
  140.3063  143.3227  152.0923 LP  0  0  0  0  0  0  0  0  0  0  0  0  # atno 17343 bound_to 10162
  157.6840  130.9168  150.0340 LP  0  0  0  0  0  0  0  0  0  0  0  0  # atno 17370 bound_to 10713
  156.1499  130.3642  149.9453 LP  0  0  0  0  0  0  0  0  0  0  0  0  # atno 17371 bound_to 10713
  139.9199  134.8170  156.1245 LP  0  0  0  0  0  0  0  0  0  0  0  0  # atno 17394 bound_to 11000
  141.0819  133.6751  156.2354 LP  0  0  0  0  0  0  0  0  0  0  0  0  # atno 17395 bound_to 11000

$$$$
