AV-unprocessed.smi:1801|AV-procd|sdf|7269|dock7
  -GOLD-   22720 8523D 1   1.00000     0.00000
 Structure written by MMmdl.
 37 38  0  0  0  0  0  0  0  0  3 V2000
  149.7609  132.7444  154.3236 C   0  0  0  0  0  0  0  0  0  0  0  0
  149.3301  134.2143  154.4583 C   0  0  2  0  0  0  0  0  0  0  0  0
  149.8515  134.8033  155.7885 C   0  0  0  0  0  0  0  0  0  0  0  0
  148.9721  134.5135  156.9182 N   0  0  0  0  0  0  0  0  0  0  0  0
  149.0539  135.0551  158.1418 C   0  0  0  0  0  0  0  0  0  0  0  0
  149.9613  135.8471  158.4056 O   0  0  0  0  0  0  0  0  0  0  0  0
  148.0698  134.6560  158.9780 N   0  5  0  0  0  0  0  0  0  0  0  0
  147.9142  135.2598  160.1679 C   0  0  0  0  0  0  0  0  0  0  0  0
  148.0714  136.5837  160.3271 N   0  0  0  0  0  0  0  0  0  0  0  0
  147.8703  137.0037  161.6350 N   0  0  0  0  0  0  0  0  0  0  0  0
  147.5736  135.9792  162.4342 C   0  0  0  0  0  0  0  0  0  0  0  0
  147.5151  134.4083  161.6626 S   0  0  0  0  0  0  0  0  0  0  0  0
  147.7972  134.3657  154.3134 C   0  0  0  0  0  0  0  0  0  0  0  0
  147.3556  134.3055  152.9003 N   0  3  0  0  0  0  0  0  0  0  0  0
  147.3008  132.9385  152.3438 C   0  0  0  0  0  0  0  0  0  0  0  0
  146.3029  133.0185  151.1934 C   0  0  0  0  0  0  0  0  0  0  0  0
  145.2582  133.9950  151.7225 C   0  0  0  0  0  0  0  0  0  0  0  0
  146.0495  134.9535  152.6219 C   0  0  0  0  0  0  0  0  0  0  0  0
  149.3179  132.1276  155.1060 H   0  0  0  0  0  0  0  0  0  0  0  0
  150.8443  132.6463  154.3984 H   0  0  0  0  0  0  0  0  0  0  0  0
  149.4636  132.3272  153.3614 H   0  0  0  0  0  0  0  0  0  0  0  0
  149.8125  134.7639  153.6501 H   0  0  0  0  0  0  0  0  0  0  0  0
  150.8359  134.3938  156.0168 H   0  0  0  0  0  0  0  0  0  0  0  0
  149.9804  135.8835  155.7033 H   0  0  0  0  0  0  0  0  0  0  0  0
  148.2218  133.8577  156.7550 H   0  0  0  0  0  0  0  0  0  0  0  0
  147.3911  136.1489  163.4848 H   0  0  0  0  0  0  0  0  0  0  0  0
  147.3041  133.5747  154.8805 H   0  0  0  0  0  0  0  0  0  0  0  0
  147.4452  135.3073  154.7365 H   0  0  0  0  0  0  0  0  0  0  0  0
  148.2850  132.5950  152.0239 H   0  0  0  0  0  0  0  0  0  0  0  0
  146.9298  132.2455  153.1012 H   0  0  0  0  0  0  0  0  0  0  0  0
  146.7868  133.4334  150.3079 H   0  0  0  0  0  0  0  0  0  0  0  0
  145.8823  132.0484  150.9267 H   0  0  0  0  0  0  0  0  0  0  0  0
  144.7216  134.5106  150.9256 H   0  0  0  0  0  0  0  0  0  0  0  0
  144.5240  133.4544  152.3218 H   0  0  0  0  0  0  0  0  0  0  0  0
  145.4903  135.1701  153.5340 H   0  0  0  0  0  0  0  0  0  0  0  0
  146.2330  135.9020  152.1164 H   0  0  0  0  0  0  0  0  0  0  0  0
  148.0420  134.8023  152.3508 H   0  0  0  0  0  0  0  0  0  0  0  0
  1  2  1  0  0  0  0
  1 19  1  0  0  0  0
  1 20  1  0  0  0  0
  1 21  1  0  0  0  0
  2  3  1  0  0  0  0
  2 13  1  0  0  0  0
  2 22  1  0  0  0  0
  3  4  1  0  0  0  0
  3 23  1  0  0  0  0
  3 24  1  0  0  0  0
  4  5  1  0  0  0  0
  4 25  1  0  0  0  0
  5  6  2  0  0  0  0
  5  7  1  0  0  0  0
  7  8  1  0  0  0  0
  8 12  1  0  0  0  0
  8  9  2  0  0  0  0
  9 10  1  0  0  0  0
 10 11  2  0  0  0  0
 11 12  1  0  0  0  0
 11 26  1  0  0  0  0
 13 14  1  0  0  0  0
 13 27  1  0  0  0  0
 13 28  1  0  0  0  0
 14 18  1  0  0  0  0
 14 15  1  0  0  0  0
 14 37  1  0  0  0  0
 15 16  1  0  0  0  0
 15 29  1  0  0  0  0
 15 30  1  0  0  0  0
 16 17  1  0  0  0  0
 16 31  1  0  0  0  0
 16 32  1  0  0  0  0
 17 18  1  0  0  0  0
 17 33  1  0  0  0  0
 17 34  1  0  0  0  0
 18 35  1  0  0  0  0
 18 36  1  0  0  0  0
M  CHG  1   7  -1
M  CHG  1  14   1
M  END
> <s_m_source_file>
AV-unprocessed.smi

> <i_m_source_file_index>
1801

> <i_lp_mmshare_version>
43012

> <i_f3d_flags>
0

> <s_epik_input>
W0NIMl0xW0NIMl1bQ0gyXVtDSDJdTjFbQ0gyXVtDQEhdKFtDSDNdKVtDSDJdW05IXUMoPU8pW05IXWMybm5bY0hdczI=

> <s_epik_cmdline>
J2VwaWtfcHl0aG9uJywgJy1waCcsICc3LjAnLCAnLXRuJywgJzgnLCAnLW1hJywgJzIwMCcsICctbWV0YWxfYmluZGluZycsICctaW1hZScsICc8aW5maWxlLm1hZT4nLCAnLW9tYWUnLCAnPG91dGZpbGUubWFlPic=

> <r_lp_tautomer_probability>
1

> <r_epik_Ionization_Penalty>
3.29721

> <r_epik_Ionization_Penalty_Charging>
3.25987

> <r_epik_Ionization_Penalty_Neutral>
0.0373399

> <r_epik_State_Penalty>
3.2571

> <r_epik_Charging_Adjusted_Penalty>
6.51697

> <i_epik_Tot_Q>
0

> <i_epik_Tot_abs_Q>
2

> <r_epik_Metal_State_Penalty>
0.477553

> <b_epik_Metal_Only>
1

> <s_lp_Force_Field>
OPLS_2005

> <r_lp_Energy>
22.4794

> <b_lp_Chiralities_Consistent>
1

> <s_lp_Variant>
AV-unprocessed.smi:1801-3

> <Gold.Version>
5.8.1

> <Gold.Id.Protein>
6NUR|6NUR_protein|mol2

> <Gold.PLP.Fitness>
41.3635

> <Gold.PLP.PLP>
-29.4332

> <Gold.PLP.part.hbond>
-4.0000

> <Gold.PLP.part.metal>
0.0000

> <Gold.PLP.part.buried>
-3.4661

> <Gold.PLP.part.nonpolar>
-21.5513

> <Gold.PLP.part.repulsive>
0.0500

> <Gold.PLP.ligand.clash>
0.0000

> <Gold.PLP.ligand.torsion>
0.9836

> <Gold.PLP.Chemscore.Hbond>
4.5800

> <Gold.PLP.Chemscore.CHOScore>
0.0000

> <Gold.PLP.Chemscore.Metal>
0.0000

> <Gold.Chemscore.Hbonds>
donor molecule, donor type, donor heavy atom, donor atom, acceptor molecule, acceptor atom, score
      L1  H    14    37       P1  7948  2.00
      P1  H  6896  6909       L1     6  0.96
      P1  H  6931  6943       L1    10  1.00
      P1  H  6934  6947       L1    10  0.21

> <Gold.PLP.Chemscore.Internal.Correction>
0.1575

> <Gold.Rescore>
     Score         DG    S(hbond)    S(metal)    S(lipo)     H(rot)  DE(clash)    DE(int)     intcor
     14.93     -17.35       3.14        0.00      53.84       1.93       0.02       2.40       ----

> <Gold.Chemscore.Fitness>
14.9282

> <Gold.Chemscore.DG>
-17.3473

> <Gold.Chemscore.ZeroCoef>
-5.4800

> <Gold.Chemscore.Hbond>
3.1436

> <Gold.Chemscore.Metal>
0.0000

> <Gold.Chemscore.Lipo>
53.8427

> <Gold.Chemscore.Internal_Hbond>
0.0000

> <Gold.Chemscore.DEClash>
0.0171

> <Gold.Chemscore.DEInternal>
2.4019

> <Gold.Chemscore.Rot>
1.9266

> <Gold.Chemscore.Internal.Correction>
   9.000000E+99

> <Gold.Chemscore.Hbonds>
donor molecule, donor type, donor heavy atom, donor atom, acceptor molecule, acceptor atom, score
      L1  H    14    37       P1  7948  0.54
      P1  H  6896  6909       L1     6  0.28
      P1  H  6931  6943       L1    10  0.55
      P1  H  6934  6947       L1    10  0.01

> <Gold.Chemscore.Hbond.Weighted>
-10.4997

> <Gold.Chemscore.Metal.Weighted>
-0.0000

> <Gold.Chemscore.Lipo.Weighted>
-6.2996

> <Gold.Chemscore.Internal_Hbond.Weighted>
0.0000

> <Gold.Chemscore.DEClash.Weighted>
0.0171

> <Gold.Chemscore.DEInternal.Weighted>
2.4019

> <Gold.Chemscore.Rot.Weighted>
4.9321

> <Gold.Chemscore.Internal.Correction.Weighted>
   9.000000E+99

> <Gold.Protein.RotatedTorsions>
[ 6907 6896 6895 6894 ] final   73.74 input  -60.11 | X-H torsion
[ 7974 7965 7964 7962 ] final  -90.35 input  175.53 | X-H torsion
[ 8008 7997 7996 7995 ] final   34.28 input   59.86 | X-H torsion
[ 10167 10162 10161 10158 ] final   96.47 input  -65.29 | X-H torsion
[ 10718 10713 10712 10709 ] final  -12.88 input   66.30 | X-H torsion
[ 10763 10752 10751 10750 ] final   49.44 input  -60.55 | X-H torsion
[ 11005 11000 10999 10996 ] final  110.54 input  -57.11 | X-H torsion

> <Gold.Protein.ActiveResidues>
 VAL166  LYS551  ARG553  GLY616  TRP617  ASP618  TYR619  PRO620  LYS621  CYS622 
 ASP623  PHE694  ASN695  SER759  ASP760  ASP761  ALA762  ILE779  LEU786  VAL792 
 PHE793  MET794  SER795  GLU796  ALA797  LYS798  CYS799  TRP800  GLU811  SER814 

> <Gold.Protein.RotatedAtoms>
  152.4939  134.4375  159.9532 H   0  0  0  0  0  0  0  0  0  0  0  0  # atno 6907 bound_to 6896
  151.4357  133.3651  159.2782 H   0  0  0  0  0  0  0  0  0  0  0  0  # atno 6908 bound_to 6896
  150.9123  134.8563  159.7493 H   0  0  0  0  0  0  0  0  0  0  0  0  # atno 6909 bound_to 6896
  145.4276  140.9554  143.2146 H   0  0  0  0  0  0  0  0  0  0  0  0  # atno 7974 bound_to 7965
  155.1522  140.3276  155.4429 H   0  0  0  0  0  0  0  0  0  0  0  0  # atno 8008 bound_to 7997
  156.2570  140.1975  156.6583 H   0  0  0  0  0  0  0  0  0  0  0  0  # atno 8009 bound_to 7997
  154.6465  140.0564  156.9893 H   0  0  0  0  0  0  0  0  0  0  0  0  # atno 8010 bound_to 7997
  139.7891  144.6859  150.9917 H   0  0  0  0  0  0  0  0  0  0  0  0  # atno 10167 bound_to 10162
  156.6383  130.4921  149.6104 H   0  0  0  0  0  0  0  0  0  0  0  0  # atno 10718 bound_to 10713
  152.9787  135.5911  154.4090 H   0  0  0  0  0  0  0  0  0  0  0  0  # atno 10763 bound_to 10752
  154.3727  135.2767  155.2259 H   0  0  0  0  0  0  0  0  0  0  0  0  # atno 10764 bound_to 10752
  154.4207  135.6059  153.6063 H   0  0  0  0  0  0  0  0  0  0  0  0  # atno 10765 bound_to 10752
  139.8884  134.9486  156.6295 H   0  0  0  0  0  0  0  0  0  0  0  0  # atno 11005 bound_to 11000
  144.8204  139.5802  143.6989 LP  0  0  0  0  0  0  0  0  0  0  0  0  # atno 17320 bound_to 7965
  146.2624  139.6440  142.9353 LP  0  0  0  0  0  0  0  0  0  0  0  0  # atno 17321 bound_to 7965
  140.7820  143.4400  151.0566 LP  0  0  0  0  0  0  0  0  0  0  0  0  # atno 17342 bound_to 10162
  139.8077  143.7994  152.3169 LP  0  0  0  0  0  0  0  0  0  0  0  0  # atno 17343 bound_to 10162
  156.2179  130.6719  151.1338 LP  0  0  0  0  0  0  0  0  0  0  0  0  # atno 17370 bound_to 10713
  157.7179  131.0699  150.6255 LP  0  0  0  0  0  0  0  0  0  0  0  0  # atno 17371 bound_to 10713
  140.7677  133.8764  155.8467 LP  0  0  0  0  0  0  0  0  0  0  0  0  # atno 17394 bound_to 11000
  140.9868  134.1332  157.4445 LP  0  0  0  0  0  0  0  0  0  0  0  0  # atno 17395 bound_to 11000

$$$$
