AV-unprocessed.smi:1554|AV-procd|sdf|6262|dock7
  -GOLD-   22720 6453D 1   1.00000     0.00000
 Structure written by MMmdl.
 49 51  0  0  0  0  0  0  0  0  3 V2000
  152.5780  143.9421  161.7302 C   0  0  0  0  0  0  0  0  0  0  0  0
  152.1675  143.2824  160.4246 C   0  0  0  0  0  0  0  0  0  0  0  0
  152.1840  141.8718  160.3472 C   0  0  0  0  0  0  0  0  0  0  0  0
  151.8014  141.2979  159.1407 C   0  0  0  0  0  0  0  0  0  0  0  0
  151.7100  139.9593  158.7545 N   0  3  0  0  0  0  0  0  0  0  0  0
  151.2865  139.8866  157.4627 C   0  0  0  0  0  0  0  0  0  0  0  0
  151.1013  141.1598  157.0180 N   0  0  0  0  0  0  0  0  0  0  0  0
  150.6609  141.6330  155.6978 C   0  0  0  0  0  0  0  0  0  0  0  0
  149.4555  140.8452  155.1474 C   0  0  2  0  0  0  0  0  0  0  0  0
  149.9622  139.7555  154.4041 O   0  0  0  0  0  0  0  0  0  0  0  0
  148.5260  141.6794  154.2384 C   0  0  0  0  0  0  0  0  0  0  0  0
  147.5127  142.4476  155.0058 N   0  3  2  0  0  0  0  0  0  0  0  0
  146.9327  141.6625  156.1210 C   0  0  0  0  0  0  0  0  0  0  0  0
  145.9359  142.5182  156.9197 C   0  0  0  0  0  0  0  0  0  0  0  0
  144.9240  143.0069  156.0480 O   0  0  0  0  0  0  0  0  0  0  0  0
  145.4521  143.8399  155.0219 C   0  0  2  0  0  0  0  0  0  0  0  0
  144.2809  144.3869  154.1983 C   0  0  0  0  0  0  0  0  0  0  0  0
  146.4337  143.0198  154.1622 C   0  0  0  0  0  0  0  0  0  0  0  0
  151.4139  142.0753  158.0312 C   0  0  0  0  0  0  0  0  0  0  0  0
  151.3929  143.4673  158.0915 C   0  0  0  0  0  0  0  0  0  0  0  0
  151.7761  144.0698  159.3111 C   0  0  0  0  0  0  0  0  0  0  0  0
  151.7601  145.5861  159.4059 C   0  0  0  0  0  0  0  0  0  0  0  0
  152.8697  143.2027  162.4766 H   0  0  0  0  0  0  0  0  0  0  0  0
  151.7523  144.5229  162.1415 H   0  0  0  0  0  0  0  0  0  0  0  0
  153.4267  144.6085  161.5737 H   0  0  0  0  0  0  0  0  0  0  0  0
  152.4810  141.2658  161.1911 H   0  0  0  0  0  0  0  0  0  0  0  0
  151.1282  138.9816  156.8936 H   0  0  0  0  0  0  0  0  0  0  0  0
  150.4484  142.7009  155.7457 H   0  0  0  0  0  0  0  0  0  0  0  0
  151.5126  141.5246  155.0243 H   0  0  0  0  0  0  0  0  0  0  0  0
  148.8981  140.4425  155.9924 H   0  0  0  0  0  0  0  0  0  0  0  0
  149.4269  138.9950  154.5744 H   0  0  0  0  0  0  0  0  0  0  0  0
  149.0979  142.3764  153.6248 H   0  0  0  0  0  0  0  0  0  0  0  0
  148.0245  141.0033  153.5439 H   0  0  0  0  0  0  0  0  0  0  0  0
  146.4320  140.7775  155.7251 H   0  0  0  0  0  0  0  0  0  0  0  0
  147.7264  141.3141  156.7831 H   0  0  0  0  0  0  0  0  0  0  0  0
  145.4694  141.9197  157.7023 H   0  0  0  0  0  0  0  0  0  0  0  0
  146.4422  143.3493  157.4134 H   0  0  0  0  0  0  0  0  0  0  0  0
  145.9778  144.6810  155.4779 H   0  0  0  0  0  0  0  0  0  0  0  0
  144.6332  145.0412  153.4004 H   0  0  0  0  0  0  0  0  0  0  0  0
  143.6005  144.9648  154.8243 H   0  0  0  0  0  0  0  0  0  0  0  0
  143.7073  143.5800  153.7409 H   0  0  0  0  0  0  0  0  0  0  0  0
  146.8555  143.6615  153.3896 H   0  0  0  0  0  0  0  0  0  0  0  0
  145.9033  142.2136  153.6525 H   0  0  0  0  0  0  0  0  0  0  0  0
  151.0958  144.0718  157.2479 H   0  0  0  0  0  0  0  0  0  0  0  0
  151.4401  146.0420  158.4684 H   0  0  0  0  0  0  0  0  0  0  0  0
  152.7554  145.9663  159.6374 H   0  0  0  0  0  0  0  0  0  0  0  0
  151.0731  145.9137  160.1866 H   0  0  0  0  0  0  0  0  0  0  0  0
  148.0025  143.2234  155.4292 H   0  0  0  0  0  0  0  0  0  0  0  0
  151.9242  139.1528  159.3275 H   0  0  0  0  0  0  0  0  0  0  0  0
  1  2  1  0  0  0  0
  1 23  1  0  0  0  0
  1 24  1  0  0  0  0
  1 25  1  0  0  0  0
  2 21  1  0  0  0  0
  2  3  2  0  0  0  0
  3  4  1  0  0  0  0
  3 26  1  0  0  0  0
  4 19  2  0  0  0  0
  4  5  1  0  0  0  0
  5  6  2  0  0  0  0
  5 49  1  0  0  0  0
  6  7  1  0  0  0  0
  6 27  1  0  0  0  0
  7  8  1  0  0  0  0
  7 19  1  0  0  0  0
  8  9  1  0  0  0  0
  8 28  1  0  0  0  0
  8 29  1  0  0  0  0
  9 10  1  0  0  0  0
  9 11  1  0  0  0  0
  9 30  1  0  0  0  0
 10 31  1  0  0  0  0
 11 12  1  0  0  0  0
 11 32  1  0  0  0  0
 11 33  1  0  0  0  0
 12 18  1  0  0  0  0
 12 13  1  0  0  0  0
 12 48  1  0  0  0  0
 13 14  1  0  0  0  0
 13 34  1  0  0  0  0
 13 35  1  0  0  0  0
 14 15  1  0  0  0  0
 14 36  1  0  0  0  0
 14 37  1  0  0  0  0
 15 16  1  0  0  0  0
 16 17  1  0  0  0  0
 16 18  1  0  0  0  0
 16 38  1  0  0  0  0
 17 39  1  0  0  0  0
 17 40  1  0  0  0  0
 17 41  1  0  0  0  0
 18 42  1  0  0  0  0
 18 43  1  0  0  0  0
 19 20  1  0  0  0  0
 20 21  2  0  0  0  0
 20 44  1  0  0  0  0
 21 22  1  0  0  0  0
 22 45  1  0  0  0  0
 22 46  1  0  0  0  0
 22 47  1  0  0  0  0
M  CHG  1   5   1
M  CHG  1  12   1
M  END
> <s_m_source_file>
AV-unprocessed.smi

> <i_m_source_file_index>
1554

> <i_lp_mmshare_version>
43012

> <i_f3d_flags>
0

> <s_epik_input>
W0NIM11jKFtjSF0xKWMoW0NIM10pW2NIXWMoYzEyKW4oW2NIXW4yKVtDSDJdW0NASF0oW09IXSlbQ0gyXU4zW0NIMl1bQ0gyXU9bQ0BASF0oW0NIM10pW0NIMl0z

> <s_epik_cmdline>
J2VwaWtfcHl0aG9uJywgJy1waCcsICc3LjAnLCAnLXRuJywgJzgnLCAnLW1hJywgJzIwMCcsICctbWV0YWxfYmluZGluZycsICctaW1hZScsICc8aW5maWxlLm1hZT4nLCAnLW9tYWUnLCAnPG91dGZpbGUubWFlPic=

> <r_epik_Ionization_Penalty>
1.8848

> <r_epik_Ionization_Penalty_Charging>
1.88479

> <r_epik_Ionization_Penalty_Neutral>
1.42224e-05

> <r_epik_State_Penalty>
1.94551

> <r_epik_Charging_Adjusted_Penalty>
3.8303

> <i_epik_Tot_Q>
2

> <i_epik_Tot_abs_Q>
2

> <r_epik_Metal_State_Penalty>
5.95849

> <b_epik_Metal_Only>
0

> <s_lp_Force_Field>
OPLS_2005

> <r_lp_Energy>
32.1421

> <b_lp_Chiralities_Consistent>
1

> <s_lp_Variant>
AV-unprocessed.smi:1554-23

> <Gold.Version>
5.8.1

> <Gold.Id.Protein>
6NUR|6NUR_protein|mol2

> <Gold.PLP.Fitness>
54.6843

> <Gold.PLP.PLP>
-47.5973

> <Gold.PLP.part.hbond>
-2.8456

> <Gold.PLP.part.metal>
0.0000

> <Gold.PLP.part.buried>
-5.9986

> <Gold.PLP.part.nonpolar>
-38.4368

> <Gold.PLP.part.repulsive>
0.2691

> <Gold.PLP.ligand.clash>
0.0000

> <Gold.PLP.ligand.torsion>
0.9744

> <Gold.PLP.Chemscore.Hbond>
3.0000

> <Gold.PLP.Chemscore.CHOScore>
0.0000

> <Gold.PLP.Chemscore.Metal>
0.0000

> <Gold.Chemscore.Hbonds>
donor molecule, donor type, donor heavy atom, donor atom, acceptor molecule, acceptor atom, score
      L1  H    12    48       P1  8028  2.00
      P1  H  7989  7998       L1    10  0.47

> <Gold.PLP.Chemscore.Internal.Correction>
0.0358

> <Gold.Rescore>
     Score         DG    S(hbond)    S(metal)    S(lipo)     H(rot)  DE(clash)    DE(int)     intcor
     17.02     -18.27       1.00        0.00     127.01       2.11       0.18       1.07       ----

> <Gold.Chemscore.Fitness>
17.0216

> <Gold.Chemscore.DG>
-18.2707

> <Gold.Chemscore.ZeroCoef>
-5.4800

> <Gold.Chemscore.Hbond>
0.9993

> <Gold.Chemscore.Metal>
0.0000

> <Gold.Chemscore.Lipo>
127.0105

> <Gold.Chemscore.Internal_Hbond>
0.0000

> <Gold.Chemscore.DEClash>
0.1841

> <Gold.Chemscore.DEInternal>
1.0650

> <Gold.Chemscore.Rot>
2.1122

> <Gold.Chemscore.Internal.Correction>
   9.000000E+99

> <Gold.Chemscore.Hbonds>
donor molecule, donor type, donor heavy atom, donor atom, acceptor molecule, acceptor atom, score
      L1  H    12    48       P1  8028  0.74
      P1  H  7989  7998       L1    10  0.07

> <Gold.Chemscore.Hbond.Weighted>
-3.3378

> <Gold.Chemscore.Metal.Weighted>
-0.0000

> <Gold.Chemscore.Lipo.Weighted>
-14.8602

> <Gold.Chemscore.Internal_Hbond.Weighted>
0.0000

> <Gold.Chemscore.DEClash.Weighted>
0.1841

> <Gold.Chemscore.DEInternal.Weighted>
1.0650

> <Gold.Chemscore.Rot.Weighted>
5.4073

> <Gold.Chemscore.Internal.Correction.Weighted>
   9.000000E+99

> <Gold.Protein.RotatedTorsions>
[ 6907 6896 6895 6894 ] final -130.72 input  -60.11 | X-H torsion
[ 7974 7965 7964 7962 ] final -146.63 input  175.53 | X-H torsion
[ 8008 7997 7996 7995 ] final   82.60 input   59.86 | X-H torsion
[ 10167 10162 10161 10158 ] final  136.94 input  -65.29 | X-H torsion
[ 10718 10713 10712 10709 ] final  -36.40 input   66.30 | X-H torsion
[ 10763 10752 10751 10750 ] final   49.35 input  -60.55 | X-H torsion
[ 11005 11000 10999 10996 ] final  121.33 input  -57.11 | X-H torsion

> <Gold.Protein.ActiveResidues>
 VAL166  LYS551  ARG553  GLY616  TRP617  ASP618  TYR619  PRO620  LYS621  CYS622 
 ASP623  PHE694  ASN695  SER759  ASP760  ASP761  ALA762  ILE779  LEU786  VAL792 
 PHE793  MET794  SER795  GLU796  ALA797  LYS798  CYS799  TRP800  GLU811  SER814 

> <Gold.Protein.RotatedAtoms>
  150.9429  133.6636  159.2786 H   0  0  0  0  0  0  0  0  0  0  0  0  # atno 6907 bound_to 6896
  151.4019  135.0971  159.9568 H   0  0  0  0  0  0  0  0  0  0  0  0  # atno 6908 bound_to 6896
  152.5077  133.8920  159.7453 H   0  0  0  0  0  0  0  0  0  0  0  0  # atno 6909 bound_to 6896
  144.8147  140.5431  143.5619 H   0  0  0  0  0  0  0  0  0  0  0  0  # atno 7974 bound_to 7965
  155.9128  140.3426  155.6112 H   0  0  0  0  0  0  0  0  0  0  0  0  # atno 8008 bound_to 7997
  155.7367  140.0802  157.2283 H   0  0  0  0  0  0  0  0  0  0  0  0  # atno 8009 bound_to 7997
  154.4058  140.1578  156.2557 H   0  0  0  0  0  0  0  0  0  0  0  0  # atno 8010 bound_to 7997
  139.5162  144.6437  151.5499 H   0  0  0  0  0  0  0  0  0  0  0  0  # atno 10167 bound_to 10162
  156.3272  130.4274  149.7905 H   0  0  0  0  0  0  0  0  0  0  0  0  # atno 10718 bound_to 10713
  152.9787  135.5914  154.4074 H   0  0  0  0  0  0  0  0  0  0  0  0  # atno 10763 bound_to 10752
  154.3713  135.2767  155.2266 H   0  0  0  0  0  0  0  0  0  0  0  0  # atno 10764 bound_to 10752
  154.4221  135.6056  153.6071 H   0  0  0  0  0  0  0  0  0  0  0  0  # atno 10765 bound_to 10752
  139.9221  134.9638  156.7941 H   0  0  0  0  0  0  0  0  0  0  0  0  # atno 11005 bound_to 11000
  145.5243  139.1476  143.3535 LP  0  0  0  0  0  0  0  0  0  0  0  0  # atno 17320 bound_to 7965
  146.2449  140.5383  142.8918 LP  0  0  0  0  0  0  0  0  0  0  0  0  # atno 17321 bound_to 7965
  140.6214  143.9252  150.6529 LP  0  0  0  0  0  0  0  0  0  0  0  0  # atno 17342 bound_to 10162
  140.2526  143.3582  152.1392 LP  0  0  0  0  0  0  0  0  0  0  0  0  # atno 17343 bound_to 10162
  156.5191  130.8207  151.3197 LP  0  0  0  0  0  0  0  0  0  0  0  0  # atno 17370 bound_to 10713
  157.7423  130.9889  150.2510 LP  0  0  0  0  0  0  0  0  0  0  0  0  # atno 17371 bound_to 10713
  140.6443  133.9790  155.7723 LP  0  0  0  0  0  0  0  0  0  0  0  0  # atno 17394 bound_to 11000
  141.0750  134.0148  157.3470 LP  0  0  0  0  0  0  0  0  0  0  0  0  # atno 17395 bound_to 11000

$$$$
