#       Name:                AV-unprocessed.smi:1261
#       Creating user name   scv26
#       Creation time:       Fri Mar 27 04:43:05 2020


#       File generated by GOLD software.
#

@<TRIPOS>MOLECULE
AV-unprocessed.smi:1261
    57    58     1
SMALL
NO_CHARGES


@<TRIPOS>ATOM
      1 ****        -1.5602   2.7701   3.9131 C.3            1 S1                 0.0000
      2 ****        -1.2737   2.8519   2.4071 C.3            1 S1                 0.0000
      3 ****        -1.8317   4.1517   1.8010 C.3            1 S1                 0.0000
      4 ****        -1.5842   4.2045   0.2831 C.3            1 S1                 0.0000
      5 ****        -2.1644   5.4852  -0.3332 C.3            1 S1                 0.0000
      6 ****        -2.1637   2.9435  -0.3919 C.3            1 S1                 0.0000
      7 ****        -1.6141   1.6916   0.1914 N.4            1 S1                 1.0000
      8 ****        -0.2217   1.3961  -0.2420 C.3            1 S1                 0.0000
      9 ****         0.1211  -0.0995  -0.1389 C.3            1 S1                 0.0000
     10 ****         1.5247  -0.4151  -0.6811 C.3            1 S1                 0.0000
     11 ****         1.8224  -1.8395  -0.5973 N.am           1 S1                 0.0000
     12 ****         2.2222  -2.4853   0.5118 C.2            1 S1                 0.0000
     13 ****         2.3767  -1.9154   1.5913 O.2            1 S1                 0.0000
     14 ****         2.4876  -3.9987   0.4221 C.3            1 S1                 0.0000
     15 ****         2.3380  -4.5800  -0.9219 N.am           1 S1                 0.0000
     16 ****         1.0862  -5.1247  -1.1655 N.2            1 S1                 0.0000
     17 ****         0.8298  -5.6673  -2.3076 C.2            1 S1                 0.0000
     18 ****        -0.4230  -6.1928  -2.5073 O.3            1 S1                 0.0000
     19 ****         1.8298  -5.7221  -3.3511 C.2            1 S1                 0.0000
     20 ****         3.0455  -5.1868  -3.1055 C.2            1 S1                 0.0000
     21 ****         3.3685  -4.5599  -1.8226 C.2            1 S1                 0.0000
     22 ****         4.4622  -4.0524  -1.5768 O.2            1 S1                 0.0000
     23 ****        -1.8422   1.6245   1.6612 C.3            1 S1                 0.0000
     24 ****        -0.4126  -6.5424  -3.3849 H              1 S1                 0.0000
     25 ****        -2.6320   2.7572   4.1140 H              1 S1                 0.0000
     26 ****        -1.1330   3.6231   4.4412 H              1 S1                 0.0000
     27 ****        -1.1296   1.8669   4.3463 H              1 S1                 0.0000
     28 ****        -0.1900   2.8620   2.2904 H              1 S1                 0.0000
     29 ****        -2.9021   4.2215   2.0016 H              1 S1                 0.0000
     30 ****        -1.3697   5.0142   2.2830 H              1 S1                 0.0000
     31 ****        -0.5067   4.2239   0.1140 H              1 S1                 0.0000
     32 ****        -3.2456   5.5364  -0.1999 H              1 S1                 0.0000
     33 ****        -1.9583   5.5347  -1.4028 H              1 S1                 0.0000
     34 ****        -1.7302   6.3737   0.1262 H              1 S1                 0.0000
     35 ****        -3.2477   2.9290  -0.2687 H              1 S1                 0.0000
     36 ****        -1.9846   2.9648  -1.4678 H              1 S1                 0.0000
     37 ****        -0.1082   1.6920  -1.2857 H              1 S1                 0.0000
     38 ****         0.4960   1.9928   0.3203 H              1 S1                 0.0000
     39 ****         0.0612  -0.4277   0.8982 H              1 S1                 0.0000
     40 ****        -0.6189  -0.6810  -0.6905 H              1 S1                 0.0000
     41 ****         1.5960  -0.1180  -1.7276 H              1 S1                 0.0000
     42 ****         2.2824   0.1572  -0.1431 H              1 S1                 0.0000
     43 ****         1.7218  -2.3787  -1.4455 H              1 S1                 0.0000
     44 ****         3.4865  -4.2000   0.8126 H              1 S1                 0.0000
     45 ****         1.8067  -4.4973   1.1141 H              1 S1                 0.0000
     46 ****         1.6017  -6.1821  -4.3015 H              1 S1                 0.0000
     47 ****         3.8020  -5.2208  -3.8757 H              1 S1                 0.0000
     48 ****        -1.4322   0.7039   2.0739 H              1 S1                 0.0000
     49 ****        -2.9188   1.5686   1.8288 H              1 S1                 0.0000
     50 ****        -2.1688   0.9489  -0.2096 H              1 S1                 0.0000
     51 ****         2.2032  -0.9336   1.6676 LP             1 S1                 0.0000
     52 ****         2.6756  -2.4342   2.3923 LP             1 S1                 0.0000
     53 ****         0.3821  -5.0969  -0.4559 LP             1 S1                 0.0000
     54 ****        -1.1188  -5.4795  -2.4234 LP             1 S1                 0.0000
     55 ****        -0.6077  -6.9182  -1.8442 LP             1 S1                 0.0000
     56 ****         4.6284  -3.6300  -0.6858 LP             1 S1                 0.0000
     57 ****         5.1847  -4.0625  -2.2681 LP             1 S1                 0.0000
@<TRIPOS>BOND
    1    1    2 1     
    2    1   25 1     
    3    1   26 1     
    4    1   27 1     
    5    2   23 1     
    6    2    3 1     
    7    2   28 1     
    8    3    4 1     
    9    3   29 1     
   10    3   30 1     
   11    4    5 1     
   12    4    6 1     
   13    4   31 1     
   14    5   32 1     
   15    5   33 1     
   16    5   34 1     
   17    6    7 1     
   18    6   35 1     
   19    6   36 1     
   20    7    8 1     
   21    7   23 1     
   22    7   50 1     
   23    8    9 1     
   24    8   37 1     
   25    8   38 1     
   26    9   10 1     
   27    9   39 1     
   28    9   40 1     
   29   10   11 1     
   30   10   41 1     
   31   10   42 1     
   32   11   12 am    
   33   11   43 1     
   34   12   13 2     
   35   12   14 1     
   36   14   44 1     
   37   14   45 1     
   38   14   15 1     
   39   15   16 1     
   40   15   21 am    
   41   16   17 2     
   42   17   18 1     
   43   17   19 1     
   44   18   24 1     
   45   19   46 1     
   46   19   20 2     
   47   20   47 1     
   48   20   21 1     
   49   21   22 2     
   50   23   48 1     
   51   23   49 1     
   52   13   51 1     
   53   13   52 1     
   54   16   53 1     
   55   18   54 1     
   56   18   55 1     
   57   22   56 1     
   58   22   57 1     
@<TRIPOS>SUBSTRUCTURE
      1 S1             1
@<TRIPOS>SET
LONE_PAIRS      STATIC     ATOMS    <user>   **** ""
7 51 52 53 54 55 56 57
DONOR_HYDROGENS      STATIC     ATOMS    <user>   **** ""
3 50 43 24
ATOM$BLUE        STATIC     ATOMS    COLORGROUP SYSTEM
7 51 52 53 54 55 56 57
ATOM$RED        STATIC     ATOMS    COLORGROUP SYSTEM
3 50 43 24
