AV-unprocessed.smi:1102|AV-procd|sdf|4769|dock2
  -GOLD-   22720 3303D 1   1.00000     0.00000
 Structure written by MMmdl.
 39 40  0  0  0  0  0  0  0  0  1 V2000
  154.2247  141.0113  161.6707 C   0  0  0  0  0  0  0  0  0  0  0  0
  153.3203  142.1484  161.5585 N   0  0  0  0  0  0  0  0  0  0  0  0
  153.1897  143.0866  162.6688 C   0  0  0  0  0  0  0  0  0  0  0  0
  152.5293  142.3180  160.3989 C   0  0  0  0  0  0  0  0  0  0  0  0
  152.3073  143.5989  159.8349 C   0  0  0  0  0  0  0  0  0  0  0  0
  151.5113  143.7125  158.6793 C   0  0  0  0  0  0  0  0  0  0  0  0
  150.9452  142.5544  158.1134 C   0  0  0  0  0  0  0  0  0  0  0  0
  150.1643  142.6976  156.9348 N   0  0  0  0  0  0  0  0  0  0  0  0
  149.5342  141.7437  156.2281 C   0  0  0  0  0  0  0  0  0  0  0  0
  149.4775  140.5527  156.5333 O   0  0  0  0  0  0  0  0  0  0  0  0
  148.9450  142.2577  155.1394 N   0  0  0  0  0  0  0  0  0  0  0  0
  148.1965  141.4907  154.1496 C   0  0  0  0  0  0  0  0  0  0  0  0
  146.7032  141.8585  154.1620 C   0  0  2  0  0  0  0  0  0  0  0  0
  146.4222  143.2888  153.7034 C   0  0  0  0  0  0  0  0  0  0  0  0
  145.1009  143.5739  154.3792 C   0  0  0  0  0  0  0  0  0  0  0  0
  145.2901  142.8833  155.7257 C   0  0  0  0  0  0  0  0  0  0  0  0
  146.1650  141.7856  155.4811 O   0  0  0  0  0  0  0  0  0  0  0  0
  151.2294  141.3167  158.7366 C   0  0  0  0  0  0  0  0  0  0  0  0
  151.9932  141.2037  159.8435 N   0  0  0  0  0  0  0  0  0  0  0  0
  153.6720  140.0738  161.6020 H   0  0  0  0  0  0  0  0  0  0  0  0
  154.7526  141.0166  162.6243 H   0  0  0  0  0  0  0  0  0  0  0  0
  154.9729  141.0358  160.8780 H   0  0  0  0  0  0  0  0  0  0  0  0
  152.1706  143.0801  163.0574 H   0  0  0  0  0  0  0  0  0  0  0  0
  153.4311  144.0995  162.3449 H   0  0  0  0  0  0  0  0  0  0  0  0
  153.8609  142.8305  163.4885 H   0  0  0  0  0  0  0  0  0  0  0  0
  152.7312  144.4945  160.2630 H   0  0  0  0  0  0  0  0  0  0  0  0
  151.3370  144.6823  158.2364 H   0  0  0  0  0  0  0  0  0  0  0  0
  150.0440  143.6451  156.6081 H   0  0  0  0  0  0  0  0  0  0  0  0
  149.0366  143.2488  154.9716 H   0  0  0  0  0  0  0  0  0  0  0  0
  148.6191  141.6228  153.1521 H   0  0  0  0  0  0  0  0  0  0  0  0
  148.3135  140.4350  154.3955 H   0  0  0  0  0  0  0  0  0  0  0  0
  146.1390  141.1681  153.5326 H   0  0  0  0  0  0  0  0  0  0  0  0
  147.1856  143.9721  154.0788 H   0  0  0  0  0  0  0  0  0  0  0  0
  146.3785  143.3871  152.6184 H   0  0  0  0  0  0  0  0  0  0  0  0
  144.8844  144.6384  154.4717 H   0  0  0  0  0  0  0  0  0  0  0  0
  144.2872  143.1042  153.8249 H   0  0  0  0  0  0  0  0  0  0  0  0
  145.7717  143.5565  156.4357 H   0  0  0  0  0  0  0  0  0  0  0  0
  144.3465  142.5522  156.1597 H   0  0  0  0  0  0  0  0  0  0  0  0
  150.8660  140.3800  158.3441 H   0  0  0  0  0  0  0  0  0  0  0  0
  1  2  1  0  0  0  0
  1 20  1  0  0  0  0
  1 21  1  0  0  0  0
  1 22  1  0  0  0  0
  2  3  1  0  0  0  0
  2  4  1  0  0  0  0
  3 23  1  0  0  0  0
  3 24  1  0  0  0  0
  3 25  1  0  0  0  0
  4 19  1  0  0  0  0
  4  5  2  0  0  0  0
  5  6  1  0  0  0  0
  5 26  1  0  0  0  0
  6  7  2  0  0  0  0
  6 27  1  0  0  0  0
  7  8  1  0  0  0  0
  7 18  1  0  0  0  0
  8  9  1  0  0  0  0
  8 28  1  0  0  0  0
  9 10  2  0  0  0  0
  9 11  1  0  0  0  0
 11 12  1  0  0  0  0
 11 29  1  0  0  0  0
 12 13  1  0  0  0  0
 12 30  1  0  0  0  0
 12 31  1  0  0  0  0
 13 17  1  0  0  0  0
 13 14  1  0  0  0  0
 13 32  1  0  0  0  0
 14 15  1  0  0  0  0
 14 33  1  0  0  0  0
 14 34  1  0  0  0  0
 15 16  1  0  0  0  0
 15 35  1  0  0  0  0
 15 36  1  0  0  0  0
 16 17  1  0  0  0  0
 16 37  1  0  0  0  0
 16 38  1  0  0  0  0
 18 19  2  0  0  0  0
 18 39  1  0  0  0  0
M  END
> <s_m_source_file>
AV-unprocessed.smi

> <i_m_source_file_index>
1102

> <i_lp_mmshare_version>
43012

> <i_f3d_flags>
0

> <s_epik_input>
W0NIM11OKFtDSDNdKWMxW2NIXVtjSF1jKFtjSF1uMSlbTkhdQyg9TylbTkhdW0NIMl1bQ0BASF0yW0NIMl1bQ0gyXVtDSDJdTzI=

> <s_epik_cmdline>
J2VwaWtfcHl0aG9uJywgJy1waCcsICc3LjAnLCAnLXRuJywgJzgnLCAnLW1hJywgJzIwMCcsICctbWV0YWxfYmluZGluZycsICctaW1hZScsICc8aW5maWxlLm1hZT4nLCAnLW9tYWUnLCAnPG91dGZpbGUubWFlPic=

> <r_lp_tautomer_probability>
1

> <r_epik_Ionization_Penalty>
0.605145

> <r_epik_Ionization_Penalty_Charging>
0

> <r_epik_Ionization_Penalty_Neutral>
0.605145

> <r_epik_State_Penalty>
0.618734

> <r_epik_Charging_Adjusted_Penalty>
0.618734

> <i_epik_Tot_Q>
0

> <i_epik_Tot_abs_Q>
0

> <r_epik_Metal_State_Penalty>
0.302184

> <b_epik_Metal_Only>
0

> <s_lp_Force_Field>
OPLS_2005

> <r_lp_Energy>
22.0104

> <b_lp_Chiralities_Consistent>
1

> <s_lp_Variant>
AV-unprocessed.smi:1102-3

> <Gold.Version>
5.8.1

> <Gold.Id.Protein>
6NUR|6NUR_protein|mol2

> <Gold.PLP.Fitness>
48.3021

> <Gold.PLP.PLP>
-43.8768

> <Gold.PLP.part.hbond>
-1.9118

> <Gold.PLP.part.metal>
0.0000

> <Gold.PLP.part.buried>
-5.1781

> <Gold.PLP.part.nonpolar>
-36.7651

> <Gold.PLP.part.repulsive>
0.3383

> <Gold.PLP.ligand.clash>
0.0000

> <Gold.PLP.ligand.torsion>
0.6838

> <Gold.PLP.Chemscore.Hbond>
1.9280

> <Gold.PLP.Chemscore.CHOScore>
0.0000

> <Gold.PLP.Chemscore.Metal>
0.0000

> <Gold.Chemscore.Hbonds>
donor molecule, donor type, donor heavy atom, donor atom, acceptor molecule, acceptor atom, score
      L1  H     8    28       P1  8028  0.86
      L1  H    11    29       P1  8028  0.90

> <Gold.PLP.Chemscore.Internal.Correction>
0.0089

> <Gold.Rescore>
     Score         DG    S(hbond)    S(metal)    S(lipo)     H(rot)  DE(clash)    DE(int)     intcor
     17.22     -19.09       1.89        0.00      89.05       1.21       0.04       1.83       ----

> <Gold.Chemscore.Fitness>
17.2244

> <Gold.Chemscore.DG>
-19.0930

> <Gold.Chemscore.ZeroCoef>
-5.4800

> <Gold.Chemscore.Hbond>
1.8873

> <Gold.Chemscore.Metal>
0.0000

> <Gold.Chemscore.Lipo>
89.0477

> <Gold.Chemscore.Internal_Hbond>
0.0000

> <Gold.Chemscore.DEClash>
0.0366

> <Gold.Chemscore.DEInternal>
1.8319

> <Gold.Chemscore.Rot>
1.2146

> <Gold.Chemscore.Internal.Correction>
   9.000000E+99

> <Gold.Chemscore.Hbonds>
donor molecule, donor type, donor heavy atom, donor atom, acceptor molecule, acceptor atom, score
      L1  H     8    28       P1  8028  0.85
      L1  H    11    29       P1  8028  0.87

> <Gold.Chemscore.Hbond.Weighted>
-6.3037

> <Gold.Chemscore.Metal.Weighted>
-0.0000

> <Gold.Chemscore.Lipo.Weighted>
-10.4186

> <Gold.Chemscore.Internal_Hbond.Weighted>
0.0000

> <Gold.Chemscore.DEClash.Weighted>
0.0366

> <Gold.Chemscore.DEInternal.Weighted>
1.8319

> <Gold.Chemscore.Rot.Weighted>
3.1093

> <Gold.Chemscore.Internal.Correction.Weighted>
   9.000000E+99

> <Gold.Protein.RotatedTorsions>
[ 6907 6896 6895 6894 ] final    0.36 input  -60.11 | X-H torsion
[ 7974 7965 7964 7962 ] final   83.24 input  175.53 | X-H torsion
[ 8008 7997 7996 7995 ] final   79.32 input   59.86 | X-H torsion
[ 10167 10162 10161 10158 ] final  -32.51 input  -65.29 | X-H torsion
[ 10718 10713 10712 10709 ] final   40.56 input   66.30 | X-H torsion
[ 10763 10752 10751 10750 ] final   37.00 input  -60.55 | X-H torsion
[ 11005 11000 10999 10996 ] final  -20.08 input  -57.11 | X-H torsion

> <Gold.Protein.ActiveResidues>
 VAL166  LYS551  ARG553  GLY616  TRP617  ASP618  TYR619  PRO620  LYS621  CYS622 
 ASP623  PHE694  ASN695  SER759  ASP760  ASP761  ALA762  ILE779  LEU786  VAL792 
 PHE793  MET794  SER795  GLU796  ALA797  LYS798  CYS799  TRP800  GLU811  SER814 

> <Gold.Protein.RotatedAtoms>
  151.5752  135.1061  160.0004 H   0  0  0  0  0  0  0  0  0  0  0  0  # atno 6907 bound_to 6896
  152.4381  133.7393  159.6642 H   0  0  0  0  0  0  0  0  0  0  0  0  # atno 6908 bound_to 6896
  150.8282  133.8067  159.3133 H   0  0  0  0  0  0  0  0  0  0  0  0  # atno 6909 bound_to 6896
  145.6145  139.2374  143.2173 H   0  0  0  0  0  0  0  0  0  0  0  0  # atno 7974 bound_to 7965
  155.8681  140.3450  155.5802 H   0  0  0  0  0  0  0  0  0  0  0  0  # atno 8008 bound_to 7997
  155.7858  140.0865  157.2054 H   0  0  0  0  0  0  0  0  0  0  0  0  # atno 8009 bound_to 7997
  154.4015  140.1492  156.3093 H   0  0  0  0  0  0  0  0  0  0  0  0  # atno 8010 bound_to 7997
  140.7220  143.3689  151.1816 H   0  0  0  0  0  0  0  0  0  0  0  0  # atno 10167 bound_to 10162
  157.3835  130.7767  149.7212 H   0  0  0  0  0  0  0  0  0  0  0  0  # atno 10718 bound_to 10713
  153.0054  135.6290  154.2075 H   0  0  0  0  0  0  0  0  0  0  0  0  # atno 10763 bound_to 10752
  154.1819  135.2813  155.3051 H   0  0  0  0  0  0  0  0  0  0  0  0  # atno 10764 bound_to 10752
  154.5828  135.5642  153.7261 H   0  0  0  0  0  0  0  0  0  0  0  0  # atno 10765 bound_to 10752
  140.8430  133.7912  155.9881 H   0  0  0  0  0  0  0  0  0  0  0  0  # atno 11005 bound_to 11000
  146.1479  140.6967  142.9336 LP  0  0  0  0  0  0  0  0  0  0  0  0  # atno 17320 bound_to 7965
  144.7256  140.4514  143.6975 LP  0  0  0  0  0  0  0  0  0  0  0  0  # atno 17321 bound_to 7965
  139.7256  143.9153  152.3001 LP  0  0  0  0  0  0  0  0  0  0  0  0  # atno 17342 bound_to 10162
  139.8925  144.6957  150.8754 LP  0  0  0  0  0  0  0  0  0  0  0  0  # atno 17343 bound_to 10162
  155.9781  130.4055  150.3668 LP  0  0  0  0  0  0  0  0  0  0  0  0  # atno 17370 bound_to 10713
  157.1775  131.0384  151.2765 LP  0  0  0  0  0  0  0  0  0  0  0  0  # atno 17371 bound_to 10713
  140.8875  134.2536  157.5112 LP  0  0  0  0  0  0  0  0  0  0  0  0  # atno 17394 bound_to 11000
  139.8703  134.9645  156.4497 LP  0  0  0  0  0  0  0  0  0  0  0  0  # atno 17395 bound_to 11000

$$$$
