#       Name:                AV-unprocessed.smi:1490
#       Creating user name   scv26
#       Creation time:       Fri Mar 27 06:13:20 2020


#       File generated by GOLD software.
#

@<TRIPOS>MOLECULE
AV-unprocessed.smi:1490
    43    44     1
SMALL
NO_CHARGES


@<TRIPOS>ATOM
      1 ****         0.6872   1.7221   3.6654 C.3            1 S1                 0.0000
      2 ****         0.3310   1.5997   2.3001 O.3            1 S1                 0.0000
      3 ****        -0.7649   2.4273   1.9453 C.3            1 S1                 0.0000
      4 ****        -1.0732   2.2562   0.4512 C.3            1 S1                 0.0000
      5 ****        -1.3324   0.8540   0.0945 N.pl3          1 S1                 0.0000
      6 ****        -0.4889  -0.1104  -0.3687 C.2            1 S1                 0.0000
      7 ****         1.2369   0.0783  -0.6834 S.3            1 S1                 0.0000
      8 ****         1.8277  -1.5571  -1.2034 C.3            1 S1                 0.0000
      9 ****         3.3399  -1.6050  -1.4122 C.2            1 S1                 0.0000
     10 ****         4.0226  -2.4124  -0.7834 O.2            1 S1                 0.0000
     11 ****         3.8555  -0.7483  -2.3057 N.am           1 S1                 0.0000
     12 ****         5.2690  -0.6667  -2.6437 C.3            1 S1                 0.0000
     13 ****         5.7178  -1.8027  -3.4643 C.1            1 S1                 0.0000
     14 ****         6.0696  -2.6959  -4.1100 N.1            1 S1                 0.0000
     15 ****        -1.2168  -1.2492  -0.5367 N.pl3          1 S1                 1.0000
     16 ****        -2.5432  -1.0127  -0.1702 C.ar           1 S1                 0.0000
     17 ****        -3.6509  -1.8547  -0.1638 C.ar           1 S1                 0.0000
     18 ****        -4.8694  -1.2975   0.2778 C.ar           1 S1                 0.0000
     19 ****        -6.2853  -2.2824   0.3130 Cl             1 S1                 0.0000
     20 ****        -4.9512   0.0483   0.6922 C.ar           1 S1                 0.0000
     21 ****        -3.8222   0.8938   0.6813 C.ar           1 S1                 0.0000
     22 ****        -2.6233   0.3349   0.2402 C.ar           1 S1                 0.0000
     23 ****         1.5264   1.0621   3.8851 H              1 S1                 0.0000
     24 ****        -0.1414   1.4410   4.3165 H              1 S1                 0.0000
     25 ****         0.9905   2.7425   3.9034 H              1 S1                 0.0000
     26 ****        -1.6392   2.1620   2.5417 H              1 S1                 0.0000
     27 ****        -0.5309   3.4720   2.1560 H              1 S1                 0.0000
     28 ****        -1.9274   2.8648   0.1536 H              1 S1                 0.0000
     29 ****        -0.2282   2.6004  -0.1456 H              1 S1                 0.0000
     30 ****         1.5450  -2.2893  -0.4461 H              1 S1                 0.0000
     31 ****         1.3277  -1.8424  -2.1295 H              1 S1                 0.0000
     32 ****         3.2297  -0.1158  -2.7830 H              1 S1                 0.0000
     33 ****         5.4491   0.2495  -3.2061 H              1 S1                 0.0000
     34 ****         5.8815  -0.6210  -1.7420 H              1 S1                 0.0000
     35 ****        -3.5886  -2.8861  -0.4788 H              1 S1                 0.0000
     36 ****        -5.9002   0.4421   1.0264 H              1 S1                 0.0000
     37 ****        -3.8974   1.9220   1.0031 H              1 S1                 0.0000
     38 ****        -0.8316  -2.1229  -0.8717 H              1 S1                 0.0000
     39 ****         0.0856   0.6477   2.1174 LP             1 S1                 0.0000
     40 ****         1.1190   1.8542   1.7396 LP             1 S1                 0.0000
     41 ****         3.5874  -3.0375  -0.1354 LP             1 S1                 0.0000
     42 ****         5.0127  -2.4436  -0.9202 LP             1 S1                 0.0000
     43 ****         6.3737  -3.4680  -4.6681 LP             1 S1                 0.0000
@<TRIPOS>BOND
    1    1    2 1     
    2    1   23 1     
    3    1   24 1     
    4    1   25 1     
    5    2    3 1     
    6    3    4 1     
    7    3   26 1     
    8    3   27 1     
    9    4    5 1     
   10    4   28 1     
   11    4   29 1     
   12    5   22 1     
   13    5    6 1     
   14    6    7 1     
   15    6   15 2     
   16    7    8 1     
   17    8    9 1     
   18    8   30 1     
   19    8   31 1     
   20    9   10 2     
   21    9   11 am    
   22   11   12 1     
   23   11   32 1     
   24   12   13 1     
   25   12   33 1     
   26   12   34 1     
   27   13   14 3     
   28   15   16 1     
   29   15   38 1     
   30   16   22 ar    
   31   16   17 ar    
   32   17   18 ar    
   33   17   35 1     
   34   18   19 1     
   35   18   20 ar    
   36   20   21 ar    
   37   20   36 1     
   38   21   22 ar    
   39   21   37 1     
   40    2   39 1     
   41    2   40 1     
   42   10   41 1     
   43   10   42 1     
   44   14   43 1     
@<TRIPOS>SUBSTRUCTURE
      1 S1             1
@<TRIPOS>SET
LONE_PAIRS      STATIC     ATOMS    <user>   **** ""
5 39 40 41 42 43
DONOR_HYDROGENS      STATIC     ATOMS    <user>   **** ""
2 32 38
ATOM$BLUE        STATIC     ATOMS    COLORGROUP SYSTEM
5 39 40 41 42 43
ATOM$RED        STATIC     ATOMS    COLORGROUP SYSTEM
2 32 38
