#       Name:                AV-unprocessed.smi:938
#       Creating user name   scv26
#       Creation time:       Fri Mar 27 02:12:44 2020


#       File generated by GOLD software.
#

@<TRIPOS>MOLECULE
AV-unprocessed.smi:938
    49    50     1
SMALL
NO_CHARGES


@<TRIPOS>ATOM
      1 ****        -5.9292  -1.3768   0.8167 C.3            1 S1                 0.0000
      2 ****        -5.4938  -0.6142  -0.4413 C.3            1 S1                 0.0000
      3 ****        -5.8749  -1.3628  -1.7259 C.3            1 S1                 0.0000
      4 ****        -4.0495  -0.4021  -0.4063 N.am           1 S1                 0.0000
      5 ****        -3.4181   0.7826  -0.4848 C.2            1 S1                 0.0000
      6 ****        -4.0057   1.8579  -0.6100 O.2            1 S1                 0.0000
      7 ****        -1.9136   0.7265  -0.4467 C.ar           1 S1                 0.0000
      8 ****        -1.1528   1.8581  -0.8145 C.ar           1 S1                 0.0000
      9 ****         0.2473   1.7568  -0.7537 C.ar           1 S1                 0.0000
     10 ****         0.7953   0.5321  -0.3283 C.ar           1 S1                 0.0000
     11 ****         2.1880   0.3910  -0.2592 N.3            1 S1                 0.0000
     12 ****         2.7165  -0.6026  -1.1825 C.3            1 S1                 0.0000
     13 ****         4.2517  -0.5701  -1.1599 C.3            1 S1                 0.0000
     14 ****         4.7248  -0.7441   0.1756 O.3            1 S1                 0.0000
     15 ****         4.2322   0.2049   1.1295 C.3            1 S1                 0.0000
     16 ****         4.7242  -0.2926   2.4975 C.3            1 S1                 0.0000
     17 ****         4.8135   1.6099   0.8616 C.3            1 S1                 0.0000
     18 ****         2.6854   0.2014   1.0979 C.3            1 S1                 0.0000
     19 ****         0.0153  -0.5217   0.0174 N.ar           1 S1                 0.0000
     20 ****        -1.3170  -0.4233  -0.0391 N.ar           1 S1                 0.0000
     21 ****        -7.0087  -1.5299   0.8283 H              1 S1                 0.0000
     22 ****        -5.6659  -0.8251   1.7198 H              1 S1                 0.0000
     23 ****        -5.4529  -2.3562   0.8732 H              1 S1                 0.0000
     24 ****        -6.0165   0.3436  -0.4446 H              1 S1                 0.0000
     25 ****        -6.9527  -1.5171  -1.7845 H              1 S1                 0.0000
     26 ****        -5.3955  -2.3413  -1.7733 H              1 S1                 0.0000
     27 ****        -5.5746  -0.8013  -2.6114 H              1 S1                 0.0000
     28 ****        -3.4735  -1.2267  -0.3138 H              1 S1                 0.0000
     29 ****        -1.6196   2.7778  -1.1359 H              1 S1                 0.0000
     30 ****         0.8777   2.5908  -1.0257 H              1 S1                 0.0000
     31 ****         2.3634  -1.5951  -0.8986 H              1 S1                 0.0000
     32 ****         2.3513  -0.4054  -2.1911 H              1 S1                 0.0000
     33 ****         4.6491  -1.3748  -1.7783 H              1 S1                 0.0000
     34 ****         4.6291   0.3600  -1.5850 H              1 S1                 0.0000
     35 ****         4.3876   0.3618   3.3023 H              1 S1                 0.0000
     36 ****         5.8134  -0.3316   2.5353 H              1 S1                 0.0000
     37 ****         4.3536  -1.2959   2.7106 H              1 S1                 0.0000
     38 ****         4.5317   2.3054   1.6526 H              1 S1                 0.0000
     39 ****         4.4575   2.0364  -0.0757 H              1 S1                 0.0000
     40 ****         5.9027   1.5833   0.8192 H              1 S1                 0.0000
     41 ****         2.2915   0.9813   1.7514 H              1 S1                 0.0000
     42 ****         2.3110  -0.7499   1.4803 H              1 S1                 0.0000
     43 ****        -5.0043   1.8793  -0.6583 LP             1 S1                 0.0000
     44 ****        -3.4841   2.7094  -0.6633 LP             1 S1                 0.0000
     45 ****         2.5465   1.2728  -0.5656 LP             1 S1                 0.0000
     46 ****         5.7225  -0.6776   0.1609 LP             1 S1                 0.0000
     47 ****         4.4562  -1.6574   0.4818 LP             1 S1                 0.0000
     48 ****         0.4387  -1.3770   0.3162 LP             1 S1                 0.0000
     49 ****        -1.8813  -1.2065   0.2222 LP             1 S1                 0.0000
@<TRIPOS>BOND
    1    1    2 1     
    2    1   21 1     
    3    1   22 1     
    4    1   23 1     
    5    2    3 1     
    6    2    4 1     
    7    2   24 1     
    8    3   25 1     
    9    3   26 1     
   10    3   27 1     
   11    4    5 am    
   12    4   28 1     
   13    5    6 2     
   14    5    7 1     
   15    7   20 ar    
   16    7    8 ar    
   17    8    9 ar    
   18    8   29 1     
   19    9   10 ar    
   20    9   30 1     
   21   10   11 1     
   22   10   19 ar    
   23   11   18 1     
   24   11   12 1     
   25   12   13 1     
   26   12   31 1     
   27   12   32 1     
   28   13   14 1     
   29   13   33 1     
   30   13   34 1     
   31   14   15 1     
   32   15   16 1     
   33   15   17 1     
   34   15   18 1     
   35   16   35 1     
   36   16   36 1     
   37   16   37 1     
   38   17   38 1     
   39   17   39 1     
   40   17   40 1     
   41   18   41 1     
   42   18   42 1     
   43   19   20 ar    
   44    6   43 1     
   45    6   44 1     
   46   11   45 1     
   47   14   46 1     
   48   14   47 1     
   49   19   48 1     
   50   20   49 1     
@<TRIPOS>SUBSTRUCTURE
      1 S1             1
@<TRIPOS>SET
LONE_PAIRS      STATIC     ATOMS    <user>   **** ""
7 43 44 45 46 47 48 49
DONOR_HYDROGENS      STATIC     ATOMS    <user>   **** ""
1 28
ATOM$BLUE        STATIC     ATOMS    COLORGROUP SYSTEM
7 43 44 45 46 47 48 49
ATOM$RED        STATIC     ATOMS    COLORGROUP SYSTEM
1 28
