#       Name:                AV-unprocessed.smi:2077
#       Creating user name   scv26
#       Creation time:       Fri Mar 27 11:16:11 2020


#       File generated by GOLD software.
#

@<TRIPOS>MOLECULE
AV-unprocessed.smi:2077
    45    47     1
SMALL
NO_CHARGES


@<TRIPOS>ATOM
      1 ****        -2.0700   3.7317  -0.2704 C.3            1 S1                 0.0000
      2 ****        -2.2950   2.2814  -0.4188 N.am           1 S1                 0.0000
      3 ****        -1.2012   1.4566  -0.4510 C.2            1 S1                 0.0000
      4 ****        -0.0312   1.8302  -0.3555 O.2            1 S1                 0.0000
      5 ****        -1.5337   0.0390  -0.6141 C.2            1 S1                 0.0000
      6 ****        -2.8060  -0.4156  -0.7086 C.2            1 S1                 0.0000
      7 ****        -2.8400  -1.7979  -0.8561 N.2            1 S1                 0.0000
      8 ****        -1.5431  -2.1109  -0.8418 C.2            1 S1                 0.0000
      9 ****        -0.6960  -1.0709  -0.7002 N.pl3          1 S1                 0.0000
     10 ****         0.7563  -1.1331  -0.6549 C.3            1 S1                 0.0000
     11 ****         1.3054  -1.0654   0.7834 C.3            1 S1                 0.0000
     12 ****         0.8406  -2.1780   1.5237 O.3            1 S1                 0.0000
     13 ****         2.8218  -0.9570   0.7894 C.ar           1 S1                 0.0000
     14 ****         3.6298  -2.0982   0.5884 C.ar           1 S1                 0.0000
     15 ****         5.0336  -1.9816   0.5845 C.ar           1 S1                 0.0000
     16 ****         5.6371  -0.7242   0.7784 C.ar           1 S1                 0.0000
     17 ****         4.8363   0.4172   0.9745 C.ar           1 S1                 0.0000
     18 ****         5.4154   1.6274   1.1565 F              1 S1                 0.0000
     19 ****         3.4328   0.3011   0.9792 C.ar           1 S1                 0.0000
     20 ****        -3.8674   0.5214  -0.6495 N.am           1 S1                 0.0000
     21 ****        -5.2315  -0.0057  -0.7502 C.3            1 S1                 0.0000
     22 ****        -3.6128   1.8652  -0.5131 C.2            1 S1                 0.0000
     23 ****        -4.5380   2.6809  -0.4760 O.2            1 S1                 0.0000
     24 ****        -1.0227   4.0317  -0.2211 H              1 S1                 0.0000
     25 ****        -2.5412   4.0974   0.6433 H              1 S1                 0.0000
     26 ****        -2.5051   4.2728  -1.1123 H              1 S1                 0.0000
     27 ****        -1.1973  -3.1301  -0.9358 H              1 S1                 0.0000
     28 ****         1.0831  -2.0522  -1.1438 H              1 S1                 0.0000
     29 ****         1.1529  -0.3143  -1.2555 H              1 S1                 0.0000
     30 ****         0.9033  -0.1794   1.2764 H              1 S1                 0.0000
     31 ****         1.1045  -2.0693   2.4247 H              1 S1                 0.0000
     32 ****         3.1761  -3.0663   0.4332 H              1 S1                 0.0000
     33 ****         5.6474  -2.8568   0.4305 H              1 S1                 0.0000
     34 ****         6.7135  -0.6348   0.7742 H              1 S1                 0.0000
     35 ****         2.8265   1.1833   1.1262 H              1 S1                 0.0000
     36 ****        -6.0143   0.7438  -0.6305 H              1 S1                 0.0000
     37 ****        -5.3947  -0.7641   0.0162 H              1 S1                 0.0000
     38 ****        -5.3758  -0.4769  -1.7229 H              1 S1                 0.0000
     39 ****         0.1758   2.8023  -0.2449 LP             1 S1                 0.0000
     40 ****         0.7115   1.1615  -0.3886 LP             1 S1                 0.0000
     41 ****        -3.6319  -2.4014  -0.9489 LP             1 S1                 0.0000
     42 ****         1.2375  -3.0184   1.1548 LP             1 S1                 0.0000
     43 ****        -0.1566  -2.2278   1.4678 LP             1 S1                 0.0000
     44 ****        -4.3410   3.6563  -0.3768 LP             1 S1                 0.0000
     45 ****        -5.4848   2.3666  -0.5452 LP             1 S1                 0.0000
@<TRIPOS>BOND
    1    1    2 1     
    2    1   24 1     
    3    1   25 1     
    4    1   26 1     
    5    2   22 am    
    6    2    3 am    
    7    3    4 2     
    8    3    5 1     
    9    5    9 1     
   10    5    6 2     
   11    6    7 1     
   12    6   20 1     
   13    7    8 2     
   14    8    9 1     
   15    8   27 1     
   16    9   10 1     
   17   10   11 1     
   18   10   28 1     
   19   10   29 1     
   20   11   12 1     
   21   11   13 1     
   22   11   30 1     
   23   12   31 1     
   24   13   19 ar    
   25   13   14 ar    
   26   14   15 ar    
   27   14   32 1     
   28   15   16 ar    
   29   15   33 1     
   30   16   17 ar    
   31   16   34 1     
   32   17   18 1     
   33   17   19 ar    
   34   19   35 1     
   35   20   21 1     
   36   20   22 am    
   37   21   36 1     
   38   21   37 1     
   39   21   38 1     
   40   22   23 2     
   41    4   39 1     
   42    4   40 1     
   43    7   41 1     
   44   12   42 1     
   45   12   43 1     
   46   23   44 1     
   47   23   45 1     
@<TRIPOS>SUBSTRUCTURE
      1 S1             1
@<TRIPOS>SET
LONE_PAIRS      STATIC     ATOMS    <user>   **** ""
7 39 40 41 42 43 44 45
DONOR_HYDROGENS      STATIC     ATOMS    <user>   **** ""
1 31
ATOM$BLUE        STATIC     ATOMS    COLORGROUP SYSTEM
7 39 40 41 42 43 44 45
ATOM$RED        STATIC     ATOMS    COLORGROUP SYSTEM
1 31
