AV-unprocessed.smi:2457|AV-procd|sdf|9704|dock10
  -GOLD-   2272013343D 1   1.00000     0.00000
 Structure written by MMmdl.
 40 41  0  0  0  0  0  0  0  0  1 V2000
  154.6247  133.0628  163.2523 C   0  0  0  0  0  0  0  0  0  0  0  0
  154.3215  134.5267  163.3038 C   0  0  0  0  0  0  0  0  0  0  0  0
  154.2524  135.3176  164.4232 C   0  0  0  0  0  0  0  0  0  0  0  0
  153.8873  136.9735  164.0259 S   0  0  0  0  0  0  0  0  0  0  0  0
  153.8435  136.5252  162.3235 C   0  0  0  0  0  0  0  0  0  0  0  0
  153.6230  137.5157  161.2195 C   0  0  2  0  0  0  0  0  0  0  0  0
  153.4481  136.8305  159.8566 C   0  0  0  0  0  0  0  0  0  0  0  0
  154.6756  138.6468  161.1935 C   0  0  0  0  0  0  0  0  0  0  0  0
  154.0728  139.9644  161.3900 N   0  0  0  0  0  0  0  0  0  0  0  0
  153.7065  140.8026  160.4095 C   0  0  0  0  0  0  0  0  0  0  0  0
  153.7399  140.5239  159.2109 O   0  0  0  0  0  0  0  0  0  0  0  0
  153.3432  141.9995  160.8900 N   0  0  0  0  0  0  0  0  0  0  0  0
  153.0109  143.1617  160.0716 C   0  0  2  0  0  0  0  0  0  0  0  0
  152.4274  144.2836  160.9574 C   0  0  0  0  0  0  0  0  0  0  0  0
  152.1140  145.5599  160.1606 C   0  0  0  0  0  0  0  0  0  0  0  0
  151.0745  145.3203  159.0563 C   0  0  0  0  0  0  0  0  0  0  0  0
  151.6740  144.1191  157.8371 S   0  0  0  0  0  0  0  0  0  0  0  0
  152.0297  142.7423  158.9638 C   0  0  0  0  0  0  0  0  0  0  0  0
  154.0796  135.2256  162.1183 N   0  0  0  0  0  0  0  0  0  0  0  0
  154.6227  132.6201  164.2486 H   0  0  0  0  0  0  0  0  0  0  0  0
  155.6056  132.8816  162.8122 H   0  0  0  0  0  0  0  0  0  0  0  0
  153.8881  132.5279  162.6524 H   0  0  0  0  0  0  0  0  0  0  0  0
  154.3979  135.0289  165.4537 H   0  0  0  0  0  0  0  0  0  0  0  0
  152.6676  137.9954  161.4370 H   0  0  0  0  0  0  0  0  0  0  0  0
  152.6320  136.1078  159.8826 H   0  0  0  0  0  0  0  0  0  0  0  0
  154.3539  136.3001  159.5609 H   0  0  0  0  0  0  0  0  0  0  0  0
  153.2211  137.5584  159.0775 H   0  0  0  0  0  0  0  0  0  0  0  0
  155.4417  138.4604  161.9481 H   0  0  0  0  0  0  0  0  0  0  0  0
  155.1922  138.6496  160.2334 H   0  0  0  0  0  0  0  0  0  0  0  0
  154.0015  140.2915  162.3423 H   0  0  0  0  0  0  0  0  0  0  0  0
  153.3486  142.1333  161.8904 H   0  0  0  0  0  0  0  0  0  0  0  0
  153.9233  143.5249  159.5945 H   0  0  0  0  0  0  0  0  0  0  0  0
  151.5231  143.9321  161.4560 H   0  0  0  0  0  0  0  0  0  0  0  0
  153.1329  144.5323  161.7515 H   0  0  0  0  0  0  0  0  0  0  0  0
  151.7433  146.3262  160.8422 H   0  0  0  0  0  0  0  0  0  0  0  0
  153.0314  145.9569  159.7239 H   0  0  0  0  0  0  0  0  0  0  0  0
  150.1405  144.9560  159.4854 H   0  0  0  0  0  0  0  0  0  0  0  0
  150.8472  146.2546  158.5423 H   0  0  0  0  0  0  0  0  0  0  0  0
  152.4444  141.9213  158.3779 H   0  0  0  0  0  0  0  0  0  0  0  0
  151.0925  142.3874  159.3942 H   0  0  0  0  0  0  0  0  0  0  0  0
  1  2  1  0  0  0  0
  1 20  1  0  0  0  0
  1 21  1  0  0  0  0
  1 22  1  0  0  0  0
  2 19  1  0  0  0  0
  2  3  2  0  0  0  0
  3  4  1  0  0  0  0
  3 23  1  0  0  0  0
  4  5  1  0  0  0  0
  5  6  1  0  0  0  0
  5 19  2  0  0  0  0
  6  7  1  0  0  0  0
  6  8  1  0  0  0  0
  6 24  1  0  0  0  0
  7 25  1  0  0  0  0
  7 26  1  0  0  0  0
  7 27  1  0  0  0  0
  8  9  1  0  0  0  0
  8 28  1  0  0  0  0
  8 29  1  0  0  0  0
  9 10  1  0  0  0  0
  9 30  1  0  0  0  0
 10 11  2  0  0  0  0
 10 12  1  0  0  0  0
 12 13  1  0  0  0  0
 12 31  1  0  0  0  0
 13 18  1  0  0  0  0
 13 14  1  0  0  0  0
 13 32  1  0  0  0  0
 14 15  1  0  0  0  0
 14 33  1  0  0  0  0
 14 34  1  0  0  0  0
 15 16  1  0  0  0  0
 15 35  1  0  0  0  0
 15 36  1  0  0  0  0
 16 17  1  0  0  0  0
 16 37  1  0  0  0  0
 16 38  1  0  0  0  0
 17 18  1  0  0  0  0
 18 39  1  0  0  0  0
 18 40  1  0  0  0  0
M  END
> <s_m_source_file>
AV-unprocessed.smi

> <i_m_source_file_index>
2457

> <i_lp_mmshare_version>
43012

> <i_f3d_flags>
0

> <s_epik_input>
W0NIM11jMVtjSF1zYyhuMSlbQ0BIXShbQ0gzXSlbQ0gyXVtOSF1DKD1PKVtOSF1bQ0BASF0yW0NIMl1bQ0gyXVtDSDJdU1tDSDJdMg==

> <s_epik_cmdline>
J2VwaWtfcHl0aG9uJywgJy1waCcsICc3LjAnLCAnLXRuJywgJzgnLCAnLW1hJywgJzIwMCcsICctbWV0YWxfYmluZGluZycsICctaW1hZScsICc8aW5maWxlLm1hZT4nLCAnLW9tYWUnLCAnPG91dGZpbGUubWFlPic=

> <r_epik_Ionization_Penalty>
0.00154805

> <r_epik_Ionization_Penalty_Charging>
0

> <r_epik_Ionization_Penalty_Neutral>
0.00154805

> <r_epik_State_Penalty>
0.00100357

> <r_epik_Charging_Adjusted_Penalty>
0.00100357

> <i_epik_Tot_Q>
0

> <i_epik_Tot_abs_Q>
0

> <r_epik_Metal_State_Penalty>
-0

> <b_epik_Metal_Only>
0

> <s_lp_Force_Field>
OPLS_2005

> <r_lp_Energy>
-7.34104

> <b_lp_Chiralities_Consistent>
1

> <s_lp_Variant>
AV-unprocessed.smi:2457-1

> <Gold.Version>
5.8.1

> <Gold.Id.Protein>
6NUR|6NUR_protein|mol2

> <Gold.PLP.Fitness>
44.3571

> <Gold.PLP.PLP>
-45.2250

> <Gold.PLP.part.hbond>
-1.0000

> <Gold.PLP.part.metal>
0.0000

> <Gold.PLP.part.buried>
-4.8616

> <Gold.PLP.part.nonpolar>
-38.6065

> <Gold.PLP.part.repulsive>
0.0490

> <Gold.PLP.ligand.clash>
0.0000

> <Gold.PLP.ligand.torsion>
1.0946

> <Gold.PLP.Chemscore.Hbond>
0.4004

> <Gold.PLP.Chemscore.CHOScore>
0.0000

> <Gold.PLP.Chemscore.Metal>
0.0000

> <Gold.Chemscore.Hbonds>
donor molecule, donor type, donor heavy atom, donor atom, acceptor molecule, acceptor atom, score
      P1  H  7997  8009       L1    11  0.23

> <Gold.PLP.Chemscore.Internal.Correction>
0.1201

> <Gold.Rescore>
     Score         DG    S(hbond)    S(metal)    S(lipo)     H(rot)  DE(clash)    DE(int)     intcor
     18.13     -19.23       0.89        0.00     124.06       1.46       0.03       1.08       ----

> <Gold.Chemscore.Fitness>
18.1272

> <Gold.Chemscore.DG>
-19.2332

> <Gold.Chemscore.ZeroCoef>
-5.4800

> <Gold.Chemscore.Hbond>
0.8921

> <Gold.Chemscore.Metal>
0.0000

> <Gold.Chemscore.Lipo>
124.0619

> <Gold.Chemscore.Internal_Hbond>
0.0000

> <Gold.Chemscore.DEClash>
0.0289

> <Gold.Chemscore.DEInternal>
1.0772

> <Gold.Chemscore.Rot>
1.4616

> <Gold.Chemscore.Internal.Correction>
   9.000000E+99

> <Gold.Chemscore.Hbonds>
donor molecule, donor type, donor heavy atom, donor atom, acceptor molecule, acceptor atom, score
      P1  H  7997  8009       L1    11  0.24

> <Gold.Chemscore.Hbond.Weighted>
-2.9796

> <Gold.Chemscore.Metal.Weighted>
-0.0000

> <Gold.Chemscore.Lipo.Weighted>
-14.5152

> <Gold.Chemscore.Internal_Hbond.Weighted>
0.0000

> <Gold.Chemscore.DEClash.Weighted>
0.0289

> <Gold.Chemscore.DEInternal.Weighted>
1.0772

> <Gold.Chemscore.Rot.Weighted>
3.7416

> <Gold.Chemscore.Internal.Correction.Weighted>
   9.000000E+99

> <Gold.Protein.RotatedTorsions>
[ 6907 6896 6895 6894 ] final  176.97 input  -60.11 | X-H torsion
[ 7974 7965 7964 7962 ] final  -46.83 input  175.53 | X-H torsion
[ 8008 7997 7996 7995 ] final  133.42 input   59.86 | X-H torsion
[ 10167 10162 10161 10158 ] final -134.20 input  -65.29 | X-H torsion
[ 10718 10713 10712 10709 ] final  -56.05 input   66.30 | X-H torsion
[ 10763 10752 10751 10750 ] final  128.30 input  -60.55 | X-H torsion
[ 11005 11000 10999 10996 ] final  -12.25 input  -57.11 | X-H torsion

> <Gold.Protein.ActiveResidues>
 VAL166  LYS551  ARG553  GLY616  TRP617  ASP618  TYR619  PRO620  LYS621  CYS622 
 ASP623  PHE694  ASN695  SER759  ASP760  ASP761  ALA762  ILE779  LEU786  VAL792 
 PHE793  MET794  SER795  GLU796  ALA797  LYS798  CYS799  TRP800  GLU811  SER814 

> <Gold.Protein.RotatedAtoms>
  151.7115  133.3312  159.3291 H   0  0  0  0  0  0  0  0  0  0  0  0  # atno 6907 bound_to 6896
  150.7692  134.6527  159.6306 H   0  0  0  0  0  0  0  0  0  0  0  0  # atno 6908 bound_to 6896
  152.3708  134.6739  160.0228 H   0  0  0  0  0  0  0  0  0  0  0  0  # atno 6909 bound_to 6896
  145.9679  140.7413  142.9425 H   0  0  0  0  0  0  0  0  0  0  0  0  # atno 7974 bound_to 7965
  156.2992  140.2522  156.3249 H   0  0  0  0  0  0  0  0  0  0  0  0  # atno 8008 bound_to 7997
  154.9199  140.0401  157.2011 H   0  0  0  0  0  0  0  0  0  0  0  0  # atno 8009 bound_to 7997
  154.8321  140.2877  155.5719 H   0  0  0  0  0  0  0  0  0  0  0  0  # atno 8010 bound_to 7997
  139.8905  143.6728  152.2613 H   0  0  0  0  0  0  0  0  0  0  0  0  # atno 10167 bound_to 10162
  156.1319  130.4159  150.0253 H   0  0  0  0  0  0  0  0  0  0  0  0  # atno 10718 bound_to 10713
  153.7233  135.3250  155.3271 H   0  0  0  0  0  0  0  0  0  0  0  0  # atno 10763 bound_to 10752
  154.8349  135.4505  154.1195 H   0  0  0  0  0  0  0  0  0  0  0  0  # atno 10764 bound_to 10752
  153.2322  135.6961  153.7957 H   0  0  0  0  0  0  0  0  0  0  0  0  # atno 10765 bound_to 10752
  140.7638  133.8493  155.9147 H   0  0  0  0  0  0  0  0  0  0  0  0  # atno 11005 bound_to 11000
  144.6830  140.2699  143.7307 LP  0  0  0  0  0  0  0  0  0  0  0  0  # atno 17320 bound_to 7965
  145.7948  139.1941  143.2082 LP  0  0  0  0  0  0  0  0  0  0  0  0  # atno 17321 bound_to 7965
  139.7114  144.7619  151.1106 LP  0  0  0  0  0  0  0  0  0  0  0  0  # atno 17342 bound_to 10162
  140.7727  143.5326  150.9405 LP  0  0  0  0  0  0  0  0  0  0  0  0  # atno 17343 bound_to 10162
  156.8163  130.9343  151.3642 LP  0  0  0  0  0  0  0  0  0  0  0  0  # atno 17370 bound_to 10713
  157.6496  130.8873  149.9607 LP  0  0  0  0  0  0  0  0  0  0  0  0  # atno 17371 bound_to 10713
  140.9638  134.1621  157.4632 LP  0  0  0  0  0  0  0  0  0  0  0  0  # atno 17394 bound_to 11000
  139.8766  134.9954  156.5743 LP  0  0  0  0  0  0  0  0  0  0  0  0  # atno 17395 bound_to 11000

$$$$
