AV-unprocessed.smi:1915|AV-procd|sdf|7762|dock8
  -GOLD-   22720 9503D 1   1.00000     0.00000
 Structure written by MMmdl.
 45 46  0  0  0  0  0  0  0  0  2 V2000
  150.8911  138.9884  158.7091 C   0  0  0  0  0  0  0  0  0  0  0  0
  152.1399  139.7332  158.2072 C   0  0  0  0  0  0  0  0  0  0  0  0
  152.6787  140.6761  159.2927 C   0  0  0  0  0  0  0  0  0  0  0  0
  151.9095  140.5017  156.8867 C   0  0  0  0  0  0  0  0  0  0  0  0
  151.3932  139.6484  155.8182 N   0  0  0  0  0  0  0  0  0  0  0  0
  152.1436  138.4860  155.3754 C   0  0  0  0  0  0  0  0  0  0  0  0
  151.1738  137.6983  154.4716 C   0  0  1  0  0  0  0  0  0  0  0  0
  150.5835  136.4783  155.1975 C   0  0  0  0  0  0  0  0  0  0  0  0
  150.8896  136.2452  156.3677 O   0  0  0  0  0  0  0  0  0  0  0  0
  149.7586  135.6939  154.4856 N   0  0  0  0  0  0  0  0  0  0  0  0
  149.0993  134.4880  154.9835 C   0  0  0  0  0  0  0  0  0  0  0  0
  149.2769  133.2662  154.0575 C   0  0  0  0  0  0  0  0  0  0  0  0
  148.0163  132.8676  153.3086 C   0  0  0  0  0  0  0  0  0  0  0  0
  147.4208  131.5981  153.4715 C   0  0  0  0  0  0  0  0  0  0  0  0
  146.2798  131.2688  152.7100 C   0  0  0  0  0  0  0  0  0  0  0  0
  145.7566  132.2156  151.8055 C   0  0  0  0  0  0  0  0  0  0  0  0
  146.3877  133.4703  151.6861 C   0  0  0  0  0  0  0  0  0  0  0  0
  147.4811  133.7468  152.4300 N   0  3  0  0  0  0  0  0  0  0  0  0
  150.0836  138.7210  154.0917 C   0  0  0  0  0  0  0  0  0  0  0  0
  150.2877  139.8499  155.0906 C   0  0  0  0  0  0  0  0  0  0  0  0
  149.5051  140.7919  155.2023 O   0  0  0  0  0  0  0  0  0  0  0  0
  150.0539  139.6720  158.8530 H   0  0  0  0  0  0  0  0  0  0  0  0
  151.0860  138.4950  159.6615 H   0  0  0  0  0  0  0  0  0  0  0  0
  150.5760  138.2145  158.0092 H   0  0  0  0  0  0  0  0  0  0  0  0
  152.9105  138.9848  158.0241 H   0  0  0  0  0  0  0  0  0  0  0  0
  151.9545  141.4543  159.5363 H   0  0  0  0  0  0  0  0  0  0  0  0
  153.5970  141.1662  158.9683 H   0  0  0  0  0  0  0  0  0  0  0  0
  152.9043  140.1322  160.2107 H   0  0  0  0  0  0  0  0  0  0  0  0
  151.2292  141.3384  157.0561 H   0  0  0  0  0  0  0  0  0  0  0  0
  152.8477  140.9442  156.5490 H   0  0  0  0  0  0  0  0  0  0  0  0
  153.0170  138.8153  154.8110 H   0  0  0  0  0  0  0  0  0  0  0  0
  152.5015  137.9050  156.2263 H   0  0  0  0  0  0  0  0  0  0  0  0
  151.6951  137.3597  153.5747 H   0  0  0  0  0  0  0  0  0  0  0  0
  149.5603  135.9596  153.5315 H   0  0  0  0  0  0  0  0  0  0  0  0
  149.4539  134.2510  155.9881 H   0  0  0  0  0  0  0  0  0  0  0  0
  148.0368  134.7093  155.0857 H   0  0  0  0  0  0  0  0  0  0  0  0
  150.0600  133.4761  153.3282 H   0  0  0  0  0  0  0  0  0  0  0  0
  149.6297  132.4134  154.6395 H   0  0  0  0  0  0  0  0  0  0  0  0
  147.8408  130.8791  154.1596 H   0  0  0  0  0  0  0  0  0  0  0  0
  145.8150  130.2994  152.8151 H   0  0  0  0  0  0  0  0  0  0  0  0
  144.8867  131.9811  151.2094 H   0  0  0  0  0  0  0  0  0  0  0  0
  146.0592  134.2513  151.0162 H   0  0  0  0  0  0  0  0  0  0  0  0
  150.2380  139.1013  153.0815 H   0  0  0  0  0  0  0  0  0  0  0  0
  149.0677  138.3272  154.1510 H   0  0  0  0  0  0  0  0  0  0  0  0
  147.9283  134.6569  152.3187 H   0  0  0  0  0  0  0  0  0  0  0  0
  1  2  1  0  0  0  0
  1 22  1  0  0  0  0
  1 23  1  0  0  0  0
  1 24  1  0  0  0  0
  2  3  1  0  0  0  0
  2  4  1  0  0  0  0
  2 25  1  0  0  0  0
  3 26  1  0  0  0  0
  3 27  1  0  0  0  0
  3 28  1  0  0  0  0
  4  5  1  0  0  0  0
  4 29  1  0  0  0  0
  4 30  1  0  0  0  0
  5 20  1  0  0  0  0
  5  6  1  0  0  0  0
  6  7  1  0  0  0  0
  6 31  1  0  0  0  0
  6 32  1  0  0  0  0
  7  8  1  0  0  0  0
  7 19  1  0  0  0  0
  7 33  1  0  0  0  0
  8  9  2  0  0  0  0
  8 10  1  0  0  0  0
 10 11  1  0  0  0  0
 10 34  1  0  0  0  0
 11 12  1  0  0  0  0
 11 35  1  0  0  0  0
 11 36  1  0  0  0  0
 12 13  1  0  0  0  0
 12 37  1  0  0  0  0
 12 38  1  0  0  0  0
 13 18  1  0  0  0  0
 13 14  2  0  0  0  0
 14 15  1  0  0  0  0
 14 39  1  0  0  0  0
 15 16  2  0  0  0  0
 15 40  1  0  0  0  0
 16 17  1  0  0  0  0
 16 41  1  0  0  0  0
 17 18  2  0  0  0  0
 17 42  1  0  0  0  0
 18 45  1  0  0  0  0
 19 20  1  0  0  0  0
 19 43  1  0  0  0  0
 19 44  1  0  0  0  0
 20 21  2  0  0  0  0
M  CHG  1  18   1
M  END
> <s_m_source_file>
AV-unprocessed.smi

> <i_m_source_file_index>
1915

> <i_lp_mmshare_version>
43012

> <i_f3d_flags>
0

> <s_epik_input>
W0NIM11bQ0hdKFtDSDNdKVtDSDJdTjFbQ0gyXVtDQEhdKFtDSDJdQzE9TylDKD1PKVtOSF1bQ0gyXVtDSDJdYzJbY0hdW2NIXVtjSF1bY0hdbjI=

> <s_epik_cmdline>
J2VwaWtfcHl0aG9uJywgJy1waCcsICc3LjAnLCAnLXRuJywgJzgnLCAnLW1hJywgJzIwMCcsICctbWV0YWxfYmluZGluZycsICctaW1hZScsICc8aW5maWxlLm1hZT4nLCAnLW9tYWUnLCAnPG91dGZpbGUubWFlPic=

> <r_epik_Ionization_Penalty>
1.88249

> <r_epik_Ionization_Penalty_Charging>
1.88249

> <r_epik_Ionization_Penalty_Neutral>
3.64574e-08

> <r_epik_State_Penalty>
2.00238

> <r_epik_Charging_Adjusted_Penalty>
3.88487

> <i_epik_Tot_Q>
1

> <i_epik_Tot_abs_Q>
1

> <r_epik_Metal_State_Penalty>
2.02676

> <b_epik_Metal_Only>
0

> <s_lp_Force_Field>
OPLS_2005

> <r_lp_Energy>
19.4357

> <b_lp_Chiralities_Consistent>
1

> <s_lp_Variant>
AV-unprocessed.smi:1915-3

> <Gold.Version>
5.8.1

> <Gold.Id.Protein>
6NUR|6NUR_protein|mol2

> <Gold.PLP.Fitness>
48.6904

> <Gold.PLP.PLP>
-40.8800

> <Gold.PLP.part.hbond>
-2.5438

> <Gold.PLP.part.metal>
0.0000

> <Gold.PLP.part.buried>
-3.8798

> <Gold.PLP.part.nonpolar>
-34.4671

> <Gold.PLP.part.repulsive>
0.1836

> <Gold.PLP.ligand.clash>
0.0000

> <Gold.PLP.ligand.torsion>
0.4422

> <Gold.PLP.Chemscore.Hbond>
2.8500

> <Gold.PLP.Chemscore.CHOScore>
0.0000

> <Gold.PLP.Chemscore.Metal>
0.0000

> <Gold.Chemscore.Hbonds>
donor molecule, donor type, donor heavy atom, donor atom, acceptor molecule, acceptor atom, score
      L1  H    10    34       P1  7948  1.00
      L1  H    18    45       P1  7948  2.00

> <Gold.PLP.Chemscore.Internal.Correction>
0.1449

> <Gold.Rescore>
     Score         DG    S(hbond)    S(metal)    S(lipo)     H(rot)  DE(clash)    DE(int)     intcor
     16.00     -16.41       1.85        0.00      81.54       1.86       0.01       0.40       ----

> <Gold.Chemscore.Fitness>
16.0045

> <Gold.Chemscore.DG>
-16.4122

> <Gold.Chemscore.ZeroCoef>
-5.4800

> <Gold.Chemscore.Hbond>
1.8452

> <Gold.Chemscore.Metal>
0.0000

> <Gold.Chemscore.Lipo>
81.5429

> <Gold.Chemscore.Internal_Hbond>
0.0000

> <Gold.Chemscore.DEClash>
0.0089

> <Gold.Chemscore.DEInternal>
0.3988

> <Gold.Chemscore.Rot>
1.8638

> <Gold.Chemscore.Internal.Correction>
   9.000000E+99

> <Gold.Chemscore.Hbonds>
donor molecule, donor type, donor heavy atom, donor atom, acceptor molecule, acceptor atom, score
      L1  H    10    34       P1  7948  0.30
      L1  H    18    45       P1  7948  0.50

> <Gold.Chemscore.Hbond.Weighted>
-6.1630

> <Gold.Chemscore.Metal.Weighted>
-0.0000

> <Gold.Chemscore.Lipo.Weighted>
-9.5405

> <Gold.Chemscore.Internal_Hbond.Weighted>
0.0000

> <Gold.Chemscore.DEClash.Weighted>
0.0089

> <Gold.Chemscore.DEInternal.Weighted>
0.3988

> <Gold.Chemscore.Rot.Weighted>
4.7713

> <Gold.Chemscore.Internal.Correction.Weighted>
   9.000000E+99

> <Gold.Protein.RotatedTorsions>
[ 6907 6896 6895 6894 ] final   -9.88 input  -60.11 | X-H torsion
[ 7974 7965 7964 7962 ] final  109.01 input  175.53 | X-H torsion
[ 8008 7997 7996 7995 ] final  -41.68 input   59.86 | X-H torsion
[ 10167 10162 10161 10158 ] final  116.83 input  -65.29 | X-H torsion
[ 10718 10713 10712 10709 ] final  128.59 input   66.30 | X-H torsion
[ 10763 10752 10751 10750 ] final  164.21 input  -60.55 | X-H torsion
[ 11005 11000 10999 10996 ] final   51.98 input  -57.11 | X-H torsion

> <Gold.Protein.ActiveResidues>
 VAL166  LYS551  ARG553  GLY616  TRP617  ASP618  TYR619  PRO620  LYS621  CYS622 
 ASP623  PHE694  ASN695  SER759  ASP760  ASP761  ALA762  ILE779  LEU786  VAL792 
 PHE793  MET794  SER795  GLU796  ALA797  LYS798  CYS799  TRP800  GLU811  SER814 

> <Gold.Protein.RotatedAtoms>
  151.4108  135.0984  159.9584 H   0  0  0  0  0  0  0  0  0  0  0  0  # atno 6907 bound_to 6896
  152.5020  133.8799  159.7351 H   0  0  0  0  0  0  0  0  0  0  0  0  # atno 6908 bound_to 6896
  150.9294  133.6728  159.2842 H   0  0  0  0  0  0  0  0  0  0  0  0  # atno 6909 bound_to 6896
  145.2732  139.2659  143.3955 H   0  0  0  0  0  0  0  0  0  0  0  0  # atno 7974 bound_to 7965
  154.4003  140.1493  156.3230 H   0  0  0  0  0  0  0  0  0  0  0  0  # atno 8008 bound_to 7997
  155.8512  140.3458  155.5673 H   0  0  0  0  0  0  0  0  0  0  0  0  # atno 8009 bound_to 7997
  155.7982  140.0866  157.1962 H   0  0  0  0  0  0  0  0  0  0  0  0  # atno 8010 bound_to 7997
  139.6220  144.7102  151.2614 H   0  0  0  0  0  0  0  0  0  0  0  0  # atno 10167 bound_to 10162
  157.5231  131.1098  150.9123 H   0  0  0  0  0  0  0  0  0  0  0  0  # atno 10718 bound_to 10713
  154.3054  135.2758  155.2591 H   0  0  0  0  0  0  0  0  0  0  0  0  # atno 10763 bound_to 10752
  154.5010  135.5808  153.6534 H   0  0  0  0  0  0  0  0  0  0  0  0  # atno 10764 bound_to 10752
  152.9895  135.6158  154.3227 H   0  0  0  0  0  0  0  0  0  0  0  0  # atno 10765 bound_to 10752
  140.0887  134.5238  155.8873 H   0  0  0  0  0  0  0  0  0  0  0  0  # atno 11005 bound_to 11000
  146.3240  140.3181  142.8631 LP  0  0  0  0  0  0  0  0  0  0  0  0  # atno 17320 bound_to 7965
  144.9317  140.7982  143.5685 LP  0  0  0  0  0  0  0  0  0  0  0  0  # atno 17321 bound_to 7965
  140.7388  143.6638  150.8141 LP  0  0  0  0  0  0  0  0  0  0  0  0  # atno 17342 bound_to 10162
  140.0250  143.5503  152.2784 LP  0  0  0  0  0  0  0  0  0  0  0  0  # atno 17343 bound_to 10162
  156.9728  130.5497  149.5291 LP  0  0  0  0  0  0  0  0  0  0  0  0  # atno 17370 bound_to 10713
  156.0368  130.5454  150.8672 LP  0  0  0  0  0  0  0  0  0  0  0  0  # atno 17371 bound_to 10713
  141.2071  133.6661  156.6284 LP  0  0  0  0  0  0  0  0  0  0  0  0  # atno 17394 bound_to 11000
  140.3383  134.7871  157.4378 LP  0  0  0  0  0  0  0  0  0  0  0  0  # atno 17395 bound_to 11000

$$$$
