AV-unprocessed.smi:1207|AV-procd|sdf|5059|dock10
  -GOLD-   22720 4 93D 1   1.00000     0.00000
 Structure written by MMmdl.
 53 55  0  0  0  0  0  0  0  0  3 V2000
  152.0004  143.4786  160.2287 C   0  0  0  0  0  0  0  0  0  0  0  0
  151.7687  142.4867  159.1015 C   0  0  0  0  0  0  0  0  0  0  0  0
  150.9400  142.8726  158.0237 C   0  0  0  0  0  0  0  0  0  0  0  0
  150.7472  141.9442  157.0079 C   0  0  0  0  0  0  0  0  0  0  0  0
  150.0049  142.0199  155.8273 N   0  3  0  0  0  0  0  0  0  0  0  0
  150.1215  140.8495  155.1409 C   0  0  0  0  0  0  0  0  0  0  0  0
  150.9172  140.0223  155.8729 N   0  0  0  0  0  0  0  0  0  0  0  0
  151.3682  138.6530  155.5941 C   0  0  0  0  0  0  0  0  0  0  0  0
  150.4287  137.8796  154.6458 C   0  0  2  0  0  0  0  0  0  0  0  0
  150.5398  138.4599  153.3626 O   0  0  0  0  0  0  0  0  0  0  0  0
  148.9455  137.9017  155.0768 C   0  0  0  0  0  0  0  0  0  0  0  0
  148.0769  137.2019  154.0966 N   0  3  2  0  0  0  0  0  0  0  0  0
  147.0048  138.0782  153.5700 C   0  0  0  0  0  0  0  0  0  0  0  0
  147.5595  135.9024  154.5985 C   0  0  0  0  0  0  0  0  0  0  0  0
  148.6762  134.9084  154.7804 C   0  0  0  0  0  0  0  0  0  0  0  0
  149.0062  133.7777  153.9767 C   0  0  0  0  0  0  0  0  0  0  0  0
  148.3340  133.2691  152.7336 C   0  0  0  0  0  0  0  0  0  0  0  0
  150.0588  133.1308  154.4470 N   0  0  0  0  0  0  0  0  0  0  0  0
  150.4556  133.8227  155.5950 O   0  0  0  0  0  0  0  0  0  0  0  0
  149.6165  134.8735  155.7730 C   0  0  0  0  0  0  0  0  0  0  0  0
  149.8703  135.7437  156.9577 C   0  0  0  0  0  0  0  0  0  0  0  0
  151.3435  140.6687  157.0384 C   0  0  0  0  0  0  0  0  0  0  0  0
  152.1684  140.2747  158.0891 C   0  0  0  0  0  0  0  0  0  0  0  0
  152.3758  141.2045  159.1330 C   0  0  0  0  0  0  0  0  0  0  0  0
  153.2666  140.8013  160.2958 C   0  0  0  0  0  0  0  0  0  0  0  0
  151.4700  144.4148  160.0521 H   0  0  0  0  0  0  0  0  0  0  0  0
  153.0616  143.7105  160.3219 H   0  0  0  0  0  0  0  0  0  0  0  0
  151.6496  143.0706  161.1771 H   0  0  0  0  0  0  0  0  0  0  0  0
  150.4783  143.8488  157.9913 H   0  0  0  0  0  0  0  0  0  0  0  0
  149.6637  140.6200  154.1892 H   0  0  0  0  0  0  0  0  0  0  0  0
  152.3670  138.7236  155.1609 H   0  0  0  0  0  0  0  0  0  0  0  0
  151.4780  138.1323  156.5468 H   0  0  0  0  0  0  0  0  0  0  0  0
  150.7791  136.8517  154.5658 H   0  0  0  0  0  0  0  0  0  0  0  0
  150.1053  137.9011  152.7357 H   0  0  0  0  0  0  0  0  0  0  0  0
  148.8080  137.4403  156.0555 H   0  0  0  0  0  0  0  0  0  0  0  0
  148.6326  138.9413  155.1876 H   0  0  0  0  0  0  0  0  0  0  0  0
  146.3085  138.3624  154.3600 H   0  0  0  0  0  0  0  0  0  0  0  0
  146.4424  137.5800  152.7806 H   0  0  0  0  0  0  0  0  0  0  0  0
  147.4250  138.9881  153.1404 H   0  0  0  0  0  0  0  0  0  0  0  0
  147.0513  136.0482  155.5514 H   0  0  0  0  0  0  0  0  0  0  0  0
  146.7892  135.5309  153.9217 H   0  0  0  0  0  0  0  0  0  0  0  0
  147.6158  133.9882  152.3410 H   0  0  0  0  0  0  0  0  0  0  0  0
  147.7977  132.3410  152.9321 H   0  0  0  0  0  0  0  0  0  0  0  0
  149.0616  133.0708  151.9460 H   0  0  0  0  0  0  0  0  0  0  0  0
  149.8974  136.7940  156.6673 H   0  0  0  0  0  0  0  0  0  0  0  0
  150.8233  135.5007  157.4285 H   0  0  0  0  0  0  0  0  0  0  0  0
  149.0845  135.6191  157.7026 H   0  0  0  0  0  0  0  0  0  0  0  0
  152.6354  139.3012  158.1112 H   0  0  0  0  0  0  0  0  0  0  0  0
  153.6693  139.7970  160.1611 H   0  0  0  0  0  0  0  0  0  0  0  0
  152.7043  140.8123  161.2299 H   0  0  0  0  0  0  0  0  0  0  0  0
  154.1089  141.4870  160.3898 H   0  0  0  0  0  0  0  0  0  0  0  0
  148.6760  136.9912  153.3107 H   0  0  0  0  0  0  0  0  0  0  0  0
  149.4656  142.8142  155.5066 H   0  0  0  0  0  0  0  0  0  0  0  0
  1  2  1  0  0  0  0
  1 26  1  0  0  0  0
  1 27  1  0  0  0  0
  1 28  1  0  0  0  0
  2 24  1  0  0  0  0
  2  3  2  0  0  0  0
  3  4  1  0  0  0  0
  3 29  1  0  0  0  0
  4 22  2  0  0  0  0
  4  5  1  0  0  0  0
  5  6  2  0  0  0  0
  5 53  1  0  0  0  0
  6  7  1  0  0  0  0
  6 30  1  0  0  0  0
  7  8  1  0  0  0  0
  7 22  1  0  0  0  0
  8  9  1  0  0  0  0
  8 31  1  0  0  0  0
  8 32  1  0  0  0  0
  9 10  1  0  0  0  0
  9 11  1  0  0  0  0
  9 33  1  0  0  0  0
 10 34  1  0  0  0  0
 11 12  1  0  0  0  0
 11 35  1  0  0  0  0
 11 36  1  0  0  0  0
 12 13  1  0  0  0  0
 12 14  1  0  0  0  0
 12 52  1  0  0  0  0
 13 37  1  0  0  0  0
 13 38  1  0  0  0  0
 13 39  1  0  0  0  0
 14 15  1  0  0  0  0
 14 40  1  0  0  0  0
 14 41  1  0  0  0  0
 15 20  2  0  0  0  0
 15 16  1  0  0  0  0
 16 17  1  0  0  0  0
 16 18  2  0  0  0  0
 17 42  1  0  0  0  0
 17 43  1  0  0  0  0
 17 44  1  0  0  0  0
 18 19  1  0  0  0  0
 19 20  1  0  0  0  0
 20 21  1  0  0  0  0
 21 45  1  0  0  0  0
 21 46  1  0  0  0  0
 21 47  1  0  0  0  0
 22 23  1  0  0  0  0
 23 24  2  0  0  0  0
 23 48  1  0  0  0  0
 24 25  1  0  0  0  0
 25 49  1  0  0  0  0
 25 50  1  0  0  0  0
 25 51  1  0  0  0  0
M  CHG  1   5   1
M  CHG  1  12   1
M  END
> <s_m_source_file>
AV-unprocessed.smi

> <i_m_source_file_index>
1207

> <i_lp_mmshare_version>
43012

> <i_f3d_flags>
0

> <s_epik_input>
W0NIM11jKFtjSF0xKWMoW0NIM10pW2NIXWMoYzEyKW4oW2NIXW4yKVtDSDJdW0NASF0oW09IXSlbQ0gyXU4oW0NIM10pW0NIMl1jM2MoW0NIM10pbm9jM1tDSDNd

> <s_epik_cmdline>
J2VwaWtfcHl0aG9uJywgJy1waCcsICc3LjAnLCAnLXRuJywgJzgnLCAnLW1hJywgJzIwMCcsICctbWV0YWxfYmluZGluZycsICctaW1hZScsICc8aW5maWxlLm1hZT4nLCAnLW9tYWUnLCAnPG91dGZpbGUubWFlPic=

> <r_epik_Ionization_Penalty>
1.77463

> <r_epik_Ionization_Penalty_Charging>
1.77463

> <r_epik_Ionization_Penalty_Neutral>
3.70885e-06

> <r_epik_State_Penalty>
1.85225

> <r_epik_Charging_Adjusted_Penalty>
3.62688

> <i_epik_Tot_Q>
2

> <i_epik_Tot_abs_Q>
2

> <r_epik_Metal_State_Penalty>
1.92674

> <b_epik_Metal_Only>
0

> <s_lp_Force_Field>
OPLS_2005

> <r_lp_Energy>
20.2471

> <b_lp_Chiralities_Consistent>
1

> <s_lp_Variant>
AV-unprocessed.smi:1207-11

> <Gold.Version>
5.8.1

> <Gold.Id.Protein>
6NUR|6NUR_protein|mol2

> <Gold.PLP.Fitness>
55.4946

> <Gold.PLP.PLP>
-43.0556

> <Gold.PLP.part.hbond>
-4.5536

> <Gold.PLP.part.metal>
0.0000

> <Gold.PLP.part.buried>
-2.8690

> <Gold.PLP.part.nonpolar>
-35.8491

> <Gold.PLP.part.repulsive>
0.2149

> <Gold.PLP.ligand.clash>
0.0000

> <Gold.PLP.ligand.torsion>
1.3421

> <Gold.PLP.Chemscore.Hbond>
5.0000

> <Gold.PLP.Chemscore.CHOScore>
0.0000

> <Gold.PLP.Chemscore.Metal>
0.0000

> <Gold.Chemscore.Hbonds>
donor molecule, donor type, donor heavy atom, donor atom, acceptor molecule, acceptor atom, score
      L1  H     5    53       P1  8028  2.00
      L1  H    10    34       P1  7948  0.56
      L1  H    12    52       P1  7948  2.00

> <Gold.PLP.Chemscore.Internal.Correction>
0.1231

> <Gold.Rescore>
     Score         DG    S(hbond)    S(metal)    S(lipo)     H(rot)  DE(clash)    DE(int)     intcor
     18.14     -20.47       2.68        0.00     107.15       2.54       0.02       2.31       ----

> <Gold.Chemscore.Fitness>
18.1439

> <Gold.Chemscore.DG>
-20.4738

> <Gold.Chemscore.ZeroCoef>
-5.4800

> <Gold.Chemscore.Hbond>
2.6789

> <Gold.Chemscore.Metal>
0.0000

> <Gold.Chemscore.Lipo>
107.1480

> <Gold.Chemscore.Internal_Hbond>
0.0000

> <Gold.Chemscore.DEClash>
0.0177

> <Gold.Chemscore.DEInternal>
2.3122

> <Gold.Chemscore.Rot>
2.5351

> <Gold.Chemscore.Internal.Correction>
   9.000000E+99

> <Gold.Chemscore.Hbonds>
donor molecule, donor type, donor heavy atom, donor atom, acceptor molecule, acceptor atom, score
      L1  H     5    53       P1  8028  0.93
      L1  H    10    34       P1  7948  0.08
      L1  H    12    52       P1  7948  0.96

> <Gold.Chemscore.Hbond.Weighted>
-8.9475

> <Gold.Chemscore.Metal.Weighted>
-0.0000

> <Gold.Chemscore.Lipo.Weighted>
-12.5363

> <Gold.Chemscore.Internal_Hbond.Weighted>
0.0000

> <Gold.Chemscore.DEClash.Weighted>
0.0177

> <Gold.Chemscore.DEInternal.Weighted>
2.3122

> <Gold.Chemscore.Rot.Weighted>
6.4900

> <Gold.Chemscore.Internal.Correction.Weighted>
   9.000000E+99

> <Gold.Protein.RotatedTorsions>
[ 6907 6896 6895 6894 ] final  112.88 input  -60.11 | X-H torsion
[ 7974 7965 7964 7962 ] final  -54.67 input  175.53 | X-H torsion
[ 8008 7997 7996 7995 ] final  -88.86 input   59.86 | X-H torsion
[ 10167 10162 10161 10158 ] final   88.43 input  -65.29 | X-H torsion
[ 10718 10713 10712 10709 ] final  -55.21 input   66.30 | X-H torsion
[ 10763 10752 10751 10750 ] final  168.65 input  -60.55 | X-H torsion
[ 11005 11000 10999 10996 ] final  -59.70 input  -57.11 | X-H torsion

> <Gold.Protein.ActiveResidues>
 VAL166  LYS551  ARG553  GLY616  TRP617  ASP618  TYR619  PRO620  LYS621  CYS622 
 ASP623  PHE694  ASN695  SER759  ASP760  ASP761  ALA762  ILE779  LEU786  VAL792 
 PHE793  MET794  SER795  GLU796  ALA797  LYS798  CYS799  TRP800  GLU811  SER814 

> <Gold.Protein.RotatedAtoms>
  152.4892  133.8454  159.7173 H   0  0  0  0  0  0  0  0  0  0  0  0  # atno 6907 bound_to 6896
  150.9006  133.7114  159.2886 H   0  0  0  0  0  0  0  0  0  0  0  0  # atno 6908 bound_to 6896
  151.4557  135.1038  159.9762 H   0  0  0  0  0  0  0  0  0  0  0  0  # atno 6909 bound_to 6896
  145.8829  140.8130  142.9830 H   0  0  0  0  0  0  0  0  0  0  0  0  # atno 7974 bound_to 7965
  154.6797  140.0548  157.0253 H   0  0  0  0  0  0  0  0  0  0  0  0  # atno 8008 bound_to 7997
  155.0969  140.3225  155.4539 H   0  0  0  0  0  0  0  0  0  0  0  0  # atno 8009 bound_to 7997
  156.2689  140.2038  156.6096 H   0  0  0  0  0  0  0  0  0  0  0  0  # atno 8010 bound_to 7997
  139.8674  144.6511  150.8988 H   0  0  0  0  0  0  0  0  0  0  0  0  # atno 10167 bound_to 10162
  156.1387  130.4155  150.0140 H   0  0  0  0  0  0  0  0  0  0  0  0  # atno 10718 bound_to 10713
  154.3716  135.2753  155.2263 H   0  0  0  0  0  0  0  0  0  0  0  0  # atno 10763 bound_to 10752
  154.4408  135.5955  153.6131 H   0  0  0  0  0  0  0  0  0  0  0  0  # atno 10764 bound_to 10752
  152.9838  135.6018  154.3948 H   0  0  0  0  0  0  0  0  0  0  0  0  # atno 10765 bound_to 10752
  141.1258  133.6618  156.5111 H   0  0  0  0  0  0  0  0  0  0  0  0  # atno 11005 bound_to 11000
  144.6728  140.1411  143.7437 LP  0  0  0  0  0  0  0  0  0  0  0  0  # atno 17320 bound_to 7965
  145.9002  139.2426  143.1498 LP  0  0  0  0  0  0  0  0  0  0  0  0  # atno 17321 bound_to 7965
  140.7766  143.3693  151.1680 LP  0  0  0  0  0  0  0  0  0  0  0  0  # atno 17342 bound_to 10162
  139.7316  143.9064  152.3021 LP  0  0  0  0  0  0  0  0  0  0  0  0  # atno 17343 bound_to 10162
  156.8032  130.9298  151.3645 LP  0  0  0  0  0  0  0  0  0  0  0  0  # atno 17370 bound_to 10713
  157.6556  130.8922  149.9722 LP  0  0  0  0  0  0  0  0  0  0  0  0  # atno 17371 bound_to 10713
  140.4368  134.7052  157.4971 LP  0  0  0  0  0  0  0  0  0  0  0  0  # atno 17394 bound_to 11000
  140.0256  134.6482  155.9177 LP  0  0  0  0  0  0  0  0  0  0  0  0  # atno 17395 bound_to 11000

$$$$
