AV-unprocessed.smi:2995|AV-procd|sdf|11407|dock7
  -GOLD-   2272016333D 1   1.00000     0.00000
 Structure written by MMmdl.
 49 51  0  0  0  0  0  0  0  0  2 V2000
  147.4328  133.2638  152.2512 C   0  0  0  0  0  0  0  0  0  0  0  0
  146.2043  133.5657  151.4115 C   0  0  0  0  0  0  0  0  0  0  0  0
  145.5144  132.5134  150.7749 C   0  0  0  0  0  0  0  0  0  0  0  0
  144.3767  132.8202  150.0045 C   0  0  0  0  0  0  0  0  0  0  0  0
  143.9046  134.0737  149.8492 N   0  0  0  0  0  0  0  0  0  0  0  0
  144.5671  135.0800  150.4576 C   0  0  0  0  0  0  0  0  0  0  0  0
  145.7319  134.8898  151.2429 C   0  0  0  0  0  0  0  0  0  0  0  0
  146.4103  135.9559  151.8971 N   0  0  0  0  0  0  0  0  0  0  0  0
  145.8788  137.0286  152.5075 C   0  0  0  0  0  0  0  0  0  0  0  0
  144.6759  137.2731  152.5982 O   0  0  0  0  0  0  0  0  0  0  0  0
  146.8342  137.8329  152.9959 N   0  0  0  0  0  0  0  0  0  0  0  0
  146.5931  139.0908  153.6966 C   0  0  2  0  0  0  0  0  0  0  0  0
  147.2829  140.2634  152.9717 C   0  0  0  0  0  0  0  0  0  0  0  0
  147.1438  141.5727  153.7712 C   0  0  0  0  0  0  0  0  0  0  0  0
  147.6683  141.4384  155.1584 N   0  3  2  0  0  0  0  0  0  0  0  0
  149.1586  141.3938  155.2560 C   0  0  0  0  0  0  0  0  0  0  0  0
  149.7792  140.1423  154.6196 C   0  0  0  0  0  0  0  0  0  0  0  0
  151.1728  140.0241  155.2433 C   0  0  0  0  0  0  0  0  0  0  0  0
  151.1006  140.7556  156.5904 C   0  0  0  0  0  0  0  0  0  0  0  0
  149.6775  141.3134  156.6989 C   0  0  0  0  0  0  0  0  0  0  0  0
  146.9666  140.3386  155.8771 C   0  0  0  0  0  0  0  0  0  0  0  0
  147.1027  138.9898  155.1446 C   0  0  0  0  0  0  0  0  0  0  0  0
  147.6573  132.1969  152.2571 H   0  0  0  0  0  0  0  0  0  0  0  0
  147.2757  133.5810  153.2823 H   0  0  0  0  0  0  0  0  0  0  0  0
  148.3026  133.7891  151.8559 H   0  0  0  0  0  0  0  0  0  0  0  0
  145.8457  131.4900  150.8714 H   0  0  0  0  0  0  0  0  0  0  0  0
  143.8277  132.0360  149.5043 H   0  0  0  0  0  0  0  0  0  0  0  0
  144.1266  136.0553  150.3205 H   0  0  0  0  0  0  0  0  0  0  0  0
  147.4169  135.9376  151.8239 H   0  0  0  0  0  0  0  0  0  0  0  0
  147.7973  137.5556  152.8724 H   0  0  0  0  0  0  0  0  0  0  0  0
  145.5181  139.2794  153.7299 H   0  0  0  0  0  0  0  0  0  0  0  0
  148.3372  140.0371  152.8090 H   0  0  0  0  0  0  0  0  0  0  0  0
  146.8470  140.3979  151.9812 H   0  0  0  0  0  0  0  0  0  0  0  0
  147.6233  142.3960  153.2434 H   0  0  0  0  0  0  0  0  0  0  0  0
  146.0885  141.8424  153.8317 H   0  0  0  0  0  0  0  0  0  0  0  0
  149.5920  142.2744  154.7806 H   0  0  0  0  0  0  0  0  0  0  0  0
  149.1914  139.2607  154.8801 H   0  0  0  0  0  0  0  0  0  0  0  0
  149.8299  140.1993  153.5318 H   0  0  0  0  0  0  0  0  0  0  0  0
  151.4725  138.9817  155.3577 H   0  0  0  0  0  0  0  0  0  0  0  0
  151.9117  140.5068  154.6024 H   0  0  0  0  0  0  0  0  0  0  0  0
  151.3306  140.0935  157.4259 H   0  0  0  0  0  0  0  0  0  0  0  0
  151.8284  141.5679  156.6088 H   0  0  0  0  0  0  0  0  0  0  0  0
  149.6618  142.2773  157.2088 H   0  0  0  0  0  0  0  0  0  0  0  0
  149.0638  140.6218  157.2786 H   0  0  0  0  0  0  0  0  0  0  0  0
  147.3128  140.2525  156.9062 H   0  0  0  0  0  0  0  0  0  0  0  0
  145.9100  140.6007  155.9482 H   0  0  0  0  0  0  0  0  0  0  0  0
  146.5399  138.2252  155.6817 H   0  0  0  0  0  0  0  0  0  0  0  0
  148.1435  138.6642  155.1568 H   0  0  0  0  0  0  0  0  0  0  0  0
  147.4033  142.2889  155.6347 H   0  0  0  0  0  0  0  0  0  0  0  0
  1  2  1  0  0  0  0
  1 23  1  0  0  0  0
  1 24  1  0  0  0  0
  1 25  1  0  0  0  0
  2  7  1  0  0  0  0
  2  3  2  0  0  0  0
  3  4  1  0  0  0  0
  3 26  1  0  0  0  0
  4  5  2  0  0  0  0
  4 27  1  0  0  0  0
  5  6  1  0  0  0  0
  6  7  2  0  0  0  0
  6 28  1  0  0  0  0
  7  8  1  0  0  0  0
  8  9  1  0  0  0  0
  8 29  1  0  0  0  0
  9 10  2  0  0  0  0
  9 11  1  0  0  0  0
 11 12  1  0  0  0  0
 11 30  1  0  0  0  0
 12 22  1  0  0  0  0
 12 13  1  0  0  0  0
 12 31  1  0  0  0  0
 13 14  1  0  0  0  0
 13 32  1  0  0  0  0
 13 33  1  0  0  0  0
 14 15  1  0  0  0  0
 14 34  1  0  0  0  0
 14 35  1  0  0  0  0
 15 16  1  0  0  0  0
 15 21  1  0  0  0  0
 15 49  1  0  0  0  0
 16 20  1  0  0  0  0
 16 17  1  0  0  0  0
 16 36  1  0  0  0  0
 17 18  1  0  0  0  0
 17 37  1  0  0  0  0
 17 38  1  0  0  0  0
 18 19  1  0  0  0  0
 18 39  1  0  0  0  0
 18 40  1  0  0  0  0
 19 20  1  0  0  0  0
 19 41  1  0  0  0  0
 19 42  1  0  0  0  0
 20 43  1  0  0  0  0
 20 44  1  0  0  0  0
 21 22  1  0  0  0  0
 21 45  1  0  0  0  0
 21 46  1  0  0  0  0
 22 47  1  0  0  0  0
 22 48  1  0  0  0  0
M  CHG  1  15   1
M  END
> <s_m_source_file>
AV-unprocessed.smi

> <i_m_source_file_index>
2995

> <i_lp_mmshare_version>
43012

> <i_f3d_flags>
0

> <s_epik_input>
W0NIM11jMVtjSF1bY0hdbltjSF1jMVtOSF1DKD1PKVtOSF1bQ0hdMltDSDJdW0NIMl1OKFtDSDJdW0NIMl0yKVtDSF0zW0NIMl1bQ0gyXVtDSDJdW0NIMl0z

> <s_epik_cmdline>
J2VwaWtfcHl0aG9uJywgJy1waCcsICc3LjAnLCAnLXRuJywgJzgnLCAnLW1hJywgJzIwMCcsICctbWV0YWxfYmluZGluZycsICctaW1hZScsICc8aW5maWxlLm1hZT4nLCAnLW9tYWUnLCAnPG91dGZpbGUubWFlPic=

> <r_epik_Ionization_Penalty>
0.0196897

> <r_epik_Ionization_Penalty_Charging>
0.00179121

> <r_epik_Ionization_Penalty_Neutral>
0.0178985

> <r_epik_State_Penalty>
0.014187

> <r_epik_Charging_Adjusted_Penalty>
0.0159782

> <i_epik_Tot_Q>
1

> <i_epik_Tot_abs_Q>
1

> <r_epik_Metal_State_Penalty>
0.013703

> <b_epik_Metal_Only>
0

> <s_lp_Force_Field>
OPLS_2005

> <r_lp_Energy>
42.3495

> <b_lp_Chiralities_Consistent>
1

> <s_lp_Variant>
AV-unprocessed.smi:2995-2

> <Gold.Version>
5.8.1

> <Gold.Id.Protein>
6NUR|6NUR_protein|mol2

> <Gold.PLP.Fitness>
41.9625

> <Gold.PLP.PLP>
-35.5818

> <Gold.PLP.part.hbond>
-1.9883

> <Gold.PLP.part.metal>
0.0000

> <Gold.PLP.part.buried>
-3.0762

> <Gold.PLP.part.nonpolar>
-32.8543

> <Gold.PLP.part.repulsive>
1.7905

> <Gold.PLP.ligand.clash>
1.5049

> <Gold.PLP.ligand.torsion>
0.3326

> <Gold.PLP.Chemscore.Hbond>
1.8320

> <Gold.PLP.Chemscore.CHOScore>
1.0000

> <Gold.PLP.Chemscore.Metal>
0.0000

> <Gold.Chemscore.Hbonds>
donor molecule, donor type, donor heavy atom, donor atom, acceptor molecule, acceptor atom, score
      L1  H     8    29       P1  7948  1.00
      L1  H    11    30       P1  7948  0.83
      L1  C     6    28       P1 10171  0.89

> <Gold.PLP.Chemscore.Internal.Correction>
0.0549

> <Gold.Rescore>
     Score         DG    S(hbond)    S(metal)    S(lipo)     H(rot)  DE(clash)    DE(int)     intcor
     15.80     -19.65       1.84        0.00      94.25       1.17       0.69       3.15       ----

> <Gold.Chemscore.Fitness>
15.8045

> <Gold.Chemscore.DG>
-19.6491

> <Gold.Chemscore.ZeroCoef>
-5.4800

> <Gold.Chemscore.Hbond>
1.8398

> <Gold.Chemscore.Metal>
0.0000

> <Gold.Chemscore.Lipo>
94.2487

> <Gold.Chemscore.Internal_Hbond>
0.0000

> <Gold.Chemscore.DEClash>
0.6911

> <Gold.Chemscore.DEInternal>
3.1535

> <Gold.Chemscore.Rot>
1.1731

> <Gold.Chemscore.Internal.Correction>
   9.000000E+99

> <Gold.Chemscore.Hbonds>
donor molecule, donor type, donor heavy atom, donor atom, acceptor molecule, acceptor atom, score
      L1  H     8    29       P1  7948  0.93
      L1  H    11    30       P1  7948  0.79

> <Gold.Chemscore.Hbond.Weighted>
-6.1450

> <Gold.Chemscore.Metal.Weighted>
-0.0000

> <Gold.Chemscore.Lipo.Weighted>
-11.0271

> <Gold.Chemscore.Internal_Hbond.Weighted>
0.0000

> <Gold.Chemscore.DEClash.Weighted>
0.6911

> <Gold.Chemscore.DEInternal.Weighted>
3.1535

> <Gold.Chemscore.Rot.Weighted>
3.0030

> <Gold.Chemscore.Internal.Correction.Weighted>
   9.000000E+99

> <Gold.Protein.RotatedTorsions>
[ 6907 6896 6895 6894 ] final   52.43 input  -60.11 | X-H torsion
[ 7974 7965 7964 7962 ] final  -26.22 input  175.53 | X-H torsion
[ 8008 7997 7996 7995 ] final   59.24 input   59.86 | X-H torsion
[ 10167 10162 10161 10158 ] final -128.33 input  -65.29 | X-H torsion
[ 10718 10713 10712 10709 ] final -167.26 input   66.30 | X-H torsion
[ 10763 10752 10751 10750 ] final  146.44 input  -60.55 | X-H torsion
[ 11005 11000 10999 10996 ] final  -18.91 input  -57.11 | X-H torsion

> <Gold.Protein.ActiveResidues>
 VAL166  LYS551  ARG553  GLY616  TRP617  ASP618  TYR619  PRO620  LYS621  CYS622 
 ASP623  PHE694  ASN695  SER759  ASP760  ASP761  ALA762  ILE779  LEU786  VAL792 
 PHE793  MET794  SER795  GLU796  ALA797  LYS798  CYS799  TRP800  GLU811  SER814 

> <Gold.Protein.RotatedAtoms>
  152.3232  134.7354  160.0308 H   0  0  0  0  0  0  0  0  0  0  0  0  # atno 6907 bound_to 6896
  151.7796  133.3343  159.3475 H   0  0  0  0  0  0  0  0  0  0  0  0  # atno 6908 bound_to 6896
  150.7381  134.5875  159.6014 H   0  0  0  0  0  0  0  0  0  0  0  0  # atno 6909 bound_to 6896
  146.1440  140.4991  142.8640 H   0  0  0  0  0  0  0  0  0  0  0  0  # atno 7974 bound_to 7965
  155.5631  140.3488  155.4496 H   0  0  0  0  0  0  0  0  0  0  0  0  # atno 8008 bound_to 7997
  156.0500  140.1315  157.0087 H   0  0  0  0  0  0  0  0  0  0  0  0  # atno 8009 bound_to 7997
  154.4430  140.1007  156.6347 H   0  0  0  0  0  0  0  0  0  0  0  0  # atno 8010 bound_to 7997
  139.9514  143.6051  152.2474 H   0  0  0  0  0  0  0  0  0  0  0  0  # atno 10167 bound_to 10162
  156.6798  130.9117  151.3055 H   0  0  0  0  0  0  0  0  0  0  0  0  # atno 10718 bound_to 10713
  154.0220  135.2905  155.3380 H   0  0  0  0  0  0  0  0  0  0  0  0  # atno 10763 bound_to 10752
  154.7040  135.5177  153.8571 H   0  0  0  0  0  0  0  0  0  0  0  0  # atno 10764 bound_to 10752
  153.0677  135.6637  154.0441 H   0  0  0  0  0  0  0  0  0  0  0  0  # atno 10765 bound_to 10752
  140.8314  133.7994  155.9763 H   0  0  0  0  0  0  0  0  0  0  0  0  # atno 11005 bound_to 11000
  144.7824  140.5868  143.6596 LP  0  0  0  0  0  0  0  0  0  0  0  0  # atno 17320 bound_to 7965
  145.4982  139.1485  143.3672 LP  0  0  0  0  0  0  0  0  0  0  0  0  # atno 17321 bound_to 7965
  139.6625  144.7662  151.1935 LP  0  0  0  0  0  0  0  0  0  0  0  0  # atno 17342 bound_to 10162
  140.7581  143.5988  150.8721 LP  0  0  0  0  0  0  0  0  0  0  0  0  # atno 17343 bound_to 10162
  157.7048  130.9372  150.0896 LP  0  0  0  0  0  0  0  0  0  0  0  0  # atno 17370 bound_to 10713
  156.1876  130.3653  149.8952 LP  0  0  0  0  0  0  0  0  0  0  0  0  # atno 17371 bound_to 10713
  140.8993  134.2398  157.5050 LP  0  0  0  0  0  0  0  0  0  0  0  0  # atno 17394 bound_to 11000
  139.8705  134.9699  156.4682 LP  0  0  0  0  0  0  0  0  0  0  0  0  # atno 17395 bound_to 11000

$$$$
