AV-unprocessed.smi:2867|AV-procd|sdf|11024|dock1
  -GOLD-   2272015483D 1   1.00000     0.00000
 Structure written by MMmdl.
 41 43  0  0  0  0  0  0  0  0  2 V2000
  155.5691  138.7000  165.7693 C   0  0  0  0  0  0  0  0  0  0  0  0
  155.8236  139.4153  164.5737 O   0  0  0  0  0  0  0  0  0  0  0  0
  154.7815  139.2767  163.6212 C   0  0  0  0  0  0  0  0  0  0  0  0
  155.0192  140.2520  162.4604 C   0  0  0  0  0  0  0  0  0  0  0  0
  154.3181  139.8336  161.2361 N   0  0  0  0  0  0  0  0  0  0  0  0
  153.4736  140.5092  160.4059 C   0  0  0  0  0  0  0  0  0  0  0  0
  153.0222  141.9012  160.5527 C   0  0  0  0  0  0  0  0  0  0  0  0
  152.9057  142.4787  161.8358 C   0  0  0  0  0  0  0  0  0  0  0  0
  152.4724  143.8100  161.9896 C   0  0  0  0  0  0  0  0  0  0  0  0
  152.1552  144.5818  160.8566 C   0  0  0  0  0  0  0  0  0  0  0  0
  152.2742  144.0199  159.5720 C   0  0  0  0  0  0  0  0  0  0  0  0
  151.9739  144.7598  158.4784 F   0  0  0  0  0  0  0  0  0  0  0  0
  152.7073  142.6883  159.4234 C   0  0  0  0  0  0  0  0  0  0  0  0
  153.1328  139.6915  159.3739 N   0  3  0  0  0  0  0  0  0  0  0  0
  153.7657  138.4589  159.5456 C   0  0  0  0  0  0  0  0  0  0  0  0
  153.7316  137.3061  158.7676 C   0  0  0  0  0  0  0  0  0  0  0  0
  154.5071  136.2192  159.2237 C   0  0  0  0  0  0  0  0  0  0  0  0
  154.5092  134.6966  158.2843 S   0  0  0  0  0  0  0  0  0  0  0  0
  155.3596  135.1545  156.8609 N   0  0  0  0  0  0  0  0  0  0  0  0
  155.3337  133.7081  158.9958 O   0  0  0  0  0  0  0  0  0  0  0  0
  153.1265  134.3815  157.8935 O   0  0  0  0  0  0  0  0  0  0  0  0
  155.2783  136.2974  160.4025 C   0  0  0  0  0  0  0  0  0  0  0  0
  155.3037  137.4731  161.1813 C   0  0  0  0  0  0  0  0  0  0  0  0
  154.5309  138.5444  160.7321 C   0  0  0  0  0  0  0  0  0  0  0  0
  156.3920  138.8517  166.4679 H   0  0  0  0  0  0  0  0  0  0  0  0
  155.4831  137.6298  165.5770 H   0  0  0  0  0  0  0  0  0  0  0  0
  154.6524  139.0453  166.2489 H   0  0  0  0  0  0  0  0  0  0  0  0
  154.7501  138.2517  163.2481 H   0  0  0  0  0  0  0  0  0  0  0  0
  153.8174  139.4847  164.0875 H   0  0  0  0  0  0  0  0  0  0  0  0
  154.7065  141.2621  162.7250 H   0  0  0  0  0  0  0  0  0  0  0  0
  156.0839  140.3130  162.2419 H   0  0  0  0  0  0  0  0  0  0  0  0
  153.1425  141.8949  162.7135 H   0  0  0  0  0  0  0  0  0  0  0  0
  152.3825  144.2383  162.9771 H   0  0  0  0  0  0  0  0  0  0  0  0
  151.8227  145.6028  160.9724 H   0  0  0  0  0  0  0  0  0  0  0  0
  152.8009  142.2707  158.4316 H   0  0  0  0  0  0  0  0  0  0  0  0
  153.1448  137.2442  157.8627 H   0  0  0  0  0  0  0  0  0  0  0  0
  156.0856  134.4852  156.6062 H   0  0  0  0  0  0  0  0  0  0  0  0
  155.6883  136.1191  156.8947 H   0  0  0  0  0  0  0  0  0  0  0  0
  155.8619  135.4447  160.7187 H   0  0  0  0  0  0  0  0  0  0  0  0
  155.8982  137.5263  162.0813 H   0  0  0  0  0  0  0  0  0  0  0  0
  152.5169  139.9576  158.6165 H   0  0  0  0  0  0  0  0  0  0  0  0
  1  2  1  0  0  0  0
  1 25  1  0  0  0  0
  1 26  1  0  0  0  0
  1 27  1  0  0  0  0
  2  3  1  0  0  0  0
  3  4  1  0  0  0  0
  3 28  1  0  0  0  0
  3 29  1  0  0  0  0
  4  5  1  0  0  0  0
  4 30  1  0  0  0  0
  4 31  1  0  0  0  0
  5 24  1  0  0  0  0
  5  6  1  0  0  0  0
  6  7  1  0  0  0  0
  6 14  2  0  0  0  0
  7 13  1  0  0  0  0
  7  8  2  0  0  0  0
  8  9  1  0  0  0  0
  8 32  1  0  0  0  0
  9 10  2  0  0  0  0
  9 33  1  0  0  0  0
 10 11  1  0  0  0  0
 10 34  1  0  0  0  0
 11 12  1  0  0  0  0
 11 13  2  0  0  0  0
 13 35  1  0  0  0  0
 14 15  1  0  0  0  0
 14 41  1  0  0  0  0
 15 24  2  0  0  0  0
 15 16  1  0  0  0  0
 16 17  2  0  0  0  0
 16 36  1  0  0  0  0
 17 18  1  0  0  0  0
 17 22  1  0  0  0  0
 18 19  1  0  0  0  0
 18 20  2  0  0  0  0
 18 21  2  0  0  0  0
 19 37  1  0  0  0  0
 19 38  1  0  0  0  0
 22 23  2  0  0  0  0
 22 39  1  0  0  0  0
 23 24  1  0  0  0  0
 23 40  1  0  0  0  0
M  CHG  1  14   1
M  END
> <s_m_source_file>
AV-unprocessed.smi

> <i_m_source_file_index>
2867

> <i_lp_mmshare_version>
43012

> <i_f3d_flags>
0

> <s_epik_input>
W05IMl1TKD1PKSg9TyljKFtjSF0xKVtjSF1bY0hdYyhjMTIpbihbQ0gyXVtDSDJdT1tDSDNdKWMobjIpLWMzW2NIXVtjSF1bY0hdYyhGKVtjSF0z

> <s_epik_cmdline>
J2VwaWtfcHl0aG9uJywgJy1waCcsICc3LjAnLCAnLXRuJywgJzgnLCAnLW1hJywgJzIwMCcsICctbWV0YWxfYmluZGluZycsICctaW1hZScsICc8aW5maWxlLm1hZT4nLCAnLW9tYWUnLCAnPG91dGZpbGUubWFlPic=

> <r_epik_Ionization_Penalty>
1.25825

> <r_epik_Ionization_Penalty_Charging>
1.24336

> <r_epik_Ionization_Penalty_Neutral>
0.014884

> <r_epik_State_Penalty>
1.4115

> <r_epik_Charging_Adjusted_Penalty>
2.65486

> <i_epik_Tot_Q>
1

> <i_epik_Tot_abs_Q>
1

> <r_epik_Metal_State_Penalty>
3.65574

> <b_epik_Metal_Only>
0

> <s_lp_Force_Field>
OPLS_2005

> <r_lp_Energy>
21.7235

> <b_lp_Chiralities_Consistent>
1

> <s_lp_Variant>
AV-unprocessed.smi:2867-2

> <Gold.Version>
5.8.1

> <Gold.Id.Protein>
6NUR|6NUR_protein|mol2

> <Gold.PLP.Fitness>
48.3789

> <Gold.PLP.PLP>
-45.1694

> <Gold.PLP.part.hbond>
-2.0000

> <Gold.PLP.part.metal>
0.0000

> <Gold.PLP.part.buried>
-5.6927

> <Gold.PLP.part.nonpolar>
-36.8579

> <Gold.PLP.part.repulsive>
0.0916

> <Gold.PLP.ligand.clash>
0.0000

> <Gold.PLP.ligand.torsion>
1.5576

> <Gold.PLP.Chemscore.Hbond>
1.4056

> <Gold.PLP.Chemscore.CHOScore>
0.0000

> <Gold.PLP.Chemscore.Metal>
0.0000

> <Gold.Chemscore.Hbonds>
donor molecule, donor type, donor heavy atom, donor atom, acceptor molecule, acceptor atom, score
      P1  H  6896  6909       L1    21  0.24
      P1  H 10752 10764       L1    19  0.85

> <Gold.PLP.Chemscore.Internal.Correction>
2.1078

> <Gold.Rescore>
     Score         DG    S(hbond)    S(metal)    S(lipo)     H(rot)  DE(clash)    DE(int)     intcor
     15.77     -17.71       0.96        0.00     109.46       1.47       0.31       1.63       ----

> <Gold.Chemscore.Fitness>
15.7721

> <Gold.Chemscore.DG>
-17.7119

> <Gold.Chemscore.ZeroCoef>
-5.4800

> <Gold.Chemscore.Hbond>
0.9576

> <Gold.Chemscore.Metal>
0.0000

> <Gold.Chemscore.Lipo>
109.4573

> <Gold.Chemscore.Internal_Hbond>
0.0000

> <Gold.Chemscore.DEClash>
0.3063

> <Gold.Chemscore.DEInternal>
1.6335

> <Gold.Chemscore.Rot>
1.4738

> <Gold.Chemscore.Internal.Correction>
   9.000000E+99

> <Gold.Chemscore.Hbonds>
donor molecule, donor type, donor heavy atom, donor atom, acceptor molecule, acceptor atom, score
      P1  H  6896  6909       L1    21  0.03
      P1  H 10752 10764       L1    19  0.04

> <Gold.Chemscore.Hbond.Weighted>
-3.1983

> <Gold.Chemscore.Metal.Weighted>
-0.0000

> <Gold.Chemscore.Lipo.Weighted>
-12.8065

> <Gold.Chemscore.Internal_Hbond.Weighted>
0.0000

> <Gold.Chemscore.DEClash.Weighted>
0.3063

> <Gold.Chemscore.DEInternal.Weighted>
1.6335

> <Gold.Chemscore.Rot.Weighted>
3.7730

> <Gold.Chemscore.Internal.Correction.Weighted>
   9.000000E+99

> <Gold.Protein.RotatedTorsions>
[ 6907 6896 6895 6894 ] final -132.14 input  -60.11 | X-H torsion
[ 7974 7965 7964 7962 ] final   47.75 input  175.53 | X-H torsion
[ 8008 7997 7996 7995 ] final  169.08 input   59.86 | X-H torsion
[ 10167 10162 10161 10158 ] final  151.53 input  -65.29 | X-H torsion
[ 10718 10713 10712 10709 ] final  -87.66 input   66.30 | X-H torsion
[ 10763 10752 10751 10750 ] final   51.10 input  -60.55 | X-H torsion
[ 11005 11000 10999 10996 ] final  175.26 input  -57.11 | X-H torsion

> <Gold.Protein.ActiveResidues>
 VAL166  LYS551  ARG553  GLY616  TRP617  ASP618  TYR619  PRO620  LYS621  CYS622 
 ASP623  PHE694  ASN695  SER759  ASP760  ASP761  ALA762  ILE779  LEU786  VAL792 
 PHE793  MET794  SER795  GLU796  ALA797  LYS798  CYS799  TRP800  GLU811  SER814 

> <Gold.Protein.RotatedAtoms>
  150.9589  133.6466  159.2757 H   0  0  0  0  0  0  0  0  0  0  0  0  # atno 6907 bound_to 6896
  151.3796  135.0936  159.9501 H   0  0  0  0  0  0  0  0  0  0  0  0  # atno 6908 bound_to 6896
  152.5140  133.9127  159.7550 H   0  0  0  0  0  0  0  0  0  0  0  0  # atno 6909 bound_to 6896
  146.0269  139.4716  142.9862 H   0  0  0  0  0  0  0  0  0  0  0  0  # atno 7974 bound_to 7965
  156.1490  140.1573  156.8801 H   0  0  0  0  0  0  0  0  0  0  0  0  # atno 8008 bound_to 7997
  154.5054  140.0814  156.7920 H   0  0  0  0  0  0  0  0  0  0  0  0  # atno 8009 bound_to 7997
  155.3933  140.3411  155.4255 H   0  0  0  0  0  0  0  0  0  0  0  0  # atno 8010 bound_to 7997
  139.4840  144.5433  151.7527 H   0  0  0  0  0  0  0  0  0  0  0  0  # atno 10167 bound_to 10162
  155.9985  130.4808  150.4901 H   0  0  0  0  0  0  0  0  0  0  0  0  # atno 10718 bound_to 10713
  152.9785  135.5857  154.4360 H   0  0  0  0  0  0  0  0  0  0  0  0  # atno 10763 bound_to 10752
  154.3967  135.2768  155.2124 H   0  0  0  0  0  0  0  0  0  0  0  0  # atno 10764 bound_to 10752
  154.3972  135.6112  153.5931 H   0  0  0  0  0  0  0  0  0  0  0  0  # atno 10765 bound_to 10752
  140.3603  134.7119  157.4326 H   0  0  0  0  0  0  0  0  0  0  0  0  # atno 11005 bound_to 11000
  145.7104  141.0108  143.1456 LP  0  0  0  0  0  0  0  0  0  0  0  0  # atno 17320 bound_to 7965
  144.7013  139.8750  143.7443 LP  0  0  0  0  0  0  0  0  0  0  0  0  # atno 17321 bound_to 7965
  140.4975  144.1218  150.5963 LP  0  0  0  0  0  0  0  0  0  0  0  0  # atno 17342 bound_to 10162
  140.4100  143.2661  151.9844 LP  0  0  0  0  0  0  0  0  0  0  0  0  # atno 17343 bound_to 10162
  157.2897  131.0624  151.2142 LP  0  0  0  0  0  0  0  0  0  0  0  0  # atno 17370 bound_to 10713
  157.3159  130.6913  149.6242 LP  0  0  0  0  0  0  0  0  0  0  0  0  # atno 17371 bound_to 10713
  140.0632  134.5966  155.8725 LP  0  0  0  0  0  0  0  0  0  0  0  0  # atno 17394 bound_to 11000
  141.1986  133.6602  156.5801 LP  0  0  0  0  0  0  0  0  0  0  0  0  # atno 17395 bound_to 11000

$$$$
