AV-unprocessed.smi:2164|AV-procd|sdf|8811|dock10
  -GOLD-   2272012 03D 1   1.00000     0.00000
 Structure written by MMmdl.
 39 41  0  0  0  0  0  0  0  0  3 V2000
  154.6095  138.8758  159.0406 O   0  0  0  0  0  0  0  0  0  0  0  0
  154.7902  139.3298  160.1781 C   0  0  0  0  0  0  0  0  0  0  0  0
  154.9422  140.6556  160.4786 N   0  5  0  0  0  0  0  0  0  0  0  0
  153.8535  141.6240  160.5970 C   0  0  0  0  0  0  0  0  0  0  0  0
  153.1795  141.8155  159.2241 C   0  0  0  0  0  0  0  0  0  0  0  0
  152.3292  143.0749  159.1335 C   0  0  0  0  0  0  0  0  0  0  0  0
  152.2915  144.0005  160.2022 C   0  0  0  0  0  0  0  0  0  0  0  0
  151.4876  145.1541  160.0925 C   0  0  0  0  0  0  0  0  0  0  0  0
  150.7354  145.3575  158.9178 C   0  0  0  0  0  0  0  0  0  0  0  0
  150.7902  144.4499  157.9187 N   0  3  0  0  0  0  0  0  0  0  0  0
  151.5459  143.3322  157.9853 C   0  0  0  0  0  0  0  0  0  0  0  0
  154.8484  138.3827  161.3015 C   0  0  0  0  0  0  0  0  0  0  0  0
  154.7582  137.0434  161.1473 C   0  0  0  0  0  0  0  0  0  0  0  0
  154.8120  136.1371  162.2095 N   0  0  0  0  0  0  0  0  0  0  0  0
  154.6019  134.7238  161.9165 C   0  0  0  0  0  0  0  0  0  0  0  0
  155.5595  133.8665  162.7292 C   0  0  0  0  0  0  0  0  0  0  0  0
  155.1386  134.1516  164.4908 S   0  0  0  0  0  0  0  0  0  0  0  0
  153.7433  133.7337  164.6991 O   0  0  0  0  0  0  0  0  0  0  0  0
  156.1999  133.5557  165.3166 O   0  0  0  0  0  0  0  0  0  0  0  0
  155.2300  135.8237  164.5655 N   0  0  0  0  0  0  0  0  0  0  0  0
  155.0422  136.5898  163.5337 C   0  0  0  0  0  0  0  0  0  0  0  0
  155.0990  138.0316  163.7085 C   0  0  0  0  0  0  0  0  0  0  0  0
  155.0092  138.8753  162.6604 C   0  0  0  0  0  0  0  0  0  0  0  0
  153.1017  141.2981  161.3170 H   0  0  0  0  0  0  0  0  0  0  0  0
  154.2104  142.5916  160.9522 H   0  0  0  0  0  0  0  0  0  0  0  0
  153.9382  141.8534  158.4409 H   0  0  0  0  0  0  0  0  0  0  0  0
  152.5506  140.9536  158.9959 H   0  0  0  0  0  0  0  0  0  0  0  0
  152.8757  143.8299  161.0950 H   0  0  0  0  0  0  0  0  0  0  0  0
  151.4502  145.8723  160.8985 H   0  0  0  0  0  0  0  0  0  0  0  0
  150.0957  146.2113  158.7488 H   0  0  0  0  0  0  0  0  0  0  0  0
  151.5077  142.6832  157.1224 H   0  0  0  0  0  0  0  0  0  0  0  0
  154.6358  136.5730  160.1822 H   0  0  0  0  0  0  0  0  0  0  0  0
  153.5661  134.4613  162.1344 H   0  0  0  0  0  0  0  0  0  0  0  0
  154.7595  134.5238  160.8563 H   0  0  0  0  0  0  0  0  0  0  0  0
  155.4404  132.8063  162.5073 H   0  0  0  0  0  0  0  0  0  0  0  0
  156.6006  134.1414  162.5566 H   0  0  0  0  0  0  0  0  0  0  0  0
  155.2247  138.4698  164.6881 H   0  0  0  0  0  0  0  0  0  0  0  0
  155.0600  139.9366  162.8545 H   0  0  0  0  0  0  0  0  0  0  0  0
  150.2378  144.6146  157.0769 H   0  0  0  0  0  0  0  0  0  0  0  0
  1  2  2  0  0  0  0
  2  3  1  0  0  0  0
  2 12  1  0  0  0  0
  3  4  1  0  0  0  0
  4  5  1  0  0  0  0
  4 24  1  0  0  0  0
  4 25  1  0  0  0  0
  5  6  1  0  0  0  0
  5 26  1  0  0  0  0
  5 27  1  0  0  0  0
  6 11  1  0  0  0  0
  6  7  2  0  0  0  0
  7  8  1  0  0  0  0
  7 28  1  0  0  0  0
  8  9  2  0  0  0  0
  8 29  1  0  0  0  0
  9 10  1  0  0  0  0
  9 30  1  0  0  0  0
 10 11  2  0  0  0  0
 10 39  1  0  0  0  0
 11 31  1  0  0  0  0
 12 23  1  0  0  0  0
 12 13  2  0  0  0  0
 13 14  1  0  0  0  0
 13 32  1  0  0  0  0
 14 21  1  0  0  0  0
 14 15  1  0  0  0  0
 15 16  1  0  0  0  0
 15 33  1  0  0  0  0
 15 34  1  0  0  0  0
 16 17  1  0  0  0  0
 16 35  1  0  0  0  0
 16 36  1  0  0  0  0
 17 18  2  0  0  0  0
 17 19  2  0  0  0  0
 17 20  1  0  0  0  0
 20 21  2  0  0  0  0
 21 22  1  0  0  0  0
 22 23  2  0  0  0  0
 22 37  1  0  0  0  0
 23 38  1  0  0  0  0
M  CHG  1   3  -1
M  CHG  1  10   1
M  END
> <s_m_source_file>
AV-unprocessed.smi

> <i_m_source_file_index>
2164

> <i_lp_mmshare_version>
43012

> <i_f3d_flags>
0

> <s_epik_input>
W0NIMl0xW0NIMl1TKD1PKSg9TylOPUMoTjEyKVtDSF09W0NIXUMoPVtDSF0yKUMoPU8pW05IXVtDSDJdW0NIMl1jM1tjSF1bY0hdW2NIXW5bY0hdMw==

> <s_epik_cmdline>
J2VwaWtfcHl0aG9uJywgJy1waCcsICc3LjAnLCAnLXRuJywgJzgnLCAnLW1hJywgJzIwMCcsICctbWV0YWxfYmluZGluZycsICctaW1hZScsICc8aW5maWxlLm1hZT4nLCAnLW9tYWUnLCAnPG91dGZpbGUubWFlPic=

> <r_epik_Ionization_Penalty>
6.83439

> <r_epik_Ionization_Penalty_Charging>
6.83439

> <r_epik_Ionization_Penalty_Neutral>
0

> <r_epik_State_Penalty>
7.45298

> <r_epik_Charging_Adjusted_Penalty>
14.2874

> <i_epik_Tot_Q>
0

> <i_epik_Tot_abs_Q>
2

> <r_epik_Metal_State_Penalty>
3.5959

> <b_epik_Metal_Only>
1

> <s_lp_Force_Field>
OPLS_2005

> <r_lp_Energy>
30.4634

> <b_lp_Chiralities_Consistent>
1

> <s_lp_Variant>
AV-unprocessed.smi:2164-4

> <Gold.Version>
5.8.1

> <Gold.Id.Protein>
6NUR|6NUR_protein|mol2

> <Gold.PLP.Fitness>
47.3799

> <Gold.PLP.PLP>
-40.6839

> <Gold.PLP.part.hbond>
-1.8429

> <Gold.PLP.part.metal>
0.0000

> <Gold.PLP.part.buried>
-5.6997

> <Gold.PLP.part.nonpolar>
-33.8393

> <Gold.PLP.part.repulsive>
0.3157

> <Gold.PLP.ligand.clash>
0.0000

> <Gold.PLP.ligand.torsion>
0.8434

> <Gold.PLP.Chemscore.Hbond>
2.7800

> <Gold.PLP.Chemscore.CHOScore>
0.0000

> <Gold.PLP.Chemscore.Metal>
0.0000

> <Gold.Chemscore.Hbonds>
donor molecule, donor type, donor heavy atom, donor atom, acceptor molecule, acceptor atom, score
      L1  H    10    39       P1  8028  2.00
      P1  H  7997  8008       L1     1  0.81

> <Gold.PLP.Chemscore.Internal.Correction>
0.0428

> <Gold.Rescore>
     Score         DG    S(hbond)    S(metal)    S(lipo)     H(rot)  DE(clash)    DE(int)     intcor
     19.71     -20.58       1.91        0.00     107.72       1.51       0.03       0.84       ----

> <Gold.Chemscore.Fitness>
19.7092

> <Gold.Chemscore.DG>
-20.5781

> <Gold.Chemscore.ZeroCoef>
-5.4800

> <Gold.Chemscore.Hbond>
1.9052

> <Gold.Chemscore.Metal>
0.0000

> <Gold.Chemscore.Lipo>
107.7151

> <Gold.Chemscore.Internal_Hbond>
0.0000

> <Gold.Chemscore.DEClash>
0.0331

> <Gold.Chemscore.DEInternal>
0.8358

> <Gold.Chemscore.Rot>
1.5109

> <Gold.Chemscore.Internal.Correction>
   9.000000E+99

> <Gold.Chemscore.Hbonds>
donor molecule, donor type, donor heavy atom, donor atom, acceptor molecule, acceptor atom, score
      L1  H    10    39       P1  8028  0.55
      P1  H  7997  8008       L1     1  0.79

> <Gold.Chemscore.Hbond.Weighted>
-6.3635

> <Gold.Chemscore.Metal.Weighted>
-0.0000

> <Gold.Chemscore.Lipo.Weighted>
-12.6027

> <Gold.Chemscore.Internal_Hbond.Weighted>
0.0000

> <Gold.Chemscore.DEClash.Weighted>
0.0331

> <Gold.Chemscore.DEInternal.Weighted>
0.8358

> <Gold.Chemscore.Rot.Weighted>
3.8680

> <Gold.Chemscore.Internal.Correction.Weighted>
   9.000000E+99

> <Gold.Protein.RotatedTorsions>
[ 6907 6896 6895 6894 ] final   -1.22 input  -60.11 | X-H torsion
[ 7974 7965 7964 7962 ] final  156.94 input  175.53 | X-H torsion
[ 8008 7997 7996 7995 ] final -118.62 input   59.86 | X-H torsion
[ 10167 10162 10161 10158 ] final  -12.64 input  -65.29 | X-H torsion
[ 10718 10713 10712 10709 ] final -131.77 input   66.30 | X-H torsion
[ 10763 10752 10751 10750 ] final  -60.69 input  -60.55 | X-H torsion
[ 11005 11000 10999 10996 ] final  179.71 input  -57.11 | X-H torsion

> <Gold.Protein.ActiveResidues>
 VAL166  LYS551  ARG553  GLY616  TRP617  ASP618  TYR619  PRO620  LYS621  CYS622 
 ASP623  PHE694  ASN695  SER759  ASP760  ASP761  ALA762  ILE779  LEU786  VAL792 
 PHE793  MET794  SER795  GLU796  ALA797  LYS798  CYS799  TRP800  GLU811  SER814 

> <Gold.Protein.RotatedAtoms>
  151.5495  135.1067  159.9945 H   0  0  0  0  0  0  0  0  0  0  0  0  # atno 6907 bound_to 6896
  152.4498  133.7603  159.6753 H   0  0  0  0  0  0  0  0  0  0  0  0  # atno 6908 bound_to 6896
  150.8423  133.7849  159.3080 H   0  0  0  0  0  0  0  0  0  0  0  0  # atno 6909 bound_to 6896
  144.7933  139.7272  143.6212 H   0  0  0  0  0  0  0  0  0  0  0  0  # atno 7974 bound_to 7965
  155.1027  140.0396  157.2701 H   0  0  0  0  0  0  0  0  0  0  0  0  # atno 8008 bound_to 7997
  154.6746  140.2619  155.6946 H   0  0  0  0  0  0  0  0  0  0  0  0  # atno 8009 bound_to 7997
  156.2671  140.2791  156.1268 H   0  0  0  0  0  0  0  0  0  0  0  0  # atno 8010 bound_to 7997
  140.7165  143.5511  150.9300 H   0  0  0  0  0  0  0  0  0  0  0  0  # atno 10167 bound_to 10162
  156.2277  130.7018  151.0825 H   0  0  0  0  0  0  0  0  0  0  0  0  # atno 10718 bound_to 10713
  154.2731  135.6286  153.5318 H   0  0  0  0  0  0  0  0  0  0  0  0  # atno 10763 bound_to 10752
  152.9877  135.5615  154.5578 H   0  0  0  0  0  0  0  0  0  0  0  0  # atno 10764 bound_to 10752
  154.5152  135.2879  155.1284 H   0  0  0  0  0  0  0  0  0  0  0  0  # atno 10765 bound_to 10752
  140.4092  134.6707  157.4605 H   0  0  0  0  0  0  0  0  0  0  0  0  # atno 11005 bound_to 11000
  146.2192  139.5605  142.9629 LP  0  0  0  0  0  0  0  0  0  0  0  0  # atno 17320 bound_to 7965
  145.5738  141.0391  143.2159 LP  0  0  0  0  0  0  0  0  0  0  0  0  # atno 17321 bound_to 7965
  139.9235  143.6577  152.3091 LP  0  0  0  0  0  0  0  0  0  0  0  0  # atno 17342 bound_to 10162
  139.7003  144.7636  151.1285 LP  0  0  0  0  0  0  0  0  0  0  0  0  # atno 17343 bound_to 10162
  157.7118  131.0730  150.6472 LP  0  0  0  0  0  0  0  0  0  0  0  0  # atno 17370 bound_to 10713
  156.6538  130.4492  149.5710 LP  0  0  0  0  0  0  0  0  0  0  0  0  # atno 17371 bound_to 10713
  140.0280  134.6449  155.9146 LP  0  0  0  0  0  0  0  0  0  0  0  0  # atno 17394 bound_to 11000
  141.1827  133.6549  156.5089 LP  0  0  0  0  0  0  0  0  0  0  0  0  # atno 17395 bound_to 11000

$$$$
