AV-unprocessed.smi:2190|AV-procd|sdf|8890|dock8
  -GOLD-   2272012 93D 1   1.00000     0.00000
 Structure written by MMmdl.
 47 49  0  0  0  0  0  0  0  0  2 V2000
  148.0081  145.4970  161.0097 C   0  0  0  0  0  0  0  0  0  0  0  0
  147.0193  144.3770  160.7591 C   0  0  0  0  0  0  0  0  0  0  0  0
  146.1314  143.9702  161.7738 C   0  0  0  0  0  0  0  0  0  0  0  0
  145.2191  142.9273  161.5321 C   0  0  0  0  0  0  0  0  0  0  0  0
  145.1879  142.2857  160.2765 C   0  0  0  0  0  0  0  0  0  0  0  0
  144.1986  141.1613  160.0323 C   0  0  0  0  0  0  0  0  0  0  0  0
  146.0723  142.6863  159.2485 C   0  0  0  0  0  0  0  0  0  0  0  0
  145.9895  142.0170  158.0455 O   0  0  0  0  0  0  0  0  0  0  0  0
  146.7757  142.4766  156.9547 C   0  0  0  0  0  0  0  0  0  0  0  0
  146.5188  141.5583  155.7516 C   0  0  2  0  0  0  0  0  0  0  0  0
  146.6250  140.2145  156.1763 O   0  0  0  0  0  0  0  0  0  0  0  0
  147.4962  141.8258  154.5892 C   0  0  0  0  0  0  0  0  0  0  0  0
  148.2827  140.6378  154.2234 N   0  0  0  0  0  0  0  0  0  0  0  0
  147.9737  139.6152  153.3751 C   0  0  0  0  0  0  0  0  0  0  0  0
  146.7153  139.4546  152.5870 C   0  0  0  0  0  0  0  0  0  0  0  0
  146.9198  138.7383  151.3895 O   0  0  0  0  0  0  0  0  0  0  0  0
  149.0357  138.7614  153.3680 N   0  3  0  0  0  0  0  0  0  0  0  0
  150.0311  139.2385  154.2217 C   0  0  0  0  0  0  0  0  0  0  0  0
  151.2816  138.7186  154.5417 C   0  0  0  0  0  0  0  0  0  0  0  0
  152.0587  139.4573  155.4579 C   0  0  0  0  0  0  0  0  0  0  0  0
  151.5861  140.6623  156.0168 C   0  0  0  0  0  0  0  0  0  0  0  0
  150.3176  141.1809  155.6827 C   0  0  0  0  0  0  0  0  0  0  0  0
  149.5545  140.4445  154.7762 C   0  0  0  0  0  0  0  0  0  0  0  0
  146.9888  143.7382  159.5031 C   0  0  0  0  0  0  0  0  0  0  0  0
  147.9294  145.8782  162.0283 H   0  0  0  0  0  0  0  0  0  0  0  0
  147.8253  146.3232  160.3221 H   0  0  0  0  0  0  0  0  0  0  0  0
  149.0276  145.1419  160.8571 H   0  0  0  0  0  0  0  0  0  0  0  0
  146.1464  144.4537  162.7397 H   0  0  0  0  0  0  0  0  0  0  0  0
  144.5430  142.6218  162.3170 H   0  0  0  0  0  0  0  0  0  0  0  0
  143.5801  141.3807  159.1611 H   0  0  0  0  0  0  0  0  0  0  0  0
  143.5379  141.0168  160.8878 H   0  0  0  0  0  0  0  0  0  0  0  0
  144.7289  140.2260  159.8505 H   0  0  0  0  0  0  0  0  0  0  0  0
  146.5232  143.5078  156.7008 H   0  0  0  0  0  0  0  0  0  0  0  0
  147.8319  142.4408  157.2271 H   0  0  0  0  0  0  0  0  0  0  0  0
  145.4947  141.7098  155.4090 H   0  0  0  0  0  0  0  0  0  0  0  0
  146.3252  140.1579  157.0704 H   0  0  0  0  0  0  0  0  0  0  0  0
  146.9428  142.1244  153.6981 H   0  0  0  0  0  0  0  0  0  0  0  0
  148.1681  142.6538  154.8150 H   0  0  0  0  0  0  0  0  0  0  0  0
  145.9716  138.9344  153.1914 H   0  0  0  0  0  0  0  0  0  0  0  0
  146.3049  140.4360  152.3494 H   0  0  0  0  0  0  0  0  0  0  0  0
  146.1090  138.7258  150.9040 H   0  0  0  0  0  0  0  0  0  0  0  0
  151.6460  137.7959  154.1147 H   0  0  0  0  0  0  0  0  0  0  0  0
  153.0364  139.0924  155.7376 H   0  0  0  0  0  0  0  0  0  0  0  0
  152.2089  141.2006  156.7165 H   0  0  0  0  0  0  0  0  0  0  0  0
  149.9667  142.1036  156.1198 H   0  0  0  0  0  0  0  0  0  0  0  0
  147.6835  144.0722  158.7475 H   0  0  0  0  0  0  0  0  0  0  0  0
  149.0742  137.9150  152.8148 H   0  0  0  0  0  0  0  0  0  0  0  0
  1  2  1  0  0  0  0
  1 25  1  0  0  0  0
  1 26  1  0  0  0  0
  1 27  1  0  0  0  0
  2 24  1  0  0  0  0
  2  3  2  0  0  0  0
  3  4  1  0  0  0  0
  3 28  1  0  0  0  0
  4  5  2  0  0  0  0
  4 29  1  0  0  0  0
  5  6  1  0  0  0  0
  5  7  1  0  0  0  0
  6 30  1  0  0  0  0
  6 31  1  0  0  0  0
  6 32  1  0  0  0  0
  7  8  1  0  0  0  0
  7 24  2  0  0  0  0
  8  9  1  0  0  0  0
  9 10  1  0  0  0  0
  9 33  1  0  0  0  0
  9 34  1  0  0  0  0
 10 11  1  0  0  0  0
 10 12  1  0  0  0  0
 10 35  1  0  0  0  0
 11 36  1  0  0  0  0
 12 13  1  0  0  0  0
 12 37  1  0  0  0  0
 12 38  1  0  0  0  0
 13 23  1  0  0  0  0
 13 14  1  0  0  0  0
 14 15  1  0  0  0  0
 14 17  2  0  0  0  0
 15 16  1  0  0  0  0
 15 39  1  0  0  0  0
 15 40  1  0  0  0  0
 16 41  1  0  0  0  0
 17 18  1  0  0  0  0
 17 47  1  0  0  0  0
 18 23  2  0  0  0  0
 18 19  1  0  0  0  0
 19 20  2  0  0  0  0
 19 42  1  0  0  0  0
 20 21  1  0  0  0  0
 20 43  1  0  0  0  0
 21 22  2  0  0  0  0
 21 44  1  0  0  0  0
 22 23  1  0  0  0  0
 22 45  1  0  0  0  0
 24 46  1  0  0  0  0
M  CHG  1  17   1
M  END
> <s_m_source_file>
AV-unprocessed.smi

> <i_m_source_file_index>
2190

> <i_lp_mmshare_version>
43012

> <i_f3d_flags>
0

> <s_epik_input>
W0NIM11jMVtjSF1bY0hdYyhbQ0gzXSljKFtjSF0xKU9bQ0gyXVtDQEhdKFtPSF0pW0NIMl1uKGMobjIpW0NIMl1bT0hdKWMoYzIzKVtjSF1bY0hdW2NIXVtjSF0z

> <s_epik_cmdline>
J2VwaWtfcHl0aG9uJywgJy1waCcsICc3LjAnLCAnLXRuJywgJzgnLCAnLW1hJywgJzIwMCcsICctbWV0YWxfYmluZGluZycsICctaW1hZScsICc8aW5maWxlLm1hZT4nLCAnLW9tYWUnLCAnPG91dGZpbGUubWFlPic=

> <r_lp_tautomer_probability>
1

> <r_epik_Ionization_Penalty>
1.43125

> <r_epik_Ionization_Penalty_Charging>
1.43039

> <r_epik_Ionization_Penalty_Neutral>
0.000858184

> <r_epik_State_Penalty>
1.51493

> <r_epik_Charging_Adjusted_Penalty>
2.94531

> <i_epik_Tot_Q>
1

> <i_epik_Tot_abs_Q>
1

> <r_epik_Metal_State_Penalty>
5.5599

> <b_epik_Metal_Only>
0

> <s_lp_Force_Field>
OPLS_2005

> <r_lp_Energy>
17.5717

> <b_lp_Chiralities_Consistent>
1

> <s_lp_Variant>
AV-unprocessed.smi:2190-3

> <Gold.Version>
5.8.1

> <Gold.Id.Protein>
6NUR|6NUR_protein|mol2

> <Gold.PLP.Fitness>
55.5163

> <Gold.PLP.PLP>
-50.7548

> <Gold.PLP.part.hbond>
-4.8271

> <Gold.PLP.part.metal>
0.0000

> <Gold.PLP.part.buried>
-5.3971

> <Gold.PLP.part.nonpolar>
-40.7268

> <Gold.PLP.part.repulsive>
0.1255

> <Gold.PLP.ligand.clash>
0.0000

> <Gold.PLP.ligand.torsion>
1.5695

> <Gold.PLP.Chemscore.Hbond>
2.6000

> <Gold.PLP.Chemscore.CHOScore>
0.0000

> <Gold.PLP.Chemscore.Metal>
0.0000

> <Gold.Chemscore.Hbonds>
donor molecule, donor type, donor heavy atom, donor atom, acceptor molecule, acceptor atom, score
      L1  H    17    47       P1  7948  2.00
      P1  H  7954  7966       L1    16  0.69

> <Gold.PLP.Chemscore.Internal.Correction>
0.1006

> <Gold.Rescore>
     Score         DG    S(hbond)    S(metal)    S(lipo)     H(rot)  DE(clash)    DE(int)     intcor
     12.43     -15.47       1.96        0.00      96.17       3.05       1.58       1.46       ----

> <Gold.Chemscore.Fitness>
12.4337

> <Gold.Chemscore.DG>
-15.4750

> <Gold.Chemscore.ZeroCoef>
-5.4800

> <Gold.Chemscore.Hbond>
1.9596

> <Gold.Chemscore.Metal>
0.0000

> <Gold.Chemscore.Lipo>
96.1683

> <Gold.Chemscore.Internal_Hbond>
0.0000

> <Gold.Chemscore.DEClash>
1.5813

> <Gold.Chemscore.DEInternal>
1.4600

> <Gold.Chemscore.Rot>
3.0476

> <Gold.Chemscore.Internal.Correction>
   9.000000E+99

> <Gold.Chemscore.Hbonds>
donor molecule, donor type, donor heavy atom, donor atom, acceptor molecule, acceptor atom, score
      L1  H    16    41       P1 10171  0.03
      L1  H    17    47       P1  7948  0.99
      P1  H  7954  7966       L1    16  0.13

> <Gold.Chemscore.Hbond.Weighted>
-6.5451

> <Gold.Chemscore.Metal.Weighted>
-0.0000

> <Gold.Chemscore.Lipo.Weighted>
-11.2517

> <Gold.Chemscore.Internal_Hbond.Weighted>
0.0000

> <Gold.Chemscore.DEClash.Weighted>
1.5813

> <Gold.Chemscore.DEInternal.Weighted>
1.4600

> <Gold.Chemscore.Rot.Weighted>
7.8018

> <Gold.Chemscore.Internal.Correction.Weighted>
   9.000000E+99

> <Gold.Protein.RotatedTorsions>
[ 6907 6896 6895 6894 ] final  141.61 input  -60.11 | X-H torsion
[ 7974 7965 7964 7962 ] final    8.36 input  175.53 | X-H torsion
[ 8008 7997 7996 7995 ] final   74.45 input   59.86 | X-H torsion
[ 10167 10162 10161 10158 ] final    2.18 input  -65.29 | X-H torsion
[ 10718 10713 10712 10709 ] final  166.41 input   66.30 | X-H torsion
[ 10763 10752 10751 10750 ] final   -3.28 input  -60.55 | X-H torsion
[ 11005 11000 10999 10996 ] final  -38.91 input  -57.11 | X-H torsion

> <Gold.Protein.ActiveResidues>
 VAL166  LYS551  ARG553  GLY616  TRP617  ASP618  TYR619  PRO620  LYS621  CYS622 
 ASP623  PHE694  ASN695  SER759  ASP760  ASP761  ALA762  ILE779  LEU786  VAL792 
 PHE793  MET794  SER795  GLU796  ALA797  LYS798  CYS799  TRP800  GLU811  SER814 

> <Gold.Protein.RotatedAtoms>
  152.2289  133.5042  159.5203 H   0  0  0  0  0  0  0  0  0  0  0  0  # atno 6907 bound_to 6896
  150.7032  134.1243  159.4055 H   0  0  0  0  0  0  0  0  0  0  0  0  # atno 6908 bound_to 6896
  151.9164  135.0317  160.0569 H   0  0  0  0  0  0  0  0  0  0  0  0  # atno 6909 bound_to 6896
  146.2417  139.9945  142.8422 H   0  0  0  0  0  0  0  0  0  0  0  0  # atno 7974 bound_to 7965
  155.7985  140.3477  155.5389 H   0  0  0  0  0  0  0  0  0  0  0  0  # atno 8008 bound_to 7997
  155.8562  140.0964  157.1663 H   0  0  0  0  0  0  0  0  0  0  0  0  # atno 8009 bound_to 7997
  154.4010  140.1367  156.3892 H   0  0  0  0  0  0  0  0  0  0  0  0  # atno 8010 bound_to 7997
  140.6647  143.7211  150.7805 H   0  0  0  0  0  0  0  0  0  0  0  0  # atno 10167 bound_to 10162
  157.0662  131.0353  151.2629 H   0  0  0  0  0  0  0  0  0  0  0  0  # atno 10718 bound_to 10713
  153.3692  135.6994  153.6651 H   0  0  0  0  0  0  0  0  0  0  0  0  # atno 10763 bound_to 10752
  153.5308  135.3593  155.2675 H   0  0  0  0  0  0  0  0  0  0  0  0  # atno 10764 bound_to 10752
  154.8679  135.4180  154.2967 H   0  0  0  0  0  0  0  0  0  0  0  0  # atno 10765 bound_to 10752
  141.0063  133.6930  156.2117 H   0  0  0  0  0  0  0  0  0  0  0  0  # atno 11005 bound_to 11000
  145.1472  140.9603  143.4454 LP  0  0  0  0  0  0  0  0  0  0  0  0  # atno 17320 bound_to 7965
  145.0239  139.3399  143.6058 LP  0  0  0  0  0  0  0  0  0  0  0  0  # atno 17321 bound_to 7965
  140.0886  143.4900  152.2491 LP  0  0  0  0  0  0  0  0  0  0  0  0  # atno 17342 bound_to 10162
  139.5892  144.7543  151.3443 LP  0  0  0  0  0  0  0  0  0  0  0  0  # atno 17343 bound_to 10162
  157.4915  130.7825  149.7512 LP  0  0  0  0  0  0  0  0  0  0  0  0  # atno 17370 bound_to 10713
  155.9964  130.3906  150.2782 LP  0  0  0  0  0  0  0  0  0  0  0  0  # atno 17371 bound_to 10713
  140.6807  134.4770  157.5589 LP  0  0  0  0  0  0  0  0  0  0  0  0  # atno 17394 bound_to 11000
  139.9065  134.8437  156.1686 LP  0  0  0  0  0  0  0  0  0  0  0  0  # atno 17395 bound_to 11000

$$$$
