AV-unprocessed.smi:3257|AV-procd|sdf|12467|dock4
  -GOLD-   2272018363D 1   1.00000     0.00000
 Structure written by MMmdl.
 38 39  0  0  0  0  0  0  0  0  1 V2000
  153.9867  142.4484  163.7655 C   0  0  0  0  0  0  0  0  0  0  0  0
  153.3670  142.7664  162.4969 N   0  0  0  0  0  0  0  0  0  0  0  0
  153.5251  142.1367  161.2813 C   0  0  0  0  0  0  0  0  0  0  0  0
  152.7389  142.7910  160.3749 C   0  0  0  0  0  0  0  0  0  0  0  0
  152.5482  142.5006  158.9128 C   0  0  0  0  0  0  0  0  0  0  0  0
  151.0945  142.1108  158.5999 C   0  0  0  0  0  0  0  0  0  0  0  0
  150.9882  141.4225  157.3191 N   0  0  0  0  0  0  0  0  0  0  0  0
  151.8182  140.4605  156.8809 C   0  0  0  0  0  0  0  0  0  0  0  0
  152.7706  140.0639  157.5540 O   0  0  0  0  0  0  0  0  0  0  0  0
  151.5126  139.9595  155.6565 N   0  0  0  0  0  0  0  0  0  0  0  0
  152.3385  139.0335  154.8601 C   0  0  0  0  0  0  0  0  0  0  0  0
  151.6833  137.6403  154.8797 C   0  0  0  0  0  0  0  0  0  0  0  0
  150.2355  137.7125  154.3549 C   0  0  0  0  0  0  0  0  0  0  0  0
  149.5999  136.4636  154.5267 O   0  0  0  0  0  0  0  0  0  0  0  0
  149.4285  138.8137  155.0710 C   0  0  0  0  0  0  0  0  0  0  0  0
  150.1899  140.1522  155.0460 C   0  0  0  0  0  0  0  0  0  0  0  0
  152.1352  143.8244  161.1468 C   0  0  0  0  0  0  0  0  0  0  0  0
  152.5130  143.8073  162.4149 N   0  0  0  0  0  0  0  0  0  0  0  0
  154.4710  141.4729  163.7099 H   0  0  0  0  0  0  0  0  0  0  0  0
  153.2326  142.4238  164.5531 H   0  0  0  0  0  0  0  0  0  0  0  0
  154.7349  143.2033  164.0078 H   0  0  0  0  0  0  0  0  0  0  0  0
  154.1754  141.2825  161.1622 H   0  0  0  0  0  0  0  0  0  0  0  0
  152.8291  143.3680  158.3141 H   0  0  0  0  0  0  0  0  0  0  0  0
  153.2128  141.6957  158.5964 H   0  0  0  0  0  0  0  0  0  0  0  0
  150.7148  141.4397  159.3709 H   0  0  0  0  0  0  0  0  0  0  0  0
  150.4496  142.9916  158.6096 H   0  0  0  0  0  0  0  0  0  0  0  0
  150.2255  141.6966  156.7172 H   0  0  0  0  0  0  0  0  0  0  0  0
  152.3965  139.4010  153.8346 H   0  0  0  0  0  0  0  0  0  0  0  0
  153.3726  138.9592  155.1957 H   0  0  0  0  0  0  0  0  0  0  0  0
  152.2673  136.9434  154.2776 H   0  0  0  0  0  0  0  0  0  0  0  0
  151.6915  137.2531  155.9000 H   0  0  0  0  0  0  0  0  0  0  0  0
  150.2581  137.9316  153.2867 H   0  0  0  0  0  0  0  0  0  0  0  0
  149.2328  136.1959  153.6979 H   0  0  0  0  0  0  0  0  0  0  0  0
  148.4515  138.9299  154.6009 H   0  0  0  0  0  0  0  0  0  0  0  0
  149.2426  138.5253  156.1069 H   0  0  0  0  0  0  0  0  0  0  0  0
  149.6015  140.9229  155.5455 H   0  0  0  0  0  0  0  0  0  0  0  0
  150.3120  140.4956  154.0178 H   0  0  0  0  0  0  0  0  0  0  0  0
  151.4369  144.5824  160.8239 H   0  0  0  0  0  0  0  0  0  0  0  0
  1  2  1  0  0  0  0
  1 19  1  0  0  0  0
  1 20  1  0  0  0  0
  1 21  1  0  0  0  0
  2 18  1  0  0  0  0
  2  3  1  0  0  0  0
  3  4  2  0  0  0  0
  3 22  1  0  0  0  0
  4  5  1  0  0  0  0
  4 17  1  0  0  0  0
  5  6  1  0  0  0  0
  5 23  1  0  0  0  0
  5 24  1  0  0  0  0
  6  7  1  0  0  0  0
  6 25  1  0  0  0  0
  6 26  1  0  0  0  0
  7  8  1  0  0  0  0
  7 27  1  0  0  0  0
  8  9  2  0  0  0  0
  8 10  1  0  0  0  0
 10 16  1  0  0  0  0
 10 11  1  0  0  0  0
 11 12  1  0  0  0  0
 11 28  1  0  0  0  0
 11 29  1  0  0  0  0
 12 13  1  0  0  0  0
 12 30  1  0  0  0  0
 12 31  1  0  0  0  0
 13 14  1  0  0  0  0
 13 15  1  0  0  0  0
 13 32  1  0  0  0  0
 14 33  1  0  0  0  0
 15 16  1  0  0  0  0
 15 34  1  0  0  0  0
 15 35  1  0  0  0  0
 16 36  1  0  0  0  0
 16 37  1  0  0  0  0
 17 18  2  0  0  0  0
 17 38  1  0  0  0  0
M  END
> <s_m_source_file>
AV-unprocessed.smi

> <i_m_source_file_index>
3257

> <i_lp_mmshare_version>
43012

> <i_f3d_flags>
0

> <s_epik_input>
W0NIM11uMVtjSF1jKFtjSF1uMSlbQ0gyXVtDSDJdW05IXUMoPU8pTjJbQ0gyXVtDSDJdW0NIXShbT0hdKVtDSDJdW0NIMl0y

> <s_epik_cmdline>
J2VwaWtfcHl0aG9uJywgJy1waCcsICc3LjAnLCAnLXRuJywgJzgnLCAnLW1hJywgJzIwMCcsICctbWV0YWxfYmluZGluZycsICctaW1hZScsICc8aW5maWxlLm1hZT4nLCAnLW9tYWUnLCAnPG91dGZpbGUubWFlPic=

> <r_lp_tautomer_probability>
1

> <r_epik_Ionization_Penalty>
0.000563034

> <r_epik_Ionization_Penalty_Charging>
0

> <r_epik_Ionization_Penalty_Neutral>
0.000563034

> <r_epik_State_Penalty>
-0

> <r_epik_Charging_Adjusted_Penalty>
0

> <i_epik_Tot_Q>
0

> <i_epik_Tot_abs_Q>
0

> <r_epik_Metal_State_Penalty>
-0

> <b_epik_Metal_Only>
0

> <s_lp_Force_Field>
OPLS_2005

> <r_lp_Energy>
25.1646

> <b_lp_Chiralities_Consistent>
1

> <s_lp_Variant>
AV-unprocessed.smi:3257-1

> <Gold.Version>
5.8.1

> <Gold.Id.Protein>
6NUR|6NUR_protein|mol2

> <Gold.PLP.Fitness>
46.6815

> <Gold.PLP.PLP>
-42.1702

> <Gold.PLP.part.hbond>
-2.0000

> <Gold.PLP.part.metal>
0.0000

> <Gold.PLP.part.buried>
-1.1456

> <Gold.PLP.part.nonpolar>
-36.9228

> <Gold.PLP.part.repulsive>
0.2402

> <Gold.PLP.ligand.clash>
0.9573

> <Gold.PLP.ligand.torsion>
0.2855

> <Gold.PLP.Chemscore.Hbond>
2.0000

> <Gold.PLP.Chemscore.CHOScore>
0.0000

> <Gold.PLP.Chemscore.Metal>
0.0000

> <Gold.Chemscore.Hbonds>
donor molecule, donor type, donor heavy atom, donor atom, acceptor molecule, acceptor atom, score
      L1  H    14    33       P1  7948  1.00
      P1  H  7997  8009       L1     9  1.00

> <Gold.PLP.Chemscore.Internal.Correction>
0.0395

> <Gold.Rescore>
     Score         DG    S(hbond)    S(metal)    S(lipo)     H(rot)  DE(clash)    DE(int)     intcor
     16.54     -18.45       1.92        0.00      98.50       1.95       0.22       1.69       ----

> <Gold.Chemscore.Fitness>
16.5426

> <Gold.Chemscore.DG>
-18.4504

> <Gold.Chemscore.ZeroCoef>
-5.4800

> <Gold.Chemscore.Hbond>
1.9238

> <Gold.Chemscore.Metal>
0.0000

> <Gold.Chemscore.Lipo>
98.5041

> <Gold.Chemscore.Internal_Hbond>
0.0000

> <Gold.Chemscore.DEClash>
0.2170

> <Gold.Chemscore.DEInternal>
1.6908

> <Gold.Chemscore.Rot>
1.9454

> <Gold.Chemscore.Internal.Correction>
   9.000000E+99

> <Gold.Chemscore.Hbonds>
donor molecule, donor type, donor heavy atom, donor atom, acceptor molecule, acceptor atom, score
      L1  H    14    33       P1  7948  0.87
      P1  H  7997  8009       L1     9  0.88

> <Gold.Chemscore.Hbond.Weighted>
-6.4256

> <Gold.Chemscore.Metal.Weighted>
-0.0000

> <Gold.Chemscore.Lipo.Weighted>
-11.5250

> <Gold.Chemscore.Internal_Hbond.Weighted>
0.0000

> <Gold.Chemscore.DEClash.Weighted>
0.2170

> <Gold.Chemscore.DEInternal.Weighted>
1.6908

> <Gold.Chemscore.Rot.Weighted>
4.9802

> <Gold.Chemscore.Internal.Correction.Weighted>
   9.000000E+99

> <Gold.Protein.RotatedTorsions>
[ 6907 6896 6895 6894 ] final -122.37 input  -60.11 | X-H torsion
[ 7974 7965 7964 7962 ] final  144.91 input  175.53 | X-H torsion
[ 8008 7997 7996 7995 ] final  178.01 input   59.86 | X-H torsion
[ 10167 10162 10161 10158 ] final -171.26 input  -65.29 | X-H torsion
[ 10718 10713 10712 10709 ] final   39.38 input   66.30 | X-H torsion
[ 10763 10752 10751 10750 ] final   75.05 input  -60.55 | X-H torsion
[ 11005 11000 10999 10996 ] final   33.66 input  -57.11 | X-H torsion

> <Gold.Protein.ActiveResidues>
 VAL166  LYS551  ARG553  GLY616  TRP617  ASP618  TYR619  PRO620  LYS621  CYS622 
 ASP623  PHE694  ASN695  SER759  ASP760  ASP761  ALA762  ILE779  LEU786  VAL792 
 PHE793  MET794  SER795  GLU796  ALA797  LYS798  CYS799  TRP800  GLU811  SER814 

> <Gold.Protein.RotatedAtoms>
  150.8570  133.7700  159.3005 H   0  0  0  0  0  0  0  0  0  0  0  0  # atno 6907 bound_to 6896
  151.5355  135.1067  159.9923 H   0  0  0  0  0  0  0  0  0  0  0  0  # atno 6908 bound_to 6896
  152.4597  133.7753  159.6877 H   0  0  0  0  0  0  0  0  0  0  0  0  # atno 6909 bound_to 6896
  144.8796  139.5719  143.5849 H   0  0  0  0  0  0  0  0  0  0  0  0  # atno 7974 bound_to 7965
  156.0594  140.1344  156.9959 H   0  0  0  0  0  0  0  0  0  0  0  0  # atno 8008 bound_to 7997
  154.4474  140.0994  156.6565 H   0  0  0  0  0  0  0  0  0  0  0  0  # atno 8009 bound_to 7997
  155.5401  140.3460  155.4447 H   0  0  0  0  0  0  0  0  0  0  0  0  # atno 8010 bound_to 7997
  139.5813  144.1418  152.1518 H   0  0  0  0  0  0  0  0  0  0  0  0  # atno 10167 bound_to 10162
  157.3699  130.7696  149.7111 H   0  0  0  0  0  0  0  0  0  0  0  0  # atno 10718 bound_to 10713
  153.0628  135.5003  154.8133 H   0  0  0  0  0  0  0  0  0  0  0  0  # atno 10763 bound_to 10752
  154.6909  135.2984  154.9483 H   0  0  0  0  0  0  0  0  0  0  0  0  # atno 10764 bound_to 10752
  154.0238  135.6738  153.4827 H   0  0  0  0  0  0  0  0  0  0  0  0  # atno 10765 bound_to 10752
  140.2608  134.3194  155.7858 H   0  0  0  0  0  0  0  0  0  0  0  0  # atno 11005 bound_to 11000
  146.2986  139.7355  142.9108 LP  0  0  0  0  0  0  0  0  0  0  0  0  # atno 17320 bound_to 7965
  145.3978  141.0381  143.3087 LP  0  0  0  0  0  0  0  0  0  0  0  0  # atno 17321 bound_to 7965
  140.0971  144.5571  150.7014 LP  0  0  0  0  0  0  0  0  0  0  0  0  # atno 17342 bound_to 10162
  140.7090  143.2490  151.4638 LP  0  0  0  0  0  0  0  0  0  0  0  0  # atno 17343 bound_to 10162
  155.9753  130.4090  150.3856 LP  0  0  0  0  0  0  0  0  0  0  0  0  # atno 17370 bound_to 10713
  157.1945  131.0423  151.2683 LP  0  0  0  0  0  0  0  0  0  0  0  0  # atno 17371 bound_to 10713
  141.2190  133.7408  156.9184 LP  0  0  0  0  0  0  0  0  0  0  0  0  # atno 17394 bound_to 11000
  140.1466  134.9258  157.2538 LP  0  0  0  0  0  0  0  0  0  0  0  0  # atno 17395 bound_to 11000

$$$$
