AV-unprocessed.smi:1751|AV-procd|sdf|7056|dock3
  -GOLD-   22720 8273D 1   1.00000     0.00000
 Structure written by MMmdl.
 35 36  0  0  0  0  0  0  0  0  1 V2000
  151.9309  139.6889  155.6997 C   0  0  0  0  0  0  0  0  0  0  0  0
  151.0248  140.6439  155.1583 O   0  0  0  0  0  0  0  0  0  0  0  0
  149.7968  140.2012  154.7107 C   0  0  0  0  0  0  0  0  0  0  0  0
  148.8275  141.1567  154.3469 C   0  0  0  0  0  0  0  0  0  0  0  0
  147.5725  140.7099  153.8926 C   0  0  0  0  0  0  0  0  0  0  0  0
  147.3186  139.3254  153.8245 C   0  0  0  0  0  0  0  0  0  0  0  0
  146.0485  138.9019  153.3489 N   0  0  0  0  0  0  0  0  0  0  0  0
  145.5303  137.6620  153.3482 C   0  0  0  0  0  0  0  0  0  0  0  0
  146.0887  136.6560  153.7859 O   0  0  0  0  0  0  0  0  0  0  0  0
  144.2961  137.6532  152.8265 N   0  0  0  0  0  0  0  0  0  0  0  0
  143.4393  136.4773  152.7250 C   0  0  0  0  0  0  0  0  0  0  0  0
  144.2415  135.2284  152.3234 C   0  0  2  0  0  0  0  0  0  0  0  0
  144.5162  135.1289  150.8242 C   0  0  0  0  0  0  0  0  0  0  0  0
  144.7189  133.6412  150.6524 C   0  0  0  0  0  0  0  0  0  0  0  0
  143.6725  133.0735  151.6068 C   0  0  0  0  0  0  0  0  0  0  0  0
  143.5177  134.0415  152.6420 O   0  0  0  0  0  0  0  0  0  0  0  0
  148.3622  138.4445  154.1989 C   0  0  0  0  0  0  0  0  0  0  0  0
  149.5689  138.8667  154.6331 N   0  0  0  0  0  0  0  0  0  0  0  0
  152.8467  140.1940  156.0063 H   0  0  0  0  0  0  0  0  0  0  0  0
  152.2020  138.9328  154.9614 H   0  0  0  0  0  0  0  0  0  0  0  0
  151.5140  139.1974  156.5799 H   0  0  0  0  0  0  0  0  0  0  0  0
  149.0429  142.2126  154.4156 H   0  0  0  0  0  0  0  0  0  0  0  0
  146.8143  141.4242  153.6063 H   0  0  0  0  0  0  0  0  0  0  0  0
  145.4355  139.6395  153.0336 H   0  0  0  0  0  0  0  0  0  0  0  0
  143.9100  138.5261  152.4977 H   0  0  0  0  0  0  0  0  0  0  0  0
  142.9563  136.3182  153.6895 H   0  0  0  0  0  0  0  0  0  0  0  0
  142.6403  136.6615  152.0049 H   0  0  0  0  0  0  0  0  0  0  0  0
  145.1930  135.1947  152.8567 H   0  0  0  0  0  0  0  0  0  0  0  0
  143.6488  135.4557  150.2488 H   0  0  0  0  0  0  0  0  0  0  0  0
  145.3784  135.7177  150.5099 H   0  0  0  0  0  0  0  0  0  0  0  0
  144.5873  133.3037  149.6242 H   0  0  0  0  0  0  0  0  0  0  0  0
  145.7204  133.3600  150.9806 H   0  0  0  0  0  0  0  0  0  0  0  0
  142.7149  132.9582  151.0977 H   0  0  0  0  0  0  0  0  0  0  0  0
  143.9617  132.1022  152.0088 H   0  0  0  0  0  0  0  0  0  0  0  0
  148.2554  137.3728  154.1368 H   0  0  0  0  0  0  0  0  0  0  0  0
  1  2  1  0  0  0  0
  1 19  1  0  0  0  0
  1 20  1  0  0  0  0
  1 21  1  0  0  0  0
  2  3  1  0  0  0  0
  3 18  1  0  0  0  0
  3  4  2  0  0  0  0
  4  5  1  0  0  0  0
  4 22  1  0  0  0  0
  5  6  2  0  0  0  0
  5 23  1  0  0  0  0
  6  7  1  0  0  0  0
  6 17  1  0  0  0  0
  7  8  1  0  0  0  0
  7 24  1  0  0  0  0
  8  9  2  0  0  0  0
  8 10  1  0  0  0  0
 10 11  1  0  0  0  0
 10 25  1  0  0  0  0
 11 12  1  0  0  0  0
 11 26  1  0  0  0  0
 11 27  1  0  0  0  0
 12 16  1  0  0  0  0
 12 13  1  0  0  0  0
 12 28  1  0  0  0  0
 13 14  1  0  0  0  0
 13 29  1  0  0  0  0
 13 30  1  0  0  0  0
 14 15  1  0  0  0  0
 14 31  1  0  0  0  0
 14 32  1  0  0  0  0
 15 16  1  0  0  0  0
 15 33  1  0  0  0  0
 15 34  1  0  0  0  0
 17 18  2  0  0  0  0
 17 35  1  0  0  0  0
M  END
> <s_m_source_file>
AV-unprocessed.smi

> <i_m_source_file_index>
1751

> <i_lp_mmshare_version>
43012

> <i_f3d_flags>
0

> <s_epik_input>
W0NIM11PYzFbY0hdW2NIXWMoW2NIXW4xKVtOSF1DKD1PKVtOSF1bQ0gyXVtDQEBIXTJbQ0gyXVtDSDJdW0NIMl1PMg==

> <s_epik_cmdline>
J2VwaWtfcHl0aG9uJywgJy1waCcsICc3LjAnLCAnLXRuJywgJzgnLCAnLW1hJywgJzIwMCcsICctbWV0YWxfYmluZGluZycsICctaW1hZScsICc8aW5maWxlLm1hZT4nLCAnLW9tYWUnLCAnPG91dGZpbGUubWFlPic=

> <r_lp_tautomer_probability>
1

> <r_epik_Ionization_Penalty>
9.01694e-05

> <r_epik_Ionization_Penalty_Charging>
0

> <r_epik_Ionization_Penalty_Neutral>
9.01694e-05

> <r_epik_State_Penalty>
-0

> <r_epik_Charging_Adjusted_Penalty>
0

> <i_epik_Tot_Q>
0

> <i_epik_Tot_abs_Q>
0

> <r_epik_Metal_State_Penalty>
-0

> <b_epik_Metal_Only>
0

> <s_lp_Force_Field>
OPLS_2005

> <r_lp_Energy>
19.4373

> <b_lp_Chiralities_Consistent>
1

> <s_lp_Variant>
AV-unprocessed.smi:1751-1

> <Gold.Version>
5.8.1

> <Gold.Id.Protein>
6NUR|6NUR_protein|mol2

> <Gold.PLP.Fitness>
40.6233

> <Gold.PLP.PLP>
-30.7653

> <Gold.PLP.part.hbond>
-4.0000

> <Gold.PLP.part.metal>
0.0000

> <Gold.PLP.part.buried>
-2.8922

> <Gold.PLP.part.nonpolar>
-25.1568

> <Gold.PLP.part.repulsive>
0.5471

> <Gold.PLP.ligand.clash>
0.0000

> <Gold.PLP.ligand.torsion>
0.4223

> <Gold.PLP.Chemscore.Hbond>
2.7808

> <Gold.PLP.Chemscore.CHOScore>
0.7827

> <Gold.PLP.Chemscore.Metal>
0.0000

> <Gold.Chemscore.Hbonds>
donor molecule, donor type, donor heavy atom, donor atom, acceptor molecule, acceptor atom, score
      L1  H     7    24       P1 10175  1.00
      L1  H    10    25       P1 10175  1.00
      P1  H  7989  7998       L1     2  0.58
      L1  C    17    35       P1  7948  0.54

> <Gold.PLP.Chemscore.Internal.Correction>
0.0120

> <Gold.Rescore>
     Score         DG    S(hbond)    S(metal)    S(lipo)     H(rot)  DE(clash)    DE(int)     intcor
     12.05     -15.20       1.97        0.00      59.68       1.50       0.06       3.10       ----

> <Gold.Chemscore.Fitness>
12.0471

> <Gold.Chemscore.DG>
-15.2032

> <Gold.Chemscore.ZeroCoef>
-5.4800

> <Gold.Chemscore.Hbond>
1.9680

> <Gold.Chemscore.Metal>
0.0000

> <Gold.Chemscore.Lipo>
59.6819

> <Gold.Chemscore.Internal_Hbond>
0.0000

> <Gold.Chemscore.DEClash>
0.0595

> <Gold.Chemscore.DEInternal>
3.0966

> <Gold.Chemscore.Rot>
1.4971

> <Gold.Chemscore.Internal.Correction>
   9.000000E+99

> <Gold.Chemscore.Hbonds>
donor molecule, donor type, donor heavy atom, donor atom, acceptor molecule, acceptor atom, score
      L1  H     7    24       P1 10175  0.93
      L1  H    10    25       P1 10175  0.98
      P1  H  7989  7998       L1     2  0.02

> <Gold.Chemscore.Hbond.Weighted>
-6.5730

> <Gold.Chemscore.Metal.Weighted>
-0.0000

> <Gold.Chemscore.Lipo.Weighted>
-6.9828

> <Gold.Chemscore.Internal_Hbond.Weighted>
0.0000

> <Gold.Chemscore.DEClash.Weighted>
0.0595

> <Gold.Chemscore.DEInternal.Weighted>
3.0966

> <Gold.Chemscore.Rot.Weighted>
3.8326

> <Gold.Chemscore.Internal.Correction.Weighted>
   9.000000E+99

> <Gold.Protein.RotatedTorsions>
[ 6907 6896 6895 6894 ] final  100.16 input  -60.11 | X-H torsion
[ 7974 7965 7964 7962 ] final  158.51 input  175.53 | X-H torsion
[ 8008 7997 7996 7995 ] final   45.43 input   59.86 | X-H torsion
[ 10167 10162 10161 10158 ] final  -60.80 input  -65.29 | X-H torsion
[ 10718 10713 10712 10709 ] final  -45.34 input   66.30 | X-H torsion
[ 10763 10752 10751 10750 ] final  -51.39 input  -60.55 | X-H torsion
[ 11005 11000 10999 10996 ] final   -3.47 input  -57.11 | X-H torsion

> <Gold.Protein.ActiveResidues>
 VAL166  LYS551  ARG553  GLY616  TRP617  ASP618  TYR619  PRO620  LYS621  CYS622 
 ASP623  PHE694  ASN695  SER759  ASP760  ASP761  ALA762  ILE779  LEU786  VAL792 
 PHE793  MET794  SER795  GLU796  ALA797  LYS798  CYS799  TRP800  GLU811  SER814 

> <Gold.Protein.RotatedAtoms>
  152.5378  134.0319  159.8028 H   0  0  0  0  0  0  0  0  0  0  0  0  # atno 6907 bound_to 6896
  151.0489  133.5634  159.2651 H   0  0  0  0  0  0  0  0  0  0  0  0  # atno 6908 bound_to 6896
  151.2575  135.0650  159.9139 H   0  0  0  0  0  0  0  0  0  0  0  0  # atno 6909 bound_to 6896
  144.7841  139.7489  143.6248 H   0  0  0  0  0  0  0  0  0  0  0  0  # atno 7974 bound_to 7965
  155.3357  140.3405  155.4239 H   0  0  0  0  0  0  0  0  0  0  0  0  # atno 8008 bound_to 7997
  156.1839  140.1673  156.8259 H   0  0  0  0  0  0  0  0  0  0  0  0  # atno 8009 bound_to 7997
  154.5364  140.0734  156.8417 H   0  0  0  0  0  0  0  0  0  0  0  0  # atno 8010 bound_to 7997
  140.6047  143.2370  151.5848 H   0  0  0  0  0  0  0  0  0  0  0  0  # atno 10167 bound_to 10162
  156.2293  130.4171  149.8894 H   0  0  0  0  0  0  0  0  0  0  0  0  # atno 10718 bound_to 10713
  154.1258  135.6528  153.4912 H   0  0  0  0  0  0  0  0  0  0  0  0  # atno 10763 bound_to 10752
  153.0211  135.5281  154.7051 H   0  0  0  0  0  0  0  0  0  0  0  0  # atno 10764 bound_to 10752
  154.6272  135.2971  155.0229 H   0  0  0  0  0  0  0  0  0  0  0  0  # atno 10765 bound_to 10752
  140.6697  133.9247  155.8487 H   0  0  0  0  0  0  0  0  0  0  0  0  # atno 11005 bound_to 11000
  146.2065  139.5392  142.9709 LP  0  0  0  0  0  0  0  0  0  0  0  0  # atno 17320 bound_to 7965
  145.5968  141.0361  143.2040 LP  0  0  0  0  0  0  0  0  0  0  0  0  # atno 17321 bound_to 7965
  139.5316  144.2898  152.1161 LP  0  0  0  0  0  0  0  0  0  0  0  0  # atno 17342 bound_to 10162
  140.2086  144.4586  150.6396 LP  0  0  0  0  0  0  0  0  0  0  0  0  # atno 17343 bound_to 10162
  156.6514  130.8745  151.3532 LP  0  0  0  0  0  0  0  0  0  0  0  0  # atno 17370 bound_to 10713
  157.7125  130.9458  150.1140 LP  0  0  0  0  0  0  0  0  0  0  0  0  # atno 17371 bound_to 10713
  141.0402  134.0632  157.3911 LP  0  0  0  0  0  0  0  0  0  0  0  0  # atno 17394 bound_to 11000
  139.8986  135.0155  156.7154 LP  0  0  0  0  0  0  0  0  0  0  0  0  # atno 17395 bound_to 11000

$$$$
