AV-unprocessed.smi:1986|AV-procd|sdf|8047|dock2
  -GOLD-   2272010243D 1   1.00000     0.00000
 Structure written by MMmdl.
 46 47  0  0  0  0  0  0  0  0  2 V2000
  148.8629  141.5683  155.7698 C   0  0  0  0  0  0  0  0  0  0  0  0
  149.0874  140.9454  157.1586 C   0  0  0  0  0  0  0  0  0  0  0  0
  150.5818  140.6987  157.5476 C   0  0  2  0  0  0  0  0  0  0  0  0
  151.3118  140.2475  156.2548 C   0  0  0  0  0  0  0  0  0  0  0  0
  150.6388  139.5108  158.5625 C   0  0  0  0  0  0  0  0  0  0  0  0
  149.4812  138.6228  158.5001 N   0  0  0  0  0  0  0  0  0  0  0  0
  149.4401  137.3856  159.0137 C   0  0  0  0  0  0  0  0  0  0  0  0
  150.3985  136.8658  159.5877 O   0  0  0  0  0  0  0  0  0  0  0  0
  148.1118  136.6339  158.8310 C   0  0  0  0  0  0  0  0  0  0  0  0
  147.4657  136.2345  160.0901 N   0  0  0  0  0  0  0  0  0  0  0  0
  147.2252  137.3446  161.0085 N   0  5  0  0  0  0  0  0  0  0  0  0
  146.6225  137.0982  162.2019 C   0  0  0  0  0  0  0  0  0  0  0  0
  146.3745  137.9826  163.0182 O   0  0  0  0  0  0  0  0  0  0  0  0
  146.2644  135.7251  162.5172 C   0  0  0  0  0  0  0  0  0  0  0  0
  146.5194  134.7168  161.6602 C   0  0  0  0  0  0  0  0  0  0  0  0
  147.1608  134.9348  160.3691 C   0  0  0  0  0  0  0  0  0  0  0  0
  147.4084  134.0169  159.5867 O   0  0  0  0  0  0  0  0  0  0  0  0
  151.1943  141.9259  158.1415 N   0  0  0  0  0  0  0  0  0  0  0  0
  152.4561  141.7083  158.8626 C   0  0  0  0  0  0  0  0  0  0  0  0
  152.9668  142.9875  159.5478 C   0  0  0  0  0  0  0  0  0  0  0  0
  153.1167  144.0220  158.5845 O   0  0  0  0  0  0  0  0  0  0  0  0
  151.8975  144.3132  157.9142 C   0  0  0  0  0  0  0  0  0  0  0  0
  151.3788  143.0479  157.2103 C   0  0  0  0  0  0  0  0  0  0  0  0
  147.7971  141.6654  155.5632 H   0  0  0  0  0  0  0  0  0  0  0  0
  149.2948  140.9557  154.9785 H   0  0  0  0  0  0  0  0  0  0  0  0
  149.2975  142.5651  155.6993 H   0  0  0  0  0  0  0  0  0  0  0  0
  148.6026  141.5858  157.8958 H   0  0  0  0  0  0  0  0  0  0  0  0
  148.5176  140.0194  157.2236 H   0  0  0  0  0  0  0  0  0  0  0  0
  150.8449  139.3646  155.8174 H   0  0  0  0  0  0  0  0  0  0  0  0
  152.3540  139.9890  156.4406 H   0  0  0  0  0  0  0  0  0  0  0  0
  151.2943  141.0154  155.4820 H   0  0  0  0  0  0  0  0  0  0  0  0
  151.5122  138.8856  158.3745 H   0  0  0  0  0  0  0  0  0  0  0  0
  150.7411  139.8866  159.5818 H   0  0  0  0  0  0  0  0  0  0  0  0
  148.6544  138.9768  158.0414 H   0  0  0  0  0  0  0  0  0  0  0  0
  147.4258  137.2578  158.2551 H   0  0  0  0  0  0  0  0  0  0  0  0
  148.3037  135.7590  158.2073 H   0  0  0  0  0  0  0  0  0  0  0  0
  145.7852  135.5086  163.4606 H   0  0  0  0  0  0  0  0  0  0  0  0
  146.2374  133.7118  161.9370 H   0  0  0  0  0  0  0  0  0  0  0  0
  152.3396  140.9558  159.6395 H   0  0  0  0  0  0  0  0  0  0  0  0
  153.2239  141.3455  158.1791 H   0  0  0  0  0  0  0  0  0  0  0  0
  152.2783  143.3067  160.3320 H   0  0  0  0  0  0  0  0  0  0  0  0
  153.9298  142.8030  160.0239 H   0  0  0  0  0  0  0  0  0  0  0  0
  151.1611  144.6895  158.6261 H   0  0  0  0  0  0  0  0  0  0  0  0
  152.0729  145.1053  157.1860 H   0  0  0  0  0  0  0  0  0  0  0  0
  152.0823  142.7751  156.4237 H   0  0  0  0  0  0  0  0  0  0  0  0
  150.4431  143.3119  156.7226 H   0  0  0  0  0  0  0  0  0  0  0  0
  1  2  1  0  0  0  0
  1 24  1  0  0  0  0
  1 25  1  0  0  0  0
  1 26  1  0  0  0  0
  2  3  1  0  0  0  0
  2 27  1  0  0  0  0
  2 28  1  0  0  0  0
  3  4  1  0  0  0  0
  3  5  1  0  0  0  0
  3 18  1  0  0  0  0
  4 29  1  0  0  0  0
  4 30  1  0  0  0  0
  4 31  1  0  0  0  0
  5  6  1  0  0  0  0
  5 32  1  0  0  0  0
  5 33  1  0  0  0  0
  6  7  1  0  0  0  0
  6 34  1  0  0  0  0
  7  8  2  0  0  0  0
  7  9  1  0  0  0  0
  9 35  1  0  0  0  0
  9 36  1  0  0  0  0
  9 10  1  0  0  0  0
 10 11  1  0  0  0  0
 10 16  1  0  0  0  0
 11 12  1  0  0  0  0
 12 13  2  0  0  0  0
 12 14  1  0  0  0  0
 14 37  1  0  0  0  0
 14 15  2  0  0  0  0
 15 38  1  0  0  0  0
 15 16  1  0  0  0  0
 16 17  2  0  0  0  0
 18 23  1  0  0  0  0
 18 19  1  0  0  0  0
 19 20  1  0  0  0  0
 19 39  1  0  0  0  0
 19 40  1  0  0  0  0
 20 21  1  0  0  0  0
 20 41  1  0  0  0  0
 20 42  1  0  0  0  0
 21 22  1  0  0  0  0
 22 23  1  0  0  0  0
 22 43  1  0  0  0  0
 22 44  1  0  0  0  0
 23 45  1  0  0  0  0
 23 46  1  0  0  0  0
M  CHG  1  11  -1
M  END
> <s_m_source_file>
AV-unprocessed.smi

> <i_m_source_file_index>
1986

> <i_lp_mmshare_version>
43012

> <i_f3d_flags>
0

> <s_epik_input>
W0NIMl0xW0NIMl1PW0NIMl1bQ0gyXU4xW0NAQF0oW0NIM10pKFtDSDJdW0NIM10pW0NIMl1bTkhdQyg9TylbQ0gyXW4yW25IXWMoPU8pW2NIXVtjSF1jMj1P

> <s_epik_cmdline>
J2VwaWtfcHl0aG9uJywgJy1waCcsICc3LjAnLCAnLXRuJywgJzgnLCAnLW1hJywgJzIwMCcsICctbWV0YWxfYmluZGluZycsICctaW1hZScsICc8aW5maWxlLm1hZT4nLCAnLW9tYWUnLCAnPG91dGZpbGUubWFlPic=

> <r_lp_tautomer_probability>
1

> <r_epik_Ionization_Penalty>
0.416475

> <r_epik_Ionization_Penalty_Charging>
0.0978085

> <r_epik_Ionization_Penalty_Neutral>
0.318667

> <r_epik_State_Penalty>
0.355037

> <r_epik_Charging_Adjusted_Penalty>
0.452845

> <i_epik_Tot_Q>
-1

> <i_epik_Tot_abs_Q>
1

> <r_epik_Metal_State_Penalty>
0.355037

> <b_epik_Metal_Only>
0

> <s_lp_Force_Field>
OPLS_2005

> <r_lp_Energy>
59.1038

> <b_lp_Chiralities_Consistent>
1

> <s_lp_Variant>
AV-unprocessed.smi:1986-2

> <Gold.Version>
5.8.1

> <Gold.Id.Protein>
6NUR|6NUR_protein|mol2

> <Gold.PLP.Fitness>
50.4957

> <Gold.PLP.PLP>
-42.4406

> <Gold.PLP.part.hbond>
-4.2306

> <Gold.PLP.part.metal>
0.0000

> <Gold.PLP.part.buried>
-5.7075

> <Gold.PLP.part.nonpolar>
-35.0235

> <Gold.PLP.part.repulsive>
0.2194

> <Gold.PLP.ligand.clash>
1.4106

> <Gold.PLP.ligand.torsion>
1.5041

> <Gold.PLP.Chemscore.Hbond>
4.0944

> <Gold.PLP.Chemscore.CHOScore>
0.0000

> <Gold.PLP.Chemscore.Metal>
0.0000

> <Gold.Chemscore.Hbonds>
donor molecule, donor type, donor heavy atom, donor atom, acceptor molecule, acceptor atom, score
      P1  H  6896  6909       L1     8  1.00
      P1  H  6931  6943       L1    11  0.61
      P1  H  6934  6947       L1    11  2.00

> <Gold.PLP.Chemscore.Internal.Correction>
0.1906

> <Gold.Rescore>
     Score         DG    S(hbond)    S(metal)    S(lipo)     H(rot)  DE(clash)    DE(int)     intcor
     13.96     -15.31       1.64        0.00      90.01       2.42       0.08       1.28       ----

> <Gold.Chemscore.Fitness>
13.9563

> <Gold.Chemscore.DG>
-15.3074

> <Gold.Chemscore.ZeroCoef>
-5.4800

> <Gold.Chemscore.Hbond>
1.6439

> <Gold.Chemscore.Metal>
0.0000

> <Gold.Chemscore.Lipo>
90.0103

> <Gold.Chemscore.Internal_Hbond>
0.0000

> <Gold.Chemscore.DEClash>
0.0757

> <Gold.Chemscore.DEInternal>
1.2753

> <Gold.Chemscore.Rot>
2.4197

> <Gold.Chemscore.Internal.Correction>
   9.000000E+99

> <Gold.Chemscore.Hbonds>
donor molecule, donor type, donor heavy atom, donor atom, acceptor molecule, acceptor atom, score
      P1  H  6896  6909       L1     8  0.99
      P1  H  6931  6943       L1    11  0.04
      P1  H  6934  6947       L1    11  0.34

> <Gold.Chemscore.Hbond.Weighted>
-5.4905

> <Gold.Chemscore.Metal.Weighted>
-0.0000

> <Gold.Chemscore.Lipo.Weighted>
-10.5312

> <Gold.Chemscore.Internal_Hbond.Weighted>
0.0000

> <Gold.Chemscore.DEClash.Weighted>
0.0757

> <Gold.Chemscore.DEInternal.Weighted>
1.2753

> <Gold.Chemscore.Rot.Weighted>
6.1943

> <Gold.Chemscore.Internal.Correction.Weighted>
   9.000000E+99

> <Gold.Protein.RotatedTorsions>
[ 6907 6896 6895 6894 ] final  100.20 input  -60.11 | X-H torsion
[ 7974 7965 7964 7962 ] final  121.98 input  175.53 | X-H torsion
[ 8008 7997 7996 7995 ] final    2.14 input   59.86 | X-H torsion
[ 10167 10162 10161 10158 ] final   97.01 input  -65.29 | X-H torsion
[ 10718 10713 10712 10709 ] final   38.14 input   66.30 | X-H torsion
[ 10763 10752 10751 10750 ] final  -77.28 input  -60.55 | X-H torsion
[ 11005 11000 10999 10996 ] final  109.47 input  -57.11 | X-H torsion

> <Gold.Protein.ActiveResidues>
 VAL166  LYS551  ARG553  GLY616  TRP617  ASP618  TYR619  PRO620  LYS621  CYS622 
 ASP623  PHE694  ASN695  SER759  ASP760  ASP761  ALA762  ILE779  LEU786  VAL792 
 PHE793  MET794  SER795  GLU796  ALA797  LYS798  CYS799  TRP800  GLU811  SER814 

> <Gold.Protein.RotatedAtoms>
  152.5377  134.0313  159.8025 H   0  0  0  0  0  0  0  0  0  0  0  0  # atno 6907 bound_to 6896
  151.0483  133.5638  159.2652 H   0  0  0  0  0  0  0  0  0  0  0  0  # atno 6908 bound_to 6896
  151.2582  135.0653  159.9142 H   0  0  0  0  0  0  0  0  0  0  0  0  # atno 6909 bound_to 6896
  145.1130  139.3440  143.4753 H   0  0  0  0  0  0  0  0  0  0  0  0  # atno 7974 bound_to 7965
  154.6880  140.2647  155.6841 H   0  0  0  0  0  0  0  0  0  0  0  0  # atno 8008 bound_to 7997
  156.2722  140.2797  156.1371 H   0  0  0  0  0  0  0  0  0  0  0  0  # atno 8009 bound_to 7997
  155.0937  140.0373  157.2666 H   0  0  0  0  0  0  0  0  0  0  0  0  # atno 8010 bound_to 7997
  139.7840  144.6877  150.9983 H   0  0  0  0  0  0  0  0  0  0  0  0  # atno 10167 bound_to 10162
  157.3553  130.7620  149.7008 H   0  0  0  0  0  0  0  0  0  0  0  0  # atno 10718 bound_to 10713
  154.5109  135.5769  153.6604 H   0  0  0  0  0  0  0  0  0  0  0  0  # atno 10763 bound_to 10752
  152.9897  135.6158  154.2881 H   0  0  0  0  0  0  0  0  0  0  0  0  # atno 10764 bound_to 10752
  154.2795  135.2851  155.2683 H   0  0  0  0  0  0  0  0  0  0  0  0  # atno 10765 bound_to 10752
  139.8863  134.9459  156.6131 H   0  0  0  0  0  0  0  0  0  0  0  0  # atno 11005 bound_to 11000
  146.3525  140.1056  142.8606 LP  0  0  0  0  0  0  0  0  0  0  0  0  # atno 17320 bound_to 7965
  145.0826  140.9231  143.4816 LP  0  0  0  0  0  0  0  0  0  0  0  0  # atno 17321 bound_to 7965
  140.7819  143.4452  151.0493 LP  0  0  0  0  0  0  0  0  0  0  0  0  # atno 17342 bound_to 10162
  139.8131  143.7923  152.3172 LP  0  0  0  0  0  0  0  0  0  0  0  0  # atno 17343 bound_to 10162
  155.9728  130.4129  150.4055 LP  0  0  0  0  0  0  0  0  0  0  0  0  # atno 17370 bound_to 10713
  157.2124  131.0463  151.2592 LP  0  0  0  0  0  0  0  0  0  0  0  0  # atno 17371 bound_to 10713
  140.7796  133.8671  155.8557 LP  0  0  0  0  0  0  0  0  0  0  0  0  # atno 17394 bound_to 11000
  140.9772  134.1454  157.4526 LP  0  0  0  0  0  0  0  0  0  0  0  0  # atno 17395 bound_to 11000

$$$$
