AV-unprocessed.smi:787|AV-procd|sdf|3727|dock1
  -GOLD-   22720 1153D 1   1.00000     0.00000
 Structure written by MMmdl.
 47 49  0  0  0  0  0  0  0  0  2 V2000
  149.9414  135.0410  155.4316 C   0  0  0  0  0  0  0  0  0  0  0  0
  149.8600  136.2936  154.6974 N   0  0  0  0  0  0  0  0  0  0  0  0
  150.7176  137.3586  155.0066 C   0  0  0  0  0  0  0  0  0  0  0  0
  152.0133  137.1154  155.3117 N   0  0  0  0  0  0  0  0  0  0  0  0
  152.7994  138.1631  155.5913 C   0  0  0  0  0  0  0  0  0  0  0  0
  152.4892  139.4686  155.6184 N   0  0  0  0  0  0  0  0  0  0  0  0
  151.2074  139.7200  155.3206 C   0  0  0  0  0  0  0  0  0  0  0  0
  150.6143  140.9698  155.2734 N   0  0  0  0  0  0  0  0  0  0  0  0
  149.3633  140.6640  154.9408 C   0  0  0  0  0  0  0  0  0  0  0  0
  149.0633  139.3598  154.7797 N   0  0  0  0  0  0  0  0  0  0  0  0
  147.7644  138.8061  154.4375 C   0  0  0  0  0  0  0  0  0  0  0  0
  147.5084  138.7800  152.9169 C   0  0  2  0  0  0  0  0  0  0  0  0
  147.6237  140.1029  152.4345 O   0  0  0  0  0  0  0  0  0  0  0  0
  146.1236  138.2210  152.5203 C   0  0  0  0  0  0  0  0  0  0  0  0
  146.2288  136.8702  151.9145 N   0  3  2  0  0  0  0  0  0  0  0  0
  145.9727  136.8862  150.4559 C   0  0  0  0  0  0  0  0  0  0  0  0
  145.4184  135.8471  152.6240 C   0  0  0  0  0  0  0  0  0  0  0  0
  145.2799  134.5832  151.7965 C   0  0  0  0  0  0  0  0  0  0  0  0
  144.0047  134.0952  151.4401 C   0  0  0  0  0  0  0  0  0  0  0  0
  143.8869  132.9229  150.6680 C   0  0  0  0  0  0  0  0  0  0  0  0
  145.0424  132.2343  150.2512 C   0  0  0  0  0  0  0  0  0  0  0  0
  146.3162  132.7171  150.6077 C   0  0  0  0  0  0  0  0  0  0  0  0
  146.4352  133.8890  151.3796 C   0  0  0  0  0  0  0  0  0  0  0  0
  150.2654  138.6933  155.0091 C   0  0  0  0  0  0  0  0  0  0  0  0
  149.2084  134.3341  155.0431 H   0  0  0  0  0  0  0  0  0  0  0  0
  149.7355  135.1991  156.4906 H   0  0  0  0  0  0  0  0  0  0  0  0
  150.9317  134.5962  155.3291 H   0  0  0  0  0  0  0  0  0  0  0  0
  149.2244  136.3634  153.9159 H   0  0  0  0  0  0  0  0  0  0  0  0
  153.8256  137.9239  155.8277 H   0  0  0  0  0  0  0  0  0  0  0  0
  148.6164  141.4350  154.8188 H   0  0  0  0  0  0  0  0  0  0  0  0
  147.7020  137.7965  154.8472 H   0  0  0  0  0  0  0  0  0  0  0  0
  146.9977  139.3929  154.9449 H   0  0  0  0  0  0  0  0  0  0  0  0
  148.2943  138.1952  152.4424 H   0  0  0  0  0  0  0  0  0  0  0  0
  148.2309  140.1118  151.7098 H   0  0  0  0  0  0  0  0  0  0  0  0
  145.4544  138.1609  153.3796 H   0  0  0  0  0  0  0  0  0  0  0  0
  145.6554  138.9157  151.8210 H   0  0  0  0  0  0  0  0  0  0  0  0
  144.9479  137.1929  150.2426 H   0  0  0  0  0  0  0  0  0  0  0  0
  146.1329  135.9009  150.0178 H   0  0  0  0  0  0  0  0  0  0  0  0
  146.6485  137.5784  149.9527 H   0  0  0  0  0  0  0  0  0  0  0  0
  145.8809  135.5684  153.5709 H   0  0  0  0  0  0  0  0  0  0  0  0
  144.4374  136.2510  152.8794 H   0  0  0  0  0  0  0  0  0  0  0  0
  143.1134  134.6179  151.7547 H   0  0  0  0  0  0  0  0  0  0  0  0
  142.9100  132.5514  150.3953 H   0  0  0  0  0  0  0  0  0  0  0  0
  144.9515  131.3357  149.6589 H   0  0  0  0  0  0  0  0  0  0  0  0
  147.2023  132.1881  150.2885 H   0  0  0  0  0  0  0  0  0  0  0  0
  147.4155  134.2550  151.6484 H   0  0  0  0  0  0  0  0  0  0  0  0
  147.1959  136.5996  152.0276 H   0  0  0  0  0  0  0  0  0  0  0  0
  1  2  1  0  0  0  0
  1 25  1  0  0  0  0
  1 26  1  0  0  0  0
  1 27  1  0  0  0  0
  2  3  1  0  0  0  0
  2 28  1  0  0  0  0
  3 24  1  0  0  0  0
  3  4  2  0  0  0  0
  4  5  1  0  0  0  0
  5  6  2  0  0  0  0
  5 29  1  0  0  0  0
  6  7  1  0  0  0  0
  7 24  2  0  0  0  0
  7  8  1  0  0  0  0
  8  9  2  0  0  0  0
  9 10  1  0  0  0  0
  9 30  1  0  0  0  0
 10 11  1  0  0  0  0
 10 24  1  0  0  0  0
 11 12  1  0  0  0  0
 11 31  1  0  0  0  0
 11 32  1  0  0  0  0
 12 13  1  0  0  0  0
 12 14  1  0  0  0  0
 12 33  1  0  0  0  0
 13 34  1  0  0  0  0
 14 15  1  0  0  0  0
 14 35  1  0  0  0  0
 14 36  1  0  0  0  0
 15 16  1  0  0  0  0
 15 17  1  0  0  0  0
 15 47  1  0  0  0  0
 16 37  1  0  0  0  0
 16 38  1  0  0  0  0
 16 39  1  0  0  0  0
 17 18  1  0  0  0  0
 17 40  1  0  0  0  0
 17 41  1  0  0  0  0
 18 23  1  0  0  0  0
 18 19  2  0  0  0  0
 19 20  1  0  0  0  0
 19 42  1  0  0  0  0
 20 21  2  0  0  0  0
 20 43  1  0  0  0  0
 21 22  1  0  0  0  0
 21 44  1  0  0  0  0
 22 23  2  0  0  0  0
 22 45  1  0  0  0  0
 23 46  1  0  0  0  0
M  CHG  1  15   1
M  END
> <s_m_source_file>
AV-unprocessed.smi

> <i_m_source_file_index>
787

> <i_lp_mmshare_version>
43012

> <i_f3d_flags>
0

> <s_epik_input>
bjFbY0hdbmMoW05IXVtDSDNdKWMoYzEyKW4oW2NIXW4yKVtDSDJdW0NASF0oW09IXSlbQ0gyXU4oW0NIM10pW0NIMl1jM1tjSF1bY0hdW2NIXVtjSF1bY0hdMw==

> <s_epik_cmdline>
J2VwaWtfcHl0aG9uJywgJy1waCcsICc3LjAnLCAnLXRuJywgJzgnLCAnLW1hJywgJzIwMCcsICctbWV0YWxfYmluZGluZycsICctaW1hZScsICc8aW5maWxlLm1hZT4nLCAnLW9tYWUnLCAnPG91dGZpbGUubWFlPic=

> <r_lp_tautomer_probability>
0.999987

> <r_epik_Ionization_Penalty>
0.0526284

> <r_epik_Ionization_Penalty_Charging>
0.0475377

> <r_epik_Ionization_Penalty_Neutral>
0.00509065

> <r_epik_State_Penalty>
0.0404888

> <r_epik_Charging_Adjusted_Penalty>
0.0880265

> <i_epik_Tot_Q>
1

> <i_epik_Tot_abs_Q>
1

> <r_epik_Metal_State_Penalty>
0.040507

> <b_epik_Metal_Only>
0

> <s_lp_Force_Field>
OPLS_2005

> <r_lp_Energy>
15.7703

> <b_lp_Chiralities_Consistent>
1

> <s_lp_Variant>
AV-unprocessed.smi:787-3

> <Gold.Version>
5.8.1

> <Gold.Id.Protein>
6NUR|6NUR_protein|mol2

> <Gold.PLP.Fitness>
56.5180

> <Gold.PLP.PLP>
-43.1327

> <Gold.PLP.part.hbond>
-6.1517

> <Gold.PLP.part.metal>
0.0000

> <Gold.PLP.part.buried>
0.8033

> <Gold.PLP.part.nonpolar>
-39.3365

> <Gold.PLP.part.repulsive>
0.2700

> <Gold.PLP.ligand.clash>
0.0000

> <Gold.PLP.ligand.torsion>
2.2165

> <Gold.PLP.Chemscore.Hbond>
5.8240

> <Gold.PLP.Chemscore.CHOScore>
0.0000

> <Gold.PLP.Chemscore.Metal>
0.0000

> <Gold.Chemscore.Hbonds>
donor molecule, donor type, donor heavy atom, donor atom, acceptor molecule, acceptor atom, score
      L1  H     2    28       P1  7948  0.87
      L1  H    13    34       P1  7957  0.81
      L1  H    15    47       P1  7948  2.00
      P1  H  7997  8009       L1     6  0.79
      P1  H 10752 10765       L1     4  0.91

> <Gold.PLP.Chemscore.Internal.Correction>
0.3462

> <Gold.Rescore>
     Score         DG    S(hbond)    S(metal)    S(lipo)     H(rot)  DE(clash)    DE(int)     intcor
     16.16     -19.84       3.73        0.00      86.18       3.19       1.48       2.21       ----

> <Gold.Chemscore.Fitness>
16.1615

> <Gold.Chemscore.DG>
-19.8428

> <Gold.Chemscore.ZeroCoef>
-5.4800

> <Gold.Chemscore.Hbond>
3.7287

> <Gold.Chemscore.Metal>
0.0000

> <Gold.Chemscore.Lipo>
86.1752

> <Gold.Chemscore.Internal_Hbond>
0.0000

> <Gold.Chemscore.DEClash>
1.4756

> <Gold.Chemscore.DEInternal>
2.2057

> <Gold.Chemscore.Rot>
3.1928

> <Gold.Chemscore.Internal.Correction>
   9.000000E+99

> <Gold.Chemscore.Hbonds>
donor molecule, donor type, donor heavy atom, donor atom, acceptor molecule, acceptor atom, score
      L1  H     2    28       P1  7948  0.76
      L1  H    13    34       P1  7957  0.78
      L1  H    15    47       P1  7948  1.00
      P1  H  7997  8009       L1     6  0.13
      P1  H 10752 10765       L1     4  0.77

> <Gold.Chemscore.Hbond.Weighted>
-12.4539

> <Gold.Chemscore.Metal.Weighted>
-0.0000

> <Gold.Chemscore.Lipo.Weighted>
-10.0825

> <Gold.Chemscore.Internal_Hbond.Weighted>
0.0000

> <Gold.Chemscore.DEClash.Weighted>
1.4756

> <Gold.Chemscore.DEInternal.Weighted>
2.2057

> <Gold.Chemscore.Rot.Weighted>
8.1736

> <Gold.Chemscore.Internal.Correction.Weighted>
   9.000000E+99

> <Gold.Protein.RotatedTorsions>
[ 6907 6896 6895 6894 ] final   80.66 input  -60.11 | X-H torsion
[ 7974 7965 7964 7962 ] final   78.27 input  175.53 | X-H torsion
[ 8008 7997 7996 7995 ] final -145.31 input   59.86 | X-H torsion
[ 10167 10162 10161 10158 ] final   98.21 input  -65.29 | X-H torsion
[ 10718 10713 10712 10709 ] final   76.88 input   66.30 | X-H torsion
[ 10763 10752 10751 10750 ] final  176.63 input  -60.55 | X-H torsion
[ 11005 11000 10999 10996 ] final -118.00 input  -57.11 | X-H torsion

> <Gold.Protein.ActiveResidues>
 VAL166  LYS551  ARG553  GLY616  TRP617  ASP618  TYR619  PRO620  LYS621  CYS622 
 ASP623  PHE694  ASN695  SER759  ASP760  ASP761  ALA762  ILE779  LEU786  VAL792 
 PHE793  MET794  SER795  GLU796  ALA797  LYS798  CYS799  TRP800  GLU811  SER814 

> <Gold.Protein.RotatedAtoms>
  152.5242  134.3323  159.9186 H   0  0  0  0  0  0  0  0  0  0  0  0  # atno 6907 bound_to 6896
  151.3272  133.4009  159.2667 H   0  0  0  0  0  0  0  0  0  0  0  0  # atno 6908 bound_to 6896
  150.9910  134.9262  159.7957 H   0  0  0  0  0  0  0  0  0  0  0  0  # atno 6909 bound_to 6896
  145.6793  139.2519  143.1823 H   0  0  0  0  0  0  0  0  0  0  0  0  # atno 7974 bound_to 7965
  155.5411  140.0608  157.2870 H   0  0  0  0  0  0  0  0  0  0  0  0  # atno 8008 bound_to 7997
  154.4452  140.1919  156.0636 H   0  0  0  0  0  0  0  0  0  0  0  0  # atno 8009 bound_to 7997
  156.0584  140.3275  155.7436 H   0  0  0  0  0  0  0  0  0  0  0  0  # atno 8010 bound_to 7997
  139.7729  144.6916  151.0130 H   0  0  0  0  0  0  0  0  0  0  0  0  # atno 10167 bound_to 10162
  157.6690  130.9795  150.1560 H   0  0  0  0  0  0  0  0  0  0  0  0  # atno 10718 bound_to 10713
  154.4838  135.2776  155.1550 H   0  0  0  0  0  0  0  0  0  0  0  0  # atno 10763 bound_to 10752
  154.3250  135.6202  153.5528 H   0  0  0  0  0  0  0  0  0  0  0  0  # atno 10764 bound_to 10752
  152.9878  135.5752  154.5244 H   0  0  0  0  0  0  0  0  0  0  0  0  # atno 10765 bound_to 10752
  141.0316  133.9972  157.3134 H   0  0  0  0  0  0  0  0  0  0  0  0  # atno 11005 bound_to 11000
  146.0978  140.7580  142.9564 LP  0  0  0  0  0  0  0  0  0  0  0  0  # atno 17320 bound_to 7965
  144.7031  140.3739  143.7140 LP  0  0  0  0  0  0  0  0  0  0  0  0  # atno 17321 bound_to 7965
  140.7815  143.4568  151.0334 LP  0  0  0  0  0  0  0  0  0  0  0  0  # atno 17342 bound_to 10162
  139.8251  143.7767  152.3178 LP  0  0  0  0  0  0  0  0  0  0  0  0  # atno 17343 bound_to 10162
  156.2348  130.3685  149.8404 LP  0  0  0  0  0  0  0  0  0  0  0  0  # atno 17370 bound_to 10713
  156.6220  130.8630  151.3477 LP  0  0  0  0  0  0  0  0  0  0  0  0  # atno 17371 bound_to 10713
  139.9212  135.0200  156.8069 LP  0  0  0  0  0  0  0  0  0  0  0  0  # atno 17394 bound_to 11000
  140.6396  133.9830  155.7701 LP  0  0  0  0  0  0  0  0  0  0  0  0  # atno 17395 bound_to 11000

$$$$
