AV-unprocessed.smi:873|AV-procd|sdf|4014|dock4
  -GOLD-   22720 1503D 1   1.00000     0.00000
 Structure written by MMmdl.
 46 49  0  0  0  0  0  0  0  0  2 V2000
  149.0943  134.9713  156.0197 O   0  0  0  0  0  0  0  0  0  0  0  0
  149.0348  135.2905  154.8327 C   0  0  0  0  0  0  0  0  0  0  0  0
  149.3430  136.5020  154.3395 N   0  0  0  0  0  0  0  0  0  0  0  0
  149.8560  137.6324  155.0309 C   0  0  0  0  0  0  0  0  0  0  0  0
  150.3040  138.7435  154.2859 C   0  0  0  0  0  0  0  0  0  0  0  0
  150.8219  139.8412  154.8770 N   0  0  0  0  0  0  0  0  0  0  0  0
  150.9110  139.8225  156.2097 C   0  0  0  0  0  0  0  0  0  0  0  0
  151.4547  141.0532  156.8660 C   0  0  0  0  0  0  0  0  0  0  0  0
  151.5638  141.1475  158.3743 C   0  0  0  0  0  0  0  0  0  0  0  0
  150.5441  141.9786  157.6473 C   0  0  0  0  0  0  0  0  0  0  0  0
  150.5201  138.8351  157.0198 N   0  0  0  0  0  0  0  0  0  0  0  0
  149.9971  137.7344  156.4373 C   0  0  0  0  0  0  0  0  0  0  0  0
  148.6272  134.4619  153.8600 N   0  0  0  0  0  0  0  0  0  0  0  0
  148.2053  133.0748  154.0414 C   0  0  2  0  0  0  0  0  0  0  0  0
  149.4318  132.1477  154.0499 C   0  0  0  0  0  0  0  0  0  0  0  0
  149.0082  130.6721  154.1375 C   0  0  0  0  0  0  0  0  0  0  0  0
  148.0904  130.3136  153.0273 N   0  3  1  0  0  0  0  0  0  0  0  0
  147.7568  128.8726  153.0249 C   0  0  0  0  0  0  0  0  0  0  0  0
  147.9693  128.2029  151.6871 C   0  0  0  0  0  0  0  0  0  0  0  0
  146.5685  128.5236  152.1593 C   0  0  0  0  0  0  0  0  0  0  0  0
  146.8773  131.1692  153.0176 C   0  0  0  0  0  0  0  0  0  0  0  0
  147.2493  132.6583  152.9108 C   0  0  0  0  0  0  0  0  0  0  0  0
  149.1629  136.6425  153.3562 H   0  0  0  0  0  0  0  0  0  0  0  0
  150.2453  138.7550  153.2073 H   0  0  0  0  0  0  0  0  0  0  0  0
  152.2444  141.5046  156.2685 H   0  0  0  0  0  0  0  0  0  0  0  0
  151.1969  140.3102  158.9648 H   0  0  0  0  0  0  0  0  0  0  0  0
  152.4326  141.6601  158.7822 H   0  0  0  0  0  0  0  0  0  0  0  0
  150.7297  143.0478  157.5702 H   0  0  0  0  0  0  0  0  0  0  0  0
  149.4991  141.6930  157.7526 H   0  0  0  0  0  0  0  0  0  0  0  0
  149.7174  136.9414  157.1129 H   0  0  0  0  0  0  0  0  0  0  0  0
  148.6088  134.8212  152.9166 H   0  0  0  0  0  0  0  0  0  0  0  0
  147.6842  132.9552  154.9931 H   0  0  0  0  0  0  0  0  0  0  0  0
  150.0218  132.3017  153.1449 H   0  0  0  0  0  0  0  0  0  0  0  0
  150.0825  132.3946  154.8898 H   0  0  0  0  0  0  0  0  0  0  0  0
  149.8940  130.0369  154.1005 H   0  0  0  0  0  0  0  0  0  0  0  0
  148.5188  130.4771  155.0933 H   0  0  0  0  0  0  0  0  0  0  0  0
  147.9464  128.3299  153.9497 H   0  0  0  0  0  0  0  0  0  0  0  0
  148.3728  128.7985  150.8701 H   0  0  0  0  0  0  0  0  0  0  0  0
  148.2711  127.1574  151.6922 H   0  0  0  0  0  0  0  0  0  0  0  0
  145.9459  127.6883  152.4735 H   0  0  0  0  0  0  0  0  0  0  0  0
  146.0413  129.3320  151.6558 H   0  0  0  0  0  0  0  0  0  0  0  0
  146.2411  130.8918  152.1761 H   0  0  0  0  0  0  0  0  0  0  0  0
  146.2970  130.9910  153.9245 H   0  0  0  0  0  0  0  0  0  0  0  0
  146.3448  133.2672  152.9421 H   0  0  0  0  0  0  0  0  0  0  0  0
  147.7150  132.8463  151.9420 H   0  0  0  0  0  0  0  0  0  0  0  0
  148.5859  130.4974  152.1666 H   0  0  0  0  0  0  0  0  0  0  0  0
  1  2  2  0  0  0  0
  2  3  1  0  0  0  0
  2 13  1  0  0  0  0
  3  4  1  0  0  0  0
  3 23  1  0  0  0  0
  4 12  1  0  0  0  0
  4  5  2  0  0  0  0
  5  6  1  0  0  0  0
  5 24  1  0  0  0  0
  6  7  2  0  0  0  0
  7  8  1  0  0  0  0
  7 11  1  0  0  0  0
  8 10  1  0  0  0  0
  8  9  1  0  0  0  0
  8 25  1  0  0  0  0
  9 10  1  0  0  0  0
  9 26  1  0  0  0  0
  9 27  1  0  0  0  0
 10 28  1  0  0  0  0
 10 29  1  0  0  0  0
 11 12  2  0  0  0  0
 12 30  1  0  0  0  0
 13 14  1  0  0  0  0
 13 31  1  0  0  0  0
 14 22  1  0  0  0  0
 14 15  1  0  0  0  0
 14 32  1  0  0  0  0
 15 16  1  0  0  0  0
 15 33  1  0  0  0  0
 15 34  1  0  0  0  0
 16 17  1  0  0  0  0
 16 35  1  0  0  0  0
 16 36  1  0  0  0  0
 17 18  1  0  0  0  0
 17 21  1  0  0  0  0
 17 46  1  0  0  0  0
 18 20  1  0  0  0  0
 18 19  1  0  0  0  0
 18 37  1  0  0  0  0
 19 20  1  0  0  0  0
 19 38  1  0  0  0  0
 19 39  1  0  0  0  0
 20 40  1  0  0  0  0
 20 41  1  0  0  0  0
 21 22  1  0  0  0  0
 21 42  1  0  0  0  0
 21 43  1  0  0  0  0
 22 44  1  0  0  0  0
 22 45  1  0  0  0  0
M  CHG  1  17   1
M  END
> <s_m_source_file>
AV-unprocessed.smi

> <i_m_source_file_index>
873

> <i_lp_mmshare_version>
43012

> <i_f3d_flags>
0

> <s_epik_input>
W0NIMl0xW0NIMl1bQ0hdMU4oW0NIMl1bQ0gyXTIpW0NIMl1bQ0gyXVtDSF0yW05IXUMoPU8pW05IXWMzW2NIXW5jKG5bY0hdMylbQ0hdNFtDSDJdW0NIMl00

> <s_epik_cmdline>
J2VwaWtfcHl0aG9uJywgJy1waCcsICc3LjAnLCAnLXRuJywgJzgnLCAnLW1hJywgJzIwMCcsICctbWV0YWxfYmluZGluZycsICctaW1hZScsICc8aW5maWxlLm1hZT4nLCAnLW9tYWUnLCAnPG91dGZpbGUubWFlPic=

> <r_lp_tautomer_probability>
1

> <r_epik_Ionization_Penalty>
0.123264

> <r_epik_Ionization_Penalty_Charging>
0.123242

> <r_epik_Ionization_Penalty_Neutral>
2.24743e-05

> <r_epik_State_Penalty>
0.112739

> <r_epik_Charging_Adjusted_Penalty>
0.235981

> <i_epik_Tot_Q>
1

> <i_epik_Tot_abs_Q>
1

> <r_epik_Metal_State_Penalty>
0.112739

> <b_epik_Metal_Only>
0

> <s_lp_Force_Field>
OPLS_2005

> <r_lp_Energy>
28.2326

> <b_lp_Chiralities_Consistent>
1

> <s_lp_Variant>
AV-unprocessed.smi:873-1

> <Gold.Version>
5.8.1

> <Gold.Id.Protein>
6NUR|6NUR_protein|mol2

> <Gold.PLP.Fitness>
49.4160

> <Gold.PLP.PLP>
-35.7864

> <Gold.PLP.part.hbond>
-4.0000

> <Gold.PLP.part.metal>
0.0000

> <Gold.PLP.part.buried>
-3.4664

> <Gold.PLP.part.nonpolar>
-27.7478

> <Gold.PLP.part.repulsive>
0.1149

> <Gold.PLP.ligand.clash>
0.0000

> <Gold.PLP.ligand.torsion>
1.3179

> <Gold.PLP.Chemscore.Hbond>
3.9600

> <Gold.PLP.Chemscore.CHOScore>
1.0000

> <Gold.PLP.Chemscore.Metal>
0.0000

> <Gold.Chemscore.Hbonds>
donor molecule, donor type, donor heavy atom, donor atom, acceptor molecule, acceptor atom, score
      L1  H     3    23       P1  7948  1.00
      L1  H    13    31       P1  7948  0.93
      L1  H    17    46       P1 10747  1.00
      P1  H  7989  7998       L1     6  1.00
      L1  C     5    24       P1  7957  1.00

> <Gold.PLP.Chemscore.Internal.Correction>
1.3856

> <Gold.Rescore>
     Score         DG    S(hbond)    S(metal)    S(lipo)     H(rot)  DE(clash)    DE(int)     intcor
     20.20     -22.94       3.21        0.00      87.23       1.36       0.26       2.48       ----

> <Gold.Chemscore.Fitness>
20.1966

> <Gold.Chemscore.DG>
-22.9421

> <Gold.Chemscore.ZeroCoef>
-5.4800

> <Gold.Chemscore.Hbond>
3.2129

> <Gold.Chemscore.Metal>
0.0000

> <Gold.Chemscore.Lipo>
87.2258

> <Gold.Chemscore.Internal_Hbond>
0.0000

> <Gold.Chemscore.DEClash>
0.2628

> <Gold.Chemscore.DEInternal>
2.4827

> <Gold.Chemscore.Rot>
1.3571

> <Gold.Chemscore.Internal.Correction>
   9.000000E+99

> <Gold.Chemscore.Hbonds>
donor molecule, donor type, donor heavy atom, donor atom, acceptor molecule, acceptor atom, score
      L1  H     3    23       P1  7948  0.92
      L1  H    13    31       P1  7948  0.32
      L1  H    17    46       P1 10747  0.74
      P1  H  7989  7998       L1     6  0.60

> <Gold.Chemscore.Hbond.Weighted>
-10.7310

> <Gold.Chemscore.Metal.Weighted>
-0.0000

> <Gold.Chemscore.Lipo.Weighted>
-10.2054

> <Gold.Chemscore.Internal_Hbond.Weighted>
0.0000

> <Gold.Chemscore.DEClash.Weighted>
0.2628

> <Gold.Chemscore.DEInternal.Weighted>
2.4827

> <Gold.Chemscore.Rot.Weighted>
3.4742

> <Gold.Chemscore.Internal.Correction.Weighted>
   9.000000E+99

> <Gold.Protein.RotatedTorsions>
[ 6907 6896 6895 6894 ] final -153.53 input  -60.11 | X-H torsion
[ 7974 7965 7964 7962 ] final  123.98 input  175.53 | X-H torsion
[ 8008 7997 7996 7995 ] final   14.96 input   59.86 | X-H torsion
[ 10167 10162 10161 10158 ] final   24.82 input  -65.29 | X-H torsion
[ 10718 10713 10712 10709 ] final -127.83 input   66.30 | X-H torsion
[ 10763 10752 10751 10750 ] final  -26.97 input  -60.55 | X-H torsion
[ 11005 11000 10999 10996 ] final -107.92 input  -57.11 | X-H torsion

> <Gold.Protein.ActiveResidues>
 VAL166  LYS551  ARG553  GLY616  TRP617  ASP618  TYR619  PRO620  LYS621  CYS622 
 ASP623  PHE694  ASN695  SER759  ASP760  ASP761  ALA762  ILE779  LEU786  VAL792 
 PHE793  MET794  SER795  GLU796  ALA797  LYS798  CYS799  TRP800  GLU811  SER814 

> <Gold.Protein.RotatedAtoms>
  151.2440  133.4384  159.2608 H   0  0  0  0  0  0  0  0  0  0  0  0  # atno 6907 bound_to 6896
  151.0679  134.9779  159.8304 H   0  0  0  0  0  0  0  0  0  0  0  0  # atno 6908 bound_to 6896
  152.5408  134.2387  159.8906 H   0  0  0  0  0  0  0  0  0  0  0  0  # atno 6909 bound_to 6896
  145.0896  139.3596  143.4867 H   0  0  0  0  0  0  0  0  0  0  0  0  # atno 7974 bound_to 7965
  154.8558  140.2937  155.5569 H   0  0  0  0  0  0  0  0  0  0  0  0  # atno 8008 bound_to 7997
  156.3018  140.2487  156.3457 H   0  0  0  0  0  0  0  0  0  0  0  0  # atno 8009 bound_to 7997
  154.8971  140.0392  157.1861 H   0  0  0  0  0  0  0  0  0  0  0  0  # atno 8010 bound_to 7997
  140.5157  144.0086  150.6393 H   0  0  0  0  0  0  0  0  0  0  0  0  # atno 10167 bound_to 10162
  156.1894  130.6785  151.0405 H   0  0  0  0  0  0  0  0  0  0  0  0  # atno 10718 bound_to 10713
  153.7245  135.6943  153.5004 H   0  0  0  0  0  0  0  0  0  0  0  0  # atno 10763 bound_to 10752
  153.2180  135.4379  155.0455 H   0  0  0  0  0  0  0  0  0  0  0  0  # atno 10764 bound_to 10752
  154.8273  135.3453  154.6777 H   0  0  0  0  0  0  0  0  0  0  0  0  # atno 10765 bound_to 10752
  141.0929  133.9023  157.2033 H   0  0  0  0  0  0  0  0  0  0  0  0  # atno 11005 bound_to 11000
  146.3531  140.0724  142.8622 LP  0  0  0  0  0  0  0  0  0  0  0  0  # atno 17320 bound_to 7965
  145.1081  140.9388  143.4672 LP  0  0  0  0  0  0  0  0  0  0  0  0  # atno 17321 bound_to 7965
  140.3421  143.3013  152.0577 LP  0  0  0  0  0  0  0  0  0  0  0  0  # atno 17342 bound_to 10162
  139.4908  144.6435  151.6828 LP  0  0  0  0  0  0  0  0  0  0  0  0  # atno 17343 bound_to 10162
  157.6919  131.0807  150.7081 LP  0  0  0  0  0  0  0  0  0  0  0  0  # atno 17370 bound_to 10713
  156.7138  130.4660  149.5540 LP  0  0  0  0  0  0  0  0  0  0  0  0  # atno 17371 bound_to 10713
  139.9758  135.0114  156.9628 LP  0  0  0  0  0  0  0  0  0  0  0  0  # atno 17394 bound_to 11000
  140.5210  134.0908  155.7292 LP  0  0  0  0  0  0  0  0  0  0  0  0  # atno 17395 bound_to 11000

$$$$
