#       Name:                AV-unprocessed.smi:1987
#       Creating user name   scv26
#       Creation time:       Fri Mar 27 10:26:10 2020


#       File generated by GOLD software.
#

@<TRIPOS>MOLECULE
AV-unprocessed.smi:1987
    42    44     1
SMALL
NO_CHARGES


@<TRIPOS>ATOM
      1 ****        -1.3614   2.5965   1.9011 O.2            1 S1                 0.0000
      2 ****        -2.1476   1.6531   1.8207 C.2            1 S1                 0.0000
      3 ****        -3.6267   1.9098   1.5368 C.3            1 S1                 0.0000
      4 ****        -3.9061   1.7291   0.1248 N.pl3          1 S1                 0.0000
      5 ****        -3.8411   2.5837  -0.8981 C.2            1 S1                 0.0000
      6 ****        -4.1485   1.9970  -2.0449 N.2            1 S1                 0.0000
      7 ****        -4.4179   0.6915  -1.6691 N.2            1 S1                 0.0000
      8 ****        -4.2753   0.5261  -0.3829 N.2            1 S1                 0.0000
      9 ****        -1.7785   0.3683   1.9351 N.am           1 S1                 0.0000
     10 ****        -0.4053  -0.1021   2.0692 C.3            1 S1                 0.0000
     11 ****         0.3478  -0.0493   0.7250 C.3            1 S1                 0.0000
     12 ****        -0.3049  -0.8372  -0.4101 C.3            1 S1                 0.0000
     13 ****         0.8485  -1.0129  -1.3931 C.3            1 S1                 0.0000
     14 ****         2.0544  -1.1948  -0.5567 N.4            1 S1                 1.0000
     15 ****         3.2973  -0.6918  -1.1797 C.3            1 S1                 0.0000
     16 ****         3.9446  -1.6800  -2.1201 C.3            1 S1                 0.0000
     17 ****         4.5345  -1.4414  -0.7468 C.3            1 S1                 0.0000
     18 ****         1.7709  -0.6216   0.7806 C.3            1 S1                 0.0000
     19 ****        -4.2517   1.2329   2.1214 H              1 S1                 0.0000
     20 ****        -3.8931   2.9282   1.8229 H              1 S1                 0.0000
     21 ****        -3.5618   3.6230  -0.8043 H              1 S1                 0.0000
     22 ****        -2.4973  -0.3380   1.8637 H              1 S1                 0.0000
     23 ****         0.1197   0.4858   2.8240 H              1 S1                 0.0000
     24 ****        -0.4378  -1.1265   2.4414 H              1 S1                 0.0000
     25 ****         0.4247   0.9907   0.4025 H              1 S1                 0.0000
     26 ****        -0.6445  -1.8104  -0.0530 H              1 S1                 0.0000
     27 ****        -1.1586  -0.3209  -0.8514 H              1 S1                 0.0000
     28 ****         0.6995  -1.8544  -2.0702 H              1 S1                 0.0000
     29 ****         0.9491  -0.1095  -1.9973 H              1 S1                 0.0000
     30 ****         3.3409   0.3770  -1.3836 H              1 S1                 0.0000
     31 ****         3.4434  -2.6305  -2.2942 H              1 S1                 0.0000
     32 ****         4.4898  -1.2793  -2.9724 H              1 S1                 0.0000
     33 ****         5.4675  -0.8836  -0.6957 H              1 S1                 0.0000
     34 ****         4.4253  -2.2333  -0.0078 H              1 S1                 0.0000
     35 ****         2.4932   0.1433   1.0703 H              1 S1                 0.0000
     36 ****         1.8401  -1.4291   1.5104 H              1 S1                 0.0000
     37 ****         2.1669  -2.1892  -0.4197 H              1 S1                 0.0000
     38 ****        -1.6903   3.5331   1.7806 LP             1 S1                 0.0000
     39 ****        -0.3937   2.4264   2.0870 LP             1 S1                 0.0000
     40 ****        -4.1788   2.3990  -2.9600 LP             1 S1                 0.0000
     41 ****        -4.6877  -0.0329  -2.3035 LP             1 S1                 0.0000
     42 ****        -4.4115  -0.3220   0.1291 LP             1 S1                 0.0000
@<TRIPOS>BOND
    1    1    2 2     
    2    2    3 1     
    3    2    9 am    
    4    3    4 1     
    5    3   19 1     
    6    3   20 1     
    7    4    8 1     
    8    4    5 1     
    9    5    6 2     
   10    5   21 1     
   11    6    7 1     
   12    7    8 2     
   13    9   10 1     
   14    9   22 1     
   15   10   11 1     
   16   10   23 1     
   17   10   24 1     
   18   11   18 1     
   19   11   12 1     
   20   11   25 1     
   21   12   13 1     
   22   12   26 1     
   23   12   27 1     
   24   13   14 1     
   25   13   28 1     
   26   13   29 1     
   27   14   15 1     
   28   14   18 1     
   29   14   37 1     
   30   15   17 1     
   31   15   16 1     
   32   15   30 1     
   33   16   17 1     
   34   16   31 1     
   35   16   32 1     
   36   17   33 1     
   37   17   34 1     
   38   18   35 1     
   39   18   36 1     
   40    1   38 1     
   41    1   39 1     
   42    6   40 1     
   43    7   41 1     
   44    8   42 1     
@<TRIPOS>SUBSTRUCTURE
      1 S1             1
@<TRIPOS>SET
LONE_PAIRS      STATIC     ATOMS    <user>   **** ""
5 38 39 40 41 42
DONOR_HYDROGENS      STATIC     ATOMS    <user>   **** ""
2 22 37
ATOM$BLUE        STATIC     ATOMS    COLORGROUP SYSTEM
5 38 39 40 41 42
ATOM$RED        STATIC     ATOMS    COLORGROUP SYSTEM
2 22 37
