AV-unprocessed.smi:1867|AV-procd|sdf|7583|dock1
  -GOLD-   22720 9293D 1   1.00000     0.00000
 Structure written by MMmdl.
 52 55  0  0  0  0  0  0  0  0  4 V2000
  150.5566  136.7050  158.8392 O   0  0  0  0  0  0  0  0  0  0  0  0
  150.3954  136.6577  157.6209 C   0  0  0  0  0  0  0  0  0  0  0  0
  150.5030  137.8018  156.9005 N   0  0  0  0  0  0  0  0  0  0  0  0
  150.8760  139.1003  157.3396 C   0  0  0  0  0  0  0  0  0  0  0  0
  150.5291  140.1998  156.5277 C   0  0  0  0  0  0  0  0  0  0  0  0
  150.9005  141.5026  156.9187 C   0  0  0  0  0  0  0  0  0  0  0  0
  151.6327  141.6933  158.1145 C   0  0  0  0  0  0  0  0  0  0  0  0
  152.0314  142.9640  158.5705 N   0  0  0  0  0  0  0  0  0  0  0  0
  151.4306  144.1832  158.0536 C   0  0  0  0  0  0  0  0  0  0  0  0
  152.0272  145.2984  158.9106 C   0  0  0  0  0  0  0  0  0  0  0  0
  152.2266  144.6236  160.2680 C   0  0  0  0  0  0  0  0  0  0  0  0
  152.5396  143.1632  159.9204 C   0  0  0  0  0  0  0  0  0  0  0  0
  151.9566  140.6067  158.8551 N   0  3  0  0  0  0  0  0  0  0  0  0
  151.6188  139.3431  158.5189 C   0  0  0  0  0  0  0  0  0  0  0  0
  150.0857  135.4830  156.9932 N   0  5  0  0  0  0  0  0  0  0  0  0
  149.7454  135.2457  155.5834 C   0  0  1  0  0  0  0  0  0  0  0  0
  150.0064  133.7838  155.1710 C   0  0  0  0  0  0  0  0  0  0  0  0
  148.8639  133.4154  154.2047 C   0  0  0  0  0  0  0  0  0  0  0  0
  148.0251  134.6252  154.1035 N   0  3  1  0  0  0  0  0  0  0  0  0
  146.5930  134.4320  153.7847 C   0  0  0  0  0  0  0  0  0  0  0  0
  145.9183  135.8087  153.6176 C   0  0  0  0  0  0  0  0  0  0  0  0
  146.1619  136.7202  154.8383 C   0  0  0  0  0  0  0  0  0  0  0  0
  147.6639  136.8157  155.1725 C   0  0  0  0  0  0  0  0  0  0  0  0
  148.2385  135.3936  155.3404 C   0  0  2  0  0  0  0  0  0  0  0  0
  150.2386  137.7297  155.9291 H   0  0  0  0  0  0  0  0  0  0  0  0
  149.9729  140.0500  155.6137 H   0  0  0  0  0  0  0  0  0  0  0  0
  150.6143  142.3391  156.2987 H   0  0  0  0  0  0  0  0  0  0  0  0
  151.6516  144.3257  156.9951 H   0  0  0  0  0  0  0  0  0  0  0  0
  150.3479  144.1377  158.1795 H   0  0  0  0  0  0  0  0  0  0  0  0
  152.9936  145.6002  158.5043 H   0  0  0  0  0  0  0  0  0  0  0  0
  151.3908  146.1822  158.9609 H   0  0  0  0  0  0  0  0  0  0  0  0
  153.0087  145.0930  160.8656 H   0  0  0  0  0  0  0  0  0  0  0  0
  151.2973  144.6726  160.8373 H   0  0  0  0  0  0  0  0  0  0  0  0
  152.0798  142.4846  160.6397 H   0  0  0  0  0  0  0  0  0  0  0  0
  153.6157  142.9873  159.9211 H   0  0  0  0  0  0  0  0  0  0  0  0
  151.9665  138.5798  159.1994 H   0  0  0  0  0  0  0  0  0  0  0  0
  150.2774  135.9087  154.8985 H   0  0  0  0  0  0  0  0  0  0  0  0
  150.9860  133.6742  154.7049 H   0  0  0  0  0  0  0  0  0  0  0  0
  149.9800  133.1133  156.0319 H   0  0  0  0  0  0  0  0  0  0  0  0
  149.2302  133.1221  153.2203 H   0  0  0  0  0  0  0  0  0  0  0  0
  148.2843  132.5837  154.6093 H   0  0  0  0  0  0  0  0  0  0  0  0
  146.4972  133.8516  152.8667 H   0  0  0  0  0  0  0  0  0  0  0  0
  146.1096  133.8626  154.5801 H   0  0  0  0  0  0  0  0  0  0  0  0
  146.3111  136.2956  152.7238 H   0  0  0  0  0  0  0  0  0  0  0  0
  144.8478  135.6826  153.4530 H   0  0  0  0  0  0  0  0  0  0  0  0
  145.7549  137.7143  154.6520 H   0  0  0  0  0  0  0  0  0  0  0  0
  145.6242  136.3224  155.7000 H   0  0  0  0  0  0  0  0  0  0  0  0
  148.1784  137.3546  154.3743 H   0  0  0  0  0  0  0  0  0  0  0  0
  147.8000  137.4002  156.0845 H   0  0  0  0  0  0  0  0  0  0  0  0
  147.7010  134.8877  156.1466 H   0  0  0  0  0  0  0  0  0  0  0  0
  148.4256  135.1823  153.3626 H   0  0  0  0  0  0  0  0  0  0  0  0
  152.4881  140.7474  159.7141 H   0  0  0  0  0  0  0  0  0  0  0  0
  1  2  2  0  0  0  0
  2  3  1  0  0  0  0
  2 15  1  0  0  0  0
  3  4  1  0  0  0  0
  3 25  1  0  0  0  0
  4 14  1  0  0  0  0
  4  5  2  0  0  0  0
  5  6  1  0  0  0  0
  5 26  1  0  0  0  0
  6  7  2  0  0  0  0
  6 27  1  0  0  0  0
  7  8  1  0  0  0  0
  7 13  1  0  0  0  0
  8 12  1  0  0  0  0
  8  9  1  0  0  0  0
  9 10  1  0  0  0  0
  9 28  1  0  0  0  0
  9 29  1  0  0  0  0
 10 11  1  0  0  0  0
 10 30  1  0  0  0  0
 10 31  1  0  0  0  0
 11 12  1  0  0  0  0
 11 32  1  0  0  0  0
 11 33  1  0  0  0  0
 12 34  1  0  0  0  0
 12 35  1  0  0  0  0
 13 14  2  0  0  0  0
 13 52  1  0  0  0  0
 14 36  1  0  0  0  0
 15 16  1  0  0  0  0
 16 24  1  0  0  0  0
 16 17  1  0  0  0  0
 16 37  1  0  0  0  0
 17 18  1  0  0  0  0
 17 38  1  0  0  0  0
 17 39  1  0  0  0  0
 18 19  1  0  0  0  0
 18 40  1  0  0  0  0
 18 41  1  0  0  0  0
 19 24  1  0  0  0  0
 19 20  1  0  0  0  0
 19 51  1  0  0  0  0
 20 21  1  0  0  0  0
 20 42  1  0  0  0  0
 20 43  1  0  0  0  0
 21 22  1  0  0  0  0
 21 44  1  0  0  0  0
 21 45  1  0  0  0  0
 22 23  1  0  0  0  0
 22 46  1  0  0  0  0
 22 47  1  0  0  0  0
 23 24  1  0  0  0  0
 23 48  1  0  0  0  0
 23 49  1  0  0  0  0
 24 50  1  0  0  0  0
M  CHG  1  13   1
M  CHG  1  15  -1
M  CHG  1  19   1
M  END
> <s_m_source_file>
AV-unprocessed.smi

> <i_m_source_file_index>
1867

> <i_lp_mmshare_version>
43012

> <i_f3d_flags>
0

> <s_epik_input>
W0NIMl0xW0NIMl1bQ0gyXVtDSDJdW0NASF0oTjEyKVtDQEBIXShbQ0gyXVtDSDJdMilbTkhdQyg9TylbTkhdYzNbY0hdW2NIXWMobltjSF0zKU40W0NIMl1bQ0gyXVtDSDJdW0NIMl00

> <s_epik_cmdline>
J2VwaWtfcHl0aG9uJywgJy1waCcsICc3LjAnLCAnLXRuJywgJzgnLCAnLW1hJywgJzIwMCcsICctbWV0YWxfYmluZGluZycsICctaW1hZScsICc8aW5maWxlLm1hZT4nLCAnLW9tYWUnLCAnPG91dGZpbGUubWFlPic=

> <r_lp_tautomer_probability>
0.999994

> <r_epik_Ionization_Penalty>
8.56137

> <r_epik_Ionization_Penalty_Charging>
8.56136

> <r_epik_Ionization_Penalty_Neutral>
3.91889e-06

> <r_epik_State_Penalty>
8.16255

> <r_epik_Charging_Adjusted_Penalty>
16.7239

> <i_epik_Tot_Q>
1

> <i_epik_Tot_abs_Q>
3

> <r_epik_Metal_State_Penalty>
4.14279

> <b_epik_Metal_Only>
1

> <s_lp_Force_Field>
OPLS_2005

> <r_lp_Energy>
66.3104

> <b_lp_Chiralities_Consistent>
1

> <s_lp_Variant>
AV-unprocessed.smi:1867-24

> <Gold.Version>
5.8.1

> <Gold.Id.Protein>
6NUR|6NUR_protein|mol2

> <Gold.PLP.Fitness>
48.4806

> <Gold.PLP.PLP>
-40.3461

> <Gold.PLP.part.hbond>
-2.0000

> <Gold.PLP.part.metal>
0.0000

> <Gold.PLP.part.buried>
-5.5007

> <Gold.PLP.part.nonpolar>
-33.1885

> <Gold.PLP.part.repulsive>
0.1429

> <Gold.PLP.ligand.clash>
0.0000

> <Gold.PLP.ligand.torsion>
0.5416

> <Gold.PLP.Chemscore.Hbond>
3.0000

> <Gold.PLP.Chemscore.CHOScore>
0.0000

> <Gold.PLP.Chemscore.Metal>
0.0000

> <Gold.Chemscore.Hbonds>
donor molecule, donor type, donor heavy atom, donor atom, acceptor molecule, acceptor atom, score
      L1  H    19    51       P1  7948  2.00
      P1  H  6896  6908       L1     1  1.00

> <Gold.PLP.Chemscore.Internal.Correction>
0.2177

> <Gold.Rescore>
     Score         DG    S(hbond)    S(metal)    S(lipo)     H(rot)  DE(clash)    DE(int)     intcor
     18.48     -20.36       1.91        0.00      94.45       1.00       0.10       1.78       ----

> <Gold.Chemscore.Fitness>
18.4784

> <Gold.Chemscore.DG>
-20.3622

> <Gold.Chemscore.ZeroCoef>
-5.4800

> <Gold.Chemscore.Hbond>
1.9137

> <Gold.Chemscore.Metal>
0.0000

> <Gold.Chemscore.Lipo>
94.4477

> <Gold.Chemscore.Internal_Hbond>
0.0000

> <Gold.Chemscore.DEClash>
0.0998

> <Gold.Chemscore.DEInternal>
1.7840

> <Gold.Chemscore.Rot>
1.0000

> <Gold.Chemscore.Internal.Correction>
   9.000000E+99

> <Gold.Chemscore.Hbonds>
donor molecule, donor type, donor heavy atom, donor atom, acceptor molecule, acceptor atom, score
      L1  H    19    51       P1  7948  0.93
      P1  H  6896  6908       L1     1  0.89

> <Gold.Chemscore.Hbond.Weighted>
-6.3918

> <Gold.Chemscore.Metal.Weighted>
-0.0000

> <Gold.Chemscore.Lipo.Weighted>
-11.0504

> <Gold.Chemscore.Internal_Hbond.Weighted>
0.0000

> <Gold.Chemscore.DEClash.Weighted>
0.0998

> <Gold.Chemscore.DEInternal.Weighted>
1.7840

> <Gold.Chemscore.Rot.Weighted>
2.5600

> <Gold.Chemscore.Internal.Correction.Weighted>
   9.000000E+99

> <Gold.Protein.RotatedTorsions>
[ 6907 6896 6895 6894 ] final -159.39 input  -60.11 | X-H torsion
[ 7974 7965 7964 7962 ] final  -62.01 input  175.53 | X-H torsion
[ 8008 7997 7996 7995 ] final  -22.97 input   59.86 | X-H torsion
[ 10167 10162 10161 10158 ] final  -66.96 input  -65.29 | X-H torsion
[ 10718 10713 10712 10709 ] final  165.67 input   66.30 | X-H torsion
[ 10763 10752 10751 10750 ] final   76.73 input  -60.55 | X-H torsion
[ 11005 11000 10999 10996 ] final  117.95 input  -57.11 | X-H torsion

> <Gold.Protein.ActiveResidues>
 VAL166  LYS551  ARG553  GLY616  TRP617  ASP618  TYR619  PRO620  LYS621  CYS622 
 ASP623  PHE694  ASN695  SER759  ASP760  ASP761  ALA762  ILE779  LEU786  VAL792 
 PHE793  MET794  SER795  GLU796  ALA797  LYS798  CYS799  TRP800  GLU811  SER814 

> <Gold.Protein.RotatedAtoms>
  151.3329  133.3993  159.2663 H   0  0  0  0  0  0  0  0  0  0  0  0  # atno 6907 bound_to 6896
  150.9941  134.9269  159.7927 H   0  0  0  0  0  0  0  0  0  0  0  0  # atno 6908 bound_to 6896
  152.5256  134.3294  159.9229 H   0  0  0  0  0  0  0  0  0  0  0  0  # atno 6909 bound_to 6896
  145.7965  140.8680  143.0253 H   0  0  0  0  0  0  0  0  0  0  0  0  # atno 7974 bound_to 7965
  154.4612  140.1993  156.0239 H   0  0  0  0  0  0  0  0  0  0  0  0  # atno 8008 bound_to 7997
  156.0844  140.3267  155.7706 H   0  0  0  0  0  0  0  0  0  0  0  0  # atno 8009 bound_to 7997
  155.5059  140.0558  157.2922 H   0  0  0  0  0  0  0  0  0  0  0  0  # atno 8010 bound_to 7997
  140.5618  143.2313  151.6712 H   0  0  0  0  0  0  0  0  0  0  0  0  # atno 10167 bound_to 10162
  157.0768  131.0381  151.2590 H   0  0  0  0  0  0  0  0  0  0  0  0  # atno 10718 bound_to 10713
  153.0746  135.4941  154.8377 H   0  0  0  0  0  0  0  0  0  0  0  0  # atno 10763 bound_to 10752
  154.7070  135.3012  154.9258 H   0  0  0  0  0  0  0  0  0  0  0  0  # atno 10764 bound_to 10752
  153.9963  135.6772  153.4809 H   0  0  0  0  0  0  0  0  0  0  0  0  # atno 10765 bound_to 10752
  139.9092  134.9615  156.7429 H   0  0  0  0  0  0  0  0  0  0  0  0  # atno 11005 bound_to 11000
  144.6774  140.0198  143.7484 LP  0  0  0  0  0  0  0  0  0  0  0  0  # atno 17320 bound_to 7965
  145.9922  139.3024  143.0978 LP  0  0  0  0  0  0  0  0  0  0  0  0  # atno 17321 bound_to 7965
  139.5074  144.3648  152.0527 LP  0  0  0  0  0  0  0  0  0  0  0  0  # atno 17342 bound_to 10162
  140.2776  144.3895  150.6130 LP  0  0  0  0  0  0  0  0  0  0  0  0  # atno 17343 bound_to 10162
  157.4833  130.7778  149.7435 LP  0  0  0  0  0  0  0  0  0  0  0  0  # atno 17370 bound_to 10713
  155.9935  130.3924  150.2899 LP  0  0  0  0  0  0  0  0  0  0  0  0  # atno 17371 bound_to 10713
  140.6835  133.9453  155.7924 LP  0  0  0  0  0  0  0  0  0  0  0  0  # atno 17394 bound_to 11000
  141.0493  134.0508  157.3804 LP  0  0  0  0  0  0  0  0  0  0  0  0  # atno 17395 bound_to 11000

$$$$
