AV-unprocessed.smi:3348|AV-procd|sdf|12928|dock2
  -GOLD-   2272019353D 1   1.00000     0.00000
 Structure written by MMmdl.
 46 47  0  0  0  0  0  0  0  0  1 V2000
  144.3526  135.7006  152.8910 C   0  0  0  0  0  0  0  0  0  0  0  0
  145.4647  135.8870  151.8371 C   0  0  1  0  0  0  0  0  0  0  0  0
  145.1043  135.2286  150.4892 C   0  0  0  0  0  0  0  0  0  0  0  0
  145.0811  133.7780  150.5559 N   0  0  0  0  0  0  0  0  0  0  0  0
  143.9853  132.9410  150.5510 C   0  0  0  0  0  0  0  0  0  0  0  0
  144.4516  131.6602  150.6315 C   0  0  0  0  0  0  0  0  0  0  0  0
  145.8647  131.8181  150.6866 C   0  0  0  0  0  0  0  0  0  0  0  0
  146.2384  133.0866  150.6440 N   0  0  0  0  0  0  0  0  0  0  0  0
  145.7678  137.3033  151.6085 N   0  0  0  0  0  0  0  0  0  0  0  0
  145.8309  138.1404  152.8061 C   0  0  0  0  0  0  0  0  0  0  0  0
  146.7981  139.3104  152.6021 C   0  0  0  0  0  0  0  0  0  0  0  0
  146.9306  140.0059  153.8327 O   0  0  0  0  0  0  0  0  0  0  0  0
  147.7115  141.1939  153.7615 C   0  0  2  0  0  0  0  0  0  0  0  0
  149.1704  140.8961  154.1677 C   0  0  0  0  0  0  0  0  0  0  0  0
  149.2733  140.4648  155.6401 C   0  0  0  0  0  0  0  0  0  0  0  0
  148.6458  141.5123  156.5725 C   0  0  0  0  0  0  0  0  0  0  0  0
  147.1918  141.8146  156.1760 C   0  0  0  0  0  0  0  0  0  0  0  0
  147.0868  142.2500  154.7004 C   0  0  2  0  0  0  0  0  0  0  0  0
  145.6415  142.5900  154.3044 C   0  0  0  0  0  0  0  0  0  0  0  0
  144.1200  134.6470  153.0440 H   0  0  0  0  0  0  0  0  0  0  0  0
  143.4322  136.2002  152.5873 H   0  0  0  0  0  0  0  0  0  0  0  0
  144.6415  136.0920  153.8655 H   0  0  0  0  0  0  0  0  0  0  0  0
  146.3642  135.3970  152.2121 H   0  0  0  0  0  0  0  0  0  0  0  0
  144.1338  135.5845  150.1391 H   0  0  0  0  0  0  0  0  0  0  0  0
  145.8313  135.5135  149.7273 H   0  0  0  0  0  0  0  0  0  0  0  0
  142.9771  133.3233  150.4891 H   0  0  0  0  0  0  0  0  0  0  0  0
  143.8719  130.7493  150.6490 H   0  0  0  0  0  0  0  0  0  0  0  0
  146.6246  131.0539  150.7568 H   0  0  0  0  0  0  0  0  0  0  0  0
  145.0926  137.6970  150.9604 H   0  0  0  0  0  0  0  0  0  0  0  0
  144.8498  138.5349  153.0680 H   0  0  0  0  0  0  0  0  0  0  0  0
  146.1673  137.5400  153.6520 H   0  0  0  0  0  0  0  0  0  0  0  0
  147.7662  138.9222  152.2862 H   0  0  0  0  0  0  0  0  0  0  0  0
  146.4408  139.9764  151.8147 H   0  0  0  0  0  0  0  0  0  0  0  0
  147.6923  141.5885  152.7440 H   0  0  0  0  0  0  0  0  0  0  0  0
  149.6041  140.1299  153.5258 H   0  0  0  0  0  0  0  0  0  0  0  0
  149.7741  141.7913  154.0146 H   0  0  0  0  0  0  0  0  0  0  0  0
  148.7713  139.5061  155.7768 H   0  0  0  0  0  0  0  0  0  0  0  0
  150.3178  140.3065  155.9088 H   0  0  0  0  0  0  0  0  0  0  0  0
  148.6843  141.1622  157.6045 H   0  0  0  0  0  0  0  0  0  0  0  0
  149.2325  142.4310  156.5362 H   0  0  0  0  0  0  0  0  0  0  0  0
  146.5759  140.9306  156.3470 H   0  0  0  0  0  0  0  0  0  0  0  0
  146.7932  142.5957  156.8241 H   0  0  0  0  0  0  0  0  0  0  0  0
  147.6679  143.1670  154.5901 H   0  0  0  0  0  0  0  0  0  0  0  0
  144.9857  141.7246  154.4030 H   0  0  0  0  0  0  0  0  0  0  0  0
  145.5882  142.9314  153.2703 H   0  0  0  0  0  0  0  0  0  0  0  0
  145.2394  143.3838  154.9344 H   0  0  0  0  0  0  0  0  0  0  0  0
  1  2  1  0  0  0  0
  1 20  1  0  0  0  0
  1 21  1  0  0  0  0
  1 22  1  0  0  0  0
  2  3  1  0  0  0  0
  2  9  1  0  0  0  0
  2 23  1  0  0  0  0
  3  4  1  0  0  0  0
  3 24  1  0  0  0  0
  3 25  1  0  0  0  0
  4  8  1  0  0  0  0
  4  5  1  0  0  0  0
  5  6  2  0  0  0  0
  5 26  1  0  0  0  0
  6  7  1  0  0  0  0
  6 27  1  0  0  0  0
  7  8  2  0  0  0  0
  7 28  1  0  0  0  0
  9 10  1  0  0  0  0
  9 29  1  0  0  0  0
 10 11  1  0  0  0  0
 10 30  1  0  0  0  0
 10 31  1  0  0  0  0
 11 12  1  0  0  0  0
 11 32  1  0  0  0  0
 11 33  1  0  0  0  0
 12 13  1  0  0  0  0
 13 18  1  0  0  0  0
 13 14  1  0  0  0  0
 13 34  1  0  0  0  0
 14 15  1  0  0  0  0
 14 35  1  0  0  0  0
 14 36  1  0  0  0  0
 15 16  1  0  0  0  0
 15 37  1  0  0  0  0
 15 38  1  0  0  0  0
 16 17  1  0  0  0  0
 16 39  1  0  0  0  0
 16 40  1  0  0  0  0
 17 18  1  0  0  0  0
 17 41  1  0  0  0  0
 17 42  1  0  0  0  0
 18 19  1  0  0  0  0
 18 43  1  0  0  0  0
 19 44  1  0  0  0  0
 19 45  1  0  0  0  0
 19 46  1  0  0  0  0
M  END
> <s_m_source_file>
AV-unprocessed.smi

> <i_m_source_file_index>
3348

> <i_lp_mmshare_version>
43012

> <i_f3d_flags>
0

> <s_epik_input>
bjFbY0hdW2NIXVtjSF1uMVtDSDJdW0NAQEhdKFtDSDNdKVtOSF1bQ0gyXVtDSDJdT1tDQEBIXTJbQ0gyXVtDSDJdW0NIMl1bQ0gyXVtDQEhdMltDSDNd

> <s_epik_cmdline>
J2VwaWtfcHl0aG9uJywgJy1waCcsICc3LjAnLCAnLXRuJywgJzgnLCAnLW1hJywgJzIwMCcsICctbWV0YWxfYmluZGluZycsICctaW1hZScsICc8aW5maWxlLm1hZT4nLCAnLW9tYWUnLCAnPG91dGZpbGUubWFlPic=

> <r_lp_tautomer_probability>
1

> <r_epik_Ionization_Penalty>
2.46945

> <r_epik_Ionization_Penalty_Charging>
0

> <r_epik_Ionization_Penalty_Neutral>
2.46945

> <r_epik_State_Penalty>
2.6322

> <r_epik_Charging_Adjusted_Penalty>
2.6322

> <i_epik_Tot_Q>
0

> <i_epik_Tot_abs_Q>
0

> <r_epik_Metal_State_Penalty>
2.63217

> <b_epik_Metal_Only>
0

> <s_lp_Force_Field>
OPLS_2005

> <r_lp_Energy>
17.7248

> <b_lp_Chiralities_Consistent>
1

> <s_lp_Variant>
AV-unprocessed.smi:3348-14

> <Gold.Version>
5.8.1

> <Gold.Id.Protein>
6NUR|6NUR_protein|mol2

> <Gold.PLP.Fitness>
43.6506

> <Gold.PLP.PLP>
-36.4805

> <Gold.PLP.part.hbond>
-1.0000

> <Gold.PLP.part.metal>
0.0000

> <Gold.PLP.part.buried>
-1.9669

> <Gold.PLP.part.nonpolar>
-34.1104

> <Gold.PLP.part.repulsive>
0.3447

> <Gold.PLP.ligand.clash>
0.0000

> <Gold.PLP.ligand.torsion>
1.0200

> <Gold.PLP.Chemscore.Hbond>
1.0000

> <Gold.PLP.Chemscore.CHOScore>
2.0000

> <Gold.PLP.Chemscore.Metal>
0.0000

> <Gold.Chemscore.Hbonds>
donor molecule, donor type, donor heavy atom, donor atom, acceptor molecule, acceptor atom, score
      L1  H     9    29       P1 10171  1.00
      L1  C     5    26       P1 10186  1.00
      L1  C     7    28       P1 10747  1.00

> <Gold.PLP.Chemscore.Internal.Correction>
0.2100

> <Gold.Rescore>
     Score         DG    S(hbond)    S(metal)    S(lipo)     H(rot)  DE(clash)    DE(int)     intcor
     14.18     -15.20       0.98        0.00      92.74       1.72       0.10       0.92       ----

> <Gold.Chemscore.Fitness>
14.1811

> <Gold.Chemscore.DG>
-15.2004

> <Gold.Chemscore.ZeroCoef>
-5.4800

> <Gold.Chemscore.Hbond>
0.9827

> <Gold.Chemscore.Metal>
0.0000

> <Gold.Chemscore.Lipo>
92.7406

> <Gold.Chemscore.Internal_Hbond>
0.0000

> <Gold.Chemscore.DEClash>
0.0985

> <Gold.Chemscore.DEInternal>
0.9208

> <Gold.Chemscore.Rot>
1.7237

> <Gold.Chemscore.Internal.Correction>
   9.000000E+99

> <Gold.Chemscore.Hbonds>
donor molecule, donor type, donor heavy atom, donor atom, acceptor molecule, acceptor atom, score
      L1  H     9    29       P1 10171  1.00

> <Gold.Chemscore.Hbond.Weighted>
-3.2823

> <Gold.Chemscore.Metal.Weighted>
-0.0000

> <Gold.Chemscore.Lipo.Weighted>
-10.8507

> <Gold.Chemscore.Internal_Hbond.Weighted>
0.0000

> <Gold.Chemscore.DEClash.Weighted>
0.0985

> <Gold.Chemscore.DEInternal.Weighted>
0.9208

> <Gold.Chemscore.Rot.Weighted>
4.4126

> <Gold.Chemscore.Internal.Correction.Weighted>
   9.000000E+99

> <Gold.Protein.RotatedTorsions>
[ 6907 6896 6895 6894 ] final    4.82 input  -60.11 | X-H torsion
[ 7974 7965 7964 7962 ] final   60.19 input  175.53 | X-H torsion
[ 8008 7997 7996 7995 ] final  -94.55 input   59.86 | X-H torsion
[ 10167 10162 10161 10158 ] final  -76.74 input  -65.29 | X-H torsion
[ 10718 10713 10712 10709 ] final  -76.77 input   66.30 | X-H torsion
[ 10763 10752 10751 10750 ] final   23.66 input  -60.55 | X-H torsion
[ 11005 11000 10999 10996 ] final  104.86 input  -57.11 | X-H torsion

> <Gold.Protein.ActiveResidues>
 VAL166  LYS551  ARG553  GLY616  TRP617  ASP618  TYR619  PRO620  LYS621  CYS622 
 ASP623  PHE694  ASN695  SER759  ASP760  ASP761  ALA762  ILE779  LEU786  VAL792 
 PHE793  MET794  SER795  GLU796  ALA797  LYS798  CYS799  TRP800  GLU811  SER814 

> <Gold.Protein.RotatedAtoms>
  151.6475  135.1005  160.0153 H   0  0  0  0  0  0  0  0  0  0  0  0  # atno 6907 bound_to 6896
  152.4019  133.6827  159.6332 H   0  0  0  0  0  0  0  0  0  0  0  0  # atno 6908 bound_to 6896
  150.7918  133.8692  159.3295 H   0  0  0  0  0  0  0  0  0  0  0  0  # atno 6909 bound_to 6896
  145.8988  139.3566  143.0605 H   0  0  0  0  0  0  0  0  0  0  0  0  # atno 7974 bound_to 7965
  154.7498  140.0488  157.0884 H   0  0  0  0  0  0  0  0  0  0  0  0  # atno 8008 bound_to 7997
  155.0071  140.3131  155.4825 H   0  0  0  0  0  0  0  0  0  0  0  0  # atno 8009 bound_to 7997
  156.2883  140.2191  156.5184 H   0  0  0  0  0  0  0  0  0  0  0  0  # atno 8010 bound_to 7997
  140.4831  143.2397  151.8027 H   0  0  0  0  0  0  0  0  0  0  0  0  # atno 10167 bound_to 10162
  156.0165  130.4474  150.3244 H   0  0  0  0  0  0  0  0  0  0  0  0  # atno 10718 bound_to 10713
  153.0821  135.6622  154.0023 H   0  0  0  0  0  0  0  0  0  0  0  0  # atno 10763 bound_to 10752
  153.9642  135.2971  155.3433 H   0  0  0  0  0  0  0  0  0  0  0  0  # atno 10764 bound_to 10752
  154.7223  135.5159  153.8903 H   0  0  0  0  0  0  0  0  0  0  0  0  # atno 10765 bound_to 10752
  139.8796  134.9315  156.5426 H   0  0  0  0  0  0  0  0  0  0  0  0  # atno 11005 bound_to 11000
  145.8816  140.9359  143.0598 LP  0  0  0  0  0  0  0  0  0  0  0  0  # atno 17320 bound_to 7965
  144.6734  140.0788  143.7470 LP  0  0  0  0  0  0  0  0  0  0  0  0  # atno 17321 bound_to 7965
  139.4837  144.4747  151.9382 LP  0  0  0  0  0  0  0  0  0  0  0  0  # atno 17342 bound_to 10162
  140.3833  144.2709  150.5906 LP  0  0  0  0  0  0  0  0  0  0  0  0  # atno 17343 bound_to 10162
  157.1343  131.0280  151.2955 LP  0  0  0  0  0  0  0  0  0  0  0  0  # atno 17370 bound_to 10713
  157.4524  130.7606  149.7163 LP  0  0  0  0  0  0  0  0  0  0  0  0  # atno 17371 bound_to 10713
  140.8299  133.8287  155.8974 LP  0  0  0  0  0  0  0  0  0  0  0  0  # atno 17394 bound_to 11000
  140.9339  134.1987  157.4845 LP  0  0  0  0  0  0  0  0  0  0  0  0  # atno 17395 bound_to 11000

$$$$
