#       Name:                AV-unprocessed.smi:1532
#       Creating user name   scv26
#       Creation time:       Fri Mar 27 06:30:59 2020


#       File generated by GOLD software.
#

@<TRIPOS>MOLECULE
AV-unprocessed.smi:1532
    43    45     1
SMALL
NO_CHARGES


@<TRIPOS>ATOM
      1 ****        -0.3789  -2.4400  -0.7070 O.2            1 S1                 0.0000
      2 ****        -1.0755  -1.4242  -0.7232 C.2            1 S1                 0.0000
      3 ****        -2.5458  -1.4476  -0.7517 C.2            1 S1                 0.0000
      4 ****        -3.2398  -2.8071  -0.7621 C.3            1 S1                 0.0000
      5 ****        -4.5678  -2.6834  -0.7784 F              1 S1                 0.0000
      6 ****        -2.8820  -3.5073  -1.8390 F              1 S1                 0.0000
      7 ****        -2.9091  -3.5106   0.3216 F              1 S1                 0.0000
      8 ****        -3.2434  -0.2855  -0.7658 C.2            1 S1                 0.0000
      9 ****        -2.5477   0.9859  -0.7557 C.2            1 S1                 0.0000
     10 ****        -3.2562   2.3101  -0.7710 C.3            1 S1                 0.0000
     11 ****        -3.2406   3.2321   0.4258 C.3            1 S1                 0.0000
     12 ****        -4.5267   2.5554   0.0108 C.3            1 S1                 0.0000
     13 ****        -1.2576   1.0034  -0.7330 N.2            1 S1                 0.0000
     14 ****        -0.5323  -0.1710  -0.7121 N.am           1 S1                 0.0000
     15 ****         0.9218   0.0308  -0.6748 C.3            1 S1                 0.0000
     16 ****         1.5084  -0.1777   0.7385 C.3            1 S1                 0.0000
     17 ****         1.1763   0.9402   1.5393 O.3            1 S1                 0.0000
     18 ****         3.0135  -0.3903   0.6746 C.ar           1 S1                 0.0000
     19 ****         3.8901   0.6982   0.4668 C.ar           1 S1                 0.0000
     20 ****         5.2810   0.4866   0.3980 C.ar           1 S1                 0.0000
     21 ****         5.8037  -0.8139   0.5331 C.ar           1 S1                 0.0000
     22 ****         4.9346  -1.9031   0.7359 C.ar           1 S1                 0.0000
     23 ****         5.4359  -3.1544   0.8631 F              1 S1                 0.0000
     24 ****         3.5437  -1.6918   0.8049 C.ar           1 S1                 0.0000
     25 ****        -4.3228  -0.2820  -0.7870 H              1 S1                 0.0000
     26 ****        -3.1871   2.7719  -1.7541 H              1 S1                 0.0000
     27 ****        -2.7609   2.8786   1.3367 H              1 S1                 0.0000
     28 ****        -3.1487   4.2992   0.2346 H              1 S1                 0.0000
     29 ****        -5.2911   3.1729  -0.4566 H              1 S1                 0.0000
     30 ****        -4.8999   1.7608   0.6542 H              1 S1                 0.0000
     31 ****         1.3811  -0.6768  -1.3679 H              1 S1                 0.0000
     32 ****         1.1946   1.0160  -1.0589 H              1 S1                 0.0000
     33 ****         1.0623  -1.0565   1.2057 H              1 S1                 0.0000
     34 ****         1.4667   0.7719   2.4227 H              1 S1                 0.0000
     35 ****         3.4988   1.6992   0.3569 H              1 S1                 0.0000
     36 ****         5.9469   1.3221   0.2398 H              1 S1                 0.0000
     37 ****         6.8701  -0.9760   0.4794 H              1 S1                 0.0000
     38 ****         2.8848  -2.5345   0.9560 H              1 S1                 0.0000
     39 ****         0.6178  -2.3625  -0.6850 LP             1 S1                 0.0000
     40 ****        -0.8101  -3.3422  -0.7159 LP             1 S1                 0.0000
     41 ****        -0.7765   1.8800  -0.7305 LP             1 S1                 0.0000
     42 ****         0.1861   1.0797   1.5303 LP             1 S1                 0.0000
     43 ****         1.6312   1.7568   1.1842 LP             1 S1                 0.0000
@<TRIPOS>BOND
    1    1    2 2     
    2    2   14 am    
    3    2    3 1     
    4    3    4 1     
    5    3    8 2     
    6    4    5 1     
    7    4    6 1     
    8    4    7 1     
    9    8    9 1     
   10    8   25 1     
   11    9   10 1     
   12    9   13 2     
   13   10   12 1     
   14   10   11 1     
   15   10   26 1     
   16   11   12 1     
   17   11   27 1     
   18   11   28 1     
   19   12   29 1     
   20   12   30 1     
   21   13   14 1     
   22   14   15 1     
   23   15   16 1     
   24   15   31 1     
   25   15   32 1     
   26   16   17 1     
   27   16   18 1     
   28   16   33 1     
   29   17   34 1     
   30   18   24 ar    
   31   18   19 ar    
   32   19   20 ar    
   33   19   35 1     
   34   20   21 ar    
   35   20   36 1     
   36   21   22 ar    
   37   21   37 1     
   38   22   23 1     
   39   22   24 ar    
   40   24   38 1     
   41    1   39 1     
   42    1   40 1     
   43   13   41 1     
   44   17   42 1     
   45   17   43 1     
@<TRIPOS>SUBSTRUCTURE
      1 S1             1
@<TRIPOS>SET
LONE_PAIRS      STATIC     ATOMS    <user>   **** ""
5 39 40 41 42 43
DONOR_HYDROGENS      STATIC     ATOMS    <user>   **** ""
1 34
ATOM$BLUE        STATIC     ATOMS    COLORGROUP SYSTEM
5 39 40 41 42 43
ATOM$RED        STATIC     ATOMS    COLORGROUP SYSTEM
1 34
