#       Name:                AV-unprocessed.smi:17
#       Creating user name   scv26
#       Creation time:       Thu Mar 26 15:24:56 2020


#       File generated by GOLD software.
#

@<TRIPOS>MOLECULE
AV-unprocessed.smi:17
    64    66     1
SMALL
NO_CHARGES


@<TRIPOS>ATOM
      1 ****        -3.4766  -2.4251  -0.2319 C.3            1 S1                 0.0000
      2 ****        -3.5116  -1.5742  -1.5094 C.3            1 S1                 0.0000
      3 ****        -2.7758  -0.3149  -1.3618 N.pl3          1 S1                 0.0000
      4 ****        -1.4198  -0.3612  -1.2522 C.ar           1 S1                 0.0000
      5 ****        -0.7465  -1.2579  -2.0209 N.ar           1 S1                 0.0000
      6 ****         0.5851  -1.3390  -1.9647 C.ar           1 S1                 0.0000
      7 ****         1.4311  -0.6352  -1.2129 N.ar           1 S1                 0.0000
      8 ****         0.7666   0.2536  -0.4217 C.ar           1 S1                 0.0000
      9 ****        -0.6435   0.4559  -0.3760 C.ar           1 S1                 0.0000
     10 ****        -0.9411   1.4329   0.5691 N.2            1 S1                 0.0000
     11 ****         0.2204   1.7962   1.0387 C.2            1 S1                 0.0000
     12 ****         1.2998   1.1342   0.5025 N.pl3          1 S1                 0.0000
     13 ****         2.6953   1.3328   0.8506 C.3            1 S1                 0.0000
     14 ****         3.0440   0.7216   2.2339 C.3            1 S1                 0.0000
     15 ****         3.4562   1.8493   3.2092 C.3            1 S1                 0.0000
     16 ****         3.3539   1.4463   4.5589 O.3            1 S1                 0.0000
     17 ****         4.1220  -0.3881   2.0996 C.3            1 S1                 0.0000
     18 ****         4.4731  -1.1238   3.3814 C.3            1 S1                 0.0000
     19 ****         5.1392  -2.3895   2.8576 C.3            1 S1                 0.0000
     20 ****         4.4613  -2.6975   1.6467 O.3            1 S1                 0.0000
     21 ****         3.7066  -1.5701   1.2124 C.3            1 S1                 0.0000
     22 ****        -3.4788   0.9690  -1.2600 C.3            1 S1                 0.0000
     23 ****        -4.3770   1.0150  -0.0128 C.3            1 S1                 0.0000
     24 ****        -4.2643   1.3219  -2.5416 C.3            1 S1                 0.0000
     25 ****        -3.1703   1.6849  -3.9912 S.o2           1 S1                 0.0000
     26 ****        -2.9879   0.0337  -4.7833 C.3            1 S1                 0.0000
     27 ****        -3.9215   2.5401  -4.9223 O.2            1 S1                 0.0000
     28 ****        -1.8478   2.1134  -3.5099 O.2            1 S1                 0.0000
     29 ****        -4.0569  -3.3385  -0.3617 H              1 S1                 0.0000
     30 ****        -3.8955  -1.8840   0.6168 H              1 S1                 0.0000
     31 ****        -2.4577  -2.7152   0.0259 H              1 S1                 0.0000
     32 ****        -3.1203  -2.1472  -2.3501 H              1 S1                 0.0000
     33 ****        -4.5507  -1.3627  -1.7579 H              1 S1                 0.0000
     34 ****         1.0373  -2.0731  -2.6151 H              1 S1                 0.0000
     35 ****         0.3226   2.5546   1.8014 H              1 S1                 0.0000
     36 ****         3.3159   0.9165   0.0572 H              1 S1                 0.0000
     37 ****         2.8924   2.4053   0.8255 H              1 S1                 0.0000
     38 ****         2.1429   0.2577   2.6401 H              1 S1                 0.0000
     39 ****         4.4702   2.1931   3.0022 H              1 S1                 0.0000
     40 ****         2.7977   2.7108   3.0934 H              1 S1                 0.0000
     41 ****         3.6061   2.1716   5.1100 H              1 S1                 0.0000
     42 ****         5.0379   0.0447   1.6936 H              1 S1                 0.0000
     43 ****         5.1306  -0.5548   4.0391 H              1 S1                 0.0000
     44 ****         3.5689  -1.3800   3.9358 H              1 S1                 0.0000
     45 ****         6.1893  -2.2003   2.6317 H              1 S1                 0.0000
     46 ****         5.0872  -3.2155   3.5673 H              1 S1                 0.0000
     47 ****         2.6482  -1.8004   1.3412 H              1 S1                 0.0000
     48 ****         3.8817  -1.3790   0.1538 H              1 S1                 0.0000
     49 ****        -2.7517   1.7694  -1.1421 H              1 S1                 0.0000
     50 ****        -4.8247   2.0013   0.1105 H              1 S1                 0.0000
     51 ****        -3.8056   0.8005   0.8907 H              1 S1                 0.0000
     52 ****        -5.1888   0.2902  -0.0737 H              1 S1                 0.0000
     53 ****        -4.9846   0.5549  -2.8234 H              1 S1                 0.0000
     54 ****        -4.8373   2.2319  -2.3619 H              1 S1                 0.0000
     55 ****        -2.4318   0.1425  -5.7141 H              1 S1                 0.0000
     56 ****        -3.9721  -0.3805  -4.9992 H              1 S1                 0.0000
     57 ****        -2.4451  -0.6402  -4.1247 H              1 S1                 0.0000
     58 ****        -1.2537  -1.8629  -2.6347 LP             1 S1                 0.0000
     59 ****         2.4250  -0.7450  -1.2275 LP             1 S1                 0.0000
     60 ****        -1.8425   1.7787   0.8296 LP             1 S1                 0.0000
     61 ****         3.9612   0.6695   4.7255 LP             1 S1                 0.0000
     62 ****         2.4110   1.1816   4.7609 LP             1 S1                 0.0000
     63 ****         3.8450  -3.4701   1.7991 LP             1 S1                 0.0000
     64 ****         5.1308  -2.9387   0.9442 LP             1 S1                 0.0000
@<TRIPOS>BOND
    1    1    2 1     
    2    1   29 1     
    3    1   30 1     
    4    1   31 1     
    5    2    3 1     
    6    2   32 1     
    7    2   33 1     
    8    3    4 1     
    9    3   22 1     
   10    4    9 ar    
   11    4    5 ar    
   12    5    6 ar    
   13    6    7 ar    
   14    6   34 1     
   15    7    8 ar    
   16    8   12 1     
   17    8    9 ar    
   18    9   10 1     
   19   10   11 2     
   20   11   12 1     
   21   11   35 1     
   22   12   13 1     
   23   13   14 1     
   24   13   36 1     
   25   13   37 1     
   26   14   15 1     
   27   14   17 1     
   28   14   38 1     
   29   15   16 1     
   30   15   39 1     
   31   15   40 1     
   32   16   41 1     
   33   17   21 1     
   34   17   18 1     
   35   17   42 1     
   36   18   19 1     
   37   18   43 1     
   38   18   44 1     
   39   19   20 1     
   40   19   45 1     
   41   19   46 1     
   42   20   21 1     
   43   21   47 1     
   44   21   48 1     
   45   22   23 1     
   46   22   24 1     
   47   22   49 1     
   48   23   50 1     
   49   23   51 1     
   50   23   52 1     
   51   24   25 1     
   52   24   53 1     
   53   24   54 1     
   54   25   26 1     
   55   25   27 2     
   56   25   28 2     
   57   26   55 1     
   58   26   56 1     
   59   26   57 1     
   60    5   58 1     
   61    7   59 1     
   62   10   60 1     
   63   16   61 1     
   64   16   62 1     
   65   20   63 1     
   66   20   64 1     
@<TRIPOS>SUBSTRUCTURE
      1 S1             1
@<TRIPOS>SET
LONE_PAIRS      STATIC     ATOMS    <user>   **** ""
9 58 59 60 61 62 63 64 27 28
DONOR_HYDROGENS      STATIC     ATOMS    <user>   **** ""
1 41
ATOM$BLUE        STATIC     ATOMS    COLORGROUP SYSTEM
9 58 59 60 61 62 63 64 27 28
ATOM$RED        STATIC     ATOMS    COLORGROUP SYSTEM
1 41
