#       Name:                AV-unprocessed.smi:2855
#       Creating user name   scv26
#       Creation time:       Fri Mar 27 15:44:29 2020


#       File generated by GOLD software.
#

@<TRIPOS>MOLECULE
AV-unprocessed.smi:2855
    53    54     1
SMALL
NO_CHARGES


@<TRIPOS>ATOM
      1 ****        -2.9194  -2.3706   1.6783 C.3            1 S1                 0.0000
      2 ****        -3.1188  -0.8445   1.6816 C.3            1 S1                 0.0000
      3 ****        -2.6531  -0.1861   2.9918 C.3            1 S1                 0.0000
      4 ****        -1.1217  -0.1487   3.1135 C.3            1 S1                 0.0000
      5 ****        -0.4579   0.5627   1.9100 C.3            1 S1                 0.0000
      6 ****         1.0891   0.6883   2.0539 C.3            1 S1                 0.0000
      7 ****         1.8239  -0.6621   2.1479 C.3            1 S1                 0.0000
      8 ****         1.4982   1.6088   3.2170 C.3            1 S1                 0.0000
      9 ****        -0.9181  -0.0898   0.5748 C.3            1 S1                 0.0000
     10 ****        -0.4233   0.6652  -0.5761 N.am           1 S1                 0.0000
     11 ****         0.4717   0.2388  -1.4807 C.2            1 S1                 0.0000
     12 ****         1.0195  -0.8630  -1.4277 O.2            1 S1                 0.0000
     13 ****         0.8133   1.2359  -2.5967 C.3            1 S1                 0.0000
     14 ****         1.3679   0.5985  -3.8020 N.am           1 S1                 0.0000
     15 ****         2.7636   0.6219  -3.9703 C.2            1 S1                 0.0000
     16 ****         3.3594   0.0665  -5.0426 C.2            1 S1                 0.0000
     17 ****         2.5174  -0.5732  -6.0459 C.2            1 S1                 0.0000
     18 ****         3.0442  -1.0829  -7.0330 O.2            1 S1                 0.0000
     19 ****         1.1685  -0.5735  -5.8356 N.pl3          1 S1                -1.0000
     20 ****         0.5764  -0.0052  -4.7395 C.2            1 S1                 0.0000
     21 ****        -0.6433  -0.0165  -4.5691 O.2            1 S1                 0.0000
     22 ****        -2.4570  -0.1541   0.4746 C.3            1 S1                 0.0000
     23 ****        -1.8686  -2.6494   1.7540 H              1 S1                 0.0000
     24 ****        -3.3108  -2.8130   0.7619 H              1 S1                 0.0000
     25 ****        -3.4439  -2.8339   2.5145 H              1 S1                 0.0000
     26 ****        -4.1938  -0.6780   1.6001 H              1 S1                 0.0000
     27 ****        -3.0364   0.8342   3.0353 H              1 S1                 0.0000
     28 ****        -3.0832  -0.7066   3.8481 H              1 S1                 0.0000
     29 ****        -0.8647   0.3560   4.0440 H              1 S1                 0.0000
     30 ****        -0.7442  -1.1665   3.2069 H              1 S1                 0.0000
     31 ****        -0.8482   1.5821   1.9005 H              1 S1                 0.0000
     32 ****         1.4635   1.1832   1.1582 H              1 S1                 0.0000
     33 ****         1.5653  -1.2018   3.0586 H              1 S1                 0.0000
     34 ****         2.9040  -0.5137   2.1563 H              1 S1                 0.0000
     35 ****         1.5991  -1.3081   1.3001 H              1 S1                 0.0000
     36 ****         1.2555   1.1737   4.1862 H              1 S1                 0.0000
     37 ****         1.0014   2.5770   3.1491 H              1 S1                 0.0000
     38 ****         2.5727   1.7936   3.2060 H              1 S1                 0.0000
     39 ****        -0.5449  -1.1132   0.5372 H              1 S1                 0.0000
     40 ****        -0.8084   1.5892  -0.7054 H              1 S1                 0.0000
     41 ****        -0.0779   1.8101  -2.8580 H              1 S1                 0.0000
     42 ****         1.5160   1.9662  -2.1934 H              1 S1                 0.0000
     43 ****         3.3145   1.1101  -3.1799 H              1 S1                 0.0000
     44 ****         4.4331   0.0920  -5.1564 H              1 S1                 0.0000
     45 ****        -2.7506  -0.6594  -0.4468 H              1 S1                 0.0000
     46 ****        -2.8512   0.8606   0.3975 H              1 S1                 0.0000
     47 ****         0.8043  -1.4931  -0.6815 LP             1 S1                 0.0000
     48 ****         1.6796  -1.1276  -2.1308 LP             1 S1                 0.0000
     49 ****         4.0381  -1.0552  -7.1396 LP             1 S1                 0.0000
     50 ****         2.4788  -1.5252  -7.7292 LP             1 S1                 0.0000
     51 ****         0.5825  -1.0115  -6.5173 LP             1 S1                 0.0000
     52 ****        -1.0385   0.4110  -3.7561 LP             1 S1                 0.0000
     53 ****        -1.2384  -0.4532  -5.2437 LP             1 S1                 0.0000
@<TRIPOS>BOND
    1    1    2 1     
    2    1   23 1     
    3    1   24 1     
    4    1   25 1     
    5    2   22 1     
    6    2    3 1     
    7    2   26 1     
    8    3    4 1     
    9    3   27 1     
   10    3   28 1     
   11    4    5 1     
   12    4   29 1     
   13    4   30 1     
   14    5    6 1     
   15    5    9 1     
   16    5   31 1     
   17    6    7 1     
   18    6    8 1     
   19    6   32 1     
   20    7   33 1     
   21    7   34 1     
   22    7   35 1     
   23    8   36 1     
   24    8   37 1     
   25    8   38 1     
   26    9   10 1     
   27    9   22 1     
   28    9   39 1     
   29   10   11 am    
   30   10   40 1     
   31   11   12 2     
   32   11   13 1     
   33   13   14 1     
   34   13   41 1     
   35   13   42 1     
   36   14   20 am    
   37   14   15 1     
   38   15   16 2     
   39   15   43 1     
   40   16   17 1     
   41   16   44 1     
   42   17   18 2     
   43   17   19 1     
   44   19   20 1     
   45   20   21 2     
   46   22   45 1     
   47   22   46 1     
   48   12   47 1     
   49   12   48 1     
   50   18   49 1     
   51   18   50 1     
   52   19   51 1     
   53   21   52 1     
   54   21   53 1     
@<TRIPOS>SUBSTRUCTURE
      1 S1             1
@<TRIPOS>SET
LONE_PAIRS      STATIC     ATOMS    <user>   **** ""
7 47 48 49 50 51 52 53
DONOR_HYDROGENS      STATIC     ATOMS    <user>   **** ""
1 40
ATOM$BLUE        STATIC     ATOMS    COLORGROUP SYSTEM
7 47 48 49 50 51 52 53
ATOM$RED        STATIC     ATOMS    COLORGROUP SYSTEM
1 40
