AV-unprocessed.smi:193|AV-procd|sdf|1516|dock6
  -GOLD-   2262019353D 1   1.00000     0.00000
 Structure written by MMmdl.
 61 65  0  0  0  0  0  0  0  0  1 V2000
  152.8748  137.7196  158.3544 C   0  0  0  0  0  0  0  0  0  0  0  0
  151.8393  138.6637  157.7266 C   0  0  2  0  0  0  0  0  0  0  0  0
  152.0496  138.7632  156.2008 C   0  0  0  0  0  0  0  0  0  0  0  0
  150.8073  139.1209  155.5116 N   0  0  0  0  0  0  0  0  0  0  0  0
  149.9034  138.1332  155.2469 C   0  0  0  0  0  0  0  0  0  0  0  0
  150.3768  136.8632  155.1376 N   0  0  0  0  0  0  0  0  0  0  0  0
  149.5568  135.8434  154.8739 C   0  0  0  0  0  0  0  0  0  0  0  0
  148.2387  135.8641  154.6829 N   0  0  0  0  0  0  0  0  0  0  0  0
  147.7453  137.1298  154.7895 C   0  0  0  0  0  0  0  0  0  0  0  0
  148.4946  138.3113  155.0696 C   0  0  0  0  0  0  0  0  0  0  0  0
  147.6268  139.3988  155.1195 N   0  0  0  0  0  0  0  0  0  0  0  0
  146.4490  138.8951  154.8779 C   0  0  0  0  0  0  0  0  0  0  0  0
  146.4299  137.5392  154.6540 N   0  0  0  0  0  0  0  0  0  0  0  0
  145.2624  136.7208  154.3621 C   0  0  0  0  0  0  0  0  0  0  0  0
  144.6582  136.9505  152.9488 C   0  0  0  0  0  0  0  0  0  0  0  0
  144.3134  138.3194  152.8464 O   0  0  0  0  0  0  0  0  0  0  0  0
  145.6839  136.6480  151.8387 C   0  0  0  0  0  0  0  0  0  0  0  0
  145.8956  135.1329  151.6608 C   0  0  0  0  0  0  0  0  0  0  0  0
  144.6510  134.4908  151.4035 O   0  0  0  0  0  0  0  0  0  0  0  0
  143.7115  134.6398  152.4629 C   0  0  0  0  0  0  0  0  0  0  0  0
  143.3828  136.1294  152.6630 C   0  0  0  0  0  0  0  0  0  0  0  0
  150.3845  140.5119  155.6150 C   0  0  0  0  0  0  0  0  0  0  0  0
  150.0722  140.9306  157.0629 C   0  0  0  0  0  0  0  0  0  0  0  0
  151.3331  141.1879  157.7517 N   0  0  0  0  0  0  0  0  0  0  0  0
  151.1748  142.2835  158.6988 C   0  0  2  0  0  0  0  0  0  0  0  0
  151.7840  143.6191  158.3345 C   0  0  0  0  0  0  0  0  0  0  0  0
  152.3973  142.7943  159.4407 C   0  0  2  0  0  0  0  0  0  0  0  0
  153.7795  142.1948  159.2652 C   0  0  0  0  0  0  0  0  0  0  0  0
  151.8490  140.0218  158.4762 C   0  0  0  0  0  0  0  0  0  0  0  0
  153.8896  138.0936  158.2132 H   0  0  0  0  0  0  0  0  0  0  0  0
  152.8217  136.7255  157.9094 H   0  0  0  0  0  0  0  0  0  0  0  0
  152.7056  137.6076  159.4257 H   0  0  0  0  0  0  0  0  0  0  0  0
  150.8666  138.1995  157.8971 H   0  0  0  0  0  0  0  0  0  0  0  0
  152.8142  139.5086  155.9779 H   0  0  0  0  0  0  0  0  0  0  0  0
  152.4479  137.8261  155.8123 H   0  0  0  0  0  0  0  0  0  0  0  0
  150.0243  134.8723  154.8042 H   0  0  0  0  0  0  0  0  0  0  0  0
  145.5575  139.5045  154.8500 H   0  0  0  0  0  0  0  0  0  0  0  0
  145.5442  135.6739  154.4825 H   0  0  0  0  0  0  0  0  0  0  0  0
  144.5219  136.9174  155.1368 H   0  0  0  0  0  0  0  0  0  0  0  0
  143.6600  138.4162  152.1708 H   0  0  0  0  0  0  0  0  0  0  0  0
  145.3306  137.0563  150.8904 H   0  0  0  0  0  0  0  0  0  0  0  0
  146.6343  137.1404  152.0479 H   0  0  0  0  0  0  0  0  0  0  0  0
  146.5625  134.9486  150.8186 H   0  0  0  0  0  0  0  0  0  0  0  0
  146.3711  134.6909  152.5368 H   0  0  0  0  0  0  0  0  0  0  0  0
  142.8059  134.0909  152.2043 H   0  0  0  0  0  0  0  0  0  0  0  0
  144.1004  134.1915  153.3778 H   0  0  0  0  0  0  0  0  0  0  0  0
  142.6399  136.2554  153.4501 H   0  0  0  0  0  0  0  0  0  0  0  0
  142.9105  136.4964  151.7504 H   0  0  0  0  0  0  0  0  0  0  0  0
  151.1723  141.1468  155.2071 H   0  0  0  0  0  0  0  0  0  0  0  0
  149.5243  140.6907  154.9712 H   0  0  0  0  0  0  0  0  0  0  0  0
  149.4957  141.8549  157.0105 H   0  0  0  0  0  0  0  0  0  0  0  0
  149.4521  140.2095  157.5966 H   0  0  0  0  0  0  0  0  0  0  0  0
  150.2392  142.3484  159.2519 H   0  0  0  0  0  0  0  0  0  0  0  0
  152.3275  143.6896  157.3938 H   0  0  0  0  0  0  0  0  0  0  0  0
  151.2371  144.5149  158.6219 H   0  0  0  0  0  0  0  0  0  0  0  0
  152.2111  143.1466  160.4535 H   0  0  0  0  0  0  0  0  0  0  0  0
  153.9499  141.8915  158.2318 H   0  0  0  0  0  0  0  0  0  0  0  0
  153.8938  141.3226  159.9086 H   0  0  0  0  0  0  0  0  0  0  0  0
  154.5394  142.9272  159.5373 H   0  0  0  0  0  0  0  0  0  0  0  0
  151.2915  139.8966  159.4059 H   0  0  0  0  0  0  0  0  0  0  0  0
  152.8716  140.2605  158.7702 H   0  0  0  0  0  0  0  0  0  0  0  0
  1  2  1  0  0  0  0
  1 30  1  0  0  0  0
  1 31  1  0  0  0  0
  1 32  1  0  0  0  0
  2 29  1  0  0  0  0
  2  3  1  0  0  0  0
  2 33  1  0  0  0  0
  3  4  1  0  0  0  0
  3 34  1  0  0  0  0
  3 35  1  0  0  0  0
  4  5  1  0  0  0  0
  4 22  1  0  0  0  0
  5 10  1  0  0  0  0
  5  6  2  0  0  0  0
  6  7  1  0  0  0  0
  7  8  2  0  0  0  0
  7 36  1  0  0  0  0
  8  9  1  0  0  0  0
  9 13  1  0  0  0  0
  9 10  2  0  0  0  0
 10 11  1  0  0  0  0
 11 12  2  0  0  0  0
 12 13  1  0  0  0  0
 12 37  1  0  0  0  0
 13 14  1  0  0  0  0
 14 15  1  0  0  0  0
 14 38  1  0  0  0  0
 14 39  1  0  0  0  0
 15 21  1  0  0  0  0
 15 16  1  0  0  0  0
 15 17  1  0  0  0  0
 16 40  1  0  0  0  0
 17 18  1  0  0  0  0
 17 41  1  0  0  0  0
 17 42  1  0  0  0  0
 18 19  1  0  0  0  0
 18 43  1  0  0  0  0
 18 44  1  0  0  0  0
 19 20  1  0  0  0  0
 20 21  1  0  0  0  0
 20 45  1  0  0  0  0
 20 46  1  0  0  0  0
 21 47  1  0  0  0  0
 21 48  1  0  0  0  0
 22 23  1  0  0  0  0
 22 49  1  0  0  0  0
 22 50  1  0  0  0  0
 23 24  1  0  0  0  0
 23 51  1  0  0  0  0
 23 52  1  0  0  0  0
 24 25  1  0  0  0  0
 24 29  1  0  0  0  0
 25 27  1  0  0  0  0
 25 26  1  0  0  0  0
 25 53  1  0  0  0  0
 26 27  1  0  0  0  0
 26 54  1  0  0  0  0
 26 55  1  0  0  0  0
 27 28  1  0  0  0  0
 27 56  1  0  0  0  0
 28 57  1  0  0  0  0
 28 58  1  0  0  0  0
 28 59  1  0  0  0  0
 29 60  1  0  0  0  0
 29 61  1  0  0  0  0
M  END
> <s_m_source_file>
AV-unprocessed.smi

> <i_m_source_file_index>
193

> <i_lp_mmshare_version>
43012

> <i_f3d_flags>
0

> <s_epik_input>
W0NIM11bQ0BASF0xW0NIMl1bQ0BIXTFOKFtDSDJdMilbQ0gyXVtDSDJdTihbQ0gyXVtDQEhdMltDSDNdKWMobltjSF1uMyljKGMzNCluW2NIXW40W0NIMl1DNShbT0hdKVtDSDJdW0NIMl1PW0NIMl1bQ0gyXTU=

> <s_epik_cmdline>
J2VwaWtfcHl0aG9uJywgJy1waCcsICc3LjAnLCAnLXRuJywgJzgnLCAnLW1hJywgJzIwMCcsICctbWV0YWxfYmluZGluZycsICctaW1hZScsICc8aW5maWxlLm1hZT4nLCAnLW9tYWUnLCAnPG91dGZpbGUubWFlPic=

> <r_lp_tautomer_probability>
1

> <r_epik_Ionization_Penalty>
1.45227

> <r_epik_Ionization_Penalty_Charging>
0

> <r_epik_Ionization_Penalty_Neutral>
1.45227

> <r_epik_State_Penalty>
2.02377

> <r_epik_Charging_Adjusted_Penalty>
2.02377

> <i_epik_Tot_Q>
0

> <i_epik_Tot_abs_Q>
0

> <r_epik_Metal_State_Penalty>
2.01937

> <b_epik_Metal_Only>
0

> <s_lp_Force_Field>
OPLS_2005

> <r_lp_Energy>
54.596

> <b_lp_Chiralities_Consistent>
1

> <s_lp_Variant>
AV-unprocessed.smi:193-21

> <Gold.Version>
5.8.1

> <Gold.Id.Protein>
6NUR|6NUR_protein|mol2

> <Gold.PLP.Fitness>
42.3290

> <Gold.PLP.PLP>
-37.1175

> <Gold.PLP.part.hbond>
-1.5396

> <Gold.PLP.part.metal>
0.0000

> <Gold.PLP.part.buried>
-5.9180

> <Gold.PLP.part.nonpolar>
-31.4459

> <Gold.PLP.part.repulsive>
0.4106

> <Gold.PLP.ligand.clash>
0.0000

> <Gold.PLP.ligand.torsion>
0.9260

> <Gold.PLP.Chemscore.Hbond>
1.0000

> <Gold.PLP.Chemscore.CHOScore>
0.9180

> <Gold.PLP.Chemscore.Metal>
0.0000

> <Gold.Chemscore.Hbonds>
donor molecule, donor type, donor heavy atom, donor atom, acceptor molecule, acceptor atom, score
      L1  H    16    40       P1 10171  0.12

> <Gold.PLP.Chemscore.Internal.Correction>
1.3094

> <Gold.Rescore>
     Score         DG    S(hbond)    S(metal)    S(lipo)     H(rot)  DE(clash)    DE(int)     intcor
     12.16     -15.16       0.97        0.00      96.74       1.91       0.09       2.91       ----

> <Gold.Chemscore.Fitness>
12.1596

> <Gold.Chemscore.DG>
-15.1592

> <Gold.Chemscore.ZeroCoef>
-5.4800

> <Gold.Chemscore.Hbond>
0.9706

> <Gold.Chemscore.Metal>
0.0000

> <Gold.Chemscore.Lipo>
96.7410

> <Gold.Chemscore.Internal_Hbond>
0.0000

> <Gold.Chemscore.DEClash>
0.0853

> <Gold.Chemscore.DEInternal>
2.9143

> <Gold.Chemscore.Rot>
1.9068

> <Gold.Chemscore.Internal.Correction>
   9.000000E+99

> <Gold.Chemscore.Hbonds>
donor molecule, donor type, donor heavy atom, donor atom, acceptor molecule, acceptor atom, score
      L1  H    16    40       P1 10171  0.11

> <Gold.Chemscore.Hbond.Weighted>
-3.2419

> <Gold.Chemscore.Metal.Weighted>
-0.0000

> <Gold.Chemscore.Lipo.Weighted>
-11.3187

> <Gold.Chemscore.Internal_Hbond.Weighted>
0.0000

> <Gold.Chemscore.DEClash.Weighted>
0.0853

> <Gold.Chemscore.DEInternal.Weighted>
2.9143

> <Gold.Chemscore.Rot.Weighted>
4.8814

> <Gold.Chemscore.Internal.Correction.Weighted>
   9.000000E+99

> <Gold.Protein.RotatedTorsions>
[ 6907 6896 6895 6894 ] final    5.60 input  -60.11 | X-H torsion
[ 7974 7965 7964 7962 ] final -129.94 input  175.53 | X-H torsion
[ 8008 7997 7996 7995 ] final  -69.54 input   59.86 | X-H torsion
[ 10167 10162 10161 10158 ] final  -23.84 input  -65.29 | X-H torsion
[ 10718 10713 10712 10709 ] final  -69.11 input   66.30 | X-H torsion
[ 10763 10752 10751 10750 ] final   13.48 input  -60.55 | X-H torsion
[ 11005 11000 10999 10996 ] final -176.64 input  -57.11 | X-H torsion

> <Gold.Protein.ActiveResidues>
 VAL166  LYS551  ARG553  GLY616  TRP617  ASP618  TYR619  PRO620  LYS621  CYS622 
 ASP623  PHE694  ASN695  SER759  ASP760  ASP761  ALA762  ILE779  LEU786  VAL792 
 PHE793  MET794  SER795  GLU796  ALA797  LYS798  CYS799  TRP800  GLU811  SER814 

> <Gold.Protein.RotatedAtoms>
  151.6602  135.0990  160.0177 H   0  0  0  0  0  0  0  0  0  0  0  0  # atno 6907 bound_to 6896
  152.3951  133.6731  159.6278 H   0  0  0  0  0  0  0  0  0  0  0  0  # atno 6908 bound_to 6896
  150.7859  133.8805  159.3325 H   0  0  0  0  0  0  0  0  0  0  0  0  # atno 6909 bound_to 6896
  144.9523  140.7358  143.4780 H   0  0  0  0  0  0  0  0  0  0  0  0  # atno 7974 bound_to 7965
  154.4946  140.0851  156.7669 H   0  0  0  0  0  0  0  0  0  0  0  0  # atno 8008 bound_to 7997
  155.4147  140.3443  155.4248 H   0  0  0  0  0  0  0  0  0  0  0  0  # atno 8009 bound_to 7997
  156.1377  140.1520  156.8957 H   0  0  0  0  0  0  0  0  0  0  0  0  # atno 8010 bound_to 7997
  140.7288  143.4407  151.0662 H   0  0  0  0  0  0  0  0  0  0  0  0  # atno 10167 bound_to 10162
  156.0472  130.4306  150.2099 H   0  0  0  0  0  0  0  0  0  0  0  0  # atno 10718 bound_to 10713
  153.1717  135.6813  153.8598 H   0  0  0  0  0  0  0  0  0  0  0  0  # atno 10763 bound_to 10752
  153.7960  135.3162  155.3385 H   0  0  0  0  0  0  0  0  0  0  0  0  # atno 10764 bound_to 10752
  154.8002  135.4782  154.0350 H   0  0  0  0  0  0  0  0  0  0  0  0  # atno 10765 bound_to 10752
  140.4498  134.6354  157.4796 H   0  0  0  0  0  0  0  0  0  0  0  0  # atno 11005 bound_to 11000
  145.2825  139.1913  143.4783 LP  0  0  0  0  0  0  0  0  0  0  0  0  # atno 17320 bound_to 7965
  146.3325  140.2789  142.8609 LP  0  0  0  0  0  0  0  0  0  0  0  0  # atno 17321 bound_to 7965
  139.8073  143.7999  152.3168 LP  0  0  0  0  0  0  0  0  0  0  0  0  # atno 17342 bound_to 10162
  139.8037  144.7364  150.9790 LP  0  0  0  0  0  0  0  0  0  0  0  0  # atno 17343 bound_to 10162
  157.0187  130.9973  151.3346 LP  0  0  0  0  0  0  0  0  0  0  0  0  # atno 17370 bound_to 10713
  157.5359  130.8089  149.7972 LP  0  0  0  0  0  0  0  0  0  0  0  0  # atno 17371 bound_to 10713
  140.0014  134.6830  155.9524 LP  0  0  0  0  0  0  0  0  0  0  0  0  # atno 17394 bound_to 11000
  141.1669  133.6537  156.4511 LP  0  0  0  0  0  0  0  0  0  0  0  0  # atno 17395 bound_to 11000

$$$$
