AV-unprocessed.smi:893|AV-procd|sdf|4070|dock10
  -GOLD-   22720 1553D 1   1.00000     0.00000
 Structure written by MMmdl.
 26 27  0  0  0  0  0  0  0  0  2 V2000
  152.9805  138.1060  159.9285 C   0  0  0  0  0  0  0  0  0  0  0  0
  153.2401  138.5514  158.4763 C   0  0  0  0  0  0  0  0  0  0  0  0
  152.3177  139.6712  157.9203 C   0  0  1  0  0  0  0  0  0  0  0  0
  152.4960  140.9522  158.7204 C   0  0  0  0  0  0  0  0  0  0  0  0
  153.3288  141.1615  159.8604 C   0  0  0  0  0  0  0  0  0  0  0  0
  153.2666  142.3948  160.3351 N   0  0  0  0  0  0  0  0  0  0  0  0
  152.3975  143.0217  159.5180 N   0  0  0  0  0  0  0  0  0  0  0  0
  152.0825  144.4158  159.7442 C   0  0  0  0  0  0  0  0  0  0  0  0
  151.9201  142.1810  158.5368 C   0  0  0  0  0  0  0  0  0  0  0  0
  152.5652  139.8775  156.4987 N   0  5  0  0  0  0  0  0  0  0  0  0
  151.4074  139.6864  155.8223 C   0  0  0  0  0  0  0  0  0  0  0  0
  151.2182  139.7871  154.6123 O   0  0  0  0  0  0  0  0  0  0  0  0
  150.4212  139.3495  156.6594 N   0  0  0  0  0  0  0  0  0  0  0  0
  150.8425  139.2886  157.9190 C   0  0  0  0  0  0  0  0  0  0  0  0
  150.1817  138.9776  158.9099 O   0  0  0  0  0  0  0  0  0  0  0  0
  153.6621  137.3032  160.2097 H   0  0  0  0  0  0  0  0  0  0  0  0
  151.9650  137.7312  160.0567 H   0  0  0  0  0  0  0  0  0  0  0  0
  153.1305  138.9214  160.6358 H   0  0  0  0  0  0  0  0  0  0  0  0
  154.2792  138.8764  158.4102 H   0  0  0  0  0  0  0  0  0  0  0  0
  153.1665  137.6774  157.8278 H   0  0  0  0  0  0  0  0  0  0  0  0
  153.9732  140.4503  160.3559 H   0  0  0  0  0  0  0  0  0  0  0  0
  151.3596  144.7605  159.0041 H   0  0  0  0  0  0  0  0  0  0  0  0
  152.9883  145.0171  159.6616 H   0  0  0  0  0  0  0  0  0  0  0  0
  151.6569  144.5416  160.7402 H   0  0  0  0  0  0  0  0  0  0  0  0
  151.2137  142.5206  157.7934 H   0  0  0  0  0  0  0  0  0  0  0  0
  149.4760  139.1505  156.3677 H   0  0  0  0  0  0  0  0  0  0  0  0
  1  2  1  0  0  0  0
  1 16  1  0  0  0  0
  1 17  1  0  0  0  0
  1 18  1  0  0  0  0
  2  3  1  0  0  0  0
  2 19  1  0  0  0  0
  2 20  1  0  0  0  0
  3 14  1  0  0  0  0
  3  4  1  0  0  0  0
  3 10  1  0  0  0  0
  4  9  2  0  0  0  0
  4  5  1  0  0  0  0
  5  6  2  0  0  0  0
  5 21  1  0  0  0  0
  6  7  1  0  0  0  0
  7  8  1  0  0  0  0
  7  9  1  0  0  0  0
  8 22  1  0  0  0  0
  8 23  1  0  0  0  0
  8 24  1  0  0  0  0
  9 25  1  0  0  0  0
 10 11  1  0  0  0  0
 11 12  2  0  0  0  0
 11 13  1  0  0  0  0
 13 14  1  0  0  0  0
 13 26  1  0  0  0  0
 14 15  2  0  0  0  0
M  CHG  1  10  -1
M  END
> <s_m_source_file>
AV-unprocessed.smi

> <i_m_source_file_index>
893

> <i_lp_mmshare_version>
43012

> <i_f3d_flags>
0

> <s_epik_input>
Tz1DMVtOSF1DKD1PKVtOSF1bQ0BAXTEoW0NIMl1bQ0gzXSljMltjSF1ubihbQ0gzXSlbY0hdMg==

> <s_epik_cmdline>
J2VwaWtfcHl0aG9uJywgJy1waCcsICc3LjAnLCAnLXRuJywgJzgnLCAnLW1hJywgJzIwMCcsICctbWV0YWxfYmluZGluZycsICctaW1hZScsICc8aW5maWxlLm1hZT4nLCAnLW9tYWUnLCAnPG91dGZpbGUubWFlPic=

> <r_lp_tautomer_probability>
1

> <r_epik_Ionization_Penalty>
4.97057

> <r_epik_Ionization_Penalty_Charging>
4.97009

> <r_epik_Ionization_Penalty_Neutral>
0.000472554

> <r_epik_State_Penalty>
4.98892

> <r_epik_Charging_Adjusted_Penalty>
9.95901

> <i_epik_Tot_Q>
-1

> <i_epik_Tot_abs_Q>
1

> <r_epik_Metal_State_Penalty>
1.41037

> <b_epik_Metal_Only>
1

> <s_lp_Force_Field>
OPLS_2005

> <r_lp_Energy>
9.72866

> <b_lp_Chiralities_Consistent>
1

> <s_lp_Variant>
AV-unprocessed.smi:893-5

> <Gold.Version>
5.8.1

> <Gold.Id.Protein>
6NUR|6NUR_protein|mol2

> <Gold.PLP.Fitness>
36.0990

> <Gold.PLP.PLP>
-27.1403

> <Gold.PLP.part.hbond>
-2.5734

> <Gold.PLP.part.metal>
0.0000

> <Gold.PLP.part.buried>
-4.0290

> <Gold.PLP.part.nonpolar>
-20.7186

> <Gold.PLP.part.repulsive>
0.0974

> <Gold.PLP.ligand.clash>
0.0000

> <Gold.PLP.ligand.torsion>
0.0645

> <Gold.PLP.Chemscore.Hbond>
3.0000

> <Gold.PLP.Chemscore.CHOScore>
0.0000

> <Gold.PLP.Chemscore.Metal>
0.0000

> <Gold.Chemscore.Hbonds>
donor molecule, donor type, donor heavy atom, donor atom, acceptor molecule, acceptor atom, score
      P1  H  7989  7998       L1    12  1.00
      P1  H  7997  8010       L1    10  2.00

> <Gold.PLP.Chemscore.Internal.Correction>
0.0877

> <Gold.Rescore>
     Score         DG    S(hbond)    S(metal)    S(lipo)     H(rot)  DE(clash)    DE(int)     intcor
     15.09     -15.14       1.96        0.00      54.54       1.28       0.00       0.05       ----

> <Gold.Chemscore.Fitness>
15.0865

> <Gold.Chemscore.DG>
-15.1443

> <Gold.Chemscore.ZeroCoef>
-5.4800

> <Gold.Chemscore.Hbond>
1.9643

> <Gold.Chemscore.Metal>
0.0000

> <Gold.Chemscore.Lipo>
54.5440

> <Gold.Chemscore.Internal_Hbond>
0.0000

> <Gold.Chemscore.DEClash>
0.0047

> <Gold.Chemscore.DEInternal>
0.0531

> <Gold.Chemscore.Rot>
1.2805

> <Gold.Chemscore.Internal.Correction>
   9.000000E+99

> <Gold.Chemscore.Hbonds>
donor molecule, donor type, donor heavy atom, donor atom, acceptor molecule, acceptor atom, score
      P1  H  7989  7998       L1    12  0.99
      P1  H  7997  8010       L1    10  0.50

> <Gold.Chemscore.Hbond.Weighted>
-6.5608

> <Gold.Chemscore.Metal.Weighted>
-0.0000

> <Gold.Chemscore.Lipo.Weighted>
-6.3817

> <Gold.Chemscore.Internal_Hbond.Weighted>
0.0000

> <Gold.Chemscore.DEClash.Weighted>
0.0047

> <Gold.Chemscore.DEInternal.Weighted>
0.0531

> <Gold.Chemscore.Rot.Weighted>
3.2782

> <Gold.Chemscore.Internal.Correction.Weighted>
   9.000000E+99

> <Gold.Protein.RotatedTorsions>
[ 6907 6896 6895 6894 ] final   51.25 input  -60.11 | X-H torsion
[ 7974 7965 7964 7962 ] final  112.47 input  175.53 | X-H torsion
[ 8008 7997 7996 7995 ] final   76.60 input   59.86 | X-H torsion
[ 10167 10162 10161 10158 ] final -142.72 input  -65.29 | X-H torsion
[ 10718 10713 10712 10709 ] final  -35.65 input   66.30 | X-H torsion
[ 10763 10752 10751 10750 ] final   65.03 input  -60.55 | X-H torsion
[ 11005 11000 10999 10996 ] final  -69.59 input  -57.11 | X-H torsion

> <Gold.Protein.ActiveResidues>
 VAL166  LYS551  ARG553  GLY616  TRP617  ASP618  TYR619  PRO620  LYS621  CYS622 
 ASP623  PHE694  ASN695  SER759  ASP760  ASP761  ALA762  ILE779  LEU786  VAL792 
 PHE793  MET794  SER795  GLU796  ALA797  LYS798  CYS799  TRP800  GLU811  SER814 

> <Gold.Protein.RotatedAtoms>
  152.3106  134.7502  160.0337 H   0  0  0  0  0  0  0  0  0  0  0  0  # atno 6907 bound_to 6896
  151.7984  133.3362  159.3527 H   0  0  0  0  0  0  0  0  0  0  0  0  # atno 6908 bound_to 6896
  150.7318  134.5707  159.5933 H   0  0  0  0  0  0  0  0  0  0  0  0  # atno 6909 bound_to 6896
  145.2291  139.2827  143.4178 H   0  0  0  0  0  0  0  0  0  0  0  0  # atno 7974 bound_to 7965
  155.8296  140.3466  155.5564 H   0  0  0  0  0  0  0  0  0  0  0  0  # atno 8008 bound_to 7997
  155.8256  140.0919  157.1843 H   0  0  0  0  0  0  0  0  0  0  0  0  # atno 8009 bound_to 7997
  154.4004  140.1422  156.3539 H   0  0  0  0  0  0  0  0  0  0  0  0  # atno 8010 bound_to 7997
  139.8061  143.7766  152.2661 H   0  0  0  0  0  0  0  0  0  0  0  0  # atno 10167 bound_to 10162
  156.3361  130.4286  149.7829 H   0  0  0  0  0  0  0  0  0  0  0  0  # atno 10718 bound_to 10713
  153.0079  135.5372  154.6602 H   0  0  0  0  0  0  0  0  0  0  0  0  # atno 10763 bound_to 10752
  154.5813  135.2850  155.0732 H   0  0  0  0  0  0  0  0  0  0  0  0  # atno 10764 bound_to 10752
  154.1860  135.6508  153.5099 H   0  0  0  0  0  0  0  0  0  0  0  0  # atno 10765 bound_to 10752
  141.1557  133.6768  156.6623 H   0  0  0  0  0  0  0  0  0  0  0  0  # atno 11005 bound_to 11000
  146.3357  140.2620  142.8602 LP  0  0  0  0  0  0  0  0  0  0  0  0  # atno 17320 bound_to 7965
  144.9693  140.8353  143.5465 LP  0  0  0  0  0  0  0  0  0  0  0  0  # atno 17321 bound_to 7965
  139.7901  144.7413  150.9967 LP  0  0  0  0  0  0  0  0  0  0  0  0  # atno 17342 bound_to 10162
  140.7819  143.4451  151.0494 LP  0  0  0  0  0  0  0  0  0  0  0  0  # atno 17343 bound_to 10162
  156.5083  130.8160  151.3159 LP  0  0  0  0  0  0  0  0  0  0  0  0  # atno 17370 bound_to 10713
  157.7439  130.9922  150.2628 LP  0  0  0  0  0  0  0  0  0  0  0  0  # atno 17371 bound_to 10713
  140.3238  134.7986  157.4273 LP  0  0  0  0  0  0  0  0  0  0  0  0  # atno 17394 bound_to 11000
  140.1074  134.5390  155.8296 LP  0  0  0  0  0  0  0  0  0  0  0  0  # atno 17395 bound_to 11000

$$$$
