AV-unprocessed.smi:1579|AV-procd|sdf|6354|dock9
  -GOLD-   22720 6573D 1   1.00000     0.00000
 Structure written by MMmdl.
 47 48  0  0  0  0  0  0  0  0  2 V2000
  152.3125  143.3652  160.5574 C   0  0  0  0  0  0  0  0  0  0  0  0
  152.3370  142.1523  159.6667 C   0  0  0  0  0  0  0  0  0  0  0  0
  152.9497  141.1094  160.1228 N   0  0  0  0  0  0  0  0  0  0  0  0
  153.0345  139.9439  159.3865 N   0  0  0  0  0  0  0  0  0  0  0  0
  153.7777  138.8708  160.0610 C   0  0  0  0  0  0  0  0  0  0  0  0
  155.1910  139.3137  160.4989 C   0  0  2  0  0  0  0  0  0  0  0  0
  155.7685  140.0120  159.4133 O   0  0  0  0  0  0  0  0  0  0  0  0
  156.1095  138.1326  160.8850 C   0  0  0  0  0  0  0  0  0  0  0  0
  155.4084  137.0737  161.6557 N   0  3  2  0  0  0  0  0  0  0  0  0
  155.0815  137.5157  163.0360 C   0  0  0  0  0  0  0  0  0  0  0  0
  154.2406  136.4615  163.7748 C   0  0  0  0  0  0  0  0  0  0  0  0
  154.9555  135.1006  163.8077 C   0  0  1  0  0  0  0  0  0  0  0  0
  154.1143  134.0331  164.5215 C   0  0  0  0  0  0  0  0  0  0  0  0
  155.3098  134.6830  162.3709 C   0  0  0  0  0  0  0  0  0  0  0  0
  156.1295  135.7723  161.6586 C   0  0  0  0  0  0  0  0  0  0  0  0
  152.4895  139.7678  158.1485 C   0  0  0  0  0  0  0  0  0  0  0  0
  152.5643  138.7018  157.5358 O   0  0  0  0  0  0  0  0  0  0  0  0
  151.8010  140.9541  157.6355 C   0  0  0  0  0  0  0  0  0  0  0  0
  151.2235  140.8136  156.3378 C   0  0  0  0  0  0  0  0  0  0  0  0
  150.7593  140.6808  155.2859 N   0  0  0  0  0  0  0  0  0  0  0  0
  151.7155  142.1056  158.3473 C   0  0  0  0  0  0  0  0  0  0  0  0
  151.0100  143.3636  157.8597 C   0  0  0  0  0  0  0  0  0  0  0  0
  152.7558  144.2249  160.0543 H   0  0  0  0  0  0  0  0  0  0  0  0
  152.8687  143.2032  161.4821 H   0  0  0  0  0  0  0  0  0  0  0  0
  151.2893  143.6232  160.8307 H   0  0  0  0  0  0  0  0  0  0  0  0
  153.2268  138.4706  160.9140 H   0  0  0  0  0  0  0  0  0  0  0  0
  153.8621  138.0322  159.3668 H   0  0  0  0  0  0  0  0  0  0  0  0
  155.0914  140.0156  161.3260 H   0  0  0  0  0  0  0  0  0  0  0  0
  156.5849  140.3963  159.6930 H   0  0  0  0  0  0  0  0  0  0  0  0
  156.5495  137.6734  159.9998 H   0  0  0  0  0  0  0  0  0  0  0  0
  156.9443  138.5249  161.4681 H   0  0  0  0  0  0  0  0  0  0  0  0
  156.0036  137.7154  163.5843 H   0  0  0  0  0  0  0  0  0  0  0  0
  154.5242  138.4527  163.0004 H   0  0  0  0  0  0  0  0  0  0  0  0
  154.0373  136.8018  164.7910 H   0  0  0  0  0  0  0  0  0  0  0  0
  153.2714  136.3602  163.2840 H   0  0  0  0  0  0  0  0  0  0  0  0
  155.8854  135.2175  164.3665 H   0  0  0  0  0  0  0  0  0  0  0  0
  153.1661  133.8652  164.0093 H   0  0  0  0  0  0  0  0  0  0  0  0
  153.8906  134.3311  165.5463 H   0  0  0  0  0  0  0  0  0  0  0  0
  154.6430  133.0805  164.5643 H   0  0  0  0  0  0  0  0  0  0  0  0
  155.8733  133.7493  162.3818 H   0  0  0  0  0  0  0  0  0  0  0  0
  154.3977  134.4857  161.8056 H   0  0  0  0  0  0  0  0  0  0  0  0
  156.3328  135.4460  160.6396 H   0  0  0  0  0  0  0  0  0  0  0  0
  157.0973  135.8918  162.1485 H   0  0  0  0  0  0  0  0  0  0  0  0
  150.5132  143.2134  156.9016 H   0  0  0  0  0  0  0  0  0  0  0  0
  151.7255  144.1769  157.7346 H   0  0  0  0  0  0  0  0  0  0  0  0
  150.2489  143.6809  158.5730 H   0  0  0  0  0  0  0  0  0  0  0  0
  154.5231  136.9233  161.1941 H   0  0  0  0  0  0  0  0  0  0  0  0
  1  2  1  0  0  0  0
  1 23  1  0  0  0  0
  1 24  1  0  0  0  0
  1 25  1  0  0  0  0
  2 21  1  0  0  0  0
  2  3  2  0  0  0  0
  3  4  1  0  0  0  0
  4  5  1  0  0  0  0
  4 16  1  0  0  0  0
  5  6  1  0  0  0  0
  5 26  1  0  0  0  0
  5 27  1  0  0  0  0
  6  7  1  0  0  0  0
  6  8  1  0  0  0  0
  6 28  1  0  0  0  0
  7 29  1  0  0  0  0
  8  9  1  0  0  0  0
  8 30  1  0  0  0  0
  8 31  1  0  0  0  0
  9 15  1  0  0  0  0
  9 10  1  0  0  0  0
  9 47  1  0  0  0  0
 10 11  1  0  0  0  0
 10 32  1  0  0  0  0
 10 33  1  0  0  0  0
 11 12  1  0  0  0  0
 11 34  1  0  0  0  0
 11 35  1  0  0  0  0
 12 13  1  0  0  0  0
 12 14  1  0  0  0  0
 12 36  1  0  0  0  0
 13 37  1  0  0  0  0
 13 38  1  0  0  0  0
 13 39  1  0  0  0  0
 14 15  1  0  0  0  0
 14 40  1  0  0  0  0
 14 41  1  0  0  0  0
 15 42  1  0  0  0  0
 15 43  1  0  0  0  0
 16 17  2  0  0  0  0
 16 18  1  0  0  0  0
 18 19  1  0  0  0  0
 18 21  2  0  0  0  0
 19 20  3  0  0  0  0
 21 22  1  0  0  0  0
 22 44  1  0  0  0  0
 22 45  1  0  0  0  0
 22 46  1  0  0  0  0
M  CHG  1   9   1
M  END
> <s_m_source_file>
AV-unprocessed.smi

> <i_m_source_file_index>
1579

> <i_lp_mmshare_version>
43012

> <i_f3d_flags>
0

> <s_epik_input>
TiNDYyhjMVtDSDNdKWMoPU8pbihuYzFbQ0gzXSlbQ0gyXVtDQEhdKFtPSF0pW0NIMl1OMltDSDJdW0NIMl1bQ0hdKFtDSDNdKVtDSDJdW0NIMl0y

> <s_epik_cmdline>
J2VwaWtfcHl0aG9uJywgJy1waCcsICc3LjAnLCAnLXRuJywgJzgnLCAnLW1hJywgJzIwMCcsICctbWV0YWxfYmluZGluZycsICctaW1hZScsICc8aW5maWxlLm1hZT4nLCAnLW9tYWUnLCAnPG91dGZpbGUubWFlPic=

> <r_epik_Ionization_Penalty>
0.00136816

> <r_epik_Ionization_Penalty_Charging>
0.00136813

> <r_epik_Ionization_Penalty_Neutral>
3.19884e-08

> <r_epik_State_Penalty>
0.000910892

> <r_epik_Charging_Adjusted_Penalty>
0.00227902

> <i_epik_Tot_Q>
1

> <i_epik_Tot_abs_Q>
1

> <r_epik_Metal_State_Penalty>
-0

> <b_epik_Metal_Only>
0

> <s_lp_Force_Field>
OPLS_2005

> <r_lp_Energy>
36.6054

> <b_lp_Chiralities_Consistent>
1

> <s_lp_Variant>
AV-unprocessed.smi:1579-1

> <Gold.Version>
5.8.1

> <Gold.Id.Protein>
6NUR|6NUR_protein|mol2

> <Gold.PLP.Fitness>
42.4276

> <Gold.PLP.PLP>
-37.2814

> <Gold.PLP.part.hbond>
-2.0000

> <Gold.PLP.part.metal>
0.0000

> <Gold.PLP.part.buried>
-4.7079

> <Gold.PLP.part.nonpolar>
-30.8876

> <Gold.PLP.part.repulsive>
0.0541

> <Gold.PLP.ligand.clash>
0.0000

> <Gold.PLP.ligand.torsion>
0.4361

> <Gold.PLP.Chemscore.Hbond>
2.0000

> <Gold.PLP.Chemscore.CHOScore>
0.0000

> <Gold.PLP.Chemscore.Metal>
0.0000

> <Gold.Chemscore.Hbonds>
donor molecule, donor type, donor heavy atom, donor atom, acceptor molecule, acceptor atom, score
      P1  H  7989  7998       L1    20  0.90
      P1  H  7997  8010       L1     7  0.91

> <Gold.PLP.Chemscore.Internal.Correction>
0.0184

> <Gold.Rescore>
     Score         DG    S(hbond)    S(metal)    S(lipo)     H(rot)  DE(clash)    DE(int)     intcor
     17.90     -18.31       1.85        0.00     104.35       2.17       0.06       0.35       ----

> <Gold.Chemscore.Fitness>
17.8995

> <Gold.Chemscore.DG>
-18.3098

> <Gold.Chemscore.ZeroCoef>
-5.4800

> <Gold.Chemscore.Hbond>
1.8503

> <Gold.Chemscore.Metal>
0.0000

> <Gold.Chemscore.Lipo>
104.3500

> <Gold.Chemscore.Internal_Hbond>
0.0000

> <Gold.Chemscore.DEClash>
0.0648

> <Gold.Chemscore.DEInternal>
0.3455

> <Gold.Chemscore.Rot>
2.1715

> <Gold.Chemscore.Internal.Correction>
   9.000000E+99

> <Gold.Chemscore.Hbonds>
donor molecule, donor type, donor heavy atom, donor atom, acceptor molecule, acceptor atom, score
      P1  H  7989  7998       L1    20  0.85
      P1  H  7997  8010       L1     7  0.74

> <Gold.Chemscore.Hbond.Weighted>
-6.1799

> <Gold.Chemscore.Metal.Weighted>
-0.0000

> <Gold.Chemscore.Lipo.Weighted>
-12.2089

> <Gold.Chemscore.Internal_Hbond.Weighted>
0.0000

> <Gold.Chemscore.DEClash.Weighted>
0.0648

> <Gold.Chemscore.DEInternal.Weighted>
0.3455

> <Gold.Chemscore.Rot.Weighted>
5.5591

> <Gold.Chemscore.Internal.Correction.Weighted>
   9.000000E+99

> <Gold.Protein.RotatedTorsions>
[ 6907 6896 6895 6894 ] final  136.28 input  -60.11 | X-H torsion
[ 7974 7965 7964 7962 ] final -135.94 input  175.53 | X-H torsion
[ 8008 7997 7996 7995 ] final  -20.76 input   59.86 | X-H torsion
[ 10167 10162 10161 10158 ] final    2.85 input  -65.29 | X-H torsion
[ 10718 10713 10712 10709 ] final -175.47 input   66.30 | X-H torsion
[ 10763 10752 10751 10750 ] final  -64.74 input  -60.55 | X-H torsion
[ 11005 11000 10999 10996 ] final -159.73 input  -57.11 | X-H torsion

> <Gold.Protein.ActiveResidues>
 VAL166  LYS551  ARG553  GLY616  TRP617  ASP618  TYR619  PRO620  LYS621  CYS622 
 ASP623  PHE694  ASN695  SER759  ASP760  ASP761  ALA762  ILE779  LEU786  VAL792 
 PHE793  MET794  SER795  GLU796  ALA797  LYS798  CYS799  TRP800  GLU811  SER814 

> <Gold.Protein.RotatedAtoms>
  152.2910  133.5562  159.5557 H   0  0  0  0  0  0  0  0  0  0  0  0  # atno 6907 bound_to 6896
  150.7235  134.0428  159.3780 H   0  0  0  0  0  0  0  0  0  0  0  0  # atno 6908 bound_to 6896
  151.8334  135.0614  160.0490 H   0  0  0  0  0  0  0  0  0  0  0  0  # atno 6909 bound_to 6896
  144.8970  140.6720  143.5109 H   0  0  0  0  0  0  0  0  0  0  0  0  # atno 7974 bound_to 7965
  154.4749  140.2053  155.9904 H   0  0  0  0  0  0  0  0  0  0  0  0  # atno 8008 bound_to 7997
  156.1072  140.3235  155.7992 H   0  0  0  0  0  0  0  0  0  0  0  0  # atno 8009 bound_to 7997
  155.4697  140.0530  157.2972 H   0  0  0  0  0  0  0  0  0  0  0  0  # atno 8010 bound_to 7997
  140.6615  143.7292  150.7747 H   0  0  0  0  0  0  0  0  0  0  0  0  # atno 10167 bound_to 10162
  156.8004  130.9550  151.3119 H   0  0  0  0  0  0  0  0  0  0  0  0  # atno 10718 bound_to 10713
  154.3346  135.6169  153.5567 H   0  0  0  0  0  0  0  0  0  0  0  0  # atno 10763 bound_to 10752
  152.9809  135.5755  154.4923 H   0  0  0  0  0  0  0  0  0  0  0  0  # atno 10764 bound_to 10752
  154.4615  135.2856  155.1686 H   0  0  0  0  0  0  0  0  0  0  0  0  # atno 10765 bound_to 10752
  140.6394  134.4568  157.5233 H   0  0  0  0  0  0  0  0  0  0  0  0  # atno 11005 bound_to 11000
  145.3683  139.1665  143.4346 LP  0  0  0  0  0  0  0  0  0  0  0  0  # atno 17320 bound_to 7965
  146.3087  140.3752  142.8678 LP  0  0  0  0  0  0  0  0  0  0  0  0  # atno 17321 bound_to 7965
  140.0961  143.4831  152.2451 LP  0  0  0  0  0  0  0  0  0  0  0  0  # atno 17342 bound_to 10162
  139.5850  144.7527  151.3543 LP  0  0  0  0  0  0  0  0  0  0  0  0  # atno 17343 bound_to 10162
  157.6557  130.8922  149.9723 LP  0  0  0  0  0  0  0  0  0  0  0  0  # atno 17370 bound_to 10713
  156.1105  130.3650  150.0058 LP  0  0  0  0  0  0  0  0  0  0  0  0  # atno 17371 bound_to 10713
  139.9086  134.8394  156.1612 LP  0  0  0  0  0  0  0  0  0  0  0  0  # atno 17394 bound_to 11000
  141.0618  133.6838  156.1967 LP  0  0  0  0  0  0  0  0  0  0  0  0  # atno 17395 bound_to 11000

$$$$
