AV-unprocessed.smi:203|AV-procd|sdf|1593|dock8
  -GOLD-   2262019493D 1   1.00000     0.00000
 Structure written by MMmdl.
 57 61  0  0  0  0  0  0  0  0  1 V2000
  152.3551  136.7142  159.6494 O   0  0  0  0  0  0  0  0  0  0  0  0
  151.7788  137.7525  159.3337 C   0  0  0  0  0  0  0  0  0  0  0  0
  152.4480  139.1169  159.3364 C   0  0  0  0  0  0  0  0  0  0  0  0
  151.4241  139.9941  158.5925 C   0  0  2  0  0  0  0  0  0  0  0  0
  151.3635  141.4996  158.9988 C   0  0  1  0  0  0  0  0  0  0  0  0
  152.7515  142.0895  159.3660 C   0  0  0  0  0  0  0  0  0  0  0  0
  152.6563  143.5703  159.7576 C   0  0  0  0  0  0  0  0  0  0  0  0
  151.9895  144.3663  158.6317 C   0  0  0  0  0  0  0  0  0  0  0  0
  150.6179  143.7668  158.2974 C   0  0  0  0  0  0  0  0  0  0  0  0
  150.7217  142.3440  157.9736 N   0  0  0  0  0  0  0  0  0  0  0  0
  149.5497  141.9041  157.4617 C   0  0  0  0  0  0  0  0  0  0  0  0
  148.4894  141.8490  158.3048 N   0  0  0  0  0  0  0  0  0  0  0  0
  147.3041  141.4214  157.8594 C   0  0  0  0  0  0  0  0  0  0  0  0
  146.9725  141.0050  156.6354 N   0  0  0  0  0  0  0  0  0  0  0  0
  148.0415  141.0501  155.7893 C   0  0  0  0  0  0  0  0  0  0  0  0
  149.3573  141.4808  156.1161 C   0  0  0  0  0  0  0  0  0  0  0  0
  150.1809  141.3787  155.0013 N   0  0  0  0  0  0  0  0  0  0  0  0
  149.3979  140.9072  154.0696 C   0  0  0  0  0  0  0  0  0  0  0  0
  148.0986  140.6751  154.4586 N   0  0  0  0  0  0  0  0  0  0  0  0
  147.0315  140.1342  153.6368 C   0  0  0  0  0  0  0  0  0  0  0  0
  146.7494  138.6441  153.9235 C   0  0  2  0  0  0  0  0  0  0  0  0
  147.9995  137.9905  154.0129 O   0  0  0  0  0  0  0  0  0  0  0  0
  145.8867  137.9429  152.8500 C   0  0  1  0  0  0  0  0  0  0  0  0
  146.4311  138.0412  151.4243 C   0  0  0  0  0  0  0  0  0  0  0  0
  145.7604  136.8769  150.7144 C   0  0  0  0  0  0  0  0  0  0  0  0
  145.3559  135.9378  151.8542 C   0  0  0  0  0  0  0  0  0  0  0  0
  145.8807  136.5343  153.0321 O   0  0  0  0  0  0  0  0  0  0  0  0
  150.0970  139.2130  158.6693 C   0  0  0  0  0  0  0  0  0  0  0  0
  150.5077  137.8499  158.9447 N   0  0  0  0  0  0  0  0  0  0  0  0
  152.6100  139.4272  160.3671 H   0  0  0  0  0  0  0  0  0  0  0  0
  153.4126  139.0909  158.8284 H   0  0  0  0  0  0  0  0  0  0  0  0
  151.7002  139.9426  157.5384 H   0  0  0  0  0  0  0  0  0  0  0  0
  150.7487  141.5663  159.8967 H   0  0  0  0  0  0  0  0  0  0  0  0
  153.2035  141.5477  160.1944 H   0  0  0  0  0  0  0  0  0  0  0  0
  153.4406  141.9985  158.5272 H   0  0  0  0  0  0  0  0  0  0  0  0
  152.0788  143.6740  160.6771 H   0  0  0  0  0  0  0  0  0  0  0  0
  153.6497  143.9697  159.9636 H   0  0  0  0  0  0  0  0  0  0  0  0
  151.8803  145.4113  158.9231 H   0  0  0  0  0  0  0  0  0  0  0  0
  152.6231  144.3531  157.7440 H   0  0  0  0  0  0  0  0  0  0  0  0
  149.9433  143.8950  159.1454 H   0  0  0  0  0  0  0  0  0  0  0  0
  150.1798  144.3108  157.4590 H   0  0  0  0  0  0  0  0  0  0  0  0
  146.5078  141.4097  158.5888 H   0  0  0  0  0  0  0  0  0  0  0  0
  149.7506  140.7052  153.0687 H   0  0  0  0  0  0  0  0  0  0  0  0
  146.1320  140.7296  153.8004 H   0  0  0  0  0  0  0  0  0  0  0  0
  147.3077  140.2722  152.5908 H   0  0  0  0  0  0  0  0  0  0  0  0
  146.2608  138.5479  154.8939 H   0  0  0  0  0  0  0  0  0  0  0  0
  148.2278  137.6609  153.1572 H   0  0  0  0  0  0  0  0  0  0  0  0
  144.8606  138.3153  152.8817 H   0  0  0  0  0  0  0  0  0  0  0  0
  146.2201  139.0018  150.9536 H   0  0  0  0  0  0  0  0  0  0  0  0
  147.5124  137.8956  151.4255 H   0  0  0  0  0  0  0  0  0  0  0  0
  144.8774  137.2094  150.1676 H   0  0  0  0  0  0  0  0  0  0  0  0
  146.4361  136.3984  150.0050 H   0  0  0  0  0  0  0  0  0  0  0  0
  144.2698  135.8722  151.9344 H   0  0  0  0  0  0  0  0  0  0  0  0
  145.7505  134.9296  151.7257 H   0  0  0  0  0  0  0  0  0  0  0  0
  149.4460  139.5413  159.4769 H   0  0  0  0  0  0  0  0  0  0  0  0
  149.5343  139.2745  157.7372 H   0  0  0  0  0  0  0  0  0  0  0  0
  149.8768  137.0651  158.8701 H   0  0  0  0  0  0  0  0  0  0  0  0
  1  2  2  0  0  0  0
  2 29  1  0  0  0  0
  2  3  1  0  0  0  0
  3  4  1  0  0  0  0
  3 30  1  0  0  0  0
  3 31  1  0  0  0  0
  4  5  1  0  0  0  0
  4 28  1  0  0  0  0
  4 32  1  0  0  0  0
  5 10  1  0  0  0  0
  5  6  1  0  0  0  0
  5 33  1  0  0  0  0
  6  7  1  0  0  0  0
  6 34  1  0  0  0  0
  6 35  1  0  0  0  0
  7  8  1  0  0  0  0
  7 36  1  0  0  0  0
  7 37  1  0  0  0  0
  8  9  1  0  0  0  0
  8 38  1  0  0  0  0
  8 39  1  0  0  0  0
  9 10  1  0  0  0  0
  9 40  1  0  0  0  0
  9 41  1  0  0  0  0
 10 11  1  0  0  0  0
 11 16  1  0  0  0  0
 11 12  2  0  0  0  0
 12 13  1  0  0  0  0
 13 14  2  0  0  0  0
 13 42  1  0  0  0  0
 14 15  1  0  0  0  0
 15 19  1  0  0  0  0
 15 16  2  0  0  0  0
 16 17  1  0  0  0  0
 17 18  2  0  0  0  0
 18 19  1  0  0  0  0
 18 43  1  0  0  0  0
 19 20  1  0  0  0  0
 20 21  1  0  0  0  0
 20 44  1  0  0  0  0
 20 45  1  0  0  0  0
 21 22  1  0  0  0  0
 21 23  1  0  0  0  0
 21 46  1  0  0  0  0
 22 47  1  0  0  0  0
 23 27  1  0  0  0  0
 23 24  1  0  0  0  0
 23 48  1  0  0  0  0
 24 25  1  0  0  0  0
 24 49  1  0  0  0  0
 24 50  1  0  0  0  0
 25 26  1  0  0  0  0
 25 51  1  0  0  0  0
 25 52  1  0  0  0  0
 26 27  1  0  0  0  0
 26 53  1  0  0  0  0
 26 54  1  0  0  0  0
 28 29  1  0  0  0  0
 28 55  1  0  0  0  0
 28 56  1  0  0  0  0
 29 57  1  0  0  0  0
M  END
> <s_m_source_file>
AV-unprocessed.smi

> <i_m_source_file_index>
203

> <i_lp_mmshare_version>
43012

> <i_f3d_flags>
0

> <s_epik_input>
Tz1DMVtDSDJdW0NASF0oW0NIMl1bTkhdMSlbQ0BASF0yW0NIMl1bQ0gyXVtDSDJdW0NIMl1OMmMobltjSF1uMyljKGMzNCluW2NIXW40W0NIMl1bQ0BIXShbT0hdKVtDQEBIXTVbQ0gyXVtDSDJdW0NIMl1PNQ==

> <s_epik_cmdline>
J2VwaWtfcHl0aG9uJywgJy1waCcsICc3LjAnLCAnLXRuJywgJzgnLCAnLW1hJywgJzIwMCcsICctbWV0YWxfYmluZGluZycsICctaW1hZScsICc8aW5maWxlLm1hZT4nLCAnLW9tYWUnLCAnPG91dGZpbGUubWFlPic=

> <r_lp_tautomer_probability>
1

> <r_epik_Ionization_Penalty>
0.00175146

> <r_epik_Ionization_Penalty_Charging>
0

> <r_epik_Ionization_Penalty_Neutral>
0.00175146

> <r_epik_State_Penalty>
0.00109045

> <r_epik_Charging_Adjusted_Penalty>
0.00109045

> <i_epik_Tot_Q>
0

> <i_epik_Tot_abs_Q>
0

> <r_epik_Metal_State_Penalty>
-0

> <b_epik_Metal_Only>
0

> <s_lp_Force_Field>
OPLS_2005

> <r_lp_Energy>
55.5443

> <b_lp_Chiralities_Consistent>
1

> <s_lp_Variant>
AV-unprocessed.smi:203-12

> <Gold.Version>
5.8.1

> <Gold.Id.Protein>
6NUR|6NUR_protein|mol2

> <Gold.PLP.Fitness>
48.2110

> <Gold.PLP.PLP>
-40.7103

> <Gold.PLP.part.hbond>
-3.2523

> <Gold.PLP.part.metal>
0.0000

> <Gold.PLP.part.buried>
3.9129

> <Gold.PLP.part.nonpolar>
-42.5725

> <Gold.PLP.part.repulsive>
0.8370

> <Gold.PLP.ligand.clash>
0.0000

> <Gold.PLP.ligand.torsion>
0.8895

> <Gold.PLP.Chemscore.Hbond>
2.0000

> <Gold.PLP.Chemscore.CHOScore>
1.0000

> <Gold.PLP.Chemscore.Metal>
0.0000

> <Gold.Chemscore.Hbonds>
donor molecule, donor type, donor heavy atom, donor atom, acceptor molecule, acceptor atom, score
      L1  H    22    47       P1  7948  0.94
      P1  H  6896  6908       L1     1  1.00
      L1  C    18    43       P1  7957  0.97

> <Gold.PLP.Chemscore.Internal.Correction>
0.2797

> <Gold.Rescore>
     Score         DG    S(hbond)    S(metal)    S(lipo)     H(rot)  DE(clash)    DE(int)     intcor
     14.09     -17.42       1.93        0.00     106.32       2.72       2.30       1.02       ----

> <Gold.Chemscore.Fitness>
14.0938

> <Gold.Chemscore.DG>
-17.4192

> <Gold.Chemscore.ZeroCoef>
-5.4800

> <Gold.Chemscore.Hbond>
1.9326

> <Gold.Chemscore.Metal>
0.0000

> <Gold.Chemscore.Lipo>
106.3244

> <Gold.Chemscore.Internal_Hbond>
0.0000

> <Gold.Chemscore.DEClash>
2.3017

> <Gold.Chemscore.DEInternal>
1.0237

> <Gold.Chemscore.Rot>
2.7171

> <Gold.Chemscore.Internal.Correction>
   9.000000E+99

> <Gold.Chemscore.Hbonds>
donor molecule, donor type, donor heavy atom, donor atom, acceptor molecule, acceptor atom, score
      L1  H    22    47       P1  7948  0.88
      P1  H  6896  6908       L1     1  1.00

> <Gold.Chemscore.Hbond.Weighted>
-6.4549

> <Gold.Chemscore.Metal.Weighted>
-0.0000

> <Gold.Chemscore.Lipo.Weighted>
-12.4400

> <Gold.Chemscore.Internal_Hbond.Weighted>
0.0000

> <Gold.Chemscore.DEClash.Weighted>
2.3017

> <Gold.Chemscore.DEInternal.Weighted>
1.0237

> <Gold.Chemscore.Rot.Weighted>
6.9557

> <Gold.Chemscore.Internal.Correction.Weighted>
   9.000000E+99

> <Gold.Protein.RotatedTorsions>
[ 6907 6896 6895 6894 ] final  -97.22 input  -60.11 | X-H torsion
[ 7974 7965 7964 7962 ] final   66.81 input  175.53 | X-H torsion
[ 8008 7997 7996 7995 ] final   11.80 input   59.86 | X-H torsion
[ 10167 10162 10161 10158 ] final -175.75 input  -65.29 | X-H torsion
[ 10718 10713 10712 10709 ] final   11.07 input   66.30 | X-H torsion
[ 10763 10752 10751 10750 ] final   32.48 input  -60.55 | X-H torsion
[ 11005 11000 10999 10996 ] final -162.72 input  -57.11 | X-H torsion

> <Gold.Protein.ActiveResidues>
 VAL166  LYS551  ARG553  GLY616  TRP617  ASP618  TYR619  PRO620  LYS621  CYS622 
 ASP623  PHE694  ASN695  SER759  ASP760  ASP761  ALA762  ILE779  LEU786  VAL792 
 PHE793  MET794  SER795  GLU796  ALA797  LYS798  CYS799  TRP800  GLU811  SER814 

> <Gold.Protein.RotatedAtoms>
  150.7010  134.1381  159.4094 H   0  0  0  0  0  0  0  0  0  0  0  0  # atno 6907 bound_to 6896
  151.9366  135.0230  160.0542 H   0  0  0  0  0  0  0  0  0  0  0  0  # atno 6908 bound_to 6896
  152.2130  133.4890  159.5157 H   0  0  0  0  0  0  0  0  0  0  0  0  # atno 6909 bound_to 6896
  145.8222  139.3091  143.1036 H   0  0  0  0  0  0  0  0  0  0  0  0  # atno 7974 bound_to 7965
  154.8119  140.2869  155.5847 H   0  0  0  0  0  0  0  0  0  0  0  0  # atno 8008 bound_to 7997
  156.2989  140.2566  156.2939 H   0  0  0  0  0  0  0  0  0  0  0  0  # atno 8009 bound_to 7997
  154.9437  140.0381  157.2099 H   0  0  0  0  0  0  0  0  0  0  0  0  # atno 8010 bound_to 7997
  139.5564  144.1977  152.1167 H   0  0  0  0  0  0  0  0  0  0  0  0  # atno 10167 bound_to 10162
  156.9902  130.6039  149.5685 H   0  0  0  0  0  0  0  0  0  0  0  0  # atno 10718 bound_to 10713
  153.0260  135.6412  154.1362 H   0  0  0  0  0  0  0  0  0  0  0  0  # atno 10763 bound_to 10752
  154.1090  135.2854  155.3236 H   0  0  0  0  0  0  0  0  0  0  0  0  # atno 10764 bound_to 10752
  154.6345  135.5481  153.7780 H   0  0  0  0  0  0  0  0  0  0  0  0  # atno 10765 bound_to 10752
  140.6062  134.4897  157.5210 H   0  0  0  0  0  0  0  0  0  0  0  0  # atno 11005 bound_to 11000
  145.9662  140.8796  143.0185 LP  0  0  0  0  0  0  0  0  0  0  0  0  # atno 17320 bound_to 7965
  144.6746  140.1882  143.7399 LP  0  0  0  0  0  0  0  0  0  0  0  0  # atno 17321 bound_to 7965
  140.1482  144.5139  150.6703 LP  0  0  0  0  0  0  0  0  0  0  0  0  # atno 17342 bound_to 10162
  140.6838  143.2339  151.5315 LP  0  0  0  0  0  0  0  0  0  0  0  0  # atno 17343 bound_to 10162
  156.0210  130.5305  150.8275 LP  0  0  0  0  0  0  0  0  0  0  0  0  # atno 17370 bound_to 10713
  157.5464  131.0942  150.9756 LP  0  0  0  0  0  0  0  0  0  0  0  0  # atno 17371 bound_to 10713
  139.9211  134.8146  156.1208 LP  0  0  0  0  0  0  0  0  0  0  0  0  # atno 17394 bound_to 11000
  141.0839  133.6742  156.2395 LP  0  0  0  0  0  0  0  0  0  0  0  0  # atno 17395 bound_to 11000

$$$$
