AV-unprocessed.smi:477|AV-procd|sdf|2670|dock3
  -GOLD-   2262023 83D 1   1.00000     0.00000
 Structure written by MMmdl.
 45 46  0  0  0  0  0  0  0  0  1 V2000
  152.0705  144.0773  161.0024 C   0  0  0  0  0  0  0  0  0  0  0  0
  152.2678  142.9385  160.0384 C   0  0  0  0  0  0  0  0  0  0  0  0
  151.6740  143.0370  158.8947 N   0  0  0  0  0  0  0  0  0  0  0  0
  151.7893  142.0488  157.9361 N   0  0  0  0  0  0  0  0  0  0  0  0
  151.0697  142.3439  156.6886 C   0  0  0  0  0  0  0  0  0  0  0  0
  149.7737  141.5354  156.5298 C   0  0  0  0  0  0  0  0  0  0  0  0
  149.7816  140.3041  156.5659 O   0  0  0  0  0  0  0  0  0  0  0  0
  148.6574  142.2558  156.3459 N   0  0  0  0  0  0  0  0  0  0  0  0
  147.3271  141.6998  156.1259 C   0  0  0  0  0  0  0  0  0  0  0  0
  146.7783  141.9797  154.7116 C   0  0  0  0  0  0  0  0  0  0  0  0
  145.7227  143.0748  154.6638 C   0  0  0  0  0  0  0  0  0  0  0  0
  145.6623  143.9526  153.6437 C   0  0  0  0  0  0  0  0  0  0  0  0
  144.6610  145.0908  153.5542 C   0  0  0  0  0  0  0  0  0  0  0  0
  143.9655  145.3662  154.8978 C   0  0  0  0  0  0  0  0  0  0  0  0
  143.5537  144.0594  155.5866 C   0  0  0  0  0  0  0  0  0  0  0  0
  144.7721  143.1584  155.8546 C   0  0  0  0  0  0  0  0  0  0  0  0
  152.5093  140.9000  158.0879 C   0  0  0  0  0  0  0  0  0  0  0  0
  152.5847  140.0429  157.2062 O   0  0  0  0  0  0  0  0  0  0  0  0
  153.1785  140.7945  159.3864 C   0  0  0  0  0  0  0  0  0  0  0  0
  153.9432  139.6060  159.5869 C   0  0  0  0  0  0  0  0  0  0  0  0
  154.5502  138.6362  159.7638 N   0  0  0  0  0  0  0  0  0  0  0  0
  153.0791  141.7614  160.3328 C   0  0  0  0  0  0  0  0  0  0  0  0
  153.7566  141.6996  161.6950 C   0  0  0  0  0  0  0  0  0  0  0  0
  151.6933  143.7158  161.9593 H   0  0  0  0  0  0  0  0  0  0  0  0
  151.3559  144.8106  160.6251 H   0  0  0  0  0  0  0  0  0  0  0  0
  153.0117  144.5966  161.1837 H   0  0  0  0  0  0  0  0  0  0  0  0
  150.8318  143.4062  156.6143 H   0  0  0  0  0  0  0  0  0  0  0  0
  151.7203  142.1333  155.8374 H   0  0  0  0  0  0  0  0  0  0  0  0
  148.7385  143.2623  156.3321 H   0  0  0  0  0  0  0  0  0  0  0  0
  147.3389  140.6254  156.3161 H   0  0  0  0  0  0  0  0  0  0  0  0
  146.6574  142.1317  156.8701 H   0  0  0  0  0  0  0  0  0  0  0  0
  147.5887  142.2322  154.0266 H   0  0  0  0  0  0  0  0  0  0  0  0
  146.3382  141.0605  154.3231 H   0  0  0  0  0  0  0  0  0  0  0  0
  146.3507  143.8589  152.8162 H   0  0  0  0  0  0  0  0  0  0  0  0
  145.1695  145.9913  153.2091 H   0  0  0  0  0  0  0  0  0  0  0  0
  143.9234  144.8319  152.7941 H   0  0  0  0  0  0  0  0  0  0  0  0
  144.6425  145.9170  155.5522 H   0  0  0  0  0  0  0  0  0  0  0  0
  143.0964  146.0063  154.7438 H   0  0  0  0  0  0  0  0  0  0  0  0
  143.0348  144.2704  156.5220 H   0  0  0  0  0  0  0  0  0  0  0  0
  142.8422  143.5288  154.9523 H   0  0  0  0  0  0  0  0  0  0  0  0
  144.4262  142.1659  156.1385 H   0  0  0  0  0  0  0  0  0  0  0  0
  145.3371  143.5431  156.7041 H   0  0  0  0  0  0  0  0  0  0  0  0
  154.4138  140.8356  161.7893 H   0  0  0  0  0  0  0  0  0  0  0  0
  153.0106  141.6355  162.4877 H   0  0  0  0  0  0  0  0  0  0  0  0
  154.3643  142.5890  161.8648 H   0  0  0  0  0  0  0  0  0  0  0  0
  1  2  1  0  0  0  0
  1 24  1  0  0  0  0
  1 25  1  0  0  0  0
  1 26  1  0  0  0  0
  2 22  1  0  0  0  0
  2  3  2  0  0  0  0
  3  4  1  0  0  0  0
  4  5  1  0  0  0  0
  4 17  1  0  0  0  0
  5  6  1  0  0  0  0
  5 27  1  0  0  0  0
  5 28  1  0  0  0  0
  6  7  2  0  0  0  0
  6  8  1  0  0  0  0
  8  9  1  0  0  0  0
  8 29  1  0  0  0  0
  9 10  1  0  0  0  0
  9 30  1  0  0  0  0
  9 31  1  0  0  0  0
 10 11  1  0  0  0  0
 10 32  1  0  0  0  0
 10 33  1  0  0  0  0
 11 16  1  0  0  0  0
 11 12  2  0  0  0  0
 12 13  1  0  0  0  0
 12 34  1  0  0  0  0
 13 14  1  0  0  0  0
 13 35  1  0  0  0  0
 13 36  1  0  0  0  0
 14 15  1  0  0  0  0
 14 37  1  0  0  0  0
 14 38  1  0  0  0  0
 15 16  1  0  0  0  0
 15 39  1  0  0  0  0
 15 40  1  0  0  0  0
 16 41  1  0  0  0  0
 16 42  1  0  0  0  0
 17 18  2  0  0  0  0
 17 19  1  0  0  0  0
 19 20  1  0  0  0  0
 19 22  2  0  0  0  0
 20 21  3  0  0  0  0
 22 23  1  0  0  0  0
 23 43  1  0  0  0  0
 23 44  1  0  0  0  0
 23 45  1  0  0  0  0
M  END
> <s_m_source_file>
AV-unprocessed.smi

> <i_m_source_file_index>
477

> <i_lp_mmshare_version>
43012

> <i_f3d_flags>
0

> <s_epik_input>
TiNDYyhjMVtDSDNdKWMoPU8pbihuYzFbQ0gzXSlbQ0gyXUMoPU8pW05IXVtDSDJdW0NIMl1DMj1bQ0hdW0NIMl1bQ0gyXVtDSDJdW0NIMl0y

> <s_epik_cmdline>
J2VwaWtfcHl0aG9uJywgJy1waCcsICc3LjAnLCAnLXRuJywgJzgnLCAnLW1hJywgJzIwMCcsICctbWV0YWxfYmluZGluZycsICctaW1hZScsICc8aW5maWxlLm1hZT4nLCAnLW9tYWUnLCAnPG91dGZpbGUubWFlPic=

> <r_lp_tautomer_probability>
1

> <r_epik_Ionization_Penalty>
1.81256e-08

> <r_epik_Ionization_Penalty_Charging>
2.1856e-11

> <r_epik_Ionization_Penalty_Neutral>
1.81037e-08

> <r_epik_State_Penalty>
-0

> <r_epik_Charging_Adjusted_Penalty>
2.1856e-11

> <i_epik_Tot_Q>
0

> <i_epik_Tot_abs_Q>
0

> <r_epik_Metal_State_Penalty>
-0

> <b_epik_Metal_Only>
0

> <s_lp_Force_Field>
OPLS_2005

> <r_lp_Energy>
23.5318

> <b_lp_Chiralities_Consistent>
1

> <s_lp_Variant>
AV-unprocessed.smi:477-1

> <Gold.Version>
5.8.1

> <Gold.Id.Protein>
6NUR|6NUR_protein|mol2

> <Gold.PLP.Fitness>
53.4879

> <Gold.PLP.PLP>
-49.2916

> <Gold.PLP.part.hbond>
-2.0000

> <Gold.PLP.part.metal>
0.0000

> <Gold.PLP.part.buried>
-7.9185

> <Gold.PLP.part.nonpolar>
-40.2431

> <Gold.PLP.part.repulsive>
0.0803

> <Gold.PLP.ligand.clash>
0.0000

> <Gold.PLP.ligand.torsion>
0.8779

> <Gold.PLP.Chemscore.Hbond>
1.9588

> <Gold.PLP.Chemscore.CHOScore>
0.0000

> <Gold.PLP.Chemscore.Metal>
0.0000

> <Gold.Chemscore.Hbonds>
donor molecule, donor type, donor heavy atom, donor atom, acceptor molecule, acceptor atom, score
      L1  H     8    29       P1  8028  1.00
      P1  H  7997  8009       L1    18  1.00

> <Gold.PLP.Chemscore.Internal.Correction>
0.0759

> <Gold.Rescore>
     Score         DG    S(hbond)    S(metal)    S(lipo)     H(rot)  DE(clash)    DE(int)     intcor
     18.39     -19.44       1.85        0.00     106.63       1.83       0.01       1.04       ----

> <Gold.Chemscore.Fitness>
18.3864

> <Gold.Chemscore.DG>
-19.4381

> <Gold.Chemscore.ZeroCoef>
-5.4800

> <Gold.Chemscore.Hbond>
1.8467

> <Gold.Chemscore.Metal>
0.0000

> <Gold.Chemscore.Lipo>
106.6345

> <Gold.Chemscore.Internal_Hbond>
0.0000

> <Gold.Chemscore.DEClash>
0.0110

> <Gold.Chemscore.DEInternal>
1.0407

> <Gold.Chemscore.Rot>
1.8305

> <Gold.Chemscore.Internal.Correction>
   9.000000E+99

> <Gold.Chemscore.Hbonds>
donor molecule, donor type, donor heavy atom, donor atom, acceptor molecule, acceptor atom, score
      L1  H     8    29       P1  8028  0.92
      P1  H  7997  8009       L1    18  0.44

> <Gold.Chemscore.Hbond.Weighted>
-6.1678

> <Gold.Chemscore.Metal.Weighted>
-0.0000

> <Gold.Chemscore.Lipo.Weighted>
-12.4762

> <Gold.Chemscore.Internal_Hbond.Weighted>
0.0000

> <Gold.Chemscore.DEClash.Weighted>
0.0110

> <Gold.Chemscore.DEInternal.Weighted>
1.0407

> <Gold.Chemscore.Rot.Weighted>
4.6860

> <Gold.Chemscore.Internal.Correction.Weighted>
   9.000000E+99

> <Gold.Protein.RotatedTorsions>
[ 6907 6896 6895 6894 ] final   45.85 input  -60.11 | X-H torsion
[ 7974 7965 7964 7962 ] final  -79.70 input  175.53 | X-H torsion
[ 8008 7997 7996 7995 ] final  179.51 input   59.86 | X-H torsion
[ 10167 10162 10161 10158 ] final -170.17 input  -65.29 | X-H torsion
[ 10718 10713 10712 10709 ] final   85.16 input   66.30 | X-H torsion
[ 10763 10752 10751 10750 ] final -109.24 input  -60.55 | X-H torsion
[ 11005 11000 10999 10996 ] final   62.60 input  -57.11 | X-H torsion

> <Gold.Protein.ActiveResidues>
 VAL166  LYS551  ARG553  GLY616  TRP617  ASP618  TYR619  PRO620  LYS621  CYS622 
 ASP623  PHE694  ASN695  SER759  ASP760  ASP761  ALA762  ILE779  LEU786  VAL792 
 PHE793  MET794  SER795  GLU796  ALA797  LYS798  CYS799  TRP800  GLU811  SER814 

> <Gold.Protein.RotatedAtoms>
  152.2494  134.8148  160.0448 H   0  0  0  0  0  0  0  0  0  0  0  0  # atno 6907 bound_to 6896
  151.8833  133.3495  159.3782 H   0  0  0  0  0  0  0  0  0  0  0  0  # atno 6908 bound_to 6896
  150.7079  134.4923  159.5566 H   0  0  0  0  0  0  0  0  0  0  0  0  # atno 6909 bound_to 6896
  145.5697  140.9468  143.1402 H   0  0  0  0  0  0  0  0  0  0  0  0  # atno 7974 bound_to 7965
  156.0425  140.1307  157.0140 H   0  0  0  0  0  0  0  0  0  0  0  0  # atno 8008 bound_to 7997
  154.4397  140.1027  156.6329 H   0  0  0  0  0  0  0  0  0  0  0  0  # atno 8009 bound_to 7997
  155.5645  140.3465  155.4502 H   0  0  0  0  0  0  0  0  0  0  0  0  # atno 8010 bound_to 7997
  139.5878  144.1280  152.1597 H   0  0  0  0  0  0  0  0  0  0  0  0  # atno 10167 bound_to 10162
  157.6910  131.0163  150.2780 H   0  0  0  0  0  0  0  0  0  0  0  0  # atno 10718 bound_to 10713
  154.8182  135.4608  154.0703 H   0  0  0  0  0  0  0  0  0  0  0  0  # atno 10763 bound_to 10752
  153.2078  135.6878  153.8157 H   0  0  0  0  0  0  0  0  0  0  0  0  # atno 10764 bound_to 10752
  153.7619  135.3283  155.3315 H   0  0  0  0  0  0  0  0  0  0  0  0  # atno 10765 bound_to 10752
  140.0081  134.6339  155.9824 H   0  0  0  0  0  0  0  0  0  0  0  0  # atno 11005 bound_to 11000
  144.7444  139.7361  143.7298 LP  0  0  0  0  0  0  0  0  0  0  0  0  # atno 17320 bound_to 7965
  146.1793  139.4978  142.9877 LP  0  0  0  0  0  0  0  0  0  0  0  0  # atno 17321 bound_to 7965
  140.0848  144.5670  150.7096 LP  0  0  0  0  0  0  0  0  0  0  0  0  # atno 17342 bound_to 10162
  140.7146  143.2534  151.4473 LP  0  0  0  0  0  0  0  0  0  0  0  0  # atno 17343 bound_to 10162
  156.3332  130.3803  149.7473 LP  0  0  0  0  0  0  0  0  0  0  0  0  # atno 17370 bound_to 10713
  156.5006  130.8127  151.3131 LP  0  0  0  0  0  0  0  0  0  0  0  0  # atno 17371 bound_to 10713
  141.1691  133.6537  156.4587 LP  0  0  0  0  0  0  0  0  0  0  0  0  # atno 17394 bound_to 11000
  140.4605  134.6846  157.5083 LP  0  0  0  0  0  0  0  0  0  0  0  0  # atno 17395 bound_to 11000

$$$$
