AV-unprocessed.smi:2508|AV-procd|sdf|9865|dock7
  -GOLD-   2272013493D 1   1.00000     0.00000
 Structure written by MMmdl.
 46 47  0  0  0  0  0  0  0  0  1 V2000
  146.1941  131.8325  149.1979 C   0  0  0  0  0  0  0  0  0  0  0  0
  145.5388  132.7063  150.1750 N   0  0  0  0  0  0  0  0  0  0  0  0
  146.3350  133.6552  150.8458 C   0  0  0  0  0  0  0  0  0  0  0  0
  145.8251  134.5047  151.7651 C   0  0  0  0  0  0  0  0  0  0  0  0
  146.5496  135.4777  152.4704 N   0  0  0  0  0  0  0  0  0  0  0  0
  146.1131  136.4264  153.3264 C   0  0  0  0  0  0  0  0  0  0  0  0
  144.9401  136.6236  153.6349 O   0  0  0  0  0  0  0  0  0  0  0  0
  147.0958  137.1881  153.8376 N   0  0  0  0  0  0  0  0  0  0  0  0
  146.9662  138.2955  154.7866 C   0  0  0  0  0  0  0  0  0  0  0  0
  147.4456  139.6510  154.1932 C   0  0  0  0  0  0  0  0  0  0  0  0
  147.1277  139.6961  152.6809 C   0  0  0  0  0  0  0  0  0  0  0  0
  146.6863  140.8150  154.8705 C   0  0  0  0  0  0  0  0  0  0  0  0
  148.9796  139.8778  154.3870 C   0  0  0  0  0  0  0  0  0  0  0  0
  149.8996  138.6714  154.1459 C   0  0  0  0  0  0  0  0  0  0  0  0
  151.2550  139.0903  154.7246 C   0  0  0  0  0  0  0  0  0  0  0  0
  150.9595  140.1688  155.7778 C   0  0  0  0  0  0  0  0  0  0  0  0
  149.4419  140.3865  155.7615 C   0  0  0  0  0  0  0  0  0  0  0  0
  144.4062  134.4022  152.0331 C   0  0  0  0  0  0  0  0  0  0  0  0
  143.6377  133.4975  151.3959 C   0  0  0  0  0  0  0  0  0  0  0  0
  144.1997  132.5786  150.4037 C   0  0  0  0  0  0  0  0  0  0  0  0
  143.5102  131.7460  149.8143 O   0  0  0  0  0  0  0  0  0  0  0  0
  147.2594  132.0389  149.0907 H   0  0  0  0  0  0  0  0  0  0  0  0
  145.7410  131.9516  148.2126 H   0  0  0  0  0  0  0  0  0  0  0  0
  146.0943  130.7870  149.4932 H   0  0  0  0  0  0  0  0  0  0  0  0
  147.3705  133.6320  150.5480 H   0  0  0  0  0  0  0  0  0  0  0  0
  147.5456  135.4606  152.3060 H   0  0  0  0  0  0  0  0  0  0  0  0
  148.0342  136.9854  153.5246 H   0  0  0  0  0  0  0  0  0  0  0  0
  145.9210  138.3583  155.0891 H   0  0  0  0  0  0  0  0  0  0  0  0
  147.5426  138.0426  155.6761 H   0  0  0  0  0  0  0  0  0  0  0  0
  147.5043  140.6111  152.2223 H   0  0  0  0  0  0  0  0  0  0  0  0
  146.0550  139.6623  152.4886 H   0  0  0  0  0  0  0  0  0  0  0  0
  147.5753  138.8549  152.1513 H   0  0  0  0  0  0  0  0  0  0  0  0
  147.0454  141.7820  154.5170 H   0  0  0  0  0  0  0  0  0  0  0  0
  146.8063  140.7962  155.9540 H   0  0  0  0  0  0  0  0  0  0  0  0
  145.6161  140.7785  154.6656 H   0  0  0  0  0  0  0  0  0  0  0  0
  149.2838  140.6391  153.6656 H   0  0  0  0  0  0  0  0  0  0  0  0
  149.5470  137.7945  154.6873 H   0  0  0  0  0  0  0  0  0  0  0  0
  149.9738  138.4012  153.0921 H   0  0  0  0  0  0  0  0  0  0  0  0
  151.7886  138.2392  155.1486 H   0  0  0  0  0  0  0  0  0  0  0  0
  151.8835  139.5094  153.9379 H   0  0  0  0  0  0  0  0  0  0  0  0
  151.3056  139.8745  156.7691 H   0  0  0  0  0  0  0  0  0  0  0  0
  151.4759  141.0927  155.5142 H   0  0  0  0  0  0  0  0  0  0  0  0
  149.1811  141.4312  155.9325 H   0  0  0  0  0  0  0  0  0  0  0  0
  148.9981  139.8019  156.5660 H   0  0  0  0  0  0  0  0  0  0  0  0
  143.9500  135.0611  152.7577 H   0  0  0  0  0  0  0  0  0  0  0  0
  142.5824  133.4474  151.6203 H   0  0  0  0  0  0  0  0  0  0  0  0
  1  2  1  0  0  0  0
  1 22  1  0  0  0  0
  1 23  1  0  0  0  0
  1 24  1  0  0  0  0
  2 20  1  0  0  0  0
  2  3  1  0  0  0  0
  3  4  2  0  0  0  0
  3 25  1  0  0  0  0
  4  5  1  0  0  0  0
  4 18  1  0  0  0  0
  5  6  1  0  0  0  0
  5 26  1  0  0  0  0
  6  7  2  0  0  0  0
  6  8  1  0  0  0  0
  8  9  1  0  0  0  0
  8 27  1  0  0  0  0
  9 10  1  0  0  0  0
  9 28  1  0  0  0  0
  9 29  1  0  0  0  0
 10 11  1  0  0  0  0
 10 12  1  0  0  0  0
 10 13  1  0  0  0  0
 11 30  1  0  0  0  0
 11 31  1  0  0  0  0
 11 32  1  0  0  0  0
 12 33  1  0  0  0  0
 12 34  1  0  0  0  0
 12 35  1  0  0  0  0
 13 17  1  0  0  0  0
 13 14  1  0  0  0  0
 13 36  1  0  0  0  0
 14 15  1  0  0  0  0
 14 37  1  0  0  0  0
 14 38  1  0  0  0  0
 15 16  1  0  0  0  0
 15 39  1  0  0  0  0
 15 40  1  0  0  0  0
 16 17  1  0  0  0  0
 16 41  1  0  0  0  0
 16 42  1  0  0  0  0
 17 43  1  0  0  0  0
 17 44  1  0  0  0  0
 18 19  2  0  0  0  0
 18 45  1  0  0  0  0
 19 20  1  0  0  0  0
 19 46  1  0  0  0  0
 20 21  2  0  0  0  0
M  END
> <s_m_source_file>
AV-unprocessed.smi

> <i_m_source_file_index>
2508

> <i_lp_mmshare_version>
43012

> <i_f3d_flags>
0

> <s_epik_input>
Tz1jMVtjSF1bY0hdYyhbY0hdbjFbQ0gzXSlbTkhdQyg9TylbTkhdW0NIMl1DKFtDSDNdKShbQ0gzXSlbQ0hdMltDSDJdW0NIMl1bQ0gyXVtDSDJdMg==

> <s_epik_cmdline>
J2VwaWtfcHl0aG9uJywgJy1waCcsICc3LjAnLCAnLXRuJywgJzgnLCAnLW1hJywgJzIwMCcsICctbWV0YWxfYmluZGluZycsICctaW1hZScsICc8aW5maWxlLm1hZT4nLCAnLW9tYWUnLCAnPG91dGZpbGUubWFlPic=

> <r_lp_tautomer_probability>
1

> <r_epik_Ionization_Penalty>
2.69566e-05

> <r_epik_Ionization_Penalty_Charging>
5.95678e-06

> <r_epik_Ionization_Penalty_Neutral>
2.09998e-05

> <r_epik_State_Penalty>
-0

> <r_epik_Charging_Adjusted_Penalty>
5.95678e-06

> <i_epik_Tot_Q>
0

> <i_epik_Tot_abs_Q>
0

> <r_epik_Metal_State_Penalty>
-0

> <b_epik_Metal_Only>
0

> <s_lp_Force_Field>
OPLS_2005

> <r_lp_Energy>
55.0143

> <b_lp_Chiralities_Consistent>
1

> <s_lp_Variant>
AV-unprocessed.smi:2508-1

> <Gold.Version>
5.8.1

> <Gold.Id.Protein>
6NUR|6NUR_protein|mol2

> <Gold.PLP.Fitness>
42.6237

> <Gold.PLP.PLP>
-36.3278

> <Gold.PLP.part.hbond>
-3.0000

> <Gold.PLP.part.metal>
0.0000

> <Gold.PLP.part.buried>
-1.7165

> <Gold.PLP.part.nonpolar>
-32.4442

> <Gold.PLP.part.repulsive>
0.8809

> <Gold.PLP.ligand.clash>
0.0000

> <Gold.PLP.ligand.torsion>
1.0227

> <Gold.PLP.Chemscore.Hbond>
2.7760

> <Gold.PLP.Chemscore.CHOScore>
0.0000

> <Gold.PLP.Chemscore.Metal>
0.0000

> <Gold.Chemscore.Hbonds>
donor molecule, donor type, donor heavy atom, donor atom, acceptor molecule, acceptor atom, score
      L1  H     5    26       P1  7948  1.00
      L1  H     8    27       P1  7948  0.75
      P1  H 10785 10796       L1    21  1.00

> <Gold.PLP.Chemscore.Internal.Correction>
0.0133

> <Gold.Rescore>
     Score         DG    S(hbond)    S(metal)    S(lipo)     H(rot)  DE(clash)    DE(int)     intcor
     18.28     -21.14       2.70        0.00      86.71       1.37       0.64       2.21       ----

> <Gold.Chemscore.Fitness>
18.2849

> <Gold.Chemscore.DG>
-21.1412

> <Gold.Chemscore.ZeroCoef>
-5.4800

> <Gold.Chemscore.Hbond>
2.7047

> <Gold.Chemscore.Metal>
0.0000

> <Gold.Chemscore.Lipo>
86.7140

> <Gold.Chemscore.Internal_Hbond>
0.0000

> <Gold.Chemscore.DEClash>
0.6437

> <Gold.Chemscore.DEInternal>
2.2126

> <Gold.Chemscore.Rot>
1.3742

> <Gold.Chemscore.Internal.Correction>
   9.000000E+99

> <Gold.Chemscore.Hbonds>
donor molecule, donor type, donor heavy atom, donor atom, acceptor molecule, acceptor atom, score
      L1  H     5    26       P1  7948  0.95
      L1  H     8    27       P1  7948  0.69
      P1  H 10785 10796       L1    21  0.93

> <Gold.Chemscore.Hbond.Weighted>
-9.0336

> <Gold.Chemscore.Metal.Weighted>
-0.0000

> <Gold.Chemscore.Lipo.Weighted>
-10.1455

> <Gold.Chemscore.Internal_Hbond.Weighted>
0.0000

> <Gold.Chemscore.DEClash.Weighted>
0.6437

> <Gold.Chemscore.DEInternal.Weighted>
2.2126

> <Gold.Chemscore.Rot.Weighted>
3.5179

> <Gold.Chemscore.Internal.Correction.Weighted>
   9.000000E+99

> <Gold.Protein.RotatedTorsions>
[ 6907 6896 6895 6894 ] final  -28.34 input  -60.11 | X-H torsion
[ 7974 7965 7964 7962 ] final -134.71 input  175.53 | X-H torsion
[ 8008 7997 7996 7995 ] final -149.27 input   59.86 | X-H torsion
[ 10167 10162 10161 10158 ] final -145.28 input  -65.29 | X-H torsion
[ 10718 10713 10712 10709 ] final  123.33 input   66.30 | X-H torsion
[ 10763 10752 10751 10750 ] final   97.52 input  -60.55 | X-H torsion
[ 11005 11000 10999 10996 ] final  -84.93 input  -57.11 | X-H torsion

> <Gold.Protein.ActiveResidues>
 VAL166  LYS551  ARG553  GLY616  TRP617  ASP618  TYR619  PRO620  LYS621  CYS622 
 ASP623  PHE694  ASN695  SER759  ASP760  ASP761  ALA762  ILE779  LEU786  VAL792 
 PHE793  MET794  SER795  GLU796  ALA797  LYS798  CYS799  TRP800  GLU811  SER814 

> <Gold.Protein.RotatedAtoms>
  151.1344  135.0147  159.8596 H   0  0  0  0  0  0  0  0  0  0  0  0  # atno 6907 bound_to 6896
  152.5451  134.1573  159.8553 H   0  0  0  0  0  0  0  0  0  0  0  0  # atno 6908 bound_to 6896
  151.1642  133.4780  159.2627 H   0  0  0  0  0  0  0  0  0  0  0  0  # atno 6909 bound_to 6896
  144.9078  140.6856  143.5044 H   0  0  0  0  0  0  0  0  0  0  0  0  # atno 7974 bound_to 7965
  155.6050  140.0666  157.2722 H   0  0  0  0  0  0  0  0  0  0  0  0  # atno 8008 bound_to 7997
  154.4268  140.1811  156.1260 H   0  0  0  0  0  0  0  0  0  0  0  0  # atno 8009 bound_to 7997
  156.0130  140.3325  155.6963 H   0  0  0  0  0  0  0  0  0  0  0  0  # atno 8010 bound_to 7997
  139.7820  143.8087  152.2640 H   0  0  0  0  0  0  0  0  0  0  0  0  # atno 10167 bound_to 10162
  157.5673  131.1086  150.8431 H   0  0  0  0  0  0  0  0  0  0  0  0  # atno 10718 bound_to 10713
  153.2779  135.4180  155.1051 H   0  0  0  0  0  0  0  0  0  0  0  0  # atno 10763 bound_to 10752
  154.8479  135.3488  154.6152 H   0  0  0  0  0  0  0  0  0  0  0  0  # atno 10764 bound_to 10752
  153.6573  135.7050  153.5246 H   0  0  0  0  0  0  0  0  0  0  0  0  # atno 10765 bound_to 10752
  141.1646  133.7372  156.8940 H   0  0  0  0  0  0  0  0  0  0  0  0  # atno 11005 bound_to 11000
  145.3506  139.1707  143.4437 LP  0  0  0  0  0  0  0  0  0  0  0  0  # atno 17320 bound_to 7965
  146.3143  140.3557  142.8660 LP  0  0  0  0  0  0  0  0  0  0  0  0  # atno 17321 bound_to 7965
  139.8153  144.7319  150.9643 LP  0  0  0  0  0  0  0  0  0  0  0  0  # atno 17342 bound_to 10162
  140.7818  143.4211  151.0840 LP  0  0  0  0  0  0  0  0  0  0  0  0  # atno 17343 bound_to 10162
  156.8912  130.5213  149.5286 LP  0  0  0  0  0  0  0  0  0  0  0  0  # atno 17370 bound_to 10713
  156.0720  130.5751  150.9402 LP  0  0  0  0  0  0  0  0  0  0  0  0  # atno 17371 bound_to 10713
  140.1629  134.9153  157.2737 LP  0  0  0  0  0  0  0  0  0  0  0  0  # atno 17394 bound_to 11000
  140.2591  134.3593  155.7413 LP  0  0  0  0  0  0  0  0  0  0  0  0  # atno 17395 bound_to 11000

$$$$
