AV-unprocessed.smi:1669|AV-procd|sdf|6689|dock8
  -GOLD-   22720 7413D 1   1.00000     0.00000
 Structure written by MMmdl.
 49 51  0  0  0  0  0  0  0  0  3 V2000
  144.3927  135.9334  154.9075 C   0  0  0  0  0  0  0  0  0  0  0  0
  145.8160  135.9443  154.4960 N   0  3  1  0  0  0  0  0  0  0  0  0
  146.3143  134.5953  154.1231 C   0  0  0  0  0  0  0  0  0  0  0  0
  145.8042  134.1611  152.7615 C   0  0  0  0  0  0  0  0  0  0  0  0
  146.7170  133.7484  151.7678 C   0  0  0  0  0  0  0  0  0  0  0  0
  146.2498  133.3433  150.5023 C   0  0  0  0  0  0  0  0  0  0  0  0
  144.8689  133.3505  150.2257 C   0  0  0  0  0  0  0  0  0  0  0  0
  143.9551  133.7641  151.2143 C   0  0  0  0  0  0  0  0  0  0  0  0
  144.4215  134.1700  152.4798 C   0  0  0  0  0  0  0  0  0  0  0  0
  146.0900  136.9681  153.4564 C   0  0  0  0  0  0  0  0  0  0  0  0
  146.2612  138.3787  154.0627 C   0  0  2  0  0  0  0  0  0  0  0  0
  144.9828  138.8915  154.3748 O   0  0  0  0  0  0  0  0  0  0  0  0
  146.9515  139.3807  153.1147 C   0  0  0  0  0  0  0  0  0  0  0  0
  147.7548  140.3863  153.8273 N   0  0  0  0  0  0  0  0  0  0  0  0
  147.4919  141.6949  154.1173 C   0  0  0  0  0  0  0  0  0  0  0  0
  146.2611  142.4682  153.7644 C   0  0  0  0  0  0  0  0  0  0  0  0
  145.1124  142.0081  154.4432 O   0  0  0  0  0  0  0  0  0  0  0  0
  148.5709  142.1794  154.7962 N   0  3  0  0  0  0  0  0  0  0  0  0
  149.5291  141.1767  154.9440 C   0  0  0  0  0  0  0  0  0  0  0  0
  150.7796  141.1930  155.5538 C   0  0  0  0  0  0  0  0  0  0  0  0
  151.5111  139.9873  155.5299 C   0  0  0  0  0  0  0  0  0  0  0  0
  150.9935  138.8265  154.9192 C   0  0  0  0  0  0  0  0  0  0  0  0
  149.7237  138.8221  154.3047 C   0  0  0  0  0  0  0  0  0  0  0  0
  149.0092  140.0198  154.3289 C   0  0  0  0  0  0  0  0  0  0  0  0
  143.7483  135.6419  154.0773 H   0  0  0  0  0  0  0  0  0  0  0  0
  144.0825  136.9211  155.2502 H   0  0  0  0  0  0  0  0  0  0  0  0
  144.2244  135.2405  155.7319 H   0  0  0  0  0  0  0  0  0  0  0  0
  147.4052  134.5794  154.1468 H   0  0  0  0  0  0  0  0  0  0  0  0
  145.9866  133.8497  154.8475 H   0  0  0  0  0  0  0  0  0  0  0  0
  147.7775  133.7395  151.9737 H   0  0  0  0  0  0  0  0  0  0  0  0
  146.9504  133.0273  149.7432 H   0  0  0  0  0  0  0  0  0  0  0  0
  144.5106  133.0398  149.2552 H   0  0  0  0  0  0  0  0  0  0  0  0
  142.8961  133.7707  151.0015 H   0  0  0  0  0  0  0  0  0  0  0  0
  143.7139  134.4855  153.2328 H   0  0  0  0  0  0  0  0  0  0  0  0
  146.9757  136.6643  152.8971 H   0  0  0  0  0  0  0  0  0  0  0  0
  145.2738  137.0003  152.7326 H   0  0  0  0  0  0  0  0  0  0  0  0
  146.8296  138.3260  154.9903 H   0  0  0  0  0  0  0  0  0  0  0  0
  144.6015  139.2570  153.5903 H   0  0  0  0  0  0  0  0  0  0  0  0
  147.6099  138.8578  152.4203 H   0  0  0  0  0  0  0  0  0  0  0  0
  146.2182  139.9050  152.5000 H   0  0  0  0  0  0  0  0  0  0  0  0
  146.4025  143.5217  154.0052 H   0  0  0  0  0  0  0  0  0  0  0  0
  146.0937  142.3995  152.6893 H   0  0  0  0  0  0  0  0  0  0  0  0
  144.6574  141.3958  153.8845 H   0  0  0  0  0  0  0  0  0  0  0  0
  151.1776  142.0803  156.0247 H   0  0  0  0  0  0  0  0  0  0  0  0
  152.4879  139.9519  155.9907 H   0  0  0  0  0  0  0  0  0  0  0  0
  151.5825  137.9205  154.9228 H   0  0  0  0  0  0  0  0  0  0  0  0
  149.3365  137.9262  153.8423 H   0  0  0  0  0  0  0  0  0  0  0  0
  146.3405  136.2346  155.3094 H   0  0  0  0  0  0  0  0  0  0  0  0
  148.6415  143.1322  155.1305 H   0  0  0  0  0  0  0  0  0  0  0  0
  1  2  1  0  0  0  0
  1 25  1  0  0  0  0
  1 26  1  0  0  0  0
  1 27  1  0  0  0  0
  2  3  1  0  0  0  0
  2 10  1  0  0  0  0
  2 48  1  0  0  0  0
  3  4  1  0  0  0  0
  3 28  1  0  0  0  0
  3 29  1  0  0  0  0
  4  9  1  0  0  0  0
  4  5  2  0  0  0  0
  5  6  1  0  0  0  0
  5 30  1  0  0  0  0
  6  7  2  0  0  0  0
  6 31  1  0  0  0  0
  7  8  1  0  0  0  0
  7 32  1  0  0  0  0
  8  9  2  0  0  0  0
  8 33  1  0  0  0  0
  9 34  1  0  0  0  0
 10 11  1  0  0  0  0
 10 35  1  0  0  0  0
 10 36  1  0  0  0  0
 11 12  1  0  0  0  0
 11 13  1  0  0  0  0
 11 37  1  0  0  0  0
 12 38  1  0  0  0  0
 13 14  1  0  0  0  0
 13 39  1  0  0  0  0
 13 40  1  0  0  0  0
 14 24  1  0  0  0  0
 14 15  1  0  0  0  0
 15 16  1  0  0  0  0
 15 18  2  0  0  0  0
 16 17  1  0  0  0  0
 16 41  1  0  0  0  0
 16 42  1  0  0  0  0
 17 43  1  0  0  0  0
 18 19  1  0  0  0  0
 18 49  1  0  0  0  0
 19 24  2  0  0  0  0
 19 20  1  0  0  0  0
 20 21  2  0  0  0  0
 20 44  1  0  0  0  0
 21 22  1  0  0  0  0
 21 45  1  0  0  0  0
 22 23  2  0  0  0  0
 22 46  1  0  0  0  0
 23 24  1  0  0  0  0
 23 47  1  0  0  0  0
M  CHG  1   2   1
M  CHG  1  18   1
M  END
> <s_m_source_file>
AV-unprocessed.smi

> <i_m_source_file_index>
1669

> <i_lp_mmshare_version>
43012

> <i_f3d_flags>
0

> <s_epik_input>
W2NIXTFbY0hdW2NIXVtjSF1bY0hdYzFbQ0gyXU4oW0NIM10pW0NIMl1bQ0BIXShbT0hdKVtDSDJdbihjKG4yKVtDSDJdW09IXSljKGMyMylbY0hdW2NIXVtjSF1bY0hdMw==

> <s_epik_cmdline>
J2VwaWtfcHl0aG9uJywgJy1waCcsICc3LjAnLCAnLXRuJywgJzgnLCAnLW1hJywgJzIwMCcsICctbWV0YWxfYmluZGluZycsICctaW1hZScsICc8aW5maWxlLm1hZT4nLCAnLW9tYWUnLCAnPG91dGZpbGUubWFlPic=

> <r_epik_Ionization_Penalty>
1.57484

> <r_epik_Ionization_Penalty_Charging>
1.57398

> <r_epik_Ionization_Penalty_Neutral>
0.000858917

> <r_epik_State_Penalty>
1.64997

> <r_epik_Charging_Adjusted_Penalty>
3.22395

> <i_epik_Tot_Q>
2

> <i_epik_Tot_abs_Q>
2

> <r_epik_Metal_State_Penalty>
5.70481

> <b_epik_Metal_Only>
0

> <s_lp_Force_Field>
OPLS_2005

> <r_lp_Energy>
24.1241

> <b_lp_Chiralities_Consistent>
1

> <s_lp_Variant>
AV-unprocessed.smi:1669-7

> <Gold.Version>
5.8.1

> <Gold.Id.Protein>
6NUR|6NUR_protein|mol2

> <Gold.PLP.Fitness>
53.8049

> <Gold.PLP.PLP>
-44.0589

> <Gold.PLP.part.hbond>
-3.0000

> <Gold.PLP.part.metal>
0.0000

> <Gold.PLP.part.buried>
-2.4421

> <Gold.PLP.part.nonpolar>
-36.2584

> <Gold.PLP.part.repulsive>
0.2033

> <Gold.PLP.ligand.clash>
0.0000

> <Gold.PLP.ligand.torsion>
1.2137

> <Gold.PLP.Chemscore.Hbond>
4.0000

> <Gold.PLP.Chemscore.CHOScore>
0.0000

> <Gold.PLP.Chemscore.Metal>
0.0000

> <Gold.Chemscore.Hbonds>
donor molecule, donor type, donor heavy atom, donor atom, acceptor molecule, acceptor atom, score
      L1  H    12    38       P1 10175  1.00
      L1  H    17    43       P1 10175  1.00
      L1  H    18    49       P1  8028  2.00

> <Gold.PLP.Chemscore.Internal.Correction>
0.1735

> <Gold.Rescore>
     Score         DG    S(hbond)    S(metal)    S(lipo)     H(rot)  DE(clash)    DE(int)     intcor
     15.15     -17.78       2.60        0.00     102.39       3.27       0.14       2.49       ----

> <Gold.Chemscore.Fitness>
15.1526

> <Gold.Chemscore.DG>
-17.7813

> <Gold.Chemscore.ZeroCoef>
-5.4800

> <Gold.Chemscore.Hbond>
2.6041

> <Gold.Chemscore.Metal>
0.0000

> <Gold.Chemscore.Lipo>
102.3884

> <Gold.Chemscore.Internal_Hbond>
0.0000

> <Gold.Chemscore.DEClash>
0.1405

> <Gold.Chemscore.DEInternal>
2.4881

> <Gold.Chemscore.Rot>
3.2718

> <Gold.Chemscore.Internal.Correction>
   9.000000E+99

> <Gold.Chemscore.Hbonds>
donor molecule, donor type, donor heavy atom, donor atom, acceptor molecule, acceptor atom, score
      L1  H    12    38       P1 10175  0.99
      L1  H    17    43       P1 10175  0.30
      L1  H    18    49       P1  8028  1.00

> <Gold.Chemscore.Hbond.Weighted>
-8.6977

> <Gold.Chemscore.Metal.Weighted>
-0.0000

> <Gold.Chemscore.Lipo.Weighted>
-11.9794

> <Gold.Chemscore.Internal_Hbond.Weighted>
0.0000

> <Gold.Chemscore.DEClash.Weighted>
0.1405

> <Gold.Chemscore.DEInternal.Weighted>
2.4881

> <Gold.Chemscore.Rot.Weighted>
8.3759

> <Gold.Chemscore.Internal.Correction.Weighted>
   9.000000E+99

> <Gold.Protein.RotatedTorsions>
[ 6907 6896 6895 6894 ] final  -49.49 input  -60.11 | X-H torsion
[ 7974 7965 7964 7962 ] final   44.55 input  175.53 | X-H torsion
[ 8008 7997 7996 7995 ] final  -16.35 input   59.86 | X-H torsion
[ 10167 10162 10161 10158 ] final   77.31 input  -65.29 | X-H torsion
[ 10718 10713 10712 10709 ] final  -13.88 input   66.30 | X-H torsion
[ 10763 10752 10751 10750 ] final -138.19 input  -60.55 | X-H torsion
[ 11005 11000 10999 10996 ] final -118.21 input  -57.11 | X-H torsion

> <Gold.Protein.ActiveResidues>
 VAL166  LYS551  ARG553  GLY616  TRP617  ASP618  TYR619  PRO620  LYS621  CYS622 
 ASP623  PHE694  ASN695  SER759  ASP760  ASP761  ALA762  ILE779  LEU786  VAL792 
 PHE793  MET794  SER795  GLU796  ALA797  LYS798  CYS799  TRP800  GLU811  SER814 

> <Gold.Protein.RotatedAtoms>
  150.8800  134.8189  159.7217 H   0  0  0  0  0  0  0  0  0  0  0  0  # atno 6907 bound_to 6896
  152.4771  134.4811  159.9676 H   0  0  0  0  0  0  0  0  0  0  0  0  # atno 6908 bound_to 6896
  151.4887  133.3491  159.2885 H   0  0  0  0  0  0  0  0  0  0  0  0  # atno 6909 bound_to 6896
  146.0559  139.5062  142.9689 H   0  0  0  0  0  0  0  0  0  0  0  0  # atno 7974 bound_to 7965
  154.5060  140.2172  155.9250 H   0  0  0  0  0  0  0  0  0  0  0  0  # atno 8008 bound_to 7997
  156.1494  140.3164  155.8590 H   0  0  0  0  0  0  0  0  0  0  0  0  # atno 8009 bound_to 7997
  155.3968  140.0482  157.3029 H   0  0  0  0  0  0  0  0  0  0  0  0  # atno 8010 bound_to 7997
  139.9829  144.5813  150.7884 H   0  0  0  0  0  0  0  0  0  0  0  0  # atno 10167 bound_to 10162
  156.6240  130.4883  149.6154 H   0  0  0  0  0  0  0  0  0  0  0  0  # atno 10718 bound_to 10713
  154.8643  135.3619  154.5345 H   0  0  0  0  0  0  0  0  0  0  0  0  # atno 10763 bound_to 10752
  153.5970  135.7014  153.5405 H   0  0  0  0  0  0  0  0  0  0  0  0  # atno 10764 bound_to 10752
  153.3324  135.4120  155.1467 H   0  0  0  0  0  0  0  0  0  0  0  0  # atno 10765 bound_to 10752
  141.0302  133.9993  157.3155 H   0  0  0  0  0  0  0  0  0  0  0  0  # atno 11005 bound_to 11000
  145.6645  141.0232  143.1691 LP  0  0  0  0  0  0  0  0  0  0  0  0  # atno 17320 bound_to 7965
  144.7147  139.8239  143.7402 LP  0  0  0  0  0  0  0  0  0  0  0  0  # atno 17321 bound_to 7965
  140.7482  143.2919  151.3307 LP  0  0  0  0  0  0  0  0  0  0  0  0  # atno 17342 bound_to 10162
  139.6396  144.0564  152.2544 LP  0  0  0  0  0  0  0  0  0  0  0  0  # atno 17343 bound_to 10162
  156.2289  130.6782  151.1443 LP  0  0  0  0  0  0  0  0  0  0  0  0  # atno 17370 bound_to 10713
  157.7219  131.0675  150.6098 LP  0  0  0  0  0  0  0  0  0  0  0  0  # atno 17371 bound_to 10713
  139.9202  135.0200  156.8037 LP  0  0  0  0  0  0  0  0  0  0  0  0  # atno 17394 bound_to 11000
  140.6421  133.9809  155.7712 LP  0  0  0  0  0  0  0  0  0  0  0  0  # atno 17395 bound_to 11000

$$$$
