AV-unprocessed.smi:260|AV-procd|sdf|1977|dock3
  -GOLD-   2262021143D 1   1.00000     0.00000
 Structure written by MMmdl.
 53 56  0  0  0  0  0  0  0  0  1 V2000
  146.8952  132.8114  158.5434 C   0  0  0  0  0  0  0  0  0  0  0  0
  147.7091  132.8798  157.3394 N   0  0  0  0  0  0  0  0  0  0  0  0
  148.8702  133.5474  157.2437 C   0  0  0  0  0  0  0  0  0  0  0  0
  149.3426  134.1661  158.1991 O   0  0  0  0  0  0  0  0  0  0  0  0
  149.6172  133.5250  155.8808 C   0  0  1  0  0  0  0  0  0  0  0  0
  149.9651  132.0877  155.4281 C   0  0  0  0  0  0  0  0  0  0  0  0
  148.7905  134.2699  154.8123 C   0  0  0  0  0  0  0  0  0  0  0  0
  149.1632  135.7456  154.9741 C   0  0  0  0  0  0  0  0  0  0  0  0
  150.5135  135.7327  155.5087 N   0  0  0  0  0  0  0  0  0  0  0  0
  151.1718  136.8526  155.9065 C   0  0  0  0  0  0  0  0  0  0  0  0
  152.4960  136.9558  155.6161 N   0  0  0  0  0  0  0  0  0  0  0  0
  153.1927  138.0340  155.9841 C   0  0  0  0  0  0  0  0  0  0  0  0
  152.7698  139.1152  156.6397 N   0  0  0  0  0  0  0  0  0  0  0  0
  151.4409  139.0267  156.9301 C   0  0  0  0  0  0  0  0  0  0  0  0
  150.5723  137.9445  156.6040 C   0  0  0  0  0  0  0  0  0  0  0  0
  149.2903  138.2256  157.0669 N   0  0  0  0  0  0  0  0  0  0  0  0
  149.3965  139.3952  157.6347 C   0  0  0  0  0  0  0  0  0  0  0  0
  150.6549  139.9473  157.6003 N   0  0  0  0  0  0  0  0  0  0  0  0
  151.0532  141.2279  158.1580 C   0  0  0  0  0  0  0  0  0  0  0  0
  151.2884  142.2935  157.0700 C   0  0  1  0  0  0  0  0  0  0  0  0
  150.2303  142.2449  156.1319 O   0  0  0  0  0  0  0  0  0  0  0  0
  151.3682  143.7149  157.6562 C   0  0  2  0  0  0  0  0  0  0  0  0
  152.6699  144.0256  158.3976 C   0  0  0  0  0  0  0  0  0  0  0  0
  152.2743  145.1162  159.3813 C   0  0  0  0  0  0  0  0  0  0  0  0
  150.7441  145.0701  159.3935 C   0  0  0  0  0  0  0  0  0  0  0  0
  150.4040  143.8877  158.6835 O   0  0  0  0  0  0  0  0  0  0  0  0
  150.8935  134.3950  155.9524 C   0  0  0  0  0  0  0  0  0  0  0  0
  146.0060  132.2092  158.3572 H   0  0  0  0  0  0  0  0  0  0  0  0
  146.5744  133.8070  158.8524 H   0  0  0  0  0  0  0  0  0  0  0  0
  147.4516  132.3540  159.3625 H   0  0  0  0  0  0  0  0  0  0  0  0
  147.3700  132.3903  156.5239 H   0  0  0  0  0  0  0  0  0  0  0  0
  150.5331  132.0944  154.4971 H   0  0  0  0  0  0  0  0  0  0  0  0
  149.0688  131.4926  155.2478 H   0  0  0  0  0  0  0  0  0  0  0  0
  150.5733  131.5693  156.1706 H   0  0  0  0  0  0  0  0  0  0  0  0
  149.0816  133.9358  153.8155 H   0  0  0  0  0  0  0  0  0  0  0  0
  147.7154  134.1074  154.9029 H   0  0  0  0  0  0  0  0  0  0  0  0
  149.1117  136.2751  154.0223 H   0  0  0  0  0  0  0  0  0  0  0  0
  148.4938  136.2367  155.6813 H   0  0  0  0  0  0  0  0  0  0  0  0
  154.2385  138.0296  155.7147 H   0  0  0  0  0  0  0  0  0  0  0  0
  148.5555  139.8884  158.1000 H   0  0  0  0  0  0  0  0  0  0  0  0
  150.2891  141.5595  158.8622 H   0  0  0  0  0  0  0  0  0  0  0  0
  151.9633  141.0735  158.7387 H   0  0  0  0  0  0  0  0  0  0  0  0
  152.2161  142.0694  156.5416 H   0  0  0  0  0  0  0  0  0  0  0  0
  149.8786  143.1166  156.0311 H   0  0  0  0  0  0  0  0  0  0  0  0
  151.1942  144.4614  156.8786 H   0  0  0  0  0  0  0  0  0  0  0  0
  153.0106  143.1468  158.9470 H   0  0  0  0  0  0  0  0  0  0  0  0
  153.4720  144.3324  157.7257 H   0  0  0  0  0  0  0  0  0  0  0  0
  152.6929  144.9179  160.3686 H   0  0  0  0  0  0  0  0  0  0  0  0
  152.6271  146.0958  159.0571 H   0  0  0  0  0  0  0  0  0  0  0  0
  150.3326  145.0545  160.4030 H   0  0  0  0  0  0  0  0  0  0  0  0
  150.3304  145.9338  158.8708 H   0  0  0  0  0  0  0  0  0  0  0  0
  151.3120  134.4039  156.9604 H   0  0  0  0  0  0  0  0  0  0  0  0
  151.6680  134.0187  155.2833 H   0  0  0  0  0  0  0  0  0  0  0  0
  1  2  1  0  0  0  0
  1 28  1  0  0  0  0
  1 29  1  0  0  0  0
  1 30  1  0  0  0  0
  2  3  1  0  0  0  0
  2 31  1  0  0  0  0
  3  4  2  0  0  0  0
  3  5  1  0  0  0  0
  5 27  1  0  0  0  0
  5  6  1  0  0  0  0
  5  7  1  0  0  0  0
  6 32  1  0  0  0  0
  6 33  1  0  0  0  0
  6 34  1  0  0  0  0
  7  8  1  0  0  0  0
  7 35  1  0  0  0  0
  7 36  1  0  0  0  0
  8  9  1  0  0  0  0
  8 37  1  0  0  0  0
  8 38  1  0  0  0  0
  9 10  1  0  0  0  0
  9 27  1  0  0  0  0
 10 15  1  0  0  0  0
 10 11  2  0  0  0  0
 11 12  1  0  0  0  0
 12 13  2  0  0  0  0
 12 39  1  0  0  0  0
 13 14  1  0  0  0  0
 14 18  1  0  0  0  0
 14 15  2  0  0  0  0
 15 16  1  0  0  0  0
 16 17  2  0  0  0  0
 17 18  1  0  0  0  0
 17 40  1  0  0  0  0
 18 19  1  0  0  0  0
 19 20  1  0  0  0  0
 19 41  1  0  0  0  0
 19 42  1  0  0  0  0
 20 21  1  0  0  0  0
 20 22  1  0  0  0  0
 20 43  1  0  0  0  0
 21 44  1  0  0  0  0
 22 26  1  0  0  0  0
 22 23  1  0  0  0  0
 22 45  1  0  0  0  0
 23 24  1  0  0  0  0
 23 46  1  0  0  0  0
 23 47  1  0  0  0  0
 24 25  1  0  0  0  0
 24 48  1  0  0  0  0
 24 49  1  0  0  0  0
 25 26  1  0  0  0  0
 25 50  1  0  0  0  0
 25 51  1  0  0  0  0
 27 52  1  0  0  0  0
 27 53  1  0  0  0  0
M  END
> <s_m_source_file>
AV-unprocessed.smi

> <i_m_source_file_index>
260

> <i_lp_mmshare_version>
43012

> <i_f3d_flags>
0

> <s_epik_input>
W0NIM11bTkhdQyg9TylbQ0BAXTEoW0NIM10pW0NIMl1bQ0gyXU4oW0NIMl0xKWMobltjSF1uMiljKGMyMyluW2NIXW4zW0NIMl1bQ0BIXShbT0hdKVtDQEBIXTRbQ0gyXVtDSDJdW0NIMl1PNA==

> <s_epik_cmdline>
J2VwaWtfcHl0aG9uJywgJy1waCcsICc3LjAnLCAnLXRuJywgJzgnLCAnLW1hJywgJzIwMCcsICctbWV0YWxfYmluZGluZycsICctaW1hZScsICc8aW5maWxlLm1hZT4nLCAnLW9tYWUnLCAnPG91dGZpbGUubWFlPic=

> <r_lp_tautomer_probability>
1

> <r_epik_Ionization_Penalty>
0.00115068

> <r_epik_Ionization_Penalty_Charging>
0

> <r_epik_Ionization_Penalty_Neutral>
0.00115068

> <r_epik_State_Penalty>
0.000668876

> <r_epik_Charging_Adjusted_Penalty>
0.000668876

> <i_epik_Tot_Q>
0

> <i_epik_Tot_abs_Q>
0

> <r_epik_Metal_State_Penalty>
-0

> <b_epik_Metal_Only>
0

> <s_lp_Force_Field>
OPLS_2005

> <r_lp_Energy>
48.4888

> <b_lp_Chiralities_Consistent>
1

> <s_lp_Variant>
AV-unprocessed.smi:260-3

> <Gold.Version>
5.8.1

> <Gold.Id.Protein>
6NUR|6NUR_protein|mol2

> <Gold.PLP.Fitness>
48.1569

> <Gold.PLP.PLP>
-40.0480

> <Gold.PLP.part.hbond>
-4.0000

> <Gold.PLP.part.metal>
0.0000

> <Gold.PLP.part.buried>
-5.5256

> <Gold.PLP.part.nonpolar>
-31.4560

> <Gold.PLP.part.repulsive>
0.2069

> <Gold.PLP.ligand.clash>
0.0000

> <Gold.PLP.ligand.torsion>
1.4712

> <Gold.PLP.Chemscore.Hbond>
3.6016

> <Gold.PLP.Chemscore.CHOScore>
0.0000

> <Gold.PLP.Chemscore.Metal>
0.0000

> <Gold.Chemscore.Hbonds>
donor molecule, donor type, donor heavy atom, donor atom, acceptor molecule, acceptor atom, score
      L1  H    21    44       P1  8028  1.00
      P1  H  6896  6908       L1     4  1.00
      P1  H  7997  8010       L1    13  0.93
      P1  H 10752 10764       L1    11  0.78

> <Gold.PLP.Chemscore.Internal.Correction>
0.2465

> <Gold.Rescore>
     Score         DG    S(hbond)    S(metal)    S(lipo)     H(rot)  DE(clash)    DE(int)     intcor
     18.50     -19.97       3.13        0.00      89.78       2.53       0.01       1.46       ----

> <Gold.Chemscore.Fitness>
18.5041

> <Gold.Chemscore.DG>
-19.9729

> <Gold.Chemscore.ZeroCoef>
-5.4800

> <Gold.Chemscore.Hbond>
3.1303

> <Gold.Chemscore.Metal>
0.0000

> <Gold.Chemscore.Lipo>
89.7790

> <Gold.Chemscore.Internal_Hbond>
0.0000

> <Gold.Chemscore.DEClash>
0.0072

> <Gold.Chemscore.DEInternal>
1.4616

> <Gold.Chemscore.Rot>
2.5259

> <Gold.Chemscore.Internal.Correction>
   9.000000E+99

> <Gold.Chemscore.Hbonds>
donor molecule, donor type, donor heavy atom, donor atom, acceptor molecule, acceptor atom, score
      L1  H    21    44       P1  8028  1.00
      P1  H  6896  6908       L1     4  1.00
      P1  H  7997  8010       L1    13  0.20
      P1  H 10752 10764       L1    11  0.64

> <Gold.Chemscore.Hbond.Weighted>
-10.4550

> <Gold.Chemscore.Metal.Weighted>
-0.0000

> <Gold.Chemscore.Lipo.Weighted>
-10.5041

> <Gold.Chemscore.Internal_Hbond.Weighted>
0.0000

> <Gold.Chemscore.DEClash.Weighted>
0.0072

> <Gold.Chemscore.DEInternal.Weighted>
1.4616

> <Gold.Chemscore.Rot.Weighted>
6.4663

> <Gold.Chemscore.Internal.Correction.Weighted>
   9.000000E+99

> <Gold.Protein.RotatedTorsions>
[ 6907 6896 6895 6894 ] final  143.02 input  -60.11 | X-H torsion
[ 7974 7965 7964 7962 ] final  -25.26 input  175.53 | X-H torsion
[ 8008 7997 7996 7995 ] final   44.90 input   59.86 | X-H torsion
[ 10167 10162 10161 10158 ] final -107.82 input  -65.29 | X-H torsion
[ 10718 10713 10712 10709 ] final    3.93 input   66.30 | X-H torsion
[ 10763 10752 10751 10750 ] final  -36.34 input  -60.55 | X-H torsion
[ 11005 11000 10999 10996 ] final  -25.72 input  -57.11 | X-H torsion

> <Gold.Protein.ActiveResidues>
 VAL166  LYS551  ARG553  GLY616  TRP617  ASP618  TYR619  PRO620  LYS621  CYS622 
 ASP623  PHE694  ASN695  SER759  ASP760  ASP761  ALA762  ILE779  LEU786  VAL792 
 PHE793  MET794  SER795  GLU796  ALA797  LYS798  CYS799  TRP800  GLU811  SER814 

> <Gold.Protein.RotatedAtoms>
  152.2115  133.4915  159.5112 H   0  0  0  0  0  0  0  0  0  0  0  0  # atno 6907 bound_to 6896
  150.6991  134.1460  159.4132 H   0  0  0  0  0  0  0  0  0  0  0  0  # atno 6908 bound_to 6896
  151.9380  135.0226  160.0584 H   0  0  0  0  0  0  0  0  0  0  0  0  # atno 6909 bound_to 6896
  146.1502  140.4863  142.8614 H   0  0  0  0  0  0  0  0  0  0  0  0  # atno 7974 bound_to 7965
  155.3269  140.3400  155.4240 H   0  0  0  0  0  0  0  0  0  0  0  0  # atno 8008 bound_to 7997
  156.1881  140.1687  156.8183 H   0  0  0  0  0  0  0  0  0  0  0  0  # atno 8009 bound_to 7997
  154.5409  140.0725  156.8492 H   0  0  0  0  0  0  0  0  0  0  0  0  # atno 8010 bound_to 7997
  140.1728  143.4029  152.1341 H   0  0  0  0  0  0  0  0  0  0  0  0  # atno 10167 bound_to 10162
  156.8851  130.5667  149.5651 H   0  0  0  0  0  0  0  0  0  0  0  0  # atno 10718 bound_to 10713
  153.8781  135.6824  153.4769 H   0  0  0  0  0  0  0  0  0  0  0  0  # atno 10763 bound_to 10752
  153.1249  135.4723  154.9253 H   0  0  0  0  0  0  0  0  0  0  0  0  # atno 10764 bound_to 10752
  154.7682  135.3230  154.8195 H   0  0  0  0  0  0  0  0  0  0  0  0  # atno 10765 bound_to 10752
  140.8963  133.7554  156.0486 H   0  0  0  0  0  0  0  0  0  0  0  0  # atno 11005 bound_to 11000
  144.7895  140.6003  143.6551 LP  0  0  0  0  0  0  0  0  0  0  0  0  # atno 17320 bound_to 7965
  145.4841  139.1493  143.3746 LP  0  0  0  0  0  0  0  0  0  0  0  0  # atno 17321 bound_to 7965
  139.5330  144.7180  151.4989 LP  0  0  0  0  0  0  0  0  0  0  0  0  # atno 17342 bound_to 10162
  140.6571  143.8577  150.6847 LP  0  0  0  0  0  0  0  0  0  0  0  0  # atno 17343 bound_to 10162
  156.0657  130.5701  150.9284 LP  0  0  0  0  0  0  0  0  0  0  0  0  # atno 17370 bound_to 10713
  157.6117  131.0936  150.8782 LP  0  0  0  0  0  0  0  0  0  0  0  0  # atno 17371 bound_to 10713
  140.8285  134.3206  157.5357 LP  0  0  0  0  0  0  0  0  0  0  0  0  # atno 17394 bound_to 11000
  139.8736  134.9350  156.3621 LP  0  0  0  0  0  0  0  0  0  0  0  0  # atno 17395 bound_to 11000

$$$$
