AV-unprocessed.smi:153|AV-procd|sdf|1253|dock8
  -GOLD-   2262018483D 1   1.00000     0.00000
 Structure written by MMmdl.
 60 63  0  0  0  0  0  0  0  0  2 V2000
  153.5077  141.9830  159.9041 C   0  0  0  0  0  0  0  0  0  0  0  0
  152.1892  142.6915  160.2542 C   0  0  1  0  0  0  0  0  0  0  0  0
  152.5675  143.7624  161.1222 O   0  0  0  0  0  0  0  0  0  0  0  0
  151.9581  144.9774  160.7163 C   0  0  0  0  0  0  0  0  0  0  0  0
  151.8002  144.8157  159.2118 C   0  0  0  0  0  0  0  0  0  0  0  0
  151.4188  143.3488  159.0749 C   0  0  2  0  0  0  0  0  0  0  0  0
  150.0318  143.2500  159.3510 O   0  0  0  0  0  0  0  0  0  0  0  0
  151.6608  142.8057  157.6386 C   0  0  0  0  0  0  0  0  0  0  0  0
  150.9617  141.5693  157.2982 N   0  0  0  0  0  0  0  0  0  0  0  0
  149.8199  141.4223  156.5412 C   0  0  0  0  0  0  0  0  0  0  0  0
  149.4212  140.1931  156.3663 N   0  0  0  0  0  0  0  0  0  0  0  0
  150.3658  139.4214  157.0325 C   0  0  0  0  0  0  0  0  0  0  0  0
  150.5575  138.0198  157.2312 C   0  0  0  0  0  0  0  0  0  0  0  0
  149.7317  137.0455  156.7600 N   0  0  0  0  0  0  0  0  0  0  0  0
  150.2995  135.8121  156.2304 C   0  0  0  0  0  0  0  0  0  0  0  0
  148.3079  137.0680  157.1029 C   0  0  0  0  0  0  0  0  0  0  0  0
  147.9457  136.0632  158.2155 C   0  0  2  0  0  0  0  0  0  0  0  0
  146.5390  135.9249  158.2100 O   0  0  0  0  0  0  0  0  0  0  0  0
  148.3829  136.5300  159.6222 C   0  0  0  0  0  0  0  0  0  0  0  0
  147.6558  135.8326  160.7125 N   0  3  0  0  0  0  0  0  0  0  0  0
  147.7847  134.3547  160.6554 C   0  0  0  0  0  0  0  0  0  0  0  0
  146.9830  133.7011  161.7936 C   0  0  0  0  0  0  0  0  0  0  0  0
  147.4279  134.2097  163.0447 O   0  0  0  0  0  0  0  0  0  0  0  0
  147.2292  135.6138  163.1487 C   0  0  0  0  0  0  0  0  0  0  0  0
  148.0379  136.3317  162.0549 C   0  0  0  0  0  0  0  0  0  0  0  0
  151.6627  137.6410  157.9254 N   0  0  0  0  0  0  0  0  0  0  0  0
  152.5136  138.5516  158.4043 C   0  0  0  0  0  0  0  0  0  0  0  0
  152.4563  139.8790  158.3012 N   0  0  0  0  0  0  0  0  0  0  0  0
  151.3551  140.2752  157.6013 C   0  0  0  0  0  0  0  0  0  0  0  0
  153.3363  141.0487  159.3747 H   0  0  0  0  0  0  0  0  0  0  0  0
  154.0587  141.7297  160.8102 H   0  0  0  0  0  0  0  0  0  0  0  0
  154.1528  142.6140  159.2924 H   0  0  0  0  0  0  0  0  0  0  0  0
  151.5505  141.9958  160.8008 H   0  0  0  0  0  0  0  0  0  0  0  0
  150.9866  145.0755  161.2029 H   0  0  0  0  0  0  0  0  0  0  0  0
  152.5656  145.8408  160.9873 H   0  0  0  0  0  0  0  0  0  0  0  0
  151.0698  145.5024  158.7820 H   0  0  0  0  0  0  0  0  0  0  0  0
  152.7600  145.0037  158.7286 H   0  0  0  0  0  0  0  0  0  0  0  0
  149.6650  144.1207  159.3585 H   0  0  0  0  0  0  0  0  0  0  0  0
  151.3755  143.5597  156.9038 H   0  0  0  0  0  0  0  0  0  0  0  0
  152.7288  142.6444  157.4906 H   0  0  0  0  0  0  0  0  0  0  0  0
  149.2813  142.2521  156.1095 H   0  0  0  0  0  0  0  0  0  0  0  0
  151.1534  136.0209  155.5850 H   0  0  0  0  0  0  0  0  0  0  0  0
  149.5612  135.2741  155.6352 H   0  0  0  0  0  0  0  0  0  0  0  0
  150.6211  135.1555  157.0391 H   0  0  0  0  0  0  0  0  0  0  0  0
  147.9634  138.0678  157.3683 H   0  0  0  0  0  0  0  0  0  0  0  0
  147.7584  136.8094  156.1966 H   0  0  0  0  0  0  0  0  0  0  0  0
  148.3749  135.0928  157.9684 H   0  0  0  0  0  0  0  0  0  0  0  0
  146.2433  135.8215  157.3188 H   0  0  0  0  0  0  0  0  0  0  0  0
  149.4495  136.3726  159.7779 H   0  0  0  0  0  0  0  0  0  0  0  0
  148.2272  137.6078  159.6961 H   0  0  0  0  0  0  0  0  0  0  0  0
  147.4274  133.9744  159.6992 H   0  0  0  0  0  0  0  0  0  0  0  0
  148.8362  134.0743  160.7356 H   0  0  0  0  0  0  0  0  0  0  0  0
  145.9139  133.8824  161.6715 H   0  0  0  0  0  0  0  0  0  0  0  0
  147.1259  132.6205  161.7809 H   0  0  0  0  0  0  0  0  0  0  0  0
  146.1670  135.8504  163.0681 H   0  0  0  0  0  0  0  0  0  0  0  0
  147.5551  135.9449  164.1349 H   0  0  0  0  0  0  0  0  0  0  0  0
  149.1056  136.1726  162.2145 H   0  0  0  0  0  0  0  0  0  0  0  0
  147.8604  137.4061  162.1149 H   0  0  0  0  0  0  0  0  0  0  0  0
  153.3604  138.1606  158.9490 H   0  0  0  0  0  0  0  0  0  0  0  0
  146.6771  136.0535  160.5978 H   0  0  0  0  0  0  0  0  0  0  0  0
  1  2  1  0  0  0  0
  1 30  1  0  0  0  0
  1 31  1  0  0  0  0
  1 32  1  0  0  0  0
  2  6  1  0  0  0  0
  2  3  1  0  0  0  0
  2 33  1  0  0  0  0
  3  4  1  0  0  0  0
  4  5  1  0  0  0  0
  4 34  1  0  0  0  0
  4 35  1  0  0  0  0
  5  6  1  0  0  0  0
  5 36  1  0  0  0  0
  5 37  1  0  0  0  0
  6  7  1  0  0  0  0
  6  8  1  0  0  0  0
  7 38  1  0  0  0  0
  8  9  1  0  0  0  0
  8 39  1  0  0  0  0
  8 40  1  0  0  0  0
  9 29  1  0  0  0  0
  9 10  1  0  0  0  0
 10 11  2  0  0  0  0
 10 41  1  0  0  0  0
 11 12  1  0  0  0  0
 12 29  2  0  0  0  0
 12 13  1  0  0  0  0
 13 14  1  0  0  0  0
 13 26  2  0  0  0  0
 14 15  1  0  0  0  0
 14 16  1  0  0  0  0
 15 42  1  0  0  0  0
 15 43  1  0  0  0  0
 15 44  1  0  0  0  0
 16 17  1  0  0  0  0
 16 45  1  0  0  0  0
 16 46  1  0  0  0  0
 17 18  1  0  0  0  0
 17 19  1  0  0  0  0
 17 47  1  0  0  0  0
 18 48  1  0  0  0  0
 19 20  1  0  0  0  0
 19 49  1  0  0  0  0
 19 50  1  0  0  0  0
 20 25  1  0  0  0  0
 20 21  1  0  0  0  0
 20 60  1  0  0  0  0
 21 22  1  0  0  0  0
 21 51  1  0  0  0  0
 21 52  1  0  0  0  0
 22 23  1  0  0  0  0
 22 53  1  0  0  0  0
 22 54  1  0  0  0  0
 23 24  1  0  0  0  0
 24 25  1  0  0  0  0
 24 55  1  0  0  0  0
 24 56  1  0  0  0  0
 25 57  1  0  0  0  0
 25 58  1  0  0  0  0
 26 27  1  0  0  0  0
 27 28  2  0  0  0  0
 27 59  1  0  0  0  0
 28 29  1  0  0  0  0
M  CHG  1  20   1
M  END
> <s_m_source_file>
AV-unprocessed.smi

> <i_m_source_file_index>
153

> <i_lp_mmshare_version>
43012

> <i_f3d_flags>
0

> <s_epik_input>
W0NIMl0xW0NIMl1PW0NAQEhdKFtDSDNdKVtDQEBdMShbT0hdKVtDSDJdbihbY0hdbjIpYyhjMjMpbltjSF1uYzNOKFtDSDNdKVtDSDJdW0NASF0oW09IXSlbQ0gyXU40W0NIMl1bQ0gyXU9bQ0gyXVtDSDJdNA==

> <s_epik_cmdline>
J2VwaWtfcHl0aG9uJywgJy1waCcsICc3LjAnLCAnLXRuJywgJzgnLCAnLW1hJywgJzIwMCcsICctbWV0YWxfYmluZGluZycsICctaW1hZScsICc8aW5maWxlLm1hZT4nLCAnLW9tYWUnLCAnPG91dGZpbGUubWFlPic=

> <r_lp_tautomer_probability>
1

> <r_epik_Ionization_Penalty>
0.403509

> <r_epik_Ionization_Penalty_Charging>
0.40072

> <r_epik_Ionization_Penalty_Neutral>
0.00278876

> <r_epik_State_Penalty>
0.400058

> <r_epik_Charging_Adjusted_Penalty>
0.800778

> <i_epik_Tot_Q>
1

> <i_epik_Tot_abs_Q>
1

> <r_epik_Metal_State_Penalty>
0.400321

> <b_epik_Metal_Only>
0

> <s_lp_Force_Field>
OPLS_2005

> <r_lp_Energy>
47.2205

> <b_lp_Chiralities_Consistent>
1

> <s_lp_Variant>
AV-unprocessed.smi:153-4

> <Gold.Version>
5.8.1

> <Gold.Id.Protein>
6NUR|6NUR_protein|mol2

> <Gold.PLP.Fitness>
46.2023

> <Gold.PLP.PLP>
-46.2108

> <Gold.PLP.part.hbond>
-1.2383

> <Gold.PLP.part.metal>
0.0000

> <Gold.PLP.part.buried>
-7.5021

> <Gold.PLP.part.nonpolar>
-37.5892

> <Gold.PLP.part.repulsive>
0.2661

> <Gold.PLP.ligand.clash>
0.0000

> <Gold.PLP.ligand.torsion>
1.7304

> <Gold.PLP.Chemscore.Hbond>
0.0000

> <Gold.PLP.Chemscore.CHOScore>
0.9963

> <Gold.PLP.Chemscore.Metal>
0.0000

> <Gold.Chemscore.Hbonds>
donor molecule, donor type, donor heavy atom, donor atom, acceptor molecule, acceptor atom, score
      L1  C    10    41       P1  8028  0.98

> <Gold.PLP.Chemscore.Internal.Correction>
0.4634

> <Gold.Rescore>
     Score         DG    S(hbond)    S(metal)    S(lipo)     H(rot)  DE(clash)    DE(int)     intcor
      7.55      -9.62       0.00        0.00     114.45       3.62       0.23       1.84       ----

> <Gold.Chemscore.Fitness>
7.5477

> <Gold.Chemscore.DG>
-9.6185

> <Gold.Chemscore.ZeroCoef>
-5.4800

> <Gold.Chemscore.Hbond>
0.0031

> <Gold.Chemscore.Metal>
0.0000

> <Gold.Chemscore.Lipo>
114.4493

> <Gold.Chemscore.Internal_Hbond>
0.0000

> <Gold.Chemscore.DEClash>
0.2335

> <Gold.Chemscore.DEInternal>
1.8374

> <Gold.Chemscore.Rot>
3.6182

> <Gold.Chemscore.Internal.Correction>
   9.000000E+99

> <Gold.Chemscore.Hbond.Weighted>
-0.0105

> <Gold.Chemscore.Metal.Weighted>
-0.0000

> <Gold.Chemscore.Lipo.Weighted>
-13.3906

> <Gold.Chemscore.Internal_Hbond.Weighted>
0.0000

> <Gold.Chemscore.DEClash.Weighted>
0.2335

> <Gold.Chemscore.DEInternal.Weighted>
1.8374

> <Gold.Chemscore.Rot.Weighted>
9.2625

> <Gold.Chemscore.Internal.Correction.Weighted>
   9.000000E+99

> <Gold.Protein.RotatedTorsions>
[ 6907 6896 6895 6894 ] final  -17.84 input  -60.11 | X-H torsion
[ 7974 7965 7964 7962 ] final  -47.87 input  175.53 | X-H torsion
[ 8008 7997 7996 7995 ] final   60.37 input   59.86 | X-H torsion
[ 10167 10162 10161 10158 ] final -104.24 input  -65.29 | X-H torsion
[ 10718 10713 10712 10709 ] final  -46.30 input   66.30 | X-H torsion
[ 10763 10752 10751 10750 ] final   94.68 input  -60.55 | X-H torsion
[ 11005 11000 10999 10996 ] final  154.92 input  -57.11 | X-H torsion

> <Gold.Protein.ActiveResidues>
 VAL166  LYS551  ARG553  GLY616  TRP617  ASP618  TYR619  PRO620  LYS621  CYS622 
 ASP623  PHE694  ASN695  SER759  ASP760  ASP761  ALA762  ILE779  LEU786  VAL792 
 PHE793  MET794  SER795  GLU796  ALA797  LYS798  CYS799  TRP800  GLU811  SER814 

> <Gold.Protein.RotatedAtoms>
  151.2872  135.0731  159.9190 H   0  0  0  0  0  0  0  0  0  0  0  0  # atno 6907 bound_to 6896
  152.5323  133.9970  159.7887 H   0  0  0  0  0  0  0  0  0  0  0  0  # atno 6908 bound_to 6896
  151.0233  133.5805  159.2699 H   0  0  0  0  0  0  0  0  0  0  0  0  # atno 6909 bound_to 6896
  145.9571  140.7515  142.9476 H   0  0  0  0  0  0  0  0  0  0  0  0  # atno 7974 bound_to 7965
  155.5813  140.3491  155.4541 H   0  0  0  0  0  0  0  0  0  0  0  0  # atno 8008 bound_to 7997
  156.0371  140.1287  157.0221 H   0  0  0  0  0  0  0  0  0  0  0  0  # atno 8009 bound_to 7997
  154.4376  140.1031  156.6169 H   0  0  0  0  0  0  0  0  0  0  0  0  # atno 8010 bound_to 7997
  140.2114  143.3744  152.1047 H   0  0  0  0  0  0  0  0  0  0  0  0  # atno 10167 bound_to 10162
  156.2197  130.4165  149.9009 H   0  0  0  0  0  0  0  0  0  0  0  0  # atno 10718 bound_to 10713
  153.2444  135.4281  155.0732 H   0  0  0  0  0  0  0  0  0  0  0  0  # atno 10763 bound_to 10752
  154.8355  135.3410  154.6603 H   0  0  0  0  0  0  0  0  0  0  0  0  # atno 10764 bound_to 10752
  153.7026  135.7027  153.5115 H   0  0  0  0  0  0  0  0  0  0  0  0  # atno 10765 bound_to 10752
  140.1533  134.8660  157.2482 H   0  0  0  0  0  0  0  0  0  0  0  0  # atno 11005 bound_to 11000
  144.6807  140.2530  143.7329 LP  0  0  0  0  0  0  0  0  0  0  0  0  # atno 17320 bound_to 7965
  145.8091  139.1995  143.2003 LP  0  0  0  0  0  0  0  0  0  0  0  0  # atno 17321 bound_to 7965
  139.5178  144.6997  151.5528 LP  0  0  0  0  0  0  0  0  0  0  0  0  # atno 17342 bound_to 10162
  140.6321  143.9056  150.6614 LP  0  0  0  0  0  0  0  0  0  0  0  0  # atno 17343 bound_to 10162
  156.6659  130.8801  151.3555 LP  0  0  0  0  0  0  0  0  0  0  0  0  # atno 17370 bound_to 10713
  157.7081  130.9408  150.0998 LP  0  0  0  0  0  0  0  0  0  0  0  0  # atno 17371 bound_to 10713
  140.2578  134.3607  155.7418 LP  0  0  0  0  0  0  0  0  0  0  0  0  # atno 17394 bound_to 11000
  141.2201  133.7352  156.9034 LP  0  0  0  0  0  0  0  0  0  0  0  0  # atno 17395 bound_to 11000

$$$$
