#       Name:                AV-unprocessed.smi:2237
#       Creating user name   scv26
#       Creation time:       Fri Mar 27 12:25:33 2020


#       File generated by GOLD software.
#

@<TRIPOS>MOLECULE
AV-unprocessed.smi:2237
    58    60     1
SMALL
NO_CHARGES


@<TRIPOS>ATOM
      1 ****        -5.5666   5.9834  -1.0954 C.3            1 S1                 0.0000
      2 ****        -5.8111   4.5763  -0.5920 C.ar           1 S1                 0.0000
      3 ****        -7.1192   4.1022  -0.3718 C.ar           1 S1                 0.0000
      4 ****        -7.2768   2.7861   0.0982 C.ar           1 S1                 0.0000
      5 ****        -6.1282   2.0035   0.3259 C.ar           1 S1                 0.0000
      6 ****        -4.8511   2.5544   0.0760 C.ar           1 S1                 0.0000
      7 ****        -3.7580   1.6859   0.3373 N.am           1 S1                 0.0000
      8 ****        -2.4464   1.9272   0.1638 C.2            1 S1                 0.0000
      9 ****        -1.9651   2.9661  -0.2895 O.2            1 S1                 0.0000
     10 ****        -1.7038   0.8775   0.5456 N.am           1 S1                 0.0000
     11 ****        -0.2460   0.8196   0.4915 C.3            1 S1                 0.0000
     12 ****         0.2368   0.4307  -0.9139 C.3            1 S1                 0.0000
     13 ****         1.7657   0.2837  -0.9486 C.3            1 S1                 0.0000
     14 ****         2.2501  -0.7277   0.0360 N.4            1 S1                 1.0000
     15 ****         3.7199  -1.0042  -0.1107 C.3            1 S1                 0.0000
     16 ****         4.0337  -1.8351  -1.3788 C.3            1 S1                 0.0000
     17 ****         3.5662  -3.2964  -1.2439 C.3            1 S1                 0.0000
     18 ****         4.1869  -3.9504  -0.0656 N.4            1 S1                 1.0000
     19 ****         3.8315  -5.3823   0.0375 C.3            1 S1                 0.0000
     20 ****         3.9178  -3.2097   1.1912 C.3            1 S1                 0.0000
     21 ****         4.3807  -1.7442   1.0802 C.3            1 S1                 0.0000
     22 ****         1.8055  -0.3603   1.4130 C.3            1 S1                 0.0000
     23 ****         0.2767  -0.2099   1.5005 C.3            1 S1                 0.0000
     24 ****        -4.7097   3.8251  -0.3767 N.ar           1 S1                 0.0000
     25 ****        -6.4756   6.5834  -1.0469 H              1 S1                 0.0000
     26 ****        -5.2268   5.9591  -2.1310 H              1 S1                 0.0000
     27 ****        -4.8025   6.4768  -0.4939 H              1 S1                 0.0000
     28 ****        -7.9798   4.7282  -0.5566 H              1 S1                 0.0000
     29 ****        -8.2617   2.3827   0.2816 H              1 S1                 0.0000
     30 ****        -6.2321   0.9909   0.6877 H              1 S1                 0.0000
     31 ****        -4.0046   0.7792   0.7051 H              1 S1                 0.0000
     32 ****        -2.1819   0.0645   0.9057 H              1 S1                 0.0000
     33 ****         0.1629   1.7973   0.7548 H              1 S1                 0.0000
     34 ****        -0.2273  -0.5068  -1.2242 H              1 S1                 0.0000
     35 ****        -0.0735   1.1837  -1.6396 H              1 S1                 0.0000
     36 ****         2.0509   0.0171  -1.9640 H              1 S1                 0.0000
     37 ****         2.2341   1.2471  -0.7398 H              1 S1                 0.0000
     38 ****         4.2160  -0.0360  -0.1979 H              1 S1                 0.0000
     39 ****         3.6121  -1.3940  -2.2797 H              1 S1                 0.0000
     40 ****         5.1124  -1.8307  -1.5434 H              1 S1                 0.0000
     41 ****         2.4791  -3.3411  -1.1608 H              1 S1                 0.0000
     42 ****         3.8365  -3.8479  -2.1455 H              1 S1                 0.0000
     43 ****         2.7596  -5.5100   0.1948 H              1 S1                 0.0000
     44 ****         4.3578  -5.8510   0.8697 H              1 S1                 0.0000
     45 ****         4.1097  -5.9150  -0.8725 H              1 S1                 0.0000
     46 ****         2.8533  -3.2604   1.4236 H              1 S1                 0.0000
     47 ****         4.4438  -3.6945   2.0147 H              1 S1                 0.0000
     48 ****         5.4613  -1.7421   0.9282 H              1 S1                 0.0000
     49 ****         4.2435  -1.2155   2.0228 H              1 S1                 0.0000
     50 ****         2.0799  -1.1285   2.1331 H              1 S1                 0.0000
     51 ****         2.2964   0.5637   1.7226 H              1 S1                 0.0000
     52 ****        -0.0051   0.0844   2.5124 H              1 S1                 0.0000
     53 ****        -0.1924  -1.1784   1.3194 H              1 S1                 0.0000
     54 ****         1.7760  -1.5925  -0.1812 H              1 S1                 0.0000
     55 ****         5.1863  -3.9166  -0.2112 H              1 S1                 0.0000
     56 ****        -2.5655   3.7174  -0.5634 LP             1 S1                 0.0000
     57 ****        -0.9738   3.0585  -0.3837 LP             1 S1                 0.0000
     58 ****        -3.7995   4.2017  -0.5492 LP             1 S1                 0.0000
@<TRIPOS>BOND
    1    1    2 1     
    2    1   25 1     
    3    1   26 1     
    4    1   27 1     
    5    2   24 ar    
    6    2    3 ar    
    7    3    4 ar    
    8    3   28 1     
    9    4    5 ar    
   10    4   29 1     
   11    5    6 ar    
   12    5   30 1     
   13    6    7 1     
   14    6   24 ar    
   15    7    8 am    
   16    7   31 1     
   17    8    9 2     
   18    8   10 am    
   19   10   11 1     
   20   10   32 1     
   21   11   23 1     
   22   11   12 1     
   23   11   33 1     
   24   12   13 1     
   25   12   34 1     
   26   12   35 1     
   27   13   14 1     
   28   13   36 1     
   29   13   37 1     
   30   14   15 1     
   31   14   22 1     
   32   14   54 1     
   33   15   21 1     
   34   15   16 1     
   35   15   38 1     
   36   16   17 1     
   37   16   39 1     
   38   16   40 1     
   39   17   18 1     
   40   17   41 1     
   41   17   42 1     
   42   18   19 1     
   43   18   20 1     
   44   18   55 1     
   45   19   43 1     
   46   19   44 1     
   47   19   45 1     
   48   20   21 1     
   49   20   46 1     
   50   20   47 1     
   51   21   48 1     
   52   21   49 1     
   53   22   23 1     
   54   22   50 1     
   55   22   51 1     
   56   23   52 1     
   57   23   53 1     
   58    9   56 1     
   59    9   57 1     
   60   24   58 1     
@<TRIPOS>SUBSTRUCTURE
      1 S1             1
@<TRIPOS>SET
LONE_PAIRS      STATIC     ATOMS    <user>   **** ""
3 56 57 58
DONOR_HYDROGENS      STATIC     ATOMS    <user>   **** ""
4 31 32 54 55
ATOM$BLUE        STATIC     ATOMS    COLORGROUP SYSTEM
3 56 57 58
ATOM$RED        STATIC     ATOMS    COLORGROUP SYSTEM
4 31 32 54 55
