AV-unprocessed.smi:1492|AV-procd|sdf|6043|dock8
  -GOLD-   22720 6153D 1   1.00000     0.00000
 Structure written by MMmdl.
 53 54  0  0  0  0  0  0  0  0  2 V2000
  148.3881  140.4973  154.1556 C   0  0  0  0  0  0  0  0  0  0  0  0
  148.2970  138.9933  153.8461 C   0  0  0  0  0  0  0  0  0  0  0  0
  149.1822  138.0686  154.7425 C   0  0  2  0  0  0  0  0  0  0  0  0
  148.8714  138.4138  156.2215 C   0  0  0  0  0  0  0  0  0  0  0  0
  150.6927  138.3688  154.4765 C   0  0  0  0  0  0  0  0  0  0  0  0
  151.5402  138.0761  155.6282 N   0  0  0  0  0  0  0  0  0  0  0  0
  152.4734  138.8910  156.1412 C   0  0  0  0  0  0  0  0  0  0  0  0
  152.8519  139.9274  155.5971 O   0  0  0  0  0  0  0  0  0  0  0  0
  153.0242  138.4930  157.5094 C   0  0  0  0  0  0  0  0  0  0  0  0
  153.1046  139.6438  158.5120 C   0  0  0  0  0  0  0  0  0  0  0  0
  152.0263  140.3903  158.8622 C   0  0  0  0  0  0  0  0  0  0  0  0
  150.6283  140.1916  158.3030 C   0  0  0  0  0  0  0  0  0  0  0  0
  152.1318  141.4077  159.7937 N   0  0  0  0  0  0  0  0  0  0  0  0
  153.3717  141.6371  160.3660 C   0  0  0  0  0  0  0  0  0  0  0  0
  153.3753  142.7647  161.3749 C   0  0  0  0  0  0  0  0  0  0  0  0
  154.4575  140.9760  160.1020 N   0  0  0  0  0  0  0  0  0  0  0  0
  154.4050  139.9348  159.1617 C   0  0  0  0  0  0  0  0  0  0  0  0
  155.4136  139.2787  158.9047 O   0  0  0  0  0  0  0  0  0  0  0  0
  148.8803  136.6157  154.4562 N   0  3  0  0  0  0  0  0  0  0  0  0
  149.8190  135.6198  155.0499 C   0  0  0  0  0  0  0  0  0  0  0  0
  149.5045  134.2010  154.5450 C   0  0  0  0  0  0  0  0  0  0  0  0
  148.1568  133.8680  154.8421 O   0  0  0  0  0  0  0  0  0  0  0  0
  147.2494  134.7484  154.1966 C   0  0  0  0  0  0  0  0  0  0  0  0
  147.4750  136.1807  154.7054 C   0  0  0  0  0  0  0  0  0  0  0  0
  151.3048  141.9403  160.0233 H   0  0  0  0  0  0  0  0  0  0  0  0
  147.7375  141.0622  153.4878 H   0  0  0  0  0  0  0  0  0  0  0  0
  149.4010  140.8769  154.0217 H   0  0  0  0  0  0  0  0  0  0  0  0
  148.0755  140.7219  155.1747 H   0  0  0  0  0  0  0  0  0  0  0  0
  147.2506  138.6975  153.9201 H   0  0  0  0  0  0  0  0  0  0  0  0
  148.5204  138.8377  152.7917 H   0  0  0  0  0  0  0  0  0  0  0  0
  149.0802  139.4621  156.4377 H   0  0  0  0  0  0  0  0  0  0  0  0
  149.4704  137.8234  156.9145 H   0  0  0  0  0  0  0  0  0  0  0  0
  147.8230  138.2566  156.4721 H   0  0  0  0  0  0  0  0  0  0  0  0
  151.0790  137.7396  153.6753 H   0  0  0  0  0  0  0  0  0  0  0  0
  150.8198  139.3998  154.1429 H   0  0  0  0  0  0  0  0  0  0  0  0
  151.3219  137.2367  156.1458 H   0  0  0  0  0  0  0  0  0  0  0  0
  152.4276  137.6703  157.9054 H   0  0  0  0  0  0  0  0  0  0  0  0
  154.0210  138.0726  157.3741 H   0  0  0  0  0  0  0  0  0  0  0  0
  150.6258  140.3231  157.2208 H   0  0  0  0  0  0  0  0  0  0  0  0
  149.9204  140.9046  158.7276 H   0  0  0  0  0  0  0  0  0  0  0  0
  150.2662  139.1890  158.5311 H   0  0  0  0  0  0  0  0  0  0  0  0
  154.3901  142.9890  161.7062 H   0  0  0  0  0  0  0  0  0  0  0  0
  152.7832  142.4921  162.2490 H   0  0  0  0  0  0  0  0  0  0  0  0
  152.9530  143.6702  160.9379 H   0  0  0  0  0  0  0  0  0  0  0  0
  150.8523  135.8275  154.7809 H   0  0  0  0  0  0  0  0  0  0  0  0
  149.7548  135.6440  156.1380 H   0  0  0  0  0  0  0  0  0  0  0  0
  149.6841  134.1216  153.4716 H   0  0  0  0  0  0  0  0  0  0  0  0
  150.1600  133.4773  155.0298 H   0  0  0  0  0  0  0  0  0  0  0  0
  147.3712  134.6941  153.1135 H   0  0  0  0  0  0  0  0  0  0  0  0
  146.2309  134.4282  154.4182 H   0  0  0  0  0  0  0  0  0  0  0  0
  147.2490  136.2196  155.7711 H   0  0  0  0  0  0  0  0  0  0  0  0
  146.7565  136.8219  154.1998 H   0  0  0  0  0  0  0  0  0  0  0  0
  149.0081  136.5275  153.4580 H   0  0  0  0  0  0  0  0  0  0  0  0
  1  2  1  0  0  0  0
  1 26  1  0  0  0  0
  1 27  1  0  0  0  0
  1 28  1  0  0  0  0
  2  3  1  0  0  0  0
  2 29  1  0  0  0  0
  2 30  1  0  0  0  0
  3  4  1  0  0  0  0
  3  5  1  0  0  0  0
  3 19  1  0  0  0  0
  4 31  1  0  0  0  0
  4 32  1  0  0  0  0
  4 33  1  0  0  0  0
  5  6  1  0  0  0  0
  5 34  1  0  0  0  0
  5 35  1  0  0  0  0
  6  7  1  0  0  0  0
  6 36  1  0  0  0  0
  7  8  2  0  0  0  0
  7  9  1  0  0  0  0
  9 37  1  0  0  0  0
  9 38  1  0  0  0  0
  9 10  1  0  0  0  0
 10 17  1  0  0  0  0
 10 11  2  0  0  0  0
 11 12  1  0  0  0  0
 11 13  1  0  0  0  0
 12 39  1  0  0  0  0
 12 40  1  0  0  0  0
 12 41  1  0  0  0  0
 13 25  1  0  0  0  0
 13 14  1  0  0  0  0
 14 15  1  0  0  0  0
 14 16  2  0  0  0  0
 15 42  1  0  0  0  0
 15 43  1  0  0  0  0
 15 44  1  0  0  0  0
 16 17  1  0  0  0  0
 17 18  2  0  0  0  0
 19 24  1  0  0  0  0
 19 20  1  0  0  0  0
 19 53  1  0  0  0  0
 20 21  1  0  0  0  0
 20 45  1  0  0  0  0
 20 46  1  0  0  0  0
 21 22  1  0  0  0  0
 21 47  1  0  0  0  0
 21 48  1  0  0  0  0
 22 23  1  0  0  0  0
 23 24  1  0  0  0  0
 23 49  1  0  0  0  0
 23 50  1  0  0  0  0
 24 51  1  0  0  0  0
 24 52  1  0  0  0  0
M  CHG  1  19   1
M  END
> <s_m_source_file>
AV-unprocessed.smi

> <i_m_source_file_index>
1492

> <i_lp_mmshare_version>
43012

> <i_f3d_flags>
0

> <s_epik_input>
W0NIMl0xW0NIMl1PW0NIMl1bQ0gyXU4xW0NAQF0oW0NIM10pKFtDSDJdW0NIM10pW0NIMl1bTkhdQyg9TylbQ0gyXWMyYyhbQ0gzXSluYyhbQ0gzXSlbbkhdYzI9Tw==

> <s_epik_cmdline>
J2VwaWtfcHl0aG9uJywgJy1waCcsICc3LjAnLCAnLXRuJywgJzgnLCAnLW1hJywgJzIwMCcsICctbWV0YWxfYmluZGluZycsICctaW1hZScsICc8aW5maWxlLm1hZT4nLCAnLW9tYWUnLCAnPG91dGZpbGUubWFlPic=

> <r_lp_tautomer_probability>
0.156392

> <r_epik_Ionization_Penalty>
0.523233

> <r_epik_Ionization_Penalty_Charging>
0.523147

> <r_epik_Ionization_Penalty_Neutral>
8.52784e-05

> <r_epik_State_Penalty>
1.66677

> <r_epik_Charging_Adjusted_Penalty>
2.18991

> <i_epik_Tot_Q>
1

> <i_epik_Tot_abs_Q>
1

> <r_epik_Metal_State_Penalty>
1.84524

> <b_epik_Metal_Only>
0

> <s_lp_Force_Field>
OPLS_2005

> <r_lp_Energy>
32.5308

> <b_lp_Chiralities_Consistent>
1

> <s_lp_Variant>
AV-unprocessed.smi:1492-8

> <Gold.Version>
5.8.1

> <Gold.Id.Protein>
6NUR|6NUR_protein|mol2

> <Gold.PLP.Fitness>
42.3426

> <Gold.PLP.PLP>
-31.8471

> <Gold.PLP.part.hbond>
-3.3009

> <Gold.PLP.part.metal>
0.0000

> <Gold.PLP.part.buried>
-1.2867

> <Gold.PLP.part.nonpolar>
-26.1485

> <Gold.PLP.part.repulsive>
0.3134

> <Gold.PLP.ligand.clash>
0.0000

> <Gold.PLP.ligand.torsion>
0.8483

> <Gold.PLP.Chemscore.Hbond>
3.9920

> <Gold.PLP.Chemscore.CHOScore>
0.0000

> <Gold.PLP.Chemscore.Metal>
0.0000

> <Gold.Chemscore.Hbonds>
donor molecule, donor type, donor heavy atom, donor atom, acceptor molecule, acceptor atom, score
      L1  H    19    53       P1  7948  2.00
      P1  H  7997  8008       L1     8  1.00
      P1  H  7997  8010       L1    18  0.65

> <Gold.PLP.Chemscore.Internal.Correction>
0.2162

> <Gold.Rescore>
     Score         DG    S(hbond)    S(metal)    S(lipo)     H(rot)  DE(clash)    DE(int)     intcor
     13.65     -14.59       1.98        0.00      69.19       2.19       0.05       0.89       ----

> <Gold.Chemscore.Fitness>
13.6513

> <Gold.Chemscore.DG>
-14.5888

> <Gold.Chemscore.ZeroCoef>
-5.4800

> <Gold.Chemscore.Hbond>
1.9840

> <Gold.Chemscore.Metal>
0.0000

> <Gold.Chemscore.Lipo>
69.1902

> <Gold.Chemscore.Internal_Hbond>
0.0000

> <Gold.Chemscore.DEClash>
0.0500

> <Gold.Chemscore.DEInternal>
0.8874

> <Gold.Chemscore.Rot>
2.1926

> <Gold.Chemscore.Internal.Correction>
   9.000000E+99

> <Gold.Chemscore.Hbonds>
donor molecule, donor type, donor heavy atom, donor atom, acceptor molecule, acceptor atom, score
      L1  H    19    53       P1  7948  0.99
      P1  H  7997  8008       L1     8  0.55
      P1  H  7997  8010       L1    18  0.06

> <Gold.Chemscore.Hbond.Weighted>
-6.6265

> <Gold.Chemscore.Metal.Weighted>
-0.0000

> <Gold.Chemscore.Lipo.Weighted>
-8.0953

> <Gold.Chemscore.Internal_Hbond.Weighted>
0.0000

> <Gold.Chemscore.DEClash.Weighted>
0.0500

> <Gold.Chemscore.DEInternal.Weighted>
0.8874

> <Gold.Chemscore.Rot.Weighted>
5.6129

> <Gold.Chemscore.Internal.Correction.Weighted>
   9.000000E+99

> <Gold.Protein.RotatedTorsions>
[ 6907 6896 6895 6894 ] final   61.83 input  -60.11 | X-H torsion
[ 7974 7965 7964 7962 ] final   99.80 input  175.53 | X-H torsion
[ 8008 7997 7996 7995 ] final  -29.48 input   59.86 | X-H torsion
[ 10167 10162 10161 10158 ] final  -49.95 input  -65.29 | X-H torsion
[ 10718 10713 10712 10709 ] final   48.16 input   66.30 | X-H torsion
[ 10763 10752 10751 10750 ] final  -67.92 input  -60.55 | X-H torsion
[ 11005 11000 10999 10996 ] final    7.89 input  -57.11 | X-H torsion

> <Gold.Protein.ActiveResidues>
 VAL166  LYS551  ARG553  GLY616  TRP617  ASP618  TYR619  PRO620  LYS621  CYS622 
 ASP623  PHE694  ASN695  SER759  ASP760  ASP761  ALA762  ILE779  LEU786  VAL792 
 PHE793  MET794  SER795  GLU796  ALA797  LYS798  CYS799  TRP800  GLU811  SER814 

> <Gold.Protein.RotatedAtoms>
  152.4121  134.6105  160.0024 H   0  0  0  0  0  0  0  0  0  0  0  0  # atno 6907 bound_to 6896
  151.6279  133.3328  159.3110 H   0  0  0  0  0  0  0  0  0  0  0  0  # atno 6908 bound_to 6896
  150.8012  134.7146  159.6668 H   0  0  0  0  0  0  0  0  0  0  0  0  # atno 6909 bound_to 6896
  145.3941  139.2358  143.3336 H   0  0  0  0  0  0  0  0  0  0  0  0  # atno 7974 bound_to 7965
  154.4288  140.1817  156.1254 H   0  0  0  0  0  0  0  0  0  0  0  0  # atno 8008 bound_to 7997
  156.0110  140.3350  155.6915 H   0  0  0  0  0  0  0  0  0  0  0  0  # atno 8009 bound_to 7997
  155.6111  140.0650  157.2696 H   0  0  0  0  0  0  0  0  0  0  0  0  # atno 8010 bound_to 7997
  140.6661  143.2677  151.4289 H   0  0  0  0  0  0  0  0  0  0  0  0  # atno 10167 bound_to 10162
  157.4658  130.8225  149.7935 H   0  0  0  0  0  0  0  0  0  0  0  0  # atno 10718 bound_to 10713
  154.3815  135.6073  153.5793 H   0  0  0  0  0  0  0  0  0  0  0  0  # atno 10763 bound_to 10752
  152.9788  135.5862  154.4404 H   0  0  0  0  0  0  0  0  0  0  0  0  # atno 10764 bound_to 10752
  154.4174  135.2845  155.1975 H   0  0  0  0  0  0  0  0  0  0  0  0  # atno 10765 bound_to 10752
  140.5432  134.0355  155.7911 H   0  0  0  0  0  0  0  0  0  0  0  0  # atno 11005 bound_to 11000
  146.2783  140.4628  142.8786 LP  0  0  0  0  0  0  0  0  0  0  0  0  # atno 17320 bound_to 7965
  144.8420  140.6871  143.6223 LP  0  0  0  0  0  0  0  0  0  0  0  0  # atno 17321 bound_to 7965
  139.5910  144.1499  152.2088 LP  0  0  0  0  0  0  0  0  0  0  0  0  # atno 17342 bound_to 10162
  140.0854  144.5666  150.7092 LP  0  0  0  0  0  0  0  0  0  0  0  0  # atno 17343 bound_to 10162
  156.0050  130.3860  150.2465 LP  0  0  0  0  0  0  0  0  0  0  0  0  # atno 17370 bound_to 10713
  157.0645  131.0099  151.3211 LP  0  0  0  0  0  0  0  0  0  0  0  0  # atno 17371 bound_to 10713
  141.1215  133.9453  157.2720 LP  0  0  0  0  0  0  0  0  0  0  0  0  # atno 17394 bound_to 11000
  139.9493  135.0178  156.8947 LP  0  0  0  0  0  0  0  0  0  0  0  0  # atno 17395 bound_to 11000

$$$$
