AV-unprocessed.smi:973|AV-procd|sdf|4299|dock7
  -GOLD-   22720 2203D 1   1.00000     0.00000
 Structure written by MMmdl.
 41 42  0  0  0  0  0  0  0  0  1 V2000
  142.1839  133.9075  152.2317 C   0  0  0  0  0  0  0  0  0  0  0  0
  143.4929  133.4919  151.7212 N   0  0  0  0  0  0  0  0  0  0  0  0
  143.5140  132.6143  150.6238 C   0  0  0  0  0  0  0  0  0  0  0  0
  144.6651  132.1799  150.0928 C   0  0  0  0  0  0  0  0  0  0  0  0
  145.9047  132.6344  150.6759 C   0  0  0  0  0  0  0  0  0  0  0  0
  145.9071  133.4736  151.7421 C   0  0  0  0  0  0  0  0  0  0  0  0
  147.0670  133.9691  152.3632 N   0  0  0  0  0  0  0  0  0  0  0  0
  147.6184  133.6177  153.5396 C   0  0  0  0  0  0  0  0  0  0  0  0
  147.1686  132.7852  154.3269 O   0  0  0  0  0  0  0  0  0  0  0  0
  148.7377  134.3185  153.7715 N   0  0  0  0  0  0  0  0  0  0  0  0
  149.5606  134.2127  154.9709 C   0  0  0  0  0  0  0  0  0  0  0  0
  149.3583  135.4161  155.9084 C   0  0  0  0  0  0  0  0  0  0  0  0
  149.8438  136.7206  155.2982 C   0  0  0  0  0  0  0  0  0  0  0  0
  151.1324  136.9104  154.9537 C   0  0  0  0  0  0  0  0  0  0  0  0
  151.6763  138.1979  154.3596 C   0  0  0  0  0  0  0  0  0  0  0  0
  150.6952  139.3727  154.5089 C   0  0  0  0  0  0  0  0  0  0  0  0
  149.2616  138.9410  154.1772 C   0  0  0  0  0  0  0  0  0  0  0  0
  148.7898  137.8053  155.1030 C   0  0  0  0  0  0  0  0  0  0  0  0
  144.6340  133.9546  152.3134 C   0  0  0  0  0  0  0  0  0  0  0  0
  144.5861  134.7288  153.2727 O   0  0  0  0  0  0  0  0  0  0  0  0
  141.3556  133.4888  151.6593 H   0  0  0  0  0  0  0  0  0  0  0  0
  142.0845  134.9934  152.1976 H   0  0  0  0  0  0  0  0  0  0  0  0
  142.0587  133.5865  153.2667 H   0  0  0  0  0  0  0  0  0  0  0  0
  142.5462  132.3195  150.2450 H   0  0  0  0  0  0  0  0  0  0  0  0
  144.6658  131.5045  149.2499 H   0  0  0  0  0  0  0  0  0  0  0  0
  146.8193  132.2930  150.2188 H   0  0  0  0  0  0  0  0  0  0  0  0
  147.5171  134.7236  151.8657 H   0  0  0  0  0  0  0  0  0  0  0  0
  149.0342  134.9860  153.0745 H   0  0  0  0  0  0  0  0  0  0  0  0
  149.2862  133.2878  155.4782 H   0  0  0  0  0  0  0  0  0  0  0  0
  150.6122  134.1154  154.6949 H   0  0  0  0  0  0  0  0  0  0  0  0
  148.3010  135.5118  156.1605 H   0  0  0  0  0  0  0  0  0  0  0  0
  149.8833  135.2533  156.8503 H   0  0  0  0  0  0  0  0  0  0  0  0
  151.8483  136.1128  155.0905 H   0  0  0  0  0  0  0  0  0  0  0  0
  152.6241  138.4436  154.8393 H   0  0  0  0  0  0  0  0  0  0  0  0
  151.8908  138.0176  153.3058 H   0  0  0  0  0  0  0  0  0  0  0  0
  150.7276  139.7474  155.5330 H   0  0  0  0  0  0  0  0  0  0  0  0
  151.0024  140.1994  153.8676 H   0  0  0  0  0  0  0  0  0  0  0  0
  148.5820  139.7903  154.2542 H   0  0  0  0  0  0  0  0  0  0  0  0
  149.2201  138.6058  153.1400 H   0  0  0  0  0  0  0  0  0  0  0  0
  147.8792  137.3617  154.6990 H   0  0  0  0  0  0  0  0  0  0  0  0
  148.5350  138.2135  156.0814 H   0  0  0  0  0  0  0  0  0  0  0  0
  1  2  1  0  0  0  0
  1 21  1  0  0  0  0
  1 22  1  0  0  0  0
  1 23  1  0  0  0  0
  2 19  1  0  0  0  0
  2  3  1  0  0  0  0
  3  4  2  0  0  0  0
  3 24  1  0  0  0  0
  4  5  1  0  0  0  0
  4 25  1  0  0  0  0
  5  6  2  0  0  0  0
  5 26  1  0  0  0  0
  6  7  1  0  0  0  0
  6 19  1  0  0  0  0
  7  8  1  0  0  0  0
  7 27  1  0  0  0  0
  8  9  2  0  0  0  0
  8 10  1  0  0  0  0
 10 11  1  0  0  0  0
 10 28  1  0  0  0  0
 11 12  1  0  0  0  0
 11 29  1  0  0  0  0
 11 30  1  0  0  0  0
 12 13  1  0  0  0  0
 12 31  1  0  0  0  0
 12 32  1  0  0  0  0
 13 18  1  0  0  0  0
 13 14  2  0  0  0  0
 14 15  1  0  0  0  0
 14 33  1  0  0  0  0
 15 16  1  0  0  0  0
 15 34  1  0  0  0  0
 15 35  1  0  0  0  0
 16 17  1  0  0  0  0
 16 36  1  0  0  0  0
 16 37  1  0  0  0  0
 17 18  1  0  0  0  0
 17 38  1  0  0  0  0
 17 39  1  0  0  0  0
 18 40  1  0  0  0  0
 18 41  1  0  0  0  0
 19 20  2  0  0  0  0
M  END
> <s_m_source_file>
AV-unprocessed.smi

> <i_m_source_file_index>
973

> <i_lp_mmshare_version>
43012

> <i_f3d_flags>
0

> <s_epik_input>
W0NIM11uMVtjSF1bY0hdW2NIXWMoYzE9TylbTkhdQyg9TylbTkhdW0NIMl1bQ0gyXUMyPVtDSF1bQ0gyXVtDSDJdW0NIMl1bQ0gyXTI=

> <s_epik_cmdline>
J2VwaWtfcHl0aG9uJywgJy1waCcsICc3LjAnLCAnLXRuJywgJzgnLCAnLW1hJywgJzIwMCcsICctbWV0YWxfYmluZGluZycsICctaW1hZScsICc8aW5maWxlLm1hZT4nLCAnLW9tYWUnLCAnPG91dGZpbGUubWFlPic=

> <r_lp_tautomer_probability>
1

> <r_epik_Ionization_Penalty>
2.5397e-05

> <r_epik_Ionization_Penalty_Charging>
4.7783e-06

> <r_epik_Ionization_Penalty_Neutral>
2.06187e-05

> <r_epik_State_Penalty>
-0

> <r_epik_Charging_Adjusted_Penalty>
4.7783e-06

> <i_epik_Tot_Q>
0

> <i_epik_Tot_abs_Q>
0

> <r_epik_Metal_State_Penalty>
-0

> <b_epik_Metal_Only>
0

> <s_lp_Force_Field>
OPLS_2005

> <r_lp_Energy>
20.1854

> <b_lp_Chiralities_Consistent>
1

> <s_lp_Variant>
AV-unprocessed.smi:973-1

> <Gold.Version>
5.8.1

> <Gold.Id.Protein>
6NUR|6NUR_protein|mol2

> <Gold.PLP.Fitness>
40.9844

> <Gold.PLP.PLP>
-34.4505

> <Gold.PLP.part.hbond>
-2.0000

> <Gold.PLP.part.metal>
0.0000

> <Gold.PLP.part.buried>
-1.8056

> <Gold.PLP.part.nonpolar>
-30.5729

> <Gold.PLP.part.repulsive>
0.1330

> <Gold.PLP.ligand.clash>
0.0000

> <Gold.PLP.ligand.torsion>
0.8105

> <Gold.PLP.Chemscore.Hbond>
1.7333

> <Gold.PLP.Chemscore.CHOScore>
0.9840

> <Gold.PLP.Chemscore.Metal>
0.0000

> <Gold.Chemscore.Hbonds>
donor molecule, donor type, donor heavy atom, donor atom, acceptor molecule, acceptor atom, score
      L1  H     7    27       P1  7948  0.97
      L1  H    10    28       P1  7948  0.80
      L1  C     3    24       P1 10186  0.41
      L1  C     3    24       P1 10952  0.58

> <Gold.PLP.Chemscore.Internal.Correction>
0.0030

> <Gold.Rescore>
     Score         DG    S(hbond)    S(metal)    S(lipo)     H(rot)  DE(clash)    DE(int)     intcor
     13.92     -14.82       1.18        0.00      76.63       1.40       0.07       0.83       ----

> <Gold.Chemscore.Fitness>
13.9214

> <Gold.Chemscore.DG>
-14.8223

> <Gold.Chemscore.ZeroCoef>
-5.4800

> <Gold.Chemscore.Hbond>
1.1827

> <Gold.Chemscore.Metal>
0.0000

> <Gold.Chemscore.Lipo>
76.6274

> <Gold.Chemscore.Internal_Hbond>
0.0000

> <Gold.Chemscore.DEClash>
0.0678

> <Gold.Chemscore.DEInternal>
0.8331

> <Gold.Chemscore.Rot>
1.3958

> <Gold.Chemscore.Internal.Correction>
   9.000000E+99

> <Gold.Chemscore.Hbonds>
donor molecule, donor type, donor heavy atom, donor atom, acceptor molecule, acceptor atom, score
      L1  H     7    27       P1  7948  0.52
      L1  H    10    28       P1  7948  0.12

> <Gold.Chemscore.Hbond.Weighted>
-3.9502

> <Gold.Chemscore.Metal.Weighted>
-0.0000

> <Gold.Chemscore.Lipo.Weighted>
-8.9654

> <Gold.Chemscore.Internal_Hbond.Weighted>
0.0000

> <Gold.Chemscore.DEClash.Weighted>
0.0678

> <Gold.Chemscore.DEInternal.Weighted>
0.8331

> <Gold.Chemscore.Rot.Weighted>
3.5733

> <Gold.Chemscore.Internal.Correction.Weighted>
   9.000000E+99

> <Gold.Protein.RotatedTorsions>
[ 6907 6896 6895 6894 ] final  -42.15 input  -60.11 | X-H torsion
[ 7974 7965 7964 7962 ] final   45.65 input  175.53 | X-H torsion
[ 8008 7997 7996 7995 ] final  -92.66 input   59.86 | X-H torsion
[ 10167 10162 10161 10158 ] final   60.76 input  -65.29 | X-H torsion
[ 10718 10713 10712 10709 ] final  138.64 input   66.30 | X-H torsion
[ 10763 10752 10751 10750 ] final  -80.46 input  -60.55 | X-H torsion
[ 11005 11000 10999 10996 ] final    4.22 input  -57.11 | X-H torsion

> <Gold.Protein.ActiveResidues>
 VAL166  LYS551  ARG553  GLY616  TRP617  ASP618  TYR619  PRO620  LYS621  CYS622 
 ASP623  PHE694  ASN695  SER759  ASP760  ASP761  ALA762  ILE779  LEU786  VAL792 
 PHE793  MET794  SER795  GLU796  ALA797  LYS798  CYS799  TRP800  GLU811  SER814 

> <Gold.Protein.RotatedAtoms>
  150.9585  134.8976  159.7715 H   0  0  0  0  0  0  0  0  0  0  0  0  # atno 6907 bound_to 6896
  152.5147  134.3706  159.9327 H   0  0  0  0  0  0  0  0  0  0  0  0  # atno 6908 bound_to 6896
  151.3719  133.3811  159.2735 H   0  0  0  0  0  0  0  0  0  0  0  0  # atno 6909 bound_to 6896
  146.0461  139.4941  142.9747 H   0  0  0  0  0  0  0  0  0  0  0  0  # atno 7974 bound_to 7965
  154.7259  140.0507  157.0682 H   0  0  0  0  0  0  0  0  0  0  0  0  # atno 8008 bound_to 7997
  155.0366  140.3164  155.4720 H   0  0  0  0  0  0  0  0  0  0  0  0  # atno 8009 bound_to 7997
  156.2829  140.2140  156.5489 H   0  0  0  0  0  0  0  0  0  0  0  0  # atno 8010 bound_to 7997
  140.1621  144.4360  150.6704 H   0  0  0  0  0  0  0  0  0  0  0  0  # atno 10167 bound_to 10162
  157.4232  131.1041  151.0331 H   0  0  0  0  0  0  0  0  0  0  0  0  # atno 10718 bound_to 10713
  154.5515  135.5660  153.6926 H   0  0  0  0  0  0  0  0  0  0  0  0  # atno 10763 bound_to 10752
  152.9991  135.6252  154.2367 H   0  0  0  0  0  0  0  0  0  0  0  0  # atno 10764 bound_to 10752
  154.2302  135.2866  155.2872 H   0  0  0  0  0  0  0  0  0  0  0  0  # atno 10765 bound_to 10752
  140.5844  133.9983  155.8061 H   0  0  0  0  0  0  0  0  0  0  0  0  # atno 11005 bound_to 11000
  145.6803  141.0193  143.1610 LP  0  0  0  0  0  0  0  0  0  0  0  0  # atno 17320 bound_to 7965
  144.7098  139.8413  143.7418 LP  0  0  0  0  0  0  0  0  0  0  0  0  # atno 17321 bound_to 7965
  140.6636  143.2260  151.5796 LP  0  0  0  0  0  0  0  0  0  0  0  0  # atno 17342 bound_to 10162
  139.5376  144.2736  152.1285 LP  0  0  0  0  0  0  0  0  0  0  0  0  # atno 17343 bound_to 10162
  157.1254  130.6079  149.5516 LP  0  0  0  0  0  0  0  0  0  0  0  0  # atno 17370 bound_to 10713
  155.9887  130.4932  150.7183 LP  0  0  0  0  0  0  0  0  0  0  0  0  # atno 17371 bound_to 10713
  141.0976  133.9819  157.3134 LP  0  0  0  0  0  0  0  0  0  0  0  0  # atno 17394 bound_to 11000
  139.9303  135.0200  156.8376 LP  0  0  0  0  0  0  0  0  0  0  0  0  # atno 17395 bound_to 11000

$$$$
