AV-unprocessed.smi:3092|AV-procd|sdf|11783|dock3
  -GOLD-   2272017163D 1   1.00000     0.00000
 Structure written by MMmdl.
 25 26  0  0  0  0  0  0  0  0  2 V2000
  151.9801  144.5003  159.3846 C   0  0  0  0  0  0  0  0  0  0  0  0
  152.4434  143.1273  159.4491 N   0  0  0  0  0  0  0  0  0  0  0  0
  153.3035  142.6093  160.4089 C   0  0  0  0  0  0  0  0  0  0  0  0
  153.4853  141.2829  160.1025 C   0  0  0  0  0  0  0  0  0  0  0  0
  152.7486  140.9691  158.9659 N   0  0  0  0  0  0  0  0  0  0  0  0
  152.1470  142.1048  158.6207 C   0  0  0  0  0  0  0  0  0  0  0  0
  151.2412  142.2327  157.4284 C   0  0  1  0  0  0  0  0  0  0  0  0
  151.2116  141.0282  156.4908 C   0  0  0  0  0  0  0  0  0  0  0  0
  149.9006  141.2155  155.7127 C   0  0  0  0  0  0  0  0  0  0  0  0
  149.0533  142.1263  156.5140 N   0  3  0  0  0  0  0  0  0  0  0  0
  149.7650  142.4253  157.7691 C   0  0  0  0  0  0  0  0  0  0  0  0
  152.4352  145.0894  160.1815 H   0  0  0  0  0  0  0  0  0  0  0  0
  150.8961  144.5300  159.5000 H   0  0  0  0  0  0  0  0  0  0  0  0
  152.2545  144.9389  158.4247 H   0  0  0  0  0  0  0  0  0  0  0  0
  153.7066  143.2117  161.2099 H   0  0  0  0  0  0  0  0  0  0  0  0
  154.0833  140.5381  160.6069 H   0  0  0  0  0  0  0  0  0  0  0  0
  151.5505  143.0952  156.8377 H   0  0  0  0  0  0  0  0  0  0  0  0
  152.0900  140.9663  155.8476 H   0  0  0  0  0  0  0  0  0  0  0  0
  151.1552  140.1039  157.0679 H   0  0  0  0  0  0  0  0  0  0  0  0
  150.0876  141.6771  154.7427 H   0  0  0  0  0  0  0  0  0  0  0  0
  149.3962  140.2640  155.5408 H   0  0  0  0  0  0  0  0  0  0  0  0
  148.9300  142.9845  155.9956 H   0  0  0  0  0  0  0  0  0  0  0  0
  149.4446  141.7024  158.5210 H   0  0  0  0  0  0  0  0  0  0  0  0
  149.5398  143.4251  158.1413 H   0  0  0  0  0  0  0  0  0  0  0  0
  148.1521  141.7119  156.7057 H   0  0  0  0  0  0  0  0  0  0  0  0
  1  2  1  0  0  0  0
  1 12  1  0  0  0  0
  1 13  1  0  0  0  0
  1 14  1  0  0  0  0
  2  6  1  0  0  0  0
  2  3  1  0  0  0  0
  3  4  2  0  0  0  0
  3 15  1  0  0  0  0
  4  5  1  0  0  0  0
  4 16  1  0  0  0  0
  5  6  2  0  0  0  0
  6  7  1  0  0  0  0
  7 11  1  0  0  0  0
  7  8  1  0  0  0  0
  7 17  1  0  0  0  0
  8  9  1  0  0  0  0
  8 18  1  0  0  0  0
  8 19  1  0  0  0  0
  9 10  1  0  0  0  0
  9 20  1  0  0  0  0
  9 21  1  0  0  0  0
 10 11  1  0  0  0  0
 10 22  1  0  0  0  0
 10 25  1  0  0  0  0
 11 23  1  0  0  0  0
 11 24  1  0  0  0  0
M  CHG  1  10   1
M  END
> <s_m_source_file>
AV-unprocessed.smi

> <i_m_source_file_index>
3092

> <i_lp_mmshare_version>
43012

> <i_f3d_flags>
0

> <s_epik_input>
W0NIM11uMVtjSF1bY0hdbmMxW0NAQEhdMltDSDJdW0NIMl1bTkhdW0NIMl0y

> <s_epik_cmdline>
J2VwaWtfcHl0aG9uJywgJy1waCcsICc3LjAnLCAnLXRuJywgJzgnLCAnLW1hJywgJzIwMCcsICctbWV0YWxfYmluZGluZycsICctaW1hZScsICc8aW5maWxlLm1hZT4nLCAnLW9tYWUnLCAnPG91dGZpbGUubWFlPic=

> <r_lp_tautomer_probability>
1

> <r_epik_Ionization_Penalty>
0.177139

> <r_epik_Ionization_Penalty_Charging>
0.177139

> <r_epik_Ionization_Penalty_Neutral>
7.43304e-14

> <r_epik_State_Penalty>
0.16632

> <r_epik_Charging_Adjusted_Penalty>
0.343459

> <i_epik_Tot_Q>
1

> <i_epik_Tot_abs_Q>
1

> <r_epik_Metal_State_Penalty>
0.000191838

> <b_epik_Metal_Only>
0

> <s_lp_Force_Field>
OPLS_2005

> <r_lp_Energy>
23.658

> <b_lp_Chiralities_Consistent>
1

> <s_lp_Variant>
AV-unprocessed.smi:3092-2

> <Gold.Version>
5.8.1

> <Gold.Id.Protein>
6NUR|6NUR_protein|mol2

> <Gold.PLP.Fitness>
33.7693

> <Gold.PLP.PLP>
-28.1333

> <Gold.PLP.part.hbond>
-1.0000

> <Gold.PLP.part.metal>
0.0000

> <Gold.PLP.part.buried>
-3.1906

> <Gold.PLP.part.nonpolar>
-23.7757

> <Gold.PLP.part.repulsive>
0.0345

> <Gold.PLP.ligand.clash>
0.0000

> <Gold.PLP.ligand.torsion>
0.1826

> <Gold.PLP.Chemscore.Hbond>
2.0000

> <Gold.PLP.Chemscore.CHOScore>
0.0000

> <Gold.PLP.Chemscore.Metal>
0.0000

> <Gold.Chemscore.Hbonds>
donor molecule, donor type, donor heavy atom, donor atom, acceptor molecule, acceptor atom, score
      L1  H    10    22       P1  8028  2.00

> <Gold.PLP.Chemscore.Internal.Correction>
0.0012

> <Gold.Rescore>
     Score         DG    S(hbond)    S(metal)    S(lipo)     H(rot)  DE(clash)    DE(int)     intcor
     13.34     -13.58       1.00        0.00      62.65       1.00       0.07       0.17       ----

> <Gold.Chemscore.Fitness>
13.3400

> <Gold.Chemscore.DG>
-13.5833

> <Gold.Chemscore.ZeroCoef>
-5.4800

> <Gold.Chemscore.Hbond>
0.9978

> <Gold.Chemscore.Metal>
0.0000

> <Gold.Chemscore.Lipo>
62.6539

> <Gold.Chemscore.Internal_Hbond>
0.0000

> <Gold.Chemscore.DEClash>
0.0706

> <Gold.Chemscore.DEInternal>
0.1726

> <Gold.Chemscore.Rot>
1.0000

> <Gold.Chemscore.Internal.Correction>
   9.000000E+99

> <Gold.Chemscore.Hbonds>
donor molecule, donor type, donor heavy atom, donor atom, acceptor molecule, acceptor atom, score
      L1  H    10    22       P1  8028  0.99

> <Gold.Chemscore.Hbond.Weighted>
-3.3327

> <Gold.Chemscore.Metal.Weighted>
-0.0000

> <Gold.Chemscore.Lipo.Weighted>
-7.3305

> <Gold.Chemscore.Internal_Hbond.Weighted>
0.0000

> <Gold.Chemscore.DEClash.Weighted>
0.0706

> <Gold.Chemscore.DEInternal.Weighted>
0.1726

> <Gold.Chemscore.Rot.Weighted>
2.5600

> <Gold.Chemscore.Internal.Correction.Weighted>
   9.000000E+99

> <Gold.Protein.RotatedTorsions>
[ 6907 6896 6895 6894 ] final -117.63 input  -60.11 | X-H torsion
[ 7974 7965 7964 7962 ] final  119.55 input  175.53 | X-H torsion
[ 8008 7997 7996 7995 ] final  108.56 input   59.86 | X-H torsion
[ 10167 10162 10161 10158 ] final   17.91 input  -65.29 | X-H torsion
[ 10718 10713 10712 10709 ] final -173.44 input   66.30 | X-H torsion
[ 10763 10752 10751 10750 ] final   32.70 input  -60.55 | X-H torsion
[ 11005 11000 10999 10996 ] final  117.51 input  -57.11 | X-H torsion

> <Gold.Protein.ActiveResidues>
 VAL166  LYS551  ARG553  GLY616  TRP617  ASP618  TYR619  PRO620  LYS621  CYS622 
 ASP623  PHE694  ASN695  SER759  ASP760  ASP761  ALA762  ILE779  LEU786  VAL792 
 PHE793  MET794  SER795  GLU796  ALA797  LYS798  CYS799  TRP800  GLU811  SER814 

> <Gold.Protein.RotatedAtoms>
  150.8152  133.8350  159.3163 H   0  0  0  0  0  0  0  0  0  0  0  0  # atno 6907 bound_to 6896
  151.6124  135.1037  160.0093 H   0  0  0  0  0  0  0  0  0  0  0  0  # atno 6908 bound_to 6896
  152.4244  133.7129  159.6546 H   0  0  0  0  0  0  0  0  0  0  0  0  # atno 6909 bound_to 6896
  145.1418  139.3263  143.4612 H   0  0  0  0  0  0  0  0  0  0  0  0  # atno 7974 bound_to 7965
  156.1913  140.3074  155.9337 H   0  0  0  0  0  0  0  0  0  0  0  0  # atno 8008 bound_to 7997
  155.3168  140.0454  157.3054 H   0  0  0  0  0  0  0  0  0  0  0  0  # atno 8009 bound_to 7997
  154.5455  140.2275  155.8579 H   0  0  0  0  0  0  0  0  0  0  0  0  # atno 8010 bound_to 7997
  140.5691  143.9194  150.6699 H   0  0  0  0  0  0  0  0  0  0  0  0  # atno 10167 bound_to 10162
  156.7703  130.9446  151.3120 H   0  0  0  0  0  0  0  0  0  0  0  0  # atno 10718 bound_to 10713
  153.0249  135.6406  154.1397 H   0  0  0  0  0  0  0  0  0  0  0  0  # atno 10763 bound_to 10752
  154.1127  135.2852  155.3228 H   0  0  0  0  0  0  0  0  0  0  0  0  # atno 10764 bound_to 10752
  154.6320  135.5489  153.7754 H   0  0  0  0  0  0  0  0  0  0  0  0  # atno 10765 bound_to 10752
  139.9077  134.9611  156.7362 H   0  0  0  0  0  0  0  0  0  0  0  0  # atno 11005 bound_to 11000
  146.3504  140.1458  142.8593 LP  0  0  0  0  0  0  0  0  0  0  0  0  # atno 17320 bound_to 7965
  145.0524  140.9028  143.4987 LP  0  0  0  0  0  0  0  0  0  0  0  0  # atno 17321 bound_to 7965
  140.2665  143.3486  152.1276 LP  0  0  0  0  0  0  0  0  0  0  0  0  # atno 17342 bound_to 10162
  139.5108  144.6890  151.5809 LP  0  0  0  0  0  0  0  0  0  0  0  0  # atno 17343 bound_to 10162
  157.6694  130.9037  150.0005 LP  0  0  0  0  0  0  0  0  0  0  0  0  # atno 17370 bound_to 10713
  156.1282  130.3644  149.9775 LP  0  0  0  0  0  0  0  0  0  0  0  0  # atno 17371 bound_to 10713
  140.6886  133.9410  155.7952 LP  0  0  0  0  0  0  0  0  0  0  0  0  # atno 17394 bound_to 11000
  141.0458  134.0556  157.3845 LP  0  0  0  0  0  0  0  0  0  0  0  0  # atno 17395 bound_to 11000

$$$$
