#       Name:                AV-unprocessed.smi:1804
#       Creating user name   scv26
#       Creation time:       Fri Mar 27 08:55:16 2020


#       File generated by GOLD software.
#

@<TRIPOS>MOLECULE
AV-unprocessed.smi:1804
    48    49     1
SMALL
NO_CHARGES


@<TRIPOS>ATOM
      1 ****        -3.1055  -0.5289   0.7440 C.3            1 S1                 0.0000
      2 ****        -2.4146   0.0558  -0.4362 N.4            1 S1                 1.0000
      3 ****        -3.0599  -0.4300  -1.6846 C.3            1 S1                 0.0000
      4 ****        -0.9077  -0.0098  -0.4042 C.3            1 S1                 0.0000
      5 ****        -0.4480  -1.5057  -0.3582 C.3            1 S1                 0.0000
      6 ****         1.0052  -1.6833  -0.3508 N.am           1 S1                 0.0000
      7 ****         1.7529  -1.9796   0.7227 C.2            1 S1                 0.0000
      8 ****         1.2869  -2.1366   1.8514 O.2            1 S1                 0.0000
      9 ****         3.0544  -2.0720   0.3984 N.am           1 S1                 0.0000
     10 ****         4.1564  -2.3452   1.2514 C.2            1 S1                 0.0000
     11 ****         4.0404  -2.5639   2.5705 N.2            1 S1                 0.0000
     12 ****         5.2712  -2.8051   3.1671 N.2            1 S1                 0.0000
     13 ****         6.2654  -2.7587   2.2759 C.2            1 S1                 0.0000
     14 ****         5.7956  -2.4141   0.6206 S.3            1 S1                 0.0000
     15 ****        -0.2661   0.6362  -1.6768 C.3            1 S1                 0.0000
     16 ****        -0.6792   2.0719  -2.0516 C.3            1 S1                 0.0000
     17 ****        -0.3628   3.1374  -0.9949 C.3            1 S1                 0.0000
     18 ****        -1.3316   3.0825   0.1904 C.3            1 S1                 0.0000
     19 ****        -0.9606   2.0744   1.2880 C.3            1 S1                 0.0000
     20 ****        -0.3441   0.7237   0.8550 C.3            1 S1                 0.0000
     21 ****        -3.0804  -1.6186   0.7233 H              1 S1                 0.0000
     22 ****        -4.1542  -0.2303   0.7436 H              1 S1                 0.0000
     23 ****        -2.6875  -0.2026   1.6938 H              1 S1                 0.0000
     24 ****        -2.9226  -1.5030  -1.8174 H              1 S1                 0.0000
     25 ****        -2.6975   0.0729  -2.5786 H              1 S1                 0.0000
     26 ****        -4.1334  -0.2436  -1.6442 H              1 S1                 0.0000
     27 ****        -0.8780  -2.0241   0.4990 H              1 S1                 0.0000
     28 ****        -0.8115  -2.0421  -1.2339 H              1 S1                 0.0000
     29 ****         1.4771  -1.5731  -1.2367 H              1 S1                 0.0000
     30 ****         3.2873  -1.9240  -0.5724 H              1 S1                 0.0000
     31 ****         7.2829  -2.9282   2.5954 H              1 S1                 0.0000
     32 ****         0.8197   0.6363  -1.5755 H              1 S1                 0.0000
     33 ****        -0.4505  -0.0014  -2.5420 H              1 S1                 0.0000
     34 ****        -0.1476   2.3384  -2.9658 H              1 S1                 0.0000
     35 ****        -1.7355   2.1175  -2.3143 H              1 S1                 0.0000
     36 ****         0.6743   3.0735  -0.6630 H              1 S1                 0.0000
     37 ****        -0.4662   4.1146  -1.4684 H              1 S1                 0.0000
     38 ****        -1.3840   4.0709   0.6484 H              1 S1                 0.0000
     39 ****        -2.3414   2.8845  -0.1700 H              1 S1                 0.0000
     40 ****        -0.2513   2.5510   1.9657 H              1 S1                 0.0000
     41 ****        -1.8476   1.8990   1.8960 H              1 S1                 0.0000
     42 ****        -0.4065   0.0612   1.7190 H              1 S1                 0.0000
     43 ****         0.7269   0.8796   0.7204 H              1 S1                 0.0000
     44 ****        -2.6211   1.0440  -0.3997 H              1 S1                 0.0000
     45 ****         0.3029  -2.0441   2.0034 LP             1 S1                 0.0000
     46 ****         1.8924  -2.3567   2.6162 LP             1 S1                 0.0000
     47 ****         3.1712  -2.5544   3.0649 LP             1 S1                 0.0000
     48 ****         5.3974  -2.9903   4.1416 LP             1 S1                 0.0000
@<TRIPOS>BOND
    1    1    2 1     
    2    1   21 1     
    3    1   22 1     
    4    1   23 1     
    5    2    3 1     
    6    2    4 1     
    7    2   44 1     
    8    3   24 1     
    9    3   25 1     
   10    3   26 1     
   11    4   20 1     
   12    4    5 1     
   13    4   15 1     
   14    5    6 1     
   15    5   27 1     
   16    5   28 1     
   17    6    7 am    
   18    6   29 1     
   19    7    8 2     
   20    7    9 am    
   21    9   10 1     
   22    9   30 1     
   23   10   14 1     
   24   10   11 2     
   25   11   12 1     
   26   12   13 2     
   27   13   14 1     
   28   13   31 1     
   29   15   16 1     
   30   15   32 1     
   31   15   33 1     
   32   16   17 1     
   33   16   34 1     
   34   16   35 1     
   35   17   18 1     
   36   17   36 1     
   37   17   37 1     
   38   18   19 1     
   39   18   38 1     
   40   18   39 1     
   41   19   20 1     
   42   19   40 1     
   43   19   41 1     
   44   20   42 1     
   45   20   43 1     
   46    8   45 1     
   47    8   46 1     
   48   11   47 1     
   49   12   48 1     
@<TRIPOS>SUBSTRUCTURE
      1 S1             1
@<TRIPOS>SET
LONE_PAIRS      STATIC     ATOMS    <user>   **** ""
4 45 46 47 48
DONOR_HYDROGENS      STATIC     ATOMS    <user>   **** ""
3 44 29 30
ATOM$BLUE        STATIC     ATOMS    COLORGROUP SYSTEM
4 45 46 47 48
ATOM$RED        STATIC     ATOMS    COLORGROUP SYSTEM
3 44 29 30
