AV-unprocessed.smi:2091|AV-procd|sdf|8540|dock6
  -GOLD-   2272011263D 1   1.00000     0.00000
 Structure written by MMmdl.
 35 36  0  0  0  0  0  0  0  0  2 V2000
  147.9520  131.8530  153.7903 O   0  0  0  0  0  0  0  0  0  0  0  0
  148.3127  132.9567  153.3786 C   0  0  0  0  0  0  0  0  0  0  0  0
  149.6126  133.5964  153.8845 C   0  0  0  0  0  0  0  0  0  0  0  0
  149.4635  134.2399  155.1997 N   0  0  0  0  0  0  0  0  0  0  0  0
  148.7807  135.4678  155.2536 C   0  0  0  0  0  0  0  0  0  0  0  0
  148.5985  136.1293  156.4125 C   0  0  0  0  0  0  0  0  0  0  0  0
  149.1310  135.5400  157.6350 C   0  0  0  0  0  0  0  0  0  0  0  0
  148.9793  136.1331  158.7013 O   0  0  0  0  0  0  0  0  0  0  0  0
  149.7805  134.3434  157.5319 N   0  5  0  0  0  0  0  0  0  0  0  0
  149.9558  133.6808  156.3464 C   0  0  0  0  0  0  0  0  0  0  0  0
  150.5432  132.6003  156.2758 O   0  0  0  0  0  0  0  0  0  0  0  0
  147.6016  133.6821  152.5006 N   0  0  0  0  0  0  0  0  0  0  0  0
  146.3257  133.2816  151.9034 C   0  0  2  0  0  0  0  0  0  0  0  0
  146.5849  132.9732  150.4108 C   0  0  0  0  0  0  0  0  0  0  0  0
  145.5303  132.0497  149.7757 C   0  0  0  0  0  0  0  0  0  0  0  0
  144.1134  132.6385  149.6962 C   0  0  0  0  0  0  0  0  0  0  0  0
  143.4940  132.9507  151.0693 C   0  0  0  0  0  0  0  0  0  0  0  0
  144.0199  134.1841  151.6391 N   0  0  0  0  0  0  0  0  0  0  0  0
  145.2864  134.4221  152.0126 C   0  0  0  0  0  0  0  0  0  0  0  0
  145.6127  135.5338  152.4293 O   0  0  0  0  0  0  0  0  0  0  0  0
  150.4043  132.8457  153.9232 H   0  0  0  0  0  0  0  0  0  0  0  0
  149.9430  134.3220  153.1404 H   0  0  0  0  0  0  0  0  0  0  0  0
  148.4124  135.8315  154.3055 H   0  0  0  0  0  0  0  0  0  0  0  0
  148.0694  137.0704  156.4373 H   0  0  0  0  0  0  0  0  0  0  0  0
  147.9677  134.5825  152.2282 H   0  0  0  0  0  0  0  0  0  0  0  0
  145.9593  132.3886  152.4131 H   0  0  0  0  0  0  0  0  0  0  0  0
  146.6800  133.8933  149.8312 H   0  0  0  0  0  0  0  0  0  0  0  0
  147.5477  132.4687  150.3151 H   0  0  0  0  0  0  0  0  0  0  0  0
  145.8555  131.7958  148.7663 H   0  0  0  0  0  0  0  0  0  0  0  0
  145.5005  131.1062  150.3222 H   0  0  0  0  0  0  0  0  0  0  0  0
  144.1106  133.5318  149.0701 H   0  0  0  0  0  0  0  0  0  0  0  0
  143.4754  131.9151  149.1873 H   0  0  0  0  0  0  0  0  0  0  0  0
  142.4180  133.0841  150.9550 H   0  0  0  0  0  0  0  0  0  0  0  0
  143.6277  132.1192  151.7630 H   0  0  0  0  0  0  0  0  0  0  0  0
  143.3644  134.9464  151.7324 H   0  0  0  0  0  0  0  0  0  0  0  0
  1  2  2  0  0  0  0
  2  3  1  0  0  0  0
  2 12  1  0  0  0  0
  3  4  1  0  0  0  0
  3 21  1  0  0  0  0
  3 22  1  0  0  0  0
  4 10  1  0  0  0  0
  4  5  1  0  0  0  0
  5  6  2  0  0  0  0
  5 23  1  0  0  0  0
  6  7  1  0  0  0  0
  6 24  1  0  0  0  0
  7  8  2  0  0  0  0
  7  9  1  0  0  0  0
  9 10  1  0  0  0  0
 10 11  2  0  0  0  0
 12 13  1  0  0  0  0
 12 25  1  0  0  0  0
 13 19  1  0  0  0  0
 13 14  1  0  0  0  0
 13 26  1  0  0  0  0
 14 15  1  0  0  0  0
 14 27  1  0  0  0  0
 14 28  1  0  0  0  0
 15 16  1  0  0  0  0
 15 29  1  0  0  0  0
 15 30  1  0  0  0  0
 16 17  1  0  0  0  0
 16 31  1  0  0  0  0
 16 32  1  0  0  0  0
 17 18  1  0  0  0  0
 17 33  1  0  0  0  0
 17 34  1  0  0  0  0
 18 19  1  0  0  0  0
 18 35  1  0  0  0  0
 19 20  2  0  0  0  0
M  CHG  1   9  -1
M  END
> <s_m_source_file>
AV-unprocessed.smi

> <i_m_source_file_index>
2091

> <i_lp_mmshare_version>
43012

> <i_f3d_flags>
0

> <s_epik_input>
Tz1jMVtuSF1jKD1PKVtjSF1bY0hdbjFbQ0gyXUMoPU8pW05IXVtDQEBIXTJbQ0gyXVtDSDJdW0NIMl1bQ0gyXVtOSF1DMj1P

> <s_epik_cmdline>
J2VwaWtfcHl0aG9uJywgJy1waCcsICc3LjAnLCAnLXRuJywgJzgnLCAnLW1hJywgJzIwMCcsICctbWV0YWxfYmluZGluZycsICctaW1hZScsICc8aW5maWxlLm1hZT4nLCAnLW9tYWUnLCAnPG91dGZpbGUubWFlPic=

> <r_lp_tautomer_probability>
0.999537

> <r_epik_Ionization_Penalty>
3.03155

> <r_epik_Ionization_Penalty_Charging>
2.38195e-08

> <r_epik_Ionization_Penalty_Neutral>
3.03155

> <r_epik_State_Penalty>
3.03052

> <r_epik_Charging_Adjusted_Penalty>
3.03052

> <i_epik_Tot_Q>
-1

> <i_epik_Tot_abs_Q>
1

> <r_epik_Metal_State_Penalty>
0.455936

> <b_epik_Metal_Only>
1

> <s_lp_Force_Field>
OPLS_2005

> <r_lp_Energy>
21.0708

> <b_lp_Chiralities_Consistent>
1

> <s_lp_Variant>
AV-unprocessed.smi:2091-3

> <Gold.Version>
5.8.1

> <Gold.Id.Protein>
6NUR|6NUR_protein|mol2

> <Gold.PLP.Fitness>
41.3304

> <Gold.PLP.PLP>
-30.7407

> <Gold.PLP.part.hbond>
-2.0000

> <Gold.PLP.part.metal>
0.0000

> <Gold.PLP.part.buried>
-5.6606

> <Gold.PLP.part.nonpolar>
-23.3534

> <Gold.PLP.part.repulsive>
0.1989

> <Gold.PLP.ligand.clash>
0.0000

> <Gold.PLP.ligand.torsion>
0.5860

> <Gold.PLP.Chemscore.Hbond>
2.9200

> <Gold.PLP.Chemscore.CHOScore>
1.0000

> <Gold.PLP.Chemscore.Metal>
0.0000

> <Gold.Chemscore.Hbonds>
donor molecule, donor type, donor heavy atom, donor atom, acceptor molecule, acceptor atom, score
      L1  H    12    25       P1  7948  1.00
      P1  H  6896  6907       L1     9  1.93
      L1  C     5    23       P1  7948  1.00

> <Gold.PLP.Chemscore.Internal.Correction>
0.0018

> <Gold.Rescore>
     Score         DG    S(hbond)    S(metal)    S(lipo)     H(rot)  DE(clash)    DE(int)     intcor
     11.90     -12.38       1.78        0.00      48.78       1.85       0.00       0.48       ----

> <Gold.Chemscore.Fitness>
11.9009

> <Gold.Chemscore.DG>
-12.3831

> <Gold.Chemscore.ZeroCoef>
-5.4800

> <Gold.Chemscore.Hbond>
1.7774

> <Gold.Chemscore.Metal>
0.0000

> <Gold.Chemscore.Lipo>
48.7803

> <Gold.Chemscore.Internal_Hbond>
0.0000

> <Gold.Chemscore.DEClash>
0.0000

> <Gold.Chemscore.DEInternal>
0.4822

> <Gold.Chemscore.Rot>
1.8519

> <Gold.Chemscore.Internal.Correction>
   9.000000E+99

> <Gold.Chemscore.Hbonds>
donor molecule, donor type, donor heavy atom, donor atom, acceptor molecule, acceptor atom, score
      L1  H    12    25       P1  7948  0.35
      P1  H  6896  6907       L1     9  0.30

> <Gold.Chemscore.Hbond.Weighted>
-5.9366

> <Gold.Chemscore.Metal.Weighted>
-0.0000

> <Gold.Chemscore.Lipo.Weighted>
-5.7073

> <Gold.Chemscore.Internal_Hbond.Weighted>
0.0000

> <Gold.Chemscore.DEClash.Weighted>
0.0000

> <Gold.Chemscore.DEInternal.Weighted>
0.4822

> <Gold.Chemscore.Rot.Weighted>
4.7408

> <Gold.Chemscore.Internal.Correction.Weighted>
   9.000000E+99

> <Gold.Protein.RotatedTorsions>
[ 6907 6896 6895 6894 ] final  -95.60 input  -60.11 | X-H torsion
[ 7974 7965 7964 7962 ] final  159.11 input  175.53 | X-H torsion
[ 8008 7997 7996 7995 ] final -159.24 input   59.86 | X-H torsion
[ 10167 10162 10161 10158 ] final  169.51 input  -65.29 | X-H torsion
[ 10718 10713 10712 10709 ] final   80.71 input   66.30 | X-H torsion
[ 10763 10752 10751 10750 ] final -160.79 input  -60.55 | X-H torsion
[ 11005 11000 10999 10996 ] final -158.93 input  -57.11 | X-H torsion

> <Gold.Protein.ActiveResidues>
 VAL166  LYS551  ARG553  GLY616  TRP617  ASP618  TYR619  PRO620  LYS621  CYS622 
 ASP623  PHE694  ASN695  SER759  ASP760  ASP761  ALA762  ILE779  LEU786  VAL792 
 PHE793  MET794  SER795  GLU796  ALA797  LYS798  CYS799  TRP800  GLU811  SER814 

> <Gold.Protein.RotatedAtoms>
  150.6968  134.1632  159.4183 H   0  0  0  0  0  0  0  0  0  0  0  0  # atno 6907 bound_to 6896
  151.9612  135.0120  160.0557 H   0  0  0  0  0  0  0  0  0  0  0  0  # atno 6908 bound_to 6896
  152.1925  133.4748  159.5052 H   0  0  0  0  0  0  0  0  0  0  0  0  # atno 6909 bound_to 6896
  144.7808  139.7572  143.6260 H   0  0  0  0  0  0  0  0  0  0  0  0  # atno 7974 bound_to 7965
  155.7596  140.0837  157.2161 H   0  0  0  0  0  0  0  0  0  0  0  0  # atno 8008 bound_to 7997
  154.4004  140.1545  156.2874 H   0  0  0  0  0  0  0  0  0  0  0  0  # atno 8009 bound_to 7997
  155.8852  140.3418  155.5919 H   0  0  0  0  0  0  0  0  0  0  0  0  # atno 8010 bound_to 7997
  139.4994  144.3698  151.9737 H   0  0  0  0  0  0  0  0  0  0  0  0  # atno 10167 bound_to 10162
  157.6813  130.9972  150.2120 H   0  0  0  0  0  0  0  0  0  0  0  0  # atno 10718 bound_to 10713
  154.7359  135.3057  154.8811 H   0  0  0  0  0  0  0  0  0  0  0  0  # atno 10763 bound_to 10752
  153.9640  135.6749  153.4750 H   0  0  0  0  0  0  0  0  0  0  0  0  # atno 10764 bound_to 10752
  153.0962  135.4934  154.8706 H   0  0  0  0  0  0  0  0  0  0  0  0  # atno 10765 bound_to 10752
  140.6482  134.4478  157.5234 H   0  0  0  0  0  0  0  0  0  0  0  0  # atno 11005 bound_to 11000
  146.2015  139.5313  142.9740 LP  0  0  0  0  0  0  0  0  0  0  0  0  # atno 17320 bound_to 7965
  145.6055  141.0348  143.1995 LP  0  0  0  0  0  0  0  0  0  0  0  0  # atno 17321 bound_to 7965
  140.3134  144.3511  150.6028 LP  0  0  0  0  0  0  0  0  0  0  0  0  # atno 17342 bound_to 10162
  140.5780  143.2175  151.7479 LP  0  0  0  0  0  0  0  0  0  0  0  0  # atno 17343 bound_to 10162
  156.2789  130.3731  149.7955 LP  0  0  0  0  0  0  0  0  0  0  0  0  # atno 17370 bound_to 10713
  156.5650  130.8400  151.3340 LP  0  0  0  0  0  0  0  0  0  0  0  0  # atno 17371 bound_to 10713
  139.9055  134.8459  156.1723 LP  0  0  0  0  0  0  0  0  0  0  0  0  # atno 17394 bound_to 11000
  141.0556  133.6867  156.1854 LP  0  0  0  0  0  0  0  0  0  0  0  0  # atno 17395 bound_to 11000

$$$$
