AV-unprocessed.smi:466|AV-procd|sdf|2642|dock7
  -GOLD-   2262023 53D 1   1.00000     0.00000
 Structure written by MMmdl.
 44 46  0  0  0  0  0  0  0  0  2 V2000
  152.9974  141.4412  162.2979 C   0  0  0  0  0  0  0  0  0  0  0  0
  152.3658  141.1910  161.0512 O   0  0  0  0  0  0  0  0  0  0  0  0
  151.8645  142.2649  160.3437 C   0  0  0  0  0  0  0  0  0  0  0  0
  152.0005  143.6137  160.7588 C   0  0  0  0  0  0  0  0  0  0  0  0
  151.4650  144.6567  159.9813 C   0  0  0  0  0  0  0  0  0  0  0  0
  150.7880  144.3659  158.7846 C   0  0  0  0  0  0  0  0  0  0  0  0
  150.6459  143.0311  158.3636 C   0  0  0  0  0  0  0  0  0  0  0  0
  151.1841  141.9741  159.1390 C   0  0  0  0  0  0  0  0  0  0  0  0
  151.0865  140.6446  158.7931 O   0  0  0  0  0  0  0  0  0  0  0  0
  150.1571  140.2564  157.7921 C   0  0  0  0  0  0  0  0  0  0  0  0
  150.6927  140.7130  156.4268 C   0  0  0  0  0  0  0  0  0  0  0  0
  150.0077  140.0387  155.3113 N   0  0  0  0  0  0  0  0  0  0  0  0
  150.3383  138.9043  154.6256 C   0  0  0  0  0  0  0  0  0  0  0  0
  151.5246  138.0200  154.8653 C   0  0  0  0  0  0  0  0  0  0  0  0
  152.8419  138.8063  154.9474 C   0  0  0  0  0  0  0  0  0  0  0  0
  153.1771  139.0321  156.2995 O   0  0  0  0  0  0  0  0  0  0  0  0
  149.3433  138.6819  153.7189 N   0  3  0  0  0  0  0  0  0  0  0  0
  148.3783  139.6843  153.8142 C   0  0  0  0  0  0  0  0  0  0  0  0
  147.1952  139.8789  153.1080 C   0  0  0  0  0  0  0  0  0  0  0  0
  146.4219  141.0026  153.4662 C   0  0  0  0  0  0  0  0  0  0  0  0
  146.8352  141.8819  154.4876 C   0  0  0  0  0  0  0  0  0  0  0  0
  148.0398  141.6768  155.1917 C   0  0  0  0  0  0  0  0  0  0  0  0
  148.7980  140.5612  154.8343 C   0  0  0  0  0  0  0  0  0  0  0  0
  153.3316  140.4961  162.7256 H   0  0  0  0  0  0  0  0  0  0  0  0
  152.3088  141.8997  163.0088 H   0  0  0  0  0  0  0  0  0  0  0  0
  153.8748  142.0784  162.1801 H   0  0  0  0  0  0  0  0  0  0  0  0
  152.5132  143.8752  161.6718 H   0  0  0  0  0  0  0  0  0  0  0  0
  151.5739  145.6814  160.3048 H   0  0  0  0  0  0  0  0  0  0  0  0
  150.3762  145.1674  158.1887 H   0  0  0  0  0  0  0  0  0  0  0  0
  150.1171  142.8428  157.4418 H   0  0  0  0  0  0  0  0  0  0  0  0
  150.0287  139.1732  157.7960 H   0  0  0  0  0  0  0  0  0  0  0  0
  149.1838  140.7155  157.9746 H   0  0  0  0  0  0  0  0  0  0  0  0
  150.5911  141.7922  156.3101 H   0  0  0  0  0  0  0  0  0  0  0  0
  151.7588  140.5025  156.3501 H   0  0  0  0  0  0  0  0  0  0  0  0
  151.3808  137.4622  155.7903 H   0  0  0  0  0  0  0  0  0  0  0  0
  151.5749  137.2841  154.0620 H   0  0  0  0  0  0  0  0  0  0  0  0
  153.6560  138.2598  154.4705 H   0  0  0  0  0  0  0  0  0  0  0  0
  152.7487  139.7675  154.4409 H   0  0  0  0  0  0  0  0  0  0  0  0
  152.6710  138.4441  156.8397 H   0  0  0  0  0  0  0  0  0  0  0  0
  146.8748  139.2038  152.3280 H   0  0  0  0  0  0  0  0  0  0  0  0
  145.4922  141.1920  152.9496 H   0  0  0  0  0  0  0  0  0  0  0  0
  146.2151  142.7297  154.7393 H   0  0  0  0  0  0  0  0  0  0  0  0
  148.3397  142.3521  155.9792 H   0  0  0  0  0  0  0  0  0  0  0  0
  149.3238  137.8928  153.0859 H   0  0  0  0  0  0  0  0  0  0  0  0
  1  2  1  0  0  0  0
  1 24  1  0  0  0  0
  1 25  1  0  0  0  0
  1 26  1  0  0  0  0
  2  3  1  0  0  0  0
  3  8  1  0  0  0  0
  3  4  2  0  0  0  0
  4  5  1  0  0  0  0
  4 27  1  0  0  0  0
  5  6  2  0  0  0  0
  5 28  1  0  0  0  0
  6  7  1  0  0  0  0
  6 29  1  0  0  0  0
  7  8  2  0  0  0  0
  7 30  1  0  0  0  0
  8  9  1  0  0  0  0
  9 10  1  0  0  0  0
 10 11  1  0  0  0  0
 10 31  1  0  0  0  0
 10 32  1  0  0  0  0
 11 12  1  0  0  0  0
 11 33  1  0  0  0  0
 11 34  1  0  0  0  0
 12 23  1  0  0  0  0
 12 13  1  0  0  0  0
 13 14  1  0  0  0  0
 13 17  2  0  0  0  0
 14 15  1  0  0  0  0
 14 35  1  0  0  0  0
 14 36  1  0  0  0  0
 15 16  1  0  0  0  0
 15 37  1  0  0  0  0
 15 38  1  0  0  0  0
 16 39  1  0  0  0  0
 17 18  1  0  0  0  0
 17 44  1  0  0  0  0
 18 23  2  0  0  0  0
 18 19  1  0  0  0  0
 19 20  2  0  0  0  0
 19 40  1  0  0  0  0
 20 21  1  0  0  0  0
 20 41  1  0  0  0  0
 21 22  2  0  0  0  0
 21 42  1  0  0  0  0
 22 23  1  0  0  0  0
 22 43  1  0  0  0  0
M  CHG  1  17   1
M  END
> <s_m_source_file>
AV-unprocessed.smi

> <i_m_source_file_index>
466

> <i_lp_mmshare_version>
43012

> <i_f3d_flags>
0

> <s_epik_input>
W0NIM11PYzFbY0hdW2NIXVtjSF1bY0hdYzFPW0NIMl1bQ0gyXW4oYyhuMilbQ0gyXVtDSDJdW09IXSljKGMyMylbY0hdW2NIXVtjSF1bY0hdMw==

> <s_epik_cmdline>
J2VwaWtfcHl0aG9uJywgJy1waCcsICc3LjAnLCAnLXRuJywgJzgnLCAnLW1hJywgJzIwMCcsICctbWV0YWxfYmluZGluZycsICctaW1hZScsICc8aW5maWxlLm1hZT4nLCAnLW9tYWUnLCAnPG91dGZpbGUubWFlPic=

> <r_lp_tautomer_probability>
1

> <r_epik_Ionization_Penalty>
0.720978

> <r_epik_Ionization_Penalty_Charging>
0.720978

> <r_epik_Ionization_Penalty_Neutral>
5.89567e-08

> <r_epik_State_Penalty>
0.7454

> <r_epik_Charging_Adjusted_Penalty>
1.46638

> <i_epik_Tot_Q>
1

> <i_epik_Tot_abs_Q>
1

> <r_epik_Metal_State_Penalty>
4.64029

> <b_epik_Metal_Only>
0

> <s_lp_Force_Field>
OPLS_2005

> <r_lp_Energy>
24.0837

> <b_lp_Chiralities_Consistent>
1

> <s_lp_Variant>
AV-unprocessed.smi:466-2

> <Gold.Version>
5.8.1

> <Gold.Id.Protein>
6NUR|6NUR_protein|mol2

> <Gold.PLP.Fitness>
63.7864

> <Gold.PLP.PLP>
-56.7161

> <Gold.PLP.part.hbond>
-3.0000

> <Gold.PLP.part.metal>
0.0000

> <Gold.PLP.part.buried>
0.1389

> <Gold.PLP.part.nonpolar>
-54.4642

> <Gold.PLP.part.repulsive>
0.0768

> <Gold.PLP.ligand.clash>
0.0000

> <Gold.PLP.ligand.torsion>
1.0482

> <Gold.PLP.Chemscore.Hbond>
3.0000

> <Gold.PLP.Chemscore.CHOScore>
0.0000

> <Gold.PLP.Chemscore.Metal>
0.0000

> <Gold.Chemscore.Hbonds>
donor molecule, donor type, donor heavy atom, donor atom, acceptor molecule, acceptor atom, score
      L1  H    17    44       P1  7948  1.82
      P1  H  7997  8008       L1    16  1.00

> <Gold.PLP.Chemscore.Internal.Correction>
0.1667

> <Gold.Rescore>
     Score         DG    S(hbond)    S(metal)    S(lipo)     H(rot)  DE(clash)    DE(int)     intcor
     19.58     -22.37       1.91        0.00     148.52       2.68       1.67       1.12       ----

> <Gold.Chemscore.Fitness>
19.5816

> <Gold.Chemscore.DG>
-22.3654

> <Gold.Chemscore.ZeroCoef>
-5.4800

> <Gold.Chemscore.Hbond>
1.9099

> <Gold.Chemscore.Metal>
0.0000

> <Gold.Chemscore.Lipo>
148.5233

> <Gold.Chemscore.Internal_Hbond>
0.0000

> <Gold.Chemscore.DEClash>
1.6657

> <Gold.Chemscore.DEInternal>
1.1181

> <Gold.Chemscore.Rot>
2.6840

> <Gold.Chemscore.Internal.Correction>
   9.000000E+99

> <Gold.Chemscore.Hbonds>
donor molecule, donor type, donor heavy atom, donor atom, acceptor molecule, acceptor atom, score
      L1  H    17    44       P1  7948  0.86
      P1  H  7997  8008       L1    16  0.43

> <Gold.Chemscore.Hbond.Weighted>
-6.3792

> <Gold.Chemscore.Metal.Weighted>
-0.0000

> <Gold.Chemscore.Lipo.Weighted>
-17.3772

> <Gold.Chemscore.Internal_Hbond.Weighted>
0.0000

> <Gold.Chemscore.DEClash.Weighted>
1.6657

> <Gold.Chemscore.DEInternal.Weighted>
1.1181

> <Gold.Chemscore.Rot.Weighted>
6.8710

> <Gold.Chemscore.Internal.Correction.Weighted>
   9.000000E+99

> <Gold.Protein.RotatedTorsions>
[ 6907 6896 6895 6894 ] final   16.32 input  -60.11 | X-H torsion
[ 7974 7965 7964 7962 ] final  -79.62 input  175.53 | X-H torsion
[ 8008 7997 7996 7995 ] final  -35.22 input   59.86 | X-H torsion
[ 10167 10162 10161 10158 ] final   32.59 input  -65.29 | X-H torsion
[ 10718 10713 10712 10709 ] final    1.76 input   66.30 | X-H torsion
[ 10763 10752 10751 10750 ] final   -1.77 input  -60.55 | X-H torsion
[ 11005 11000 10999 10996 ] final -156.47 input  -57.11 | X-H torsion

> <Gold.Protein.ActiveResidues>
 VAL166  LYS551  ARG553  GLY616  TRP617  ASP618  TYR619  PRO620  LYS621  CYS622 
 ASP623  PHE694  ASN695  SER759  ASP760  ASP761  ALA762  ILE779  LEU786  VAL792 
 PHE793  MET794  SER795  GLU796  ALA797  LYS798  CYS799  TRP800  GLU811  SER814 

> <Gold.Protein.RotatedAtoms>
  151.8321  135.0618  160.0437 H   0  0  0  0  0  0  0  0  0  0  0  0  # atno 6907 bound_to 6896
  152.2873  133.5522  159.5543 H   0  0  0  0  0  0  0  0  0  0  0  0  # atno 6908 bound_to 6896
  150.7214  134.0395  159.3803 H   0  0  0  0  0  0  0  0  0  0  0  0  # atno 6909 bound_to 6896
  145.5708  140.9466  143.1397 H   0  0  0  0  0  0  0  0  0  0  0  0  # atno 7974 bound_to 7965
  154.4101  140.1663  156.2177 H   0  0  0  0  0  0  0  0  0  0  0  0  # atno 8008 bound_to 7997
  155.9390  140.3409  155.6288 H   0  0  0  0  0  0  0  0  0  0  0  0  # atno 8009 bound_to 7997
  155.7012  140.0745  157.2400 H   0  0  0  0  0  0  0  0  0  0  0  0  # atno 8010 bound_to 7997
  140.4484  144.1084  150.6187 H   0  0  0  0  0  0  0  0  0  0  0  0  # atno 10167 bound_to 10162
  156.8530  130.5560  149.5668 H   0  0  0  0  0  0  0  0  0  0  0  0  # atno 10718 bound_to 10713
  153.3493  135.6985  153.6802 H   0  0  0  0  0  0  0  0  0  0  0  0  # atno 10763 bound_to 10752
  153.5536  135.3549  155.2770 H   0  0  0  0  0  0  0  0  0  0  0  0  # atno 10764 bound_to 10752
  154.8650  135.4232  154.2724 H   0  0  0  0  0  0  0  0  0  0  0  0  # atno 10765 bound_to 10752
  140.6753  134.4204  157.5229 H   0  0  0  0  0  0  0  0  0  0  0  0  # atno 11005 bound_to 11000
  144.7439  139.7374  143.7300 LP  0  0  0  0  0  0  0  0  0  0  0  0  # atno 17320 bound_to 7965
  146.1786  139.4968  142.9881 LP  0  0  0  0  0  0  0  0  0  0  0  0  # atno 17321 bound_to 7965
  140.4236  143.2600  151.9685 LP  0  0  0  0  0  0  0  0  0  0  0  0  # atno 17342 bound_to 10162
  139.4794  144.5808  151.7935 LP  0  0  0  0  0  0  0  0  0  0  0  0  # atno 17343 bound_to 10162
  156.0818  130.5826  150.9577 LP  0  0  0  0  0  0  0  0  0  0  0  0  # atno 17370 bound_to 10713
  157.6293  131.0922  150.8473 LP  0  0  0  0  0  0  0  0  0  0  0  0  # atno 17371 bound_to 10713
  139.8969  134.8649  156.2069 LP  0  0  0  0  0  0  0  0  0  0  0  0  # atno 17394 bound_to 11000
  141.0360  133.6963  156.1514 LP  0  0  0  0  0  0  0  0  0  0  0  0  # atno 17395 bound_to 11000

$$$$
