AV-unprocessed.smi:1667|AV-procd|sdf|6673|dock5
  -GOLD-   22720 7383D 1   1.00000     0.00000
 Structure written by MMmdl.
 45 47  0  0  0  0  0  0  0  0  1 V2000
  150.4514  137.1944  154.8268 C   0  0  0  0  0  0  0  0  0  0  0  0
  150.4992  135.7086  155.1654 C   0  0  0  0  0  0  0  0  0  0  0  0
  151.2769  135.3015  156.0268 O   0  0  0  0  0  0  0  0  0  0  0  0
  149.6570  134.9214  154.4748 N   0  0  0  0  0  0  0  0  0  0  0  0
  149.4715  133.4729  154.5955 C   0  0  1  0  0  0  0  0  0  0  0  0
  149.3858  132.9829  156.0542 C   0  0  0  0  0  0  0  0  0  0  0  0
  148.3209  133.0292  153.7226 C   0  0  0  0  0  0  0  0  0  0  0  0
  147.6070  133.8975  153.0023 N   0  0  0  0  0  0  0  0  0  0  0  0
  146.7316  133.0859  152.3126 C   0  0  0  0  0  0  0  0  0  0  0  0
  145.7171  133.4122  151.3847 C   0  0  0  0  0  0  0  0  0  0  0  0
  144.9428  132.3965  150.7874 C   0  0  0  0  0  0  0  0  0  0  0  0
  145.1738  131.0432  151.1072 C   0  0  0  0  0  0  0  0  0  0  0  0
  146.1806  130.6979  152.0291 C   0  0  0  0  0  0  0  0  0  0  0  0
  146.9477  131.7159  152.6279 C   0  0  0  0  0  0  0  0  0  0  0  0
  147.9896  131.7196  153.5528 N   0  0  0  0  0  0  0  0  0  0  0  0
  148.5906  130.5364  154.1652 C   0  0  0  0  0  0  0  0  0  0  0  0
  147.5896  129.3916  154.4509 C   0  0  2  0  0  0  0  0  0  0  0  0
  147.4289  129.2118  155.8441 O   0  0  0  0  0  0  0  0  0  0  0  0
  147.9409  128.0978  153.7281 C   0  0  0  0  0  0  0  0  0  0  0  0
  147.9652  126.8632  154.4159 C   0  0  0  0  0  0  0  0  0  0  0  0
  148.3091  125.6782  153.7372 C   0  0  0  0  0  0  0  0  0  0  0  0
  148.6343  125.7193  152.3682 C   0  0  0  0  0  0  0  0  0  0  0  0
  148.6125  126.9458  151.6773 C   0  0  0  0  0  0  0  0  0  0  0  0
  148.9290  126.9876  150.3617 F   0  0  0  0  0  0  0  0  0  0  0  0
  148.2648  128.1307  152.3548 C   0  0  0  0  0  0  0  0  0  0  0  0
  150.3865  133.0354  154.2049 H   0  0  0  0  0  0  0  0  0  0  0  0
  150.6981  137.3547  153.7770 H   0  0  0  0  0  0  0  0  0  0  0  0
  151.1639  137.7536  155.4340 H   0  0  0  0  0  0  0  0  0  0  0  0
  149.4552  137.5957  155.0140 H   0  0  0  0  0  0  0  0  0  0  0  0
  149.0701  135.3782  153.7921 H   0  0  0  0  0  0  0  0  0  0  0  0
  149.3556  131.8943  156.0955 H   0  0  0  0  0  0  0  0  0  0  0  0
  148.4958  133.3519  156.5637 H   0  0  0  0  0  0  0  0  0  0  0  0
  150.2542  133.3088  156.6269 H   0  0  0  0  0  0  0  0  0  0  0  0
  145.5367  134.4461  151.1300 H   0  0  0  0  0  0  0  0  0  0  0  0
  144.1704  132.6566  150.0786 H   0  0  0  0  0  0  0  0  0  0  0  0
  144.5783  130.2701  150.6443 H   0  0  0  0  0  0  0  0  0  0  0  0
  146.3587  129.6618  152.2747 H   0  0  0  0  0  0  0  0  0  0  0  0
  149.3689  130.1744  153.4924 H   0  0  0  0  0  0  0  0  0  0  0  0
  149.1146  130.8223  155.0766 H   0  0  0  0  0  0  0  0  0  0  0  0
  146.6132  129.7107  154.0843 H   0  0  0  0  0  0  0  0  0  0  0  0
  147.2695  128.2955  156.0114 H   0  0  0  0  0  0  0  0  0  0  0  0
  147.7315  126.8200  155.4697 H   0  0  0  0  0  0  0  0  0  0  0  0
  148.3301  124.7387  154.2693 H   0  0  0  0  0  0  0  0  0  0  0  0
  148.9023  124.8110  151.8492 H   0  0  0  0  0  0  0  0  0  0  0  0
  148.2558  129.0677  151.8176 H   0  0  0  0  0  0  0  0  0  0  0  0
  1  2  1  0  0  0  0
  1 27  1  0  0  0  0
  1 28  1  0  0  0  0
  1 29  1  0  0  0  0
  2  3  2  0  0  0  0
  2  4  1  0  0  0  0
  4  5  1  0  0  0  0
  4 30  1  0  0  0  0
  5 26  1  0  0  0  0
  5  6  1  0  0  0  0
  5  7  1  0  0  0  0
  6 31  1  0  0  0  0
  6 32  1  0  0  0  0
  6 33  1  0  0  0  0
  7 15  1  0  0  0  0
  7  8  2  0  0  0  0
  8  9  1  0  0  0  0
  9 14  2  0  0  0  0
  9 10  1  0  0  0  0
 10 11  2  0  0  0  0
 10 34  1  0  0  0  0
 11 12  1  0  0  0  0
 11 35  1  0  0  0  0
 12 13  2  0  0  0  0
 12 36  1  0  0  0  0
 13 14  1  0  0  0  0
 13 37  1  0  0  0  0
 14 15  1  0  0  0  0
 15 16  1  0  0  0  0
 16 17  1  0  0  0  0
 16 38  1  0  0  0  0
 16 39  1  0  0  0  0
 17 18  1  0  0  0  0
 17 19  1  0  0  0  0
 17 40  1  0  0  0  0
 18 41  1  0  0  0  0
 19 25  1  0  0  0  0
 19 20  2  0  0  0  0
 20 21  1  0  0  0  0
 20 42  1  0  0  0  0
 21 22  2  0  0  0  0
 21 43  1  0  0  0  0
 22 23  1  0  0  0  0
 22 44  1  0  0  0  0
 23 24  1  0  0  0  0
 23 25  2  0  0  0  0
 25 45  1  0  0  0  0
M  END
> <s_m_source_file>
AV-unprocessed.smi

> <i_m_source_file_index>
1667

> <i_lp_mmshare_version>
43012

> <i_f3d_flags>
0

> <s_epik_input>
W0NIM11DKD1PKVtOSF1bQ0BASF0oW0NIM10pYyhuMSluKGMoYzEyKVtjSF1bY0hdW2NIXVtjSF0yKVtDSDJdW0NASF0oW09IXSljM1tjSF1bY0hdW2NIXWMoRilbY0hdMw==

> <s_epik_cmdline>
J2VwaWtfcHl0aG9uJywgJy1waCcsICc3LjAnLCAnLXRuJywgJzgnLCAnLW1hJywgJzIwMCcsICctbWV0YWxfYmluZGluZycsICctaW1hZScsICc8aW5maWxlLm1hZT4nLCAnLW9tYWUnLCAnPG91dGZpbGUubWFlPic=

> <r_epik_Ionization_Penalty>
0.133011

> <r_epik_Ionization_Penalty_Charging>
0

> <r_epik_Ionization_Penalty_Neutral>
0.133011

> <r_epik_State_Penalty>
0.122384

> <r_epik_Charging_Adjusted_Penalty>
0.122384

> <i_epik_Tot_Q>
0

> <i_epik_Tot_abs_Q>
0

> <r_epik_Metal_State_Penalty>
0.0997374

> <b_epik_Metal_Only>
0

> <s_lp_Force_Field>
OPLS_2005

> <r_lp_Energy>
8.264

> <b_lp_Chiralities_Consistent>
1

> <s_lp_Variant>
AV-unprocessed.smi:1667-1

> <Gold.Version>
5.8.1

> <Gold.Id.Protein>
6NUR|6NUR_protein|mol2

> <Gold.PLP.Fitness>
45.9233

> <Gold.PLP.PLP>
-42.7299

> <Gold.PLP.part.hbond>
-2.0000

> <Gold.PLP.part.metal>
0.0000

> <Gold.PLP.part.buried>
-5.4999

> <Gold.PLP.part.nonpolar>
-36.4803

> <Gold.PLP.part.repulsive>
1.9793

> <Gold.PLP.ligand.clash>
0.0000

> <Gold.PLP.ligand.torsion>
1.4073

> <Gold.PLP.Chemscore.Hbond>
1.9280

> <Gold.PLP.Chemscore.CHOScore>
0.0000

> <Gold.PLP.Chemscore.Metal>
0.0000

> <Gold.Chemscore.Hbonds>
donor molecule, donor type, donor heavy atom, donor atom, acceptor molecule, acceptor atom, score
      L1  H     4    30       P1  7948  0.77
      P1  H 10752 10765       L1     3  0.76

> <Gold.PLP.Chemscore.Internal.Correction>
0.2240

> <Gold.Rescore>
     Score         DG    S(hbond)    S(metal)    S(lipo)     H(rot)  DE(clash)    DE(int)     intcor
     12.48     -14.96       1.54        0.00      91.27       2.48       1.31       1.17       ----

> <Gold.Chemscore.Fitness>
12.4828

> <Gold.Chemscore.DG>
-14.9628

> <Gold.Chemscore.ZeroCoef>
-5.4800

> <Gold.Chemscore.Hbond>
1.5399

> <Gold.Chemscore.Metal>
0.0000

> <Gold.Chemscore.Lipo>
91.2657

> <Gold.Chemscore.Internal_Hbond>
0.0000

> <Gold.Chemscore.DEClash>
1.3071

> <Gold.Chemscore.DEInternal>
1.1730

> <Gold.Chemscore.Rot>
2.4760

> <Gold.Chemscore.Internal.Correction>
   9.000000E+99

> <Gold.Chemscore.Hbonds>
donor molecule, donor type, donor heavy atom, donor atom, acceptor molecule, acceptor atom, score
      L1  H     4    30       P1  7948  0.48
      P1  H 10752 10765       L1     3  0.14

> <Gold.Chemscore.Hbond.Weighted>
-5.1433

> <Gold.Chemscore.Metal.Weighted>
-0.0000

> <Gold.Chemscore.Lipo.Weighted>
-10.6781

> <Gold.Chemscore.Internal_Hbond.Weighted>
0.0000

> <Gold.Chemscore.DEClash.Weighted>
1.3071

> <Gold.Chemscore.DEInternal.Weighted>
1.1730

> <Gold.Chemscore.Rot.Weighted>
6.3385

> <Gold.Chemscore.Internal.Correction.Weighted>
   9.000000E+99

> <Gold.Protein.RotatedTorsions>
[ 6907 6896 6895 6894 ] final  -25.90 input  -60.11 | X-H torsion
[ 7974 7965 7964 7962 ] final   84.52 input  175.53 | X-H torsion
[ 8008 7997 7996 7995 ] final  -94.78 input   59.86 | X-H torsion
[ 10167 10162 10161 10158 ] final   97.74 input  -65.29 | X-H torsion
[ 10718 10713 10712 10709 ] final  135.14 input   66.30 | X-H torsion
[ 10763 10752 10751 10750 ] final -160.29 input  -60.55 | X-H torsion
[ 11005 11000 10999 10996 ] final -156.82 input  -57.11 | X-H torsion

> <Gold.Protein.ActiveResidues>
 VAL166  LYS551  ARG553  GLY616  TRP617  ASP618  TYR619  PRO620  LYS621  CYS622 
 ASP623  PHE694  ASN695  SER759  ASP760  ASP761  ALA762  ILE779  LEU786  VAL792 
 PHE793  MET794  SER795  GLU796  ALA797  LYS798  CYS799  TRP800  GLU811  SER814 

> <Gold.Protein.RotatedAtoms>
  151.1686  135.0307  159.8741 H   0  0  0  0  0  0  0  0  0  0  0  0  # atno 6907 bound_to 6896
  152.5449  134.1196  159.8403 H   0  0  0  0  0  0  0  0  0  0  0  0  # atno 6908 bound_to 6896
  151.1300  133.4997  159.2632 H   0  0  0  0  0  0  0  0  0  0  0  0  # atno 6909 bound_to 6896
  145.5976  139.2347  143.2264 H   0  0  0  0  0  0  0  0  0  0  0  0  # atno 7974 bound_to 7965
  154.7529  140.0486  157.0908 H   0  0  0  0  0  0  0  0  0  0  0  0  # atno 8008 bound_to 7997
  155.0035  140.3127  155.4838 H   0  0  0  0  0  0  0  0  0  0  0  0  # atno 8009 bound_to 7997
  156.2889  140.2197  156.5146 H   0  0  0  0  0  0  0  0  0  0  0  0  # atno 8010 bound_to 7997
  139.7773  144.6901  151.0072 H   0  0  0  0  0  0  0  0  0  0  0  0  # atno 10167 bound_to 10162
  157.4600  131.1073  150.9931 H   0  0  0  0  0  0  0  0  0  0  0  0  # atno 10718 bound_to 10713
  154.7403  135.3067  154.8740 H   0  0  0  0  0  0  0  0  0  0  0  0  # atno 10763 bound_to 10752
  153.9557  135.6759  153.4748 H   0  0  0  0  0  0  0  0  0  0  0  0  # atno 10764 bound_to 10752
  153.1002  135.4916  154.8777 H   0  0  0  0  0  0  0  0  0  0  0  0  # atno 10765 bound_to 10752
  140.6713  134.4244  157.5231 H   0  0  0  0  0  0  0  0  0  0  0  0  # atno 11005 bound_to 11000
  146.1600  140.6801  142.9282 LP  0  0  0  0  0  0  0  0  0  0  0  0  # atno 17320 bound_to 7965
  144.7324  140.4710  143.6928 LP  0  0  0  0  0  0  0  0  0  0  0  0  # atno 17321 bound_to 7965
  140.7817  143.4522  151.0397 LP  0  0  0  0  0  0  0  0  0  0  0  0  # atno 17342 bound_to 10162
  139.8204  143.7828  152.3176 LP  0  0  0  0  0  0  0  0  0  0  0  0  # atno 17343 bound_to 10162
  157.0731  130.5872  149.5406 LP  0  0  0  0  0  0  0  0  0  0  0  0  # atno 17370 bound_to 10713
  156.0024  130.5106  150.7712 LP  0  0  0  0  0  0  0  0  0  0  0  0  # atno 17371 bound_to 10713
  139.8980  134.8622  156.2018 LP  0  0  0  0  0  0  0  0  0  0  0  0  # atno 17394 bound_to 11000
  141.0390  133.6948  156.1563 LP  0  0  0  0  0  0  0  0  0  0  0  0  # atno 17395 bound_to 11000

$$$$
