AV-unprocessed.smi:244|AV-procd|sdf|1867|dock7
  -GOLD-   2262020503D 1   1.00000     0.00000
 Structure written by MMmdl.
 57 61  0  0  0  0  0  0  0  0  2 V2000
  146.5575  132.0576  154.5740 C   0  0  0  0  0  0  0  0  0  0  0  0
  146.0109  132.0354  153.2006 N   0  3  2  0  0  0  0  0  0  0  0  0
  145.9740  130.6678  152.6264 C   0  0  0  0  0  0  0  0  0  0  0  0
  145.2516  130.6667  151.2707 C   0  0  0  0  0  0  0  0  0  0  0  0
  145.8987  131.6742  150.2951 C   0  0  1  0  0  0  0  0  0  0  0  0
  145.2293  131.7273  149.0335 O   0  0  0  0  0  0  0  0  0  0  0  0
  143.9345  132.3247  149.0688 C   0  0  0  0  0  0  0  0  0  0  0  0
  144.0212  133.7371  149.6644 C   0  0  0  0  0  0  0  0  0  0  0  0
  144.6673  133.6961  150.9710 N   0  0  0  0  0  0  0  0  0  0  0  0
  144.5889  134.8765  151.6223 C   0  0  0  0  0  0  0  0  0  0  0  0
  145.6312  135.7295  151.4716 N   0  0  0  0  0  0  0  0  0  0  0  0
  145.6079  136.9218  152.0752 C   0  0  0  0  0  0  0  0  0  0  0  0
  144.6570  137.4461  152.8513 N   0  0  0  0  0  0  0  0  0  0  0  0
  143.6047  136.5904  152.9973 C   0  0  0  0  0  0  0  0  0  0  0  0
  143.4889  135.2942  152.4227 C   0  0  0  0  0  0  0  0  0  0  0  0
  142.2784  134.7183  152.7878 N   0  0  0  0  0  0  0  0  0  0  0  0
  141.7146  135.6193  153.5454 C   0  0  0  0  0  0  0  0  0  0  0  0
  142.4362  136.7799  153.7138 N   0  0  0  0  0  0  0  0  0  0  0  0
  142.0461  137.9450  154.4931 C   0  0  0  0  0  0  0  0  0  0  0  0
  140.9453  138.8092  153.8285 C   0  0  0  0  0  0  0  0  0  0  0  0
  141.3409  139.0669  152.4922 O   0  0  0  0  0  0  0  0  0  0  0  0
  139.5716  138.1034  153.8012 C   0  0  0  0  0  0  0  0  0  0  0  0
  138.4446  139.0454  153.3414 C   0  0  0  0  0  0  0  0  0  0  0  0
  138.4172  140.2114  154.1552 O   0  0  0  0  0  0  0  0  0  0  0  0
  139.6103  140.9791  154.0549 C   0  0  0  0  0  0  0  0  0  0  0  0
  140.8077  140.1573  154.5643 C   0  0  0  0  0  0  0  0  0  0  0  0
  145.9989  133.0847  150.9216 C   0  0  1  0  0  0  0  0  0  0  0  0
  146.7025  132.9911  152.2996 C   0  0  0  0  0  0  0  0  0  0  0  0
  147.5995  131.7353  154.5861 H   0  0  0  0  0  0  0  0  0  0  0  0
  145.9862  131.3964  155.2263 H   0  0  0  0  0  0  0  0  0  0  0  0
  146.5036  133.0630  154.9929 H   0  0  0  0  0  0  0  0  0  0  0  0
  146.9907  130.2878  152.5148 H   0  0  0  0  0  0  0  0  0  0  0  0
  145.4577  129.9954  153.3129 H   0  0  0  0  0  0  0  0  0  0  0  0
  145.2703  129.6659  150.8387 H   0  0  0  0  0  0  0  0  0  0  0  0
  144.2035  130.9079  151.4447 H   0  0  0  0  0  0  0  0  0  0  0  0
  146.9106  131.3242  150.0872 H   0  0  0  0  0  0  0  0  0  0  0  0
  143.5464  132.3748  148.0514 H   0  0  0  0  0  0  0  0  0  0  0  0
  143.2359  131.7062  149.6318 H   0  0  0  0  0  0  0  0  0  0  0  0
  144.5875  134.3807  148.9902 H   0  0  0  0  0  0  0  0  0  0  0  0
  143.0217  134.1653  149.7530 H   0  0  0  0  0  0  0  0  0  0  0  0
  146.4732  137.5474  151.9113 H   0  0  0  0  0  0  0  0  0  0  0  0
  140.7452  135.4657  153.9974 H   0  0  0  0  0  0  0  0  0  0  0  0
  141.7074  137.5959  155.4696 H   0  0  0  0  0  0  0  0  0  0  0  0
  142.9375  138.5458  154.6805 H   0  0  0  0  0  0  0  0  0  0  0  0
  142.2593  139.2900  152.4881 H   0  0  0  0  0  0  0  0  0  0  0  0
  139.5973  137.2250  153.1556 H   0  0  0  0  0  0  0  0  0  0  0  0
  139.3346  137.7412  154.8025 H   0  0  0  0  0  0  0  0  0  0  0  0
  138.5668  139.3225  152.2933 H   0  0  0  0  0  0  0  0  0  0  0  0
  137.4823  138.5399  153.4220 H   0  0  0  0  0  0  0  0  0  0  0  0
  139.7635  141.3038  153.0246 H   0  0  0  0  0  0  0  0  0  0  0  0
  139.4965  141.8817  154.6555 H   0  0  0  0  0  0  0  0  0  0  0  0
  140.6672  139.9725  155.6301 H   0  0  0  0  0  0  0  0  0  0  0  0
  141.7264  140.7386  154.4746 H   0  0  0  0  0  0  0  0  0  0  0  0
  146.6162  133.7027  150.2678 H   0  0  0  0  0  0  0  0  0  0  0  0
  146.7697  133.9714  152.7729 H   0  0  0  0  0  0  0  0  0  0  0  0
  147.7326  132.6592  152.1598 H   0  0  0  0  0  0  0  0  0  0  0  0
  145.0527  132.3485  153.2707 H   0  0  0  0  0  0  0  0  0  0  0  0
  1  2  1  0  0  0  0
  1 29  1  0  0  0  0
  1 30  1  0  0  0  0
  1 31  1  0  0  0  0
  2 28  1  0  0  0  0
  2  3  1  0  0  0  0
  2 57  1  0  0  0  0
  3  4  1  0  0  0  0
  3 32  1  0  0  0  0
  3 33  1  0  0  0  0
  4  5  1  0  0  0  0
  4 34  1  0  0  0  0
  4 35  1  0  0  0  0
  5 27  1  0  0  0  0
  5  6  1  0  0  0  0
  5 36  1  0  0  0  0
  6  7  1  0  0  0  0
  7  8  1  0  0  0  0
  7 37  1  0  0  0  0
  7 38  1  0  0  0  0
  8  9  1  0  0  0  0
  8 39  1  0  0  0  0
  8 40  1  0  0  0  0
  9 10  1  0  0  0  0
  9 27  1  0  0  0  0
 10 15  1  0  0  0  0
 10 11  2  0  0  0  0
 11 12  1  0  0  0  0
 12 13  2  0  0  0  0
 12 41  1  0  0  0  0
 13 14  1  0  0  0  0
 14 18  1  0  0  0  0
 14 15  2  0  0  0  0
 15 16  1  0  0  0  0
 16 17  2  0  0  0  0
 17 18  1  0  0  0  0
 17 42  1  0  0  0  0
 18 19  1  0  0  0  0
 19 20  1  0  0  0  0
 19 43  1  0  0  0  0
 19 44  1  0  0  0  0
 20 26  1  0  0  0  0
 20 21  1  0  0  0  0
 20 22  1  0  0  0  0
 21 45  1  0  0  0  0
 22 23  1  0  0  0  0
 22 46  1  0  0  0  0
 22 47  1  0  0  0  0
 23 24  1  0  0  0  0
 23 48  1  0  0  0  0
 23 49  1  0  0  0  0
 24 25  1  0  0  0  0
 25 26  1  0  0  0  0
 25 50  1  0  0  0  0
 25 51  1  0  0  0  0
 26 52  1  0  0  0  0
 26 53  1  0  0  0  0
 27 28  1  0  0  0  0
 27 54  1  0  0  0  0
 28 55  1  0  0  0  0
 28 56  1  0  0  0  0
M  CHG  1   2   1
M  END
> <s_m_source_file>
AV-unprocessed.smi

> <i_m_source_file_index>
244

> <i_lp_mmshare_version>
43012

> <i_f3d_flags>
0

> <s_epik_input>
W0NIMl0xW0NIMl1OKFtDSDNdKVtDSDJdW0NAQEhdKFtDQEhdMTIpTihbQ0gyXVtDSDJdTzIpYyhuW2NIXW4zKWMoYzM0KW5bY0hdbjRbQ0gyXUM1KFtPSF0pW0NIMl1bQ0gyXU9bQ0gyXVtDSDJdNQ==

> <s_epik_cmdline>
J2VwaWtfcHl0aG9uJywgJy1waCcsICc3LjAnLCAnLXRuJywgJzgnLCAnLW1hJywgJzIwMCcsICctbWV0YWxfYmluZGluZycsICctaW1hZScsICc8aW5maWxlLm1hZT4nLCAnLW9tYWUnLCAnPG91dGZpbGUubWFlPic=

> <r_lp_tautomer_probability>
1

> <r_epik_Ionization_Penalty>
0.0136215

> <r_epik_Ionization_Penalty_Charging>
0.0131385

> <r_epik_Ionization_Penalty_Neutral>
0.000483022

> <r_epik_State_Penalty>
0.0104001

> <r_epik_Charging_Adjusted_Penalty>
0.0235387

> <i_epik_Tot_Q>
1

> <i_epik_Tot_abs_Q>
1

> <r_epik_Metal_State_Penalty>
0.0104469

> <b_epik_Metal_Only>
0

> <s_lp_Force_Field>
OPLS_2005

> <r_lp_Energy>
48.7962

> <b_lp_Chiralities_Consistent>
1

> <s_lp_Variant>
AV-unprocessed.smi:244-4

> <Gold.Version>
5.8.1

> <Gold.Id.Protein>
6NUR|6NUR_protein|mol2

> <Gold.PLP.Fitness>
43.6391

> <Gold.PLP.PLP>
-41.3253

> <Gold.PLP.part.hbond>
-2.6850

> <Gold.PLP.part.metal>
0.0000

> <Gold.PLP.part.buried>
-5.1918

> <Gold.PLP.part.nonpolar>
-35.2621

> <Gold.PLP.part.repulsive>
0.9856

> <Gold.PLP.ligand.clash>
0.0000

> <Gold.PLP.ligand.torsion>
0.9312

> <Gold.PLP.Chemscore.Hbond>
1.0000

> <Gold.PLP.Chemscore.CHOScore>
0.3466

> <Gold.PLP.Chemscore.Metal>
0.0000

> <Gold.Chemscore.Hbonds>
donor molecule, donor type, donor heavy atom, donor atom, acceptor molecule, acceptor atom, score
      L1  H    21    45       P1 10175  1.00
      L1  C    12    41       P1  7948  0.26

> <Gold.PLP.Chemscore.Internal.Correction>
0.1363

> <Gold.Rescore>
     Score         DG    S(hbond)    S(metal)    S(lipo)     H(rot)  DE(clash)    DE(int)     intcor
     13.33     -14.75       0.85        0.00     100.54       2.09       0.68       0.73       ----

> <Gold.Chemscore.Fitness>
13.3302

> <Gold.Chemscore.DG>
-14.7452

> <Gold.Chemscore.ZeroCoef>
-5.4800

> <Gold.Chemscore.Hbond>
0.8549

> <Gold.Chemscore.Metal>
0.0000

> <Gold.Chemscore.Lipo>
100.5391

> <Gold.Chemscore.Internal_Hbond>
0.0000

> <Gold.Chemscore.DEClash>
0.6816

> <Gold.Chemscore.DEInternal>
0.7334

> <Gold.Chemscore.Rot>
2.0911

> <Gold.Chemscore.Internal.Correction>
   9.000000E+99

> <Gold.Chemscore.Hbonds>
donor molecule, donor type, donor heavy atom, donor atom, acceptor molecule, acceptor atom, score
      L1  H    21    45       P1 10175  0.75

> <Gold.Chemscore.Hbond.Weighted>
-2.8552

> <Gold.Chemscore.Metal.Weighted>
-0.0000

> <Gold.Chemscore.Lipo.Weighted>
-11.7631

> <Gold.Chemscore.Internal_Hbond.Weighted>
0.0000

> <Gold.Chemscore.DEClash.Weighted>
0.6816

> <Gold.Chemscore.DEInternal.Weighted>
0.7334

> <Gold.Chemscore.Rot.Weighted>
5.3531

> <Gold.Chemscore.Internal.Correction.Weighted>
   9.000000E+99

> <Gold.Protein.RotatedTorsions>
[ 6907 6896 6895 6894 ] final  157.65 input  -60.11 | X-H torsion
[ 7974 7965 7964 7962 ] final -114.77 input  175.53 | X-H torsion
[ 8008 7997 7996 7995 ] final  150.74 input   59.86 | X-H torsion
[ 10167 10162 10161 10158 ] final -116.81 input  -65.29 | X-H torsion
[ 10718 10713 10712 10709 ] final -154.59 input   66.30 | X-H torsion
[ 10763 10752 10751 10750 ] final   38.55 input  -60.55 | X-H torsion
[ 11005 11000 10999 10996 ] final -150.05 input  -57.11 | X-H torsion

> <Gold.Protein.ActiveResidues>
 VAL166  LYS551  ARG553  GLY616  TRP617  ASP618  TYR619  PRO620  LYS621  CYS622 
 ASP623  PHE694  ASN695  SER759  ASP760  ASP761  ALA762  ILE779  LEU786  VAL792 
 PHE793  MET794  SER795  GLU796  ALA797  LYS798  CYS799  TRP800  GLU811  SER814 

> <Gold.Protein.RotatedAtoms>
  152.0119  133.3865  159.4223 H   0  0  0  0  0  0  0  0  0  0  0  0  # atno 6907 bound_to 6896
  150.6898  134.3720  159.5006 H   0  0  0  0  0  0  0  0  0  0  0  0  # atno 6908 bound_to 6896
  152.1482  134.9008  160.0600 H   0  0  0  0  0  0  0  0  0  0  0  0  # atno 6909 bound_to 6896
  145.1162  140.8641  143.3841 H   0  0  0  0  0  0  0  0  0  0  0  0  # atno 7974 bound_to 7965
  156.2703  140.2066  156.6066 H   0  0  0  0  0  0  0  0  0  0  0  0  # atno 8008 bound_to 7997
  154.6865  140.0534  157.0343 H   0  0  0  0  0  0  0  0  0  0  0  0  # atno 8009 bound_to 7997
  155.0927  140.3198  155.4572 H   0  0  0  0  0  0  0  0  0  0  0  0  # atno 8010 bound_to 7997
  140.0752  143.4840  152.1957 H   0  0  0  0  0  0  0  0  0  0  0  0  # atno 10167 bound_to 10162
  156.5013  130.8393  151.2610 H   0  0  0  0  0  0  0  0  0  0  0  0  # atno 10718 bound_to 10713
  152.9997  135.6246  154.2322 H   0  0  0  0  0  0  0  0  0  0  0  0  # atno 10763 bound_to 10752
  154.2064  135.2802  155.2975 H   0  0  0  0  0  0  0  0  0  0  0  0  # atno 10764 bound_to 10752
  154.5642  135.5696  153.7094 H   0  0  0  0  0  0  0  0  0  0  0  0  # atno 10765 bound_to 10752
  140.7443  134.3479  157.5140 H   0  0  0  0  0  0  0  0  0  0  0  0  # atno 11005 bound_to 11000
  145.0791  139.2973  143.5792 LP  0  0  0  0  0  0  0  0  0  0  0  0  # atno 17320 bound_to 7965
  146.3523  140.0292  142.8652 LP  0  0  0  0  0  0  0  0  0  0  0  0  # atno 17321 bound_to 7965
  139.5812  144.7511  151.3635 LP  0  0  0  0  0  0  0  0  0  0  0  0  # atno 17342 bound_to 10162
  140.7106  143.7401  150.7559 LP  0  0  0  0  0  0  0  0  0  0  0  0  # atno 17343 bound_to 10162
  157.7462  130.9980  150.2839 LP  0  0  0  0  0  0  0  0  0  0  0  0  # atno 17370 bound_to 10713
  156.3330  130.3803  149.7475 LP  0  0  0  0  0  0  0  0  0  0  0  0  # atno 17371 bound_to 10713
  139.8800  134.9101  156.3005 LP  0  0  0  0  0  0  0  0  0  0  0  0  # atno 17394 bound_to 11000
  140.9809  133.7268  156.0670 LP  0  0  0  0  0  0  0  0  0  0  0  0  # atno 17395 bound_to 11000

$$$$
