AV-unprocessed.smi:1911|AV-procd|sdf|7739|dock1
  -GOLD-   22720 9473D 1   1.00000     0.00000
 Structure written by MMmdl.
 52 54  0  0  0  0  0  0  0  0  2 V2000
  142.9073  132.9132  148.5397 N   0  0  0  0  0  0  0  0  0  0  0  0
  143.9547  132.7425  149.3496 C   0  0  0  0  0  0  0  0  0  0  0  0
  144.9947  132.2060  148.9715 O   0  0  0  0  0  0  0  0  0  0  0  0
  143.8130  133.2677  150.7824 C   0  0  0  0  0  0  0  0  0  0  0  0
  144.7960  134.3319  151.1135 N   0  3  2  0  0  0  0  0  0  0  0  0
  144.7489  134.7464  152.5419 C   0  0  0  0  0  0  0  0  0  0  0  0
  145.8691  135.7488  152.8666 C   0  0  0  0  0  0  0  0  0  0  0  0
  145.7939  136.9792  151.9487 C   0  0  1  0  0  0  0  0  0  0  0  0
  146.9089  137.8796  152.2285 N   0  0  0  0  0  0  0  0  0  0  0  0
  147.1940  138.4007  153.4308 C   0  0  0  0  0  0  0  0  0  0  0  0
  146.5233  138.1799  154.4387 O   0  0  0  0  0  0  0  0  0  0  0  0
  148.2767  139.1951  153.3732 N   0  0  0  0  0  0  0  0  0  0  0  0
  148.8992  139.9193  154.4258 C   0  0  0  0  0  0  0  0  0  0  0  0
  148.9183  139.3382  155.7087 C   0  0  0  0  0  0  0  0  0  0  0  0
  149.5143  140.0379  156.7748 C   0  0  0  0  0  0  0  0  0  0  0  0
  150.0751  141.3140  156.5305 C   0  0  0  0  0  0  0  0  0  0  0  0
  150.6795  142.0554  157.5654 N   0  0  0  0  0  0  0  0  0  0  0  0
  151.1634  141.4338  158.7873 C   0  0  0  0  0  0  0  0  0  0  0  0
  151.8461  142.5659  159.5546 C   0  0  0  0  0  0  0  0  0  0  0  0
  152.3863  143.4650  158.4427 C   0  0  0  0  0  0  0  0  0  0  0  0
  151.3576  143.3213  157.3155 C   0  0  0  0  0  0  0  0  0  0  0  0
  150.0395  141.8821  155.3020 N   0  0  0  0  0  0  0  0  0  0  0  0
  149.4683  141.2071  154.2823 C   0  0  0  0  0  0  0  0  0  0  0  0
  145.8078  136.5227  150.4781 C   0  0  0  0  0  0  0  0  0  0  0  0
  144.6920  135.5007  150.2029 C   0  0  0  0  0  0  0  0  0  0  0  0
  142.9550  132.5879  147.5843 H   0  0  0  0  0  0  0  0  0  0  0  0
  142.0718  133.3696  148.8774 H   0  0  0  0  0  0  0  0  0  0  0  0
  142.8005  133.6647  150.8686 H   0  0  0  0  0  0  0  0  0  0  0  0
  143.8907  132.4494  151.5005 H   0  0  0  0  0  0  0  0  0  0  0  0
  143.7760  135.1890  152.7615 H   0  0  0  0  0  0  0  0  0  0  0  0
  144.8512  133.8759  153.1904 H   0  0  0  0  0  0  0  0  0  0  0  0
  145.7966  136.0558  153.9107 H   0  0  0  0  0  0  0  0  0  0  0  0
  146.8372  135.2577  152.7546 H   0  0  0  0  0  0  0  0  0  0  0  0
  144.8564  137.5009  152.1521 H   0  0  0  0  0  0  0  0  0  0  0  0
  147.5103  138.1182  151.4532 H   0  0  0  0  0  0  0  0  0  0  0  0
  148.6734  139.3411  152.4565 H   0  0  0  0  0  0  0  0  0  0  0  0
  148.4849  138.3632  155.8778 H   0  0  0  0  0  0  0  0  0  0  0  0
  149.5302  139.5880  157.7561 H   0  0  0  0  0  0  0  0  0  0  0  0
  150.3519  140.9916  159.3662 H   0  0  0  0  0  0  0  0  0  0  0  0
  151.8802  140.6507  158.5367 H   0  0  0  0  0  0  0  0  0  0  0  0
  151.1068  143.1125  160.1419 H   0  0  0  0  0  0  0  0  0  0  0  0
  152.6222  142.2111  160.2335 H   0  0  0  0  0  0  0  0  0  0  0  0
  152.5255  144.4988  158.7597 H   0  0  0  0  0  0  0  0  0  0  0  0
  153.3521  143.0852  158.1056 H   0  0  0  0  0  0  0  0  0  0  0  0
  151.8433  143.3482  156.3394 H   0  0  0  0  0  0  0  0  0  0  0  0
  150.6238  144.1270  157.3549 H   0  0  0  0  0  0  0  0  0  0  0  0
  149.4591  141.7369  153.3428 H   0  0  0  0  0  0  0  0  0  0  0  0
  145.6878  137.3797  149.8143 H   0  0  0  0  0  0  0  0  0  0  0  0
  146.7746  136.0783  150.2364 H   0  0  0  0  0  0  0  0  0  0  0  0
  144.7617  135.1680  149.1664 H   0  0  0  0  0  0  0  0  0  0  0  0
  143.7140  135.9698  150.3211 H   0  0  0  0  0  0  0  0  0  0  0  0
  145.7082  133.9278  150.9538 H   0  0  0  0  0  0  0  0  0  0  0  0
  1  2  1  0  0  0  0
  1 26  1  0  0  0  0
  1 27  1  0  0  0  0
  2  3  2  0  0  0  0
  2  4  1  0  0  0  0
  4  5  1  0  0  0  0
  4 28  1  0  0  0  0
  4 29  1  0  0  0  0
  5 25  1  0  0  0  0
  5  6  1  0  0  0  0
  5 52  1  0  0  0  0
  6  7  1  0  0  0  0
  6 30  1  0  0  0  0
  6 31  1  0  0  0  0
  7  8  1  0  0  0  0
  7 32  1  0  0  0  0
  7 33  1  0  0  0  0
  8  9  1  0  0  0  0
  8 24  1  0  0  0  0
  8 34  1  0  0  0  0
  9 10  1  0  0  0  0
  9 35  1  0  0  0  0
 10 11  2  0  0  0  0
 10 12  1  0  0  0  0
 12 13  1  0  0  0  0
 12 36  1  0  0  0  0
 13 23  1  0  0  0  0
 13 14  2  0  0  0  0
 14 15  1  0  0  0  0
 14 37  1  0  0  0  0
 15 16  2  0  0  0  0
 15 38  1  0  0  0  0
 16 17  1  0  0  0  0
 16 22  1  0  0  0  0
 17 21  1  0  0  0  0
 17 18  1  0  0  0  0
 18 19  1  0  0  0  0
 18 39  1  0  0  0  0
 18 40  1  0  0  0  0
 19 20  1  0  0  0  0
 19 41  1  0  0  0  0
 19 42  1  0  0  0  0
 20 21  1  0  0  0  0
 20 43  1  0  0  0  0
 20 44  1  0  0  0  0
 21 45  1  0  0  0  0
 21 46  1  0  0  0  0
 22 23  2  0  0  0  0
 23 47  1  0  0  0  0
 24 25  1  0  0  0  0
 24 48  1  0  0  0  0
 24 49  1  0  0  0  0
 25 50  1  0  0  0  0
 25 51  1  0  0  0  0
M  CHG  1   5   1
M  END
> <s_m_source_file>
AV-unprocessed.smi

> <i_m_source_file_index>
1911

> <i_lp_mmshare_version>
43012

> <i_f3d_flags>
0

> <s_epik_input>
W05IMl1DKD1PKVtDSDJdTjFbQ0gyXVtDSDJdW0NIXShbQ0gyXVtDSDJdMSlbTkhdQyg9TylbTkhdYzJbY0hdW2NIXWMobltjSF0yKU4zW0NIMl1bQ0gyXVtDSDJdW0NIMl0z

> <s_epik_cmdline>
J2VwaWtfcHl0aG9uJywgJy1waCcsICc3LjAnLCAnLXRuJywgJzgnLCAnLW1hJywgJzIwMCcsICctbWV0YWxfYmluZGluZycsICctaW1hZScsICc8aW5maWxlLm1hZT4nLCAnLW9tYWUnLCAnPG91dGZpbGUubWFlPic=

> <r_lp_tautomer_probability>
1

> <r_epik_Ionization_Penalty>
0.91661

> <r_epik_Ionization_Penalty_Charging>
0.838844

> <r_epik_Ionization_Penalty_Neutral>
0.0777665

> <r_epik_State_Penalty>
0.927046

> <r_epik_Charging_Adjusted_Penalty>
1.76589

> <i_epik_Tot_Q>
1

> <i_epik_Tot_abs_Q>
1

> <r_epik_Metal_State_Penalty>
0.950553

> <b_epik_Metal_Only>
0

> <s_lp_Force_Field>
OPLS_2005

> <r_lp_Energy>
39.0232

> <b_lp_Chiralities_Consistent>
1

> <s_lp_Variant>
AV-unprocessed.smi:1911-2

> <Gold.Version>
5.8.1

> <Gold.Id.Protein>
6NUR|6NUR_protein|mol2

> <Gold.PLP.Fitness>
48.3867

> <Gold.PLP.PLP>
-42.6862

> <Gold.PLP.part.hbond>
-4.3219

> <Gold.PLP.part.metal>
0.0000

> <Gold.PLP.part.buried>
-3.6127

> <Gold.PLP.part.nonpolar>
-35.3648

> <Gold.PLP.part.repulsive>
1.3195

> <Gold.PLP.ligand.clash>
0.0000

> <Gold.PLP.ligand.torsion>
0.3830

> <Gold.PLP.Chemscore.Hbond>
1.9760

> <Gold.PLP.Chemscore.CHOScore>
0.1182

> <Gold.PLP.Chemscore.Metal>
0.0000

> <Gold.Chemscore.Hbonds>
donor molecule, donor type, donor heavy atom, donor atom, acceptor molecule, acceptor atom, score
      L1  H     1    26       P1 10195  0.01
      L1  H     1    27       P1 10186  1.00
      L1  H    12    36       P1  7957  1.00
      L1  C    23    47       P1  7957  0.30

> <Gold.PLP.Chemscore.Internal.Correction>
0.1838

> <Gold.Rescore>
     Score         DG    S(hbond)    S(metal)    S(lipo)     H(rot)  DE(clash)    DE(int)     intcor
     15.65     -21.12       2.77        0.00      96.30       1.91       3.12       2.35       ----

> <Gold.Chemscore.Fitness>
15.6544

> <Gold.Chemscore.DG>
-21.1223

> <Gold.Chemscore.ZeroCoef>
-5.4800

> <Gold.Chemscore.Hbond>
2.7720

> <Gold.Chemscore.Metal>
0.0000

> <Gold.Chemscore.Lipo>
96.2962

> <Gold.Chemscore.Internal_Hbond>
0.0000

> <Gold.Chemscore.DEClash>
3.1196

> <Gold.Chemscore.DEInternal>
2.3483

> <Gold.Chemscore.Rot>
1.9074

> <Gold.Chemscore.Internal.Correction>
   9.000000E+99

> <Gold.Chemscore.Hbonds>
donor molecule, donor type, donor heavy atom, donor atom, acceptor molecule, acceptor atom, score
      L1  H     1    26       P1 10195  0.05
      L1  H     1    27       P1 10186  0.99
      L1  H    12    36       P1  7957  1.00

> <Gold.Chemscore.Hbond.Weighted>
-9.2585

> <Gold.Chemscore.Metal.Weighted>
-0.0000

> <Gold.Chemscore.Lipo.Weighted>
-11.2667

> <Gold.Chemscore.Internal_Hbond.Weighted>
0.0000

> <Gold.Chemscore.DEClash.Weighted>
3.1196

> <Gold.Chemscore.DEInternal.Weighted>
2.3483

> <Gold.Chemscore.Rot.Weighted>
4.8829

> <Gold.Chemscore.Internal.Correction.Weighted>
   9.000000E+99

> <Gold.Protein.RotatedTorsions>
[ 6907 6896 6895 6894 ] final  119.29 input  -60.11 | X-H torsion
[ 7974 7965 7964 7962 ] final  170.06 input  175.53 | X-H torsion
[ 8008 7997 7996 7995 ] final   39.01 input   59.86 | X-H torsion
[ 10167 10162 10161 10158 ] final -160.25 input  -65.29 | X-H torsion
[ 10718 10713 10712 10709 ] final -157.98 input   66.30 | X-H torsion
[ 10763 10752 10751 10750 ] final  113.67 input  -60.55 | X-H torsion
[ 11005 11000 10999 10996 ] final -165.82 input  -57.11 | X-H torsion

> <Gold.Protein.ActiveResidues>
 VAL166  LYS551  ARG553  GLY616  TRP617  ASP618  TYR619  PRO620  LYS621  CYS622 
 ASP623  PHE694  ASN695  SER759  ASP760  ASP761  ALA762  ILE779  LEU786  VAL792 
 PHE793  MET794  SER795  GLU796  ALA797  LYS798  CYS799  TRP800  GLU811  SER814 

> <Gold.Protein.RotatedAtoms>
  152.4482  133.7578  159.6729 H   0  0  0  0  0  0  0  0  0  0  0  0  # atno 6907 bound_to 6896
  150.8387  133.7960  159.3075 H   0  0  0  0  0  0  0  0  0  0  0  0  # atno 6908 bound_to 6896
  151.5592  135.1068  160.0020 H   0  0  0  0  0  0  0  0  0  0  0  0  # atno 6909 bound_to 6896
  144.7335  139.9146  143.6417 H   0  0  0  0  0  0  0  0  0  0  0  0  # atno 7974 bound_to 7965
  155.2296  140.3337  155.4305 H   0  0  0  0  0  0  0  0  0  0  0  0  # atno 8008 bound_to 7997
  156.2300  140.1846  156.7312 H   0  0  0  0  0  0  0  0  0  0  0  0  # atno 8009 bound_to 7997
  154.5962  140.0630  156.9292 H   0  0  0  0  0  0  0  0  0  0  0  0  # atno 8010 bound_to 7997
  139.6553  144.0010  152.2189 H   0  0  0  0  0  0  0  0  0  0  0  0  # atno 10167 bound_to 10162
  156.5477  130.8591  151.2770 H   0  0  0  0  0  0  0  0  0  0  0  0  # atno 10718 bound_to 10713
  153.4959  135.3648  155.2515 H   0  0  0  0  0  0  0  0  0  0  0  0  # atno 10763 bound_to 10752
  154.8750  135.3988  154.3535 H   0  0  0  0  0  0  0  0  0  0  0  0  # atno 10764 bound_to 10752
  153.4162  135.7079  153.6391 H   0  0  0  0  0  0  0  0  0  0  0  0  # atno 10765 bound_to 10752
  140.5714  134.5233  157.5162 H   0  0  0  0  0  0  0  0  0  0  0  0  # atno 11005 bound_to 11000
  146.0975  139.3968  143.0367 LP  0  0  0  0  0  0  0  0  0  0  0  0  # atno 17320 bound_to 7965
  145.7625  140.9929  143.1192 LP  0  0  0  0  0  0  0  0  0  0  0  0  # atno 17321 bound_to 7965
  139.9735  144.6478  150.7967 LP  0  0  0  0  0  0  0  0  0  0  0  0  # atno 17342 bound_to 10162
  140.7556  143.3050  151.2985 LP  0  0  0  0  0  0  0  0  0  0  0  0  # atno 17343 bound_to 10162
  157.7393  130.9830  150.2307 LP  0  0  0  0  0  0  0  0  0  0  0  0  # atno 17370 bound_to 10713
  156.2913  130.3746  149.7839 LP  0  0  0  0  0  0  0  0  0  0  0  0  # atno 17371 bound_to 10713
  139.9360  134.7875  156.0803 LP  0  0  0  0  0  0  0  0  0  0  0  0  # atno 17394 bound_to 11000
  141.1053  133.6662  156.2850 LP  0  0  0  0  0  0  0  0  0  0  0  0  # atno 17395 bound_to 11000

$$$$
