AV-unprocessed.smi:3228|AV-procd|sdf|12320|dock4
  -GOLD-   2272018173D 1   1.00000     0.00000
 Structure written by MMmdl.
 31 32  0  0  0  0  0  0  0  0  1 V2000
  144.9577  137.4216  152.6537 O   0  0  0  0  0  0  0  0  0  0  0  0
  146.1012  137.0773  152.3533 C   0  0  0  0  0  0  0  0  0  0  0  0
  147.1754  137.8632  152.5153 N   0  0  0  0  0  0  0  0  0  0  0  0
  147.1466  139.2175  153.0576 C   0  0  0  0  0  0  0  0  0  0  0  0
  148.1287  139.3910  154.2358 C   0  0  1  0  0  0  0  0  0  0  0  0
  149.3512  138.4637  154.2058 C   0  0  0  0  0  0  0  0  0  0  0  0
  150.4238  139.1585  155.0589 C   0  0  0  0  0  0  0  0  0  0  0  0
  149.9072  140.5775  155.3448 C   0  0  0  0  0  0  0  0  0  0  0  0
  148.7265  140.7969  154.3935 C   0  0  1  0  0  0  0  0  0  0  0  0
  149.2145  141.2963  153.1619 O   0  0  0  0  0  0  0  0  0  0  0  0
  146.4428  135.8861  151.8313 N   0  0  0  0  0  0  0  0  0  0  0  0
  145.5947  134.7948  151.5066 C   0  0  0  0  0  0  0  0  0  0  0  0
  144.2636  134.8050  151.6461 N   0  0  0  0  0  0  0  0  0  0  0  0
  143.6850  133.5975  151.2474 C   0  0  0  0  0  0  0  0  0  0  0  0
  144.5968  132.6725  150.8029 C   0  0  0  0  0  0  0  0  0  0  0  0
  146.2280  133.2846  150.8683 S   0  0  0  0  0  0  0  0  0  0  0  0
  148.0777  137.5014  152.2427 H   0  0  0  0  0  0  0  0  0  0  0  0
  147.3986  139.9013  152.2467 H   0  0  0  0  0  0  0  0  0  0  0  0
  146.1326  139.4709  153.3706 H   0  0  0  0  0  0  0  0  0  0  0  0
  147.5874  139.1801  155.1600 H   0  0  0  0  0  0  0  0  0  0  0  0
  149.1163  137.4640  154.5729 H   0  0  0  0  0  0  0  0  0  0  0  0
  149.7147  138.3586  153.1828 H   0  0  0  0  0  0  0  0  0  0  0  0
  150.5985  138.6201  155.9909 H   0  0  0  0  0  0  0  0  0  0  0  0
  151.3711  139.1909  154.5196 H   0  0  0  0  0  0  0  0  0  0  0  0
  149.5474  140.6219  156.3738 H   0  0  0  0  0  0  0  0  0  0  0  0
  150.6838  141.3370  155.2446 H   0  0  0  0  0  0  0  0  0  0  0  0
  148.0034  141.5052  154.7994 H   0  0  0  0  0  0  0  0  0  0  0  0
  149.1376  140.6156  152.5110 H   0  0  0  0  0  0  0  0  0  0  0  0
  147.4240  135.7433  151.6425 H   0  0  0  0  0  0  0  0  0  0  0  0
  142.6132  133.4817  151.3138 H   0  0  0  0  0  0  0  0  0  0  0  0
  144.4077  131.6723  150.4426 H   0  0  0  0  0  0  0  0  0  0  0  0
  1  2  2  0  0  0  0
  2  3  1  0  0  0  0
  2 11  1  0  0  0  0
  3  4  1  0  0  0  0
  3 17  1  0  0  0  0
  4  5  1  0  0  0  0
  4 18  1  0  0  0  0
  4 19  1  0  0  0  0
  5  9  1  0  0  0  0
  5  6  1  0  0  0  0
  5 20  1  0  0  0  0
  6  7  1  0  0  0  0
  6 21  1  0  0  0  0
  6 22  1  0  0  0  0
  7  8  1  0  0  0  0
  7 23  1  0  0  0  0
  7 24  1  0  0  0  0
  8  9  1  0  0  0  0
  8 25  1  0  0  0  0
  8 26  1  0  0  0  0
  9 10  1  0  0  0  0
  9 27  1  0  0  0  0
 10 28  1  0  0  0  0
 11 12  1  0  0  0  0
 11 29  1  0  0  0  0
 12 16  1  0  0  0  0
 12 13  2  0  0  0  0
 13 14  1  0  0  0  0
 14 15  2  0  0  0  0
 14 30  1  0  0  0  0
 15 16  1  0  0  0  0
 15 31  1  0  0  0  0
M  END
> <s_m_source_file>
AV-unprocessed.smi

> <i_m_source_file_index>
3228

> <i_lp_mmshare_version>
43012

> <i_f3d_flags>
0

> <s_epik_input>
czFbY0hdW2NIXW5jMVtOSF1DKD1PKVtOSF1bQ0gyXVtDQEBIXTJbQ0gyXVtDSDJdW0NIMl1bQ0BIXTJbT0hd

> <s_epik_cmdline>
J2VwaWtfcHl0aG9uJywgJy1waCcsICc3LjAnLCAnLXRuJywgJzgnLCAnLW1hJywgJzIwMCcsICctbWV0YWxfYmluZGluZycsICctaW1hZScsICc8aW5maWxlLm1hZT4nLCAnLW9tYWUnLCAnPG91dGZpbGUubWFlPic=

> <r_lp_tautomer_probability>
0.999

> <r_epik_Ionization_Penalty>
0.000399498

> <r_epik_Ionization_Penalty_Charging>
0

> <r_epik_Ionization_Penalty_Neutral>
0.000399498

> <r_epik_State_Penalty>
0.000177984

> <r_epik_Charging_Adjusted_Penalty>
0.000177984

> <i_epik_Tot_Q>
0

> <i_epik_Tot_abs_Q>
0

> <r_epik_Metal_State_Penalty>
0.0060793

> <b_epik_Metal_Only>
0

> <s_lp_Force_Field>
OPLS_2005

> <r_lp_Energy>
23.3764

> <b_lp_Chiralities_Consistent>
1

> <s_lp_Variant>
AV-unprocessed.smi:3228-2

> <Gold.Version>
5.8.1

> <Gold.Id.Protein>
6NUR|6NUR_protein|mol2

> <Gold.PLP.Fitness>
41.3258

> <Gold.PLP.PLP>
-27.8012

> <Gold.PLP.part.hbond>
-4.3171

> <Gold.PLP.part.metal>
0.0000

> <Gold.PLP.part.buried>
-2.4731

> <Gold.PLP.part.nonpolar>
-21.8432

> <Gold.PLP.part.repulsive>
0.5085

> <Gold.PLP.ligand.clash>
0.0000

> <Gold.PLP.ligand.torsion>
0.4283

> <Gold.PLP.Chemscore.Hbond>
3.8860

> <Gold.PLP.Chemscore.CHOScore>
0.9071

> <Gold.PLP.Chemscore.Metal>
0.0000

> <Gold.Chemscore.Hbonds>
donor molecule, donor type, donor heavy atom, donor atom, acceptor molecule, acceptor atom, score
      L1  H     3    17       P1  7948  0.98
      L1  H    10    28       P1  7957  0.94
      L1  H    11    29       P1  7948  1.00
      P1  H  8011  8017       L1    10  0.94
      L1  C    14    30       P1 10186  0.82

> <Gold.PLP.Chemscore.Internal.Correction>
0.0018

> <Gold.Rescore>
     Score         DG    S(hbond)    S(metal)    S(lipo)     H(rot)  DE(clash)    DE(int)     intcor
     16.28     -18.23       3.23        0.00      57.92       1.88       0.14       1.81       ----

> <Gold.Chemscore.Fitness>
16.2780

> <Gold.Chemscore.DG>
-18.2264

> <Gold.Chemscore.ZeroCoef>
-5.4800

> <Gold.Chemscore.Hbond>
3.2273

> <Gold.Chemscore.Metal>
0.0000

> <Gold.Chemscore.Lipo>
57.9164

> <Gold.Chemscore.Internal_Hbond>
0.0000

> <Gold.Chemscore.DEClash>
0.1390

> <Gold.Chemscore.DEInternal>
1.8093

> <Gold.Chemscore.Rot>
1.8786

> <Gold.Chemscore.Internal.Correction>
   9.000000E+99

> <Gold.Chemscore.Hbonds>
donor molecule, donor type, donor heavy atom, donor atom, acceptor molecule, acceptor atom, score
      L1  H     3    17       P1  7948  0.90
      L1  H    10    28       P1  7957  0.85
      L1  H    11    29       P1  7948  0.92
      P1  H  8011  8017       L1    10  0.23

> <Gold.Chemscore.Hbond.Weighted>
-10.7793

> <Gold.Chemscore.Metal.Weighted>
-0.0000

> <Gold.Chemscore.Lipo.Weighted>
-6.7762

> <Gold.Chemscore.Internal_Hbond.Weighted>
0.0000

> <Gold.Chemscore.DEClash.Weighted>
0.1390

> <Gold.Chemscore.DEInternal.Weighted>
1.8093

> <Gold.Chemscore.Rot.Weighted>
4.8091

> <Gold.Chemscore.Internal.Correction.Weighted>
   9.000000E+99

> <Gold.Protein.RotatedTorsions>
[ 6907 6896 6895 6894 ] final -141.71 input  -60.11 | X-H torsion
[ 7974 7965 7964 7962 ] final  -44.45 input  175.53 | X-H torsion
[ 8008 7997 7996 7995 ] final -140.22 input   59.86 | X-H torsion
[ 10167 10162 10161 10158 ] final  172.21 input  -65.29 | X-H torsion
[ 10718 10713 10712 10709 ] final   38.30 input   66.30 | X-H torsion
[ 10763 10752 10751 10750 ] final -116.85 input  -60.55 | X-H torsion
[ 11005 11000 10999 10996 ] final   -7.13 input  -57.11 | X-H torsion

> <Gold.Protein.ActiveResidues>
 VAL166  LYS551  ARG553  GLY616  TRP617  ASP618  TYR619  PRO620  LYS621  CYS622 
 ASP623  PHE694  ASN695  SER759  ASP760  ASP761  ALA762  ILE779  LEU786  VAL792 
 PHE793  MET794  SER795  GLU796  ALA797  LYS798  CYS799  TRP800  GLU811  SER814 

> <Gold.Protein.RotatedAtoms>
  151.0774  133.5417  159.2622 H   0  0  0  0  0  0  0  0  0  0  0  0  # atno 6907 bound_to 6896
  151.2334  135.0562  159.9006 H   0  0  0  0  0  0  0  0  0  0  0  0  # atno 6908 bound_to 6896
  152.5419  134.0560  159.8184 H   0  0  0  0  0  0  0  0  0  0  0  0  # atno 6909 bound_to 6896
  145.9919  140.7171  142.9312 H   0  0  0  0  0  0  0  0  0  0  0  0  # atno 7974 bound_to 7965
  155.4577  140.0543  157.2994 H   0  0  0  0  0  0  0  0  0  0  0  0  # atno 8008 bound_to 7997
  154.4750  140.2057  155.9855 H   0  0  0  0  0  0  0  0  0  0  0  0  # atno 8009 bound_to 7997
  156.1118  140.3203  155.8087 H   0  0  0  0  0  0  0  0  0  0  0  0  # atno 8010 bound_to 7997
  139.5070  144.3399  152.0028 H   0  0  0  0  0  0  0  0  0  0  0  0  # atno 10167 bound_to 10162
  157.3571  130.7630  149.7021 H   0  0  0  0  0  0  0  0  0  0  0  0  # atno 10718 bound_to 10713
  154.8534  135.4330  154.1887 H   0  0  0  0  0  0  0  0  0  0  0  0  # atno 10763 bound_to 10752
  153.2960  135.6965  153.7254 H   0  0  0  0  0  0  0  0  0  0  0  0  # atno 10764 bound_to 10752
  153.6402  135.3469  155.3043 H   0  0  0  0  0  0  0  0  0  0  0  0  # atno 10765 bound_to 10752
  140.7095  133.8921  155.8740 H   0  0  0  0  0  0  0  0  0  0  0  0  # atno 11005 bound_to 11000
  144.6892  140.3085  143.7252 LP  0  0  0  0  0  0  0  0  0  0  0  0  # atno 17320 bound_to 7965
  145.7617  139.1827  143.2263 LP  0  0  0  0  0  0  0  0  0  0  0  0  # atno 17321 bound_to 7965
  140.2837  144.3831  150.6110 LP  0  0  0  0  0  0  0  0  0  0  0  0  # atno 17342 bound_to 10162
  140.5999  143.2167  151.7093 LP  0  0  0  0  0  0  0  0  0  0  0  0  # atno 17343 bound_to 10162
  155.9731  130.4124  150.4030 LP  0  0  0  0  0  0  0  0  0  0  0  0  # atno 17370 bound_to 10713
  157.2102  131.0458  151.2603 LP  0  0  0  0  0  0  0  0  0  0  0  0  # atno 17371 bound_to 10713
  141.0096  134.1038  157.4235 LP  0  0  0  0  0  0  0  0  0  0  0  0  # atno 17394 bound_to 11000
  139.8875  135.0090  156.6566 LP  0  0  0  0  0  0  0  0  0  0  0  0  # atno 17395 bound_to 11000

$$$$
