AV-unprocessed.smi:167|AV-procd|sdf|1395|dock4
  -GOLD-   2262019133D 1   1.00000     0.00000
 Structure written by MMmdl.
 51 55  0  0  0  0  0  0  0  0  1 V2000
  151.6822  137.2322  153.9557 O   0  0  0  0  0  0  0  0  0  0  0  0
  150.6519  137.4575  154.8939 C   0  0  0  0  0  0  0  0  0  0  0  0
  150.2684  138.9498  154.9123 C   0  0  1  0  0  0  0  0  0  0  0  0
  149.5576  139.4362  153.6324 C   0  0  0  0  0  0  0  0  0  0  0  0
  148.2707  140.0616  154.2098 C   0  0  2  0  0  0  0  0  0  0  0  0
  148.6264  141.3738  154.9306 C   0  0  0  0  0  0  0  0  0  0  0  0
  149.2756  140.8426  156.2195 C   0  0  0  0  0  0  0  0  0  0  0  0
  149.2145  139.3220  155.9859 C   0  0  1  0  0  0  0  0  0  0  0  0
  147.9272  139.1853  155.3190 N   0  0  0  0  0  0  0  0  0  0  0  0
  147.3686  137.9627  155.1074 C   0  0  0  0  0  0  0  0  0  0  0  0
  147.4227  137.0342  156.0991 N   0  0  0  0  0  0  0  0  0  0  0  0
  146.8724  135.8291  155.9313 C   0  0  0  0  0  0  0  0  0  0  0  0
  146.2364  135.3446  154.8641 N   0  0  0  0  0  0  0  0  0  0  0  0
  146.1960  136.2600  153.8542 C   0  0  0  0  0  0  0  0  0  0  0  0
  146.7344  137.5788  153.8893 C   0  0  0  0  0  0  0  0  0  0  0  0
  146.4995  138.2099  152.6735 N   0  0  0  0  0  0  0  0  0  0  0  0
  145.8464  137.3264  151.9703 C   0  0  0  0  0  0  0  0  0  0  0  0
  145.6326  136.1194  152.5970 N   0  0  0  0  0  0  0  0  0  0  0  0
  144.9280  134.9845  152.0707 C   0  0  0  0  0  0  0  0  0  0  0  0
  144.9802  133.6122  152.7517 C   0  0  0  0  0  0  0  0  0  0  0  0
  144.8992  132.9362  151.3626 C   0  0  0  0  0  0  0  0  0  0  0  0
  145.7832  131.6914  151.1507 C   0  0  0  0  0  0  0  0  0  0  0  0
  147.1251  131.9051  151.5422 O   0  0  0  0  0  0  0  0  0  0  0  0
  143.4692  132.5582  150.9326 C   0  0  0  0  0  0  0  0  0  0  0  0
  143.4515  131.9534  149.6553 O   0  0  0  0  0  0  0  0  0  0  0  0
  145.4257  134.2810  150.8074 C   0  0  0  0  0  0  0  0  0  0  0  0
  151.2892  136.9890  153.1312 H   0  0  0  0  0  0  0  0  0  0  0  0
  149.8035  136.8226  154.6416 H   0  0  0  0  0  0  0  0  0  0  0  0
  151.0064  137.1465  155.8768 H   0  0  0  0  0  0  0  0  0  0  0  0
  151.1788  139.5266  155.0834 H   0  0  0  0  0  0  0  0  0  0  0  0
  150.1549  140.1509  153.0654 H   0  0  0  0  0  0  0  0  0  0  0  0
  149.3186  138.6044  152.9683 H   0  0  0  0  0  0  0  0  0  0  0  0
  147.4827  140.1950  153.4678 H   0  0  0  0  0  0  0  0  0  0  0  0
  149.2961  142.0059  154.3463 H   0  0  0  0  0  0  0  0  0  0  0  0
  147.7296  141.9496  155.1623 H   0  0  0  0  0  0  0  0  0  0  0  0
  150.2897  141.2135  156.3715 H   0  0  0  0  0  0  0  0  0  0  0  0
  148.6809  141.1238  157.0894 H   0  0  0  0  0  0  0  0  0  0  0  0
  149.3296  138.7695  156.9167 H   0  0  0  0  0  0  0  0  0  0  0  0
  146.9520  135.1576  156.7733 H   0  0  0  0  0  0  0  0  0  0  0  0
  145.5006  137.5385  150.9692 H   0  0  0  0  0  0  0  0  0  0  0  0
  143.8883  135.2920  151.9469 H   0  0  0  0  0  0  0  0  0  0  0  0
  145.9197  133.4282  153.2730 H   0  0  0  0  0  0  0  0  0  0  0  0
  144.1336  133.4074  153.4076 H   0  0  0  0  0  0  0  0  0  0  0  0
  145.3997  130.8429  151.7181 H   0  0  0  0  0  0  0  0  0  0  0  0
  145.7933  131.3900  150.1030 H   0  0  0  0  0  0  0  0  0  0  0  0
  147.6760  131.3049  151.0631 H   0  0  0  0  0  0  0  0  0  0  0  0
  143.0122  131.8750  151.6495 H   0  0  0  0  0  0  0  0  0  0  0  0
  142.8225  133.4349  150.8937 H   0  0  0  0  0  0  0  0  0  0  0  0
  143.1486  132.5898  149.0256 H   0  0  0  0  0  0  0  0  0  0  0  0
  144.9465  134.6217  149.8890 H   0  0  0  0  0  0  0  0  0  0  0  0
  146.5119  134.3203  150.7132 H   0  0  0  0  0  0  0  0  0  0  0  0
  1  2  1  0  0  0  0
  1 27  1  0  0  0  0
  2  3  1  0  0  0  0
  2 28  1  0  0  0  0
  2 29  1  0  0  0  0
  3  8  1  0  0  0  0
  3  4  1  0  0  0  0
  3 30  1  0  0  0  0
  4  5  1  0  0  0  0
  4 31  1  0  0  0  0
  4 32  1  0  0  0  0
  5  9  1  0  0  0  0
  5  6  1  0  0  0  0
  5 33  1  0  0  0  0
  6  7  1  0  0  0  0
  6 34  1  0  0  0  0
  6 35  1  0  0  0  0
  7  8  1  0  0  0  0
  7 36  1  0  0  0  0
  7 37  1  0  0  0  0
  8  9  1  0  0  0  0
  8 38  1  0  0  0  0
  9 10  1  0  0  0  0
 10 15  1  0  0  0  0
 10 11  2  0  0  0  0
 11 12  1  0  0  0  0
 12 13  2  0  0  0  0
 12 39  1  0  0  0  0
 13 14  1  0  0  0  0
 14 18  1  0  0  0  0
 14 15  2  0  0  0  0
 15 16  1  0  0  0  0
 16 17  2  0  0  0  0
 17 18  1  0  0  0  0
 17 40  1  0  0  0  0
 18 19  1  0  0  0  0
 19 26  1  0  0  0  0
 19 20  1  0  0  0  0
 19 41  1  0  0  0  0
 20 21  1  0  0  0  0
 20 42  1  0  0  0  0
 20 43  1  0  0  0  0
 21 22  1  0  0  0  0
 21 24  1  0  0  0  0
 21 26  1  0  0  0  0
 22 23  1  0  0  0  0
 22 44  1  0  0  0  0
 22 45  1  0  0  0  0
 23 46  1  0  0  0  0
 24 25  1  0  0  0  0
 24 47  1  0  0  0  0
 24 48  1  0  0  0  0
 25 49  1  0  0  0  0
 26 50  1  0  0  0  0
 26 51  1  0  0  0  0
M  END
> <s_m_source_file>
AV-unprocessed.smi

> <i_m_source_file_index>
167

> <i_lp_mmshare_version>
43012

> <i_f3d_flags>
0

> <s_epik_input>
W09IXVtDSDJdW0NASF0oW0NIMl1bQ0BASF0xMilbQ0BIXShbQ0gyXVtDSDJdMSlOMmMobltjSF1uMyljKGMzNCluW2NIXW40W0NIXShbQ0gyXTUpW0NIMl1DNShbQ0gyXVtPSF0pW0NIMl1bT0hd

> <s_epik_cmdline>
J2VwaWtfcHl0aG9uJywgJy1waCcsICc3LjAnLCAnLXRuJywgJzgnLCAnLW1hJywgJzIwMCcsICctbWV0YWxfYmluZGluZycsICctaW1hZScsICc8aW5maWxlLm1hZT4nLCAnLW9tYWUnLCAnPG91dGZpbGUubWFlPic=

> <r_lp_tautomer_probability>
1

> <r_epik_Ionization_Penalty>
0.0047903

> <r_epik_Ionization_Penalty_Charging>
0

> <r_epik_Ionization_Penalty_Neutral>
0.0047903

> <r_epik_State_Penalty>
0.00341021

> <r_epik_Charging_Adjusted_Penalty>
0.00341021

> <i_epik_Tot_Q>
0

> <i_epik_Tot_abs_Q>
0

> <r_epik_Metal_State_Penalty>
-0

> <b_epik_Metal_Only>
0

> <s_lp_Force_Field>
OPLS_2005

> <r_lp_Energy>
89.2094

> <b_lp_Chiralities_Consistent>
1

> <s_lp_Variant>
AV-unprocessed.smi:167-4

> <Gold.Version>
5.8.1

> <Gold.Id.Protein>
6NUR|6NUR_protein|mol2

> <Gold.PLP.Fitness>
47.2432

> <Gold.PLP.PLP>
-33.5125

> <Gold.PLP.part.hbond>
-4.7998

> <Gold.PLP.part.metal>
0.0000

> <Gold.PLP.part.buried>
-1.4156

> <Gold.PLP.part.nonpolar>
-28.2520

> <Gold.PLP.part.repulsive>
0.4002

> <Gold.PLP.ligand.clash>
0.0000

> <Gold.PLP.ligand.torsion>
0.8685

> <Gold.PLP.Chemscore.Hbond>
4.0000

> <Gold.PLP.Chemscore.CHOScore>
1.0000

> <Gold.PLP.Chemscore.Metal>
0.0000

> <Gold.Chemscore.Hbonds>
donor molecule, donor type, donor heavy atom, donor atom, acceptor molecule, acceptor atom, score
      L1  H     1    27       P1  7949  1.00
      L1  H    23    46       P1 10747  1.00
      P1  H 10752 10765       L1     1  0.93
      P1  H 10785 10796       L1    25  0.96
      L1  C    17    40       P1 10171  1.00

> <Gold.PLP.Chemscore.Internal.Correction>
0.4676

> <Gold.Rescore>
     Score         DG    S(hbond)    S(metal)    S(lipo)     H(rot)  DE(clash)    DE(int)     intcor
     10.43     -15.10       3.15        0.00      84.17       4.20       1.68       2.99       ----

> <Gold.Chemscore.Fitness>
10.4317

> <Gold.Chemscore.DG>
-15.0965

> <Gold.Chemscore.ZeroCoef>
-5.4800

> <Gold.Chemscore.Hbond>
3.1528

> <Gold.Chemscore.Metal>
0.0000

> <Gold.Chemscore.Lipo>
84.1707

> <Gold.Chemscore.Internal_Hbond>
0.0000

> <Gold.Chemscore.DEClash>
1.6777

> <Gold.Chemscore.DEInternal>
2.9871

> <Gold.Chemscore.Rot>
4.2038

> <Gold.Chemscore.Internal.Correction>
   9.000000E+99

> <Gold.Chemscore.Hbonds>
donor molecule, donor type, donor heavy atom, donor atom, acceptor molecule, acceptor atom, score
      L1  H     1    27       P1  7949  0.68
      L1  H    23    46       P1 10747  0.96
      P1  H 10752 10765       L1     1  0.35
      P1  H 10785 10796       L1    25  0.44

> <Gold.Chemscore.Hbond.Weighted>
-10.5302

> <Gold.Chemscore.Metal.Weighted>
-0.0000

> <Gold.Chemscore.Lipo.Weighted>
-9.8480

> <Gold.Chemscore.Internal_Hbond.Weighted>
0.0000

> <Gold.Chemscore.DEClash.Weighted>
1.6777

> <Gold.Chemscore.DEInternal.Weighted>
2.9871

> <Gold.Chemscore.Rot.Weighted>
10.7617

> <Gold.Chemscore.Internal.Correction.Weighted>
   9.000000E+99

> <Gold.Protein.RotatedTorsions>
[ 6907 6896 6895 6894 ] final -165.64 input  -60.11 | X-H torsion
[ 7974 7965 7964 7962 ] final   48.54 input  175.53 | X-H torsion
[ 8008 7997 7996 7995 ] final   22.69 input   59.86 | X-H torsion
[ 10167 10162 10161 10158 ] final   38.18 input  -65.29 | X-H torsion
[ 10718 10713 10712 10709 ] final -131.44 input   66.30 | X-H torsion
[ 10763 10752 10751 10750 ] final  168.24 input  -60.55 | X-H torsion
[ 11005 11000 10999 10996 ] final  -83.21 input  -57.11 | X-H torsion

> <Gold.Protein.ActiveResidues>
 VAL166  LYS551  ARG553  GLY616  TRP617  ASP618  TYR619  PRO620  LYS621  CYS622 
 ASP623  PHE694  ASN695  SER759  ASP760  ASP761  ALA762  ILE779  LEU786  VAL792 
 PHE793  MET794  SER795  GLU796  ALA797  LYS798  CYS799  TRP800  GLU811  SER814 

> <Gold.Protein.RotatedAtoms>
  151.4309  133.3670  159.2768 H   0  0  0  0  0  0  0  0  0  0  0  0  # atno 6907 bound_to 6896
  150.9226  134.8644  159.7509 H   0  0  0  0  0  0  0  0  0  0  0  0  # atno 6908 bound_to 6896
  152.4989  134.4248  159.9544 H   0  0  0  0  0  0  0  0  0  0  0  0  # atno 6909 bound_to 6896
  146.0194  139.4634  142.9906 H   0  0  0  0  0  0  0  0  0  0  0  0  # atno 7974 bound_to 7965
  154.9695  140.3088  155.4994 H   0  0  0  0  0  0  0  0  0  0  0  0  # atno 8008 bound_to 7997
  156.2967  140.2286  156.4725 H   0  0  0  0  0  0  0  0  0  0  0  0  # atno 8009 bound_to 7997
  154.7890  140.0441  157.1174 H   0  0  0  0  0  0  0  0  0  0  0  0  # atno 8010 bound_to 7997
  140.3961  144.1787  150.6132 H   0  0  0  0  0  0  0  0  0  0  0  0  # atno 10167 bound_to 10162
  156.2244  130.6999  151.0791 H   0  0  0  0  0  0  0  0  0  0  0  0  # atno 10718 bound_to 10713
  154.3656  135.2753  155.2295 H   0  0  0  0  0  0  0  0  0  0  0  0  # atno 10763 bound_to 10752
  154.4465  135.5941  153.6167 H   0  0  0  0  0  0  0  0  0  0  0  0  # atno 10764 bound_to 10752
  152.9841  135.6031  154.3881 H   0  0  0  0  0  0  0  0  0  0  0  0  # atno 10765 bound_to 10752
  141.1659  133.7283  156.8687 H   0  0  0  0  0  0  0  0  0  0  0  0  # atno 11005 bound_to 11000
  145.7216  141.0073  143.1399 LP  0  0  0  0  0  0  0  0  0  0  0  0  # atno 17320 bound_to 7965
  144.6984  139.8878  143.7451 LP  0  0  0  0  0  0  0  0  0  0  0  0  # atno 17321 bound_to 7965
  140.4789  143.2386  151.8983 LP  0  0  0  0  0  0  0  0  0  0  0  0  # atno 17342 bound_to 10162
  139.4786  144.5290  151.8693 LP  0  0  0  0  0  0  0  0  0  0  0  0  # atno 17343 bound_to 10162
  157.7103  131.0737  150.6523 LP  0  0  0  0  0  0  0  0  0  0  0  0  # atno 17370 bound_to 10713
  156.6587  130.4506  149.5695 LP  0  0  0  0  0  0  0  0  0  0  0  0  # atno 17371 bound_to 10713
  140.1797  134.9042  157.2934 LP  0  0  0  0  0  0  0  0  0  0  0  0  # atno 17394 bound_to 11000
  140.2409  134.3797  155.7481 LP  0  0  0  0  0  0  0  0  0  0  0  0  # atno 17395 bound_to 11000

$$$$
