#       Name:                AV-unprocessed.smi:979
#       Creating user name   scv26
#       Creation time:       Fri Mar 27 02:21:46 2020


#       File generated by GOLD software.
#

@<TRIPOS>MOLECULE
AV-unprocessed.smi:979
    47    48     1
SMALL
NO_CHARGES


@<TRIPOS>ATOM
      1 ****        -2.4574   2.2658  -0.3612 C.3            1 S1                 0.0000
      2 ****        -2.9364   1.6030  -1.5583 N.pl3          1 S1                 0.0000
      3 ****        -2.6387   1.8791  -2.8368 C.2            1 S1                 0.0000
      4 ****        -3.2459   1.1073  -3.7370 N.2            1 S1                 0.0000
      5 ****        -4.0176   0.2418  -2.9881 N.2            1 S1                 0.0000
      6 ****        -3.7935   0.5710  -1.7098 C.2            1 S1                 0.0000
      7 ****        -4.4417  -0.1351  -0.5548 C.3            1 S1                 0.0000
      8 ****        -3.9464  -1.5811  -0.3512 C.3            1 S1                 0.0000
      9 ****        -2.4910  -1.6901  -0.3309 N.am           1 S1                 0.0000
     10 ****        -1.7068  -1.3653   0.7072 C.2            1 S1                 0.0000
     11 ****        -2.1440  -0.9495   1.7801 O.2            1 S1                 0.0000
     12 ****        -0.1995  -1.5260   0.5008 C.3            1 S1                 0.0000
     13 ****         0.5586  -0.2078   0.7456 C.3            1 S1                 0.0000
     14 ****         2.0692  -0.2853   0.4450 C.3            1 S1                 0.0000
     15 ****         2.8242  -1.1988   1.4364 C.3            1 S1                 0.0000
     16 ****         4.3338  -1.2362   1.1452 C.3            1 S1                 0.0000
     17 ****         4.9385   0.1753   1.1398 C.3            1 S1                 0.0000
     18 ****         4.2020   1.0834   0.1446 C.3            1 S1                 0.0000
     19 ****         2.6951   1.1252   0.4439 C.3            1 S1                 0.0000
     20 ****        -1.6218   2.9221  -0.6056 H              1 S1                 0.0000
     21 ****        -2.1218   1.5303   0.3680 H              1 S1                 0.0000
     22 ****        -3.2609   2.8597   0.0747 H              1 S1                 0.0000
     23 ****        -1.9613   2.6718  -3.1196 H              1 S1                 0.0000
     24 ****        -4.2851   0.4367   0.3597 H              1 S1                 0.0000
     25 ****        -5.5198  -0.1410  -0.7176 H              1 S1                 0.0000
     26 ****        -4.3733  -2.0060   0.5585 H              1 S1                 0.0000
     27 ****        -4.3022  -2.2014  -1.1743 H              1 S1                 0.0000
     28 ****        -2.0474  -2.0227  -1.1751 H              1 S1                 0.0000
     29 ****         0.1496  -2.3015   1.1823 H              1 S1                 0.0000
     30 ****        -0.0017  -1.8846  -0.5105 H              1 S1                 0.0000
     31 ****         0.1185   0.5631   0.1113 H              1 S1                 0.0000
     32 ****         0.4079   0.1262   1.7734 H              1 S1                 0.0000
     33 ****         2.1908  -0.6986  -0.5576 H              1 S1                 0.0000
     34 ****         2.6602  -0.8491   2.4567 H              1 S1                 0.0000
     35 ****         2.4334  -2.2151   1.3924 H              1 S1                 0.0000
     36 ****         4.8400  -1.8533   1.8881 H              1 S1                 0.0000
     37 ****         4.5079  -1.7115   0.1789 H              1 S1                 0.0000
     38 ****         4.8774   0.6041   2.1409 H              1 S1                 0.0000
     39 ****         5.9980   0.1269   0.8869 H              1 S1                 0.0000
     40 ****         4.6169   2.0911   0.1832 H              1 S1                 0.0000
     41 ****         4.3634   0.7203  -0.8711 H              1 S1                 0.0000
     42 ****         2.1982   1.7537  -0.2960 H              1 S1                 0.0000
     43 ****         2.5310   1.6019   1.4114 H              1 S1                 0.0000
     44 ****        -3.1615   1.1462  -4.7327 LP             1 S1                 0.0000
     45 ****        -4.6189  -0.4807  -3.3293 LP             1 S1                 0.0000
     46 ****        -3.1295  -0.8395   1.9095 LP             1 S1                 0.0000
     47 ****        -1.5137  -0.7217   2.5223 LP             1 S1                 0.0000
@<TRIPOS>BOND
    1    1    2 1     
    2    1   20 1     
    3    1   21 1     
    4    1   22 1     
    5    2    6 1     
    6    2    3 1     
    7    3    4 2     
    8    3   23 1     
    9    4    5 1     
   10    5    6 2     
   11    6    7 1     
   12    7    8 1     
   13    7   24 1     
   14    7   25 1     
   15    8    9 1     
   16    8   26 1     
   17    8   27 1     
   18    9   10 am    
   19    9   28 1     
   20   10   11 2     
   21   10   12 1     
   22   12   13 1     
   23   12   29 1     
   24   12   30 1     
   25   13   14 1     
   26   13   31 1     
   27   13   32 1     
   28   14   19 1     
   29   14   15 1     
   30   14   33 1     
   31   15   16 1     
   32   15   34 1     
   33   15   35 1     
   34   16   17 1     
   35   16   36 1     
   36   16   37 1     
   37   17   18 1     
   38   17   38 1     
   39   17   39 1     
   40   18   19 1     
   41   18   40 1     
   42   18   41 1     
   43   19   42 1     
   44   19   43 1     
   45    4   44 1     
   46    5   45 1     
   47   11   46 1     
   48   11   47 1     
@<TRIPOS>SUBSTRUCTURE
      1 S1             1
@<TRIPOS>SET
LONE_PAIRS      STATIC     ATOMS    <user>   **** ""
4 44 45 46 47
DONOR_HYDROGENS      STATIC     ATOMS    <user>   **** ""
1 28
ATOM$BLUE        STATIC     ATOMS    COLORGROUP SYSTEM
4 44 45 46 47
ATOM$RED        STATIC     ATOMS    COLORGROUP SYSTEM
1 28
