AV-unprocessed.smi:1809|AV-procd|sdf|7310|dock8
  -GOLD-   22720 8563D 1   1.00000     0.00000
 Structure written by MMmdl.
 40 42  0  0  0  0  0  0  0  0  2 V2000
  147.3980  129.3615  153.0750 C   0  0  0  0  0  0  0  0  0  0  0  0
  148.1031  130.6163  153.4623 C   0  0  0  0  0  0  0  0  0  0  0  0
  149.1006  130.6431  154.3549 N   0  0  0  0  0  0  0  0  0  0  0  0
  149.5987  131.9239  154.5488 N   0  0  0  0  0  0  0  0  0  0  0  0
  148.9586  132.8286  153.7952 C   0  0  0  0  0  0  0  0  0  0  0  0
  149.2667  134.2148  153.7948 N   0  0  0  0  0  0  0  0  0  0  0  0
  150.0124  134.9016  154.6777 C   0  0  0  0  0  0  0  0  0  0  0  0
  150.5566  134.4242  155.6732 O   0  0  0  0  0  0  0  0  0  0  0  0
  150.0982  136.1958  154.3385 N   0  0  0  0  0  0  0  0  0  0  0  0
  150.8512  137.2105  155.0683 C   0  0  0  0  0  0  0  0  0  0  0  0
  150.8463  138.5645  154.3255 C   0  0  1  0  0  0  0  0  0  0  0  0
  149.5597  139.3882  154.5806 C   0  0  0  0  0  0  0  0  0  0  0  0
  149.6299  139.9973  155.9217 N   0  3  2  0  0  0  0  0  0  0  0  0
  148.4954  140.8242  156.3687 C   0  0  0  0  0  0  0  0  0  0  0  0
  149.0881  141.7687  157.4331 C   0  0  0  0  0  0  0  0  0  0  0  0
  150.6074  141.5244  157.4079 C   0  0  0  0  0  0  0  0  0  0  0  0
  150.8247  140.8302  156.0670 C   0  0  1  0  0  0  0  0  0  0  0  0
  152.0655  139.9463  155.9108 C   0  0  0  0  0  0  0  0  0  0  0  0
  152.0185  139.3436  154.6136 O   0  0  0  0  0  0  0  0  0  0  0  0
  147.6824  132.1817  152.7782 S   0  0  0  0  0  0  0  0  0  0  0  0
  147.9027  128.4907  153.4947 H   0  0  0  0  0  0  0  0  0  0  0  0
  147.3801  129.2637  151.9893 H   0  0  0  0  0  0  0  0  0  0  0  0
  146.3720  129.3830  153.4424 H   0  0  0  0  0  0  0  0  0  0  0  0
  148.8796  134.7430  153.0269 H   0  0  0  0  0  0  0  0  0  0  0  0
  149.6160  136.5004  153.5055 H   0  0  0  0  0  0  0  0  0  0  0  0
  150.3678  137.3298  156.0382 H   0  0  0  0  0  0  0  0  0  0  0  0
  151.8654  136.8713  155.2825 H   0  0  0  0  0  0  0  0  0  0  0  0
  150.8811  138.3426  153.2582 H   0  0  0  0  0  0  0  0  0  0  0  0
  149.4654  140.1752  153.8307 H   0  0  0  0  0  0  0  0  0  0  0  0
  148.6709  138.7615  154.4986 H   0  0  0  0  0  0  0  0  0  0  0  0
  148.1025  141.4033  155.5313 H   0  0  0  0  0  0  0  0  0  0  0  0
  147.6895  140.2035  156.7612 H   0  0  0  0  0  0  0  0  0  0  0  0
  148.8578  142.8054  157.1845 H   0  0  0  0  0  0  0  0  0  0  0  0
  148.6776  141.5696  158.4234 H   0  0  0  0  0  0  0  0  0  0  0  0
  151.1864  142.4432  157.5064 H   0  0  0  0  0  0  0  0  0  0  0  0
  150.8892  140.8592  158.2256 H   0  0  0  0  0  0  0  0  0  0  0  0
  150.8231  141.5896  155.2817 H   0  0  0  0  0  0  0  0  0  0  0  0
  152.9730  140.5446  155.9911 H   0  0  0  0  0  0  0  0  0  0  0  0
  152.1106  139.1915  156.6952 H   0  0  0  0  0  0  0  0  0  0  0  0
  149.7214  139.2473  156.5922 H   0  0  0  0  0  0  0  0  0  0  0  0
  1  2  1  0  0  0  0
  1 21  1  0  0  0  0
  1 22  1  0  0  0  0
  1 23  1  0  0  0  0
  2 20  1  0  0  0  0
  2  3  2  0  0  0  0
  3  4  1  0  0  0  0
  4  5  2  0  0  0  0
  5  6  1  0  0  0  0
  5 20  1  0  0  0  0
  6  7  1  0  0  0  0
  6 24  1  0  0  0  0
  7  8  2  0  0  0  0
  7  9  1  0  0  0  0
  9 10  1  0  0  0  0
  9 25  1  0  0  0  0
 10 11  1  0  0  0  0
 10 26  1  0  0  0  0
 10 27  1  0  0  0  0
 11 19  1  0  0  0  0
 11 12  1  0  0  0  0
 11 28  1  0  0  0  0
 12 13  1  0  0  0  0
 12 29  1  0  0  0  0
 12 30  1  0  0  0  0
 13 17  1  0  0  0  0
 13 14  1  0  0  0  0
 13 40  1  0  0  0  0
 14 15  1  0  0  0  0
 14 31  1  0  0  0  0
 14 32  1  0  0  0  0
 15 16  1  0  0  0  0
 15 33  1  0  0  0  0
 15 34  1  0  0  0  0
 16 17  1  0  0  0  0
 16 35  1  0  0  0  0
 16 36  1  0  0  0  0
 17 18  1  0  0  0  0
 17 37  1  0  0  0  0
 18 19  1  0  0  0  0
 18 38  1  0  0  0  0
 18 39  1  0  0  0  0
M  CHG  1  13   1
M  END
> <s_m_source_file>
AV-unprocessed.smi

> <i_m_source_file_index>
1809

> <i_lp_mmshare_version>
43012

> <i_f3d_flags>
0

> <s_epik_input>
W0NIM11jMW5uYyhzMSlbTkhdQyg9TylbTkhdW0NIMl1bQ0BIXShbQ0gyXTIpT1tDSDJdW0NAQEhdKE4yMylbQ0gyXVtDSDJdW0NIMl0z

> <s_epik_cmdline>
J2VwaWtfcHl0aG9uJywgJy1waCcsICc3LjAnLCAnLXRuJywgJzgnLCAnLW1hJywgJzIwMCcsICctbWV0YWxfYmluZGluZycsICctaW1hZScsICc8aW5maWxlLm1hZT4nLCAnLW9tYWUnLCAnPG91dGZpbGUubWFlPic=

> <r_lp_tautomer_probability>
1

> <r_epik_Ionization_Penalty>
0.112474

> <r_epik_Ionization_Penalty_Charging>
0.108916

> <r_epik_Ionization_Penalty_Neutral>
0.00355844

> <r_epik_State_Penalty>
0.0565397

> <r_epik_Charging_Adjusted_Penalty>
0.165456

> <i_epik_Tot_Q>
1

> <i_epik_Tot_abs_Q>
1

> <r_epik_Metal_State_Penalty>
0.422831

> <b_epik_Metal_Only>
0

> <s_lp_Force_Field>
OPLS_2005

> <r_lp_Energy>
36.2916

> <b_lp_Chiralities_Consistent>
1

> <s_lp_Variant>
AV-unprocessed.smi:1809-2

> <Gold.Version>
5.8.1

> <Gold.Id.Protein>
6NUR|6NUR_protein|mol2

> <Gold.PLP.Fitness>
39.3564

> <Gold.PLP.PLP>
-31.3619

> <Gold.PLP.part.hbond>
-3.6236

> <Gold.PLP.part.metal>
0.0000

> <Gold.PLP.part.buried>
-4.1231

> <Gold.PLP.part.nonpolar>
-24.4944

> <Gold.PLP.part.repulsive>
0.2741

> <Gold.PLP.ligand.clash>
0.0000

> <Gold.PLP.ligand.torsion>
0.3398

> <Gold.PLP.Chemscore.Hbond>
2.8880

> <Gold.PLP.Chemscore.CHOScore>
0.0000

> <Gold.PLP.Chemscore.Metal>
0.0000

> <Gold.Chemscore.Hbonds>
donor molecule, donor type, donor heavy atom, donor atom, acceptor molecule, acceptor atom, score
      L1  H     6    24       P1  7948  0.79
      L1  H     9    25       P1  7948  1.00
      P1  H  7989  7998       L1    19  0.85

> <Gold.PLP.Chemscore.Internal.Correction>
0.0101

> <Gold.Rescore>
     Score         DG    S(hbond)    S(metal)    S(lipo)     H(rot)  DE(clash)    DE(int)     intcor
     13.15     -14.72       1.52        0.00      64.84       1.34       0.04       1.53       ----

> <Gold.Chemscore.Fitness>
13.1494

> <Gold.Chemscore.DG>
-14.7167

> <Gold.Chemscore.ZeroCoef>
-5.4800

> <Gold.Chemscore.Hbond>
1.5204

> <Gold.Chemscore.Metal>
0.0000

> <Gold.Chemscore.Lipo>
64.8429

> <Gold.Chemscore.Internal_Hbond>
0.0000

> <Gold.Chemscore.DEClash>
0.0379

> <Gold.Chemscore.DEInternal>
1.5294

> <Gold.Chemscore.Rot>
1.3391

> <Gold.Chemscore.Internal.Correction>
   9.000000E+99

> <Gold.Chemscore.Hbonds>
donor molecule, donor type, donor heavy atom, donor atom, acceptor molecule, acceptor atom, score
      L1  H     6    24       P1  7948  0.11
      L1  H     9    25       P1  7948  0.53
      P1  H  7989  7998       L1    19  0.07

> <Gold.Chemscore.Hbond.Weighted>
-5.0782

> <Gold.Chemscore.Metal.Weighted>
-0.0000

> <Gold.Chemscore.Lipo.Weighted>
-7.5866

> <Gold.Chemscore.Internal_Hbond.Weighted>
0.0000

> <Gold.Chemscore.DEClash.Weighted>
0.0379

> <Gold.Chemscore.DEInternal.Weighted>
1.5294

> <Gold.Chemscore.Rot.Weighted>
3.4281

> <Gold.Chemscore.Internal.Correction.Weighted>
   9.000000E+99

> <Gold.Protein.RotatedTorsions>
[ 6907 6896 6895 6894 ] final  -98.67 input  -60.11 | X-H torsion
[ 7974 7965 7964 7962 ] final -170.58 input  175.53 | X-H torsion
[ 8008 7997 7996 7995 ] final  -42.68 input   59.86 | X-H torsion
[ 10167 10162 10161 10158 ] final -121.50 input  -65.29 | X-H torsion
[ 10718 10713 10712 10709 ] final   69.10 input   66.30 | X-H torsion
[ 10763 10752 10751 10750 ] final  -19.75 input  -60.55 | X-H torsion
[ 11005 11000 10999 10996 ] final   56.38 input  -57.11 | X-H torsion

> <Gold.Protein.ActiveResidues>
 VAL166  LYS551  ARG553  GLY616  TRP617  ASP618  TYR619  PRO620  LYS621  CYS622 
 ASP623  PHE694  ASN695  SER759  ASP760  ASP761  ALA762  ILE779  LEU786  VAL792 
 PHE793  MET794  SER795  GLU796  ALA797  LYS798  CYS799  TRP800  GLU811  SER814 

> <Gold.Protein.RotatedAtoms>
  150.7054  134.1159  159.4016 H   0  0  0  0  0  0  0  0  0  0  0  0  # atno 6907 bound_to 6896
  151.9145  135.0322  160.0526 H   0  0  0  0  0  0  0  0  0  0  0  0  # atno 6908 bound_to 6896
  152.2308  133.5021  159.5251 H   0  0  0  0  0  0  0  0  0  0  0  0  # atno 6909 bound_to 6896
  144.7168  140.2050  143.6334 H   0  0  0  0  0  0  0  0  0  0  0  0  # atno 7974 bound_to 7965
  154.3998  140.1467  156.3394 H   0  0  0  0  0  0  0  0  0  0  0  0  # atno 8008 bound_to 7997
  155.8370  140.3463  155.5587 H   0  0  0  0  0  0  0  0  0  0  0  0  # atno 8009 bound_to 7997
  155.8127  140.0886  157.1885 H   0  0  0  0  0  0  0  0  0  0  0  0  # atno 8010 bound_to 7997
  140.0244  143.5312  152.2206 H   0  0  0  0  0  0  0  0  0  0  0  0  # atno 10167 bound_to 10162
  157.6327  130.9408  150.0467 H   0  0  0  0  0  0  0  0  0  0  0  0  # atno 10718 bound_to 10713
  153.6097  135.6996  153.5352 H   0  0  0  0  0  0  0  0  0  0  0  0  # atno 10763 bound_to 10752
  153.3027  135.4124  155.1266 H   0  0  0  0  0  0  0  0  0  0  0  0  # atno 10764 bound_to 10752
  154.8566  135.3653  154.5635 H   0  0  0  0  0  0  0  0  0  0  0  0  # atno 10765 bound_to 10752
  140.0533  134.5705  155.9237 H   0  0  0  0  0  0  0  0  0  0  0  0  # atno 11005 bound_to 11000
  145.8644  139.2239  143.1698 LP  0  0  0  0  0  0  0  0  0  0  0  0  # atno 17320 bound_to 7965
  146.0143  140.8406  142.9955 LP  0  0  0  0  0  0  0  0  0  0  0  0  # atno 17321 bound_to 7965
  139.6118  144.7610  151.2934 LP  0  0  0  0  0  0  0  0  0  0  0  0  # atno 17342 bound_to 10162
  140.7329  143.6810  150.8001 LP  0  0  0  0  0  0  0  0  0  0  0  0  # atno 17343 bound_to 10162
  156.1542  130.3643  149.9393 LP  0  0  0  0  0  0  0  0  0  0  0  0  # atno 17370 bound_to 10713
  156.7406  130.9078  151.3632 LP  0  0  0  0  0  0  0  0  0  0  0  0  # atno 17371 bound_to 10713
  141.1940  133.6581  156.5577 LP  0  0  0  0  0  0  0  0  0  0  0  0  # atno 17394 bound_to 11000
  140.3883  134.7463  157.4705 LP  0  0  0  0  0  0  0  0  0  0  0  0  # atno 17395 bound_to 11000

$$$$
