#       Name:                AV-unprocessed.smi:103
#       Creating user name   scv26
#       Creation time:       Thu Mar 26 17:57:10 2020


#       File generated by GOLD software.
#

@<TRIPOS>MOLECULE
AV-unprocessed.smi:103
    64    66     1
SMALL
NO_CHARGES


@<TRIPOS>ATOM
      1 ****        -5.3370   3.2829   0.9693 C.3            1 S1                 0.0000
      2 ****        -4.4082   2.4877   1.8778 C.2            1 S1                 0.0000
      3 ****        -4.6757   2.3019   3.0649 O.2            1 S1                 0.0000
      4 ****        -3.3177   2.0443   1.2362 O.3            1 S1                 0.0000
      5 ****        -2.3534   1.2763   1.9373 C.3            1 S1                 0.0000
      6 ****        -1.3066   0.7501   0.9500 C.3            1 S1                 0.0000
      7 ****        -0.2422   0.1219   1.6597 O.3            1 S1                 0.0000
      8 ****         0.2603  -0.9564   0.9267 C.3            1 S1                 0.0000
      9 ****         1.7334  -0.7678   0.7072 N.pl3          1 S1                 0.0000
     10 ****         2.7235  -1.7239   0.6045 C.2            1 S1                 0.0000
     11 ****         2.5127  -3.4908   0.7834 S.o2           1 S1                 0.0000
     12 ****         2.5689  -3.6927   2.6096 C.3            1 S1                 0.0000
     13 ****         1.1623  -3.8207   0.3030 O.2            1 S1                 0.0000
     14 ****         3.6964  -4.1270   0.1842 O.2            1 S1                 0.0000
     15 ****         3.9460  -1.2912   0.4586 N.2            1 S1                 0.0000
     16 ****         3.7826   0.0839   0.3737 C.ar           1 S1                 0.0000
     17 ****         4.6721   1.1696   0.1756 C.ar           1 S1                 0.0000
     18 ****         5.9938   1.0123   0.0207 N.pl3          1 S1                 0.0000
     19 ****         4.1649   2.4236   0.1366 N.ar           1 S1                 0.0000
     20 ****         2.8496   2.6065   0.2867 C.ar           1 S1                 0.0000
     21 ****         1.8971   1.6918   0.4838 N.ar           1 S1                 0.0000
     22 ****         2.4074   0.4255   0.5229 C.ar           1 S1                 0.0000
     23 ****        -0.5391  -1.0445  -0.3878 C.3            1 S1                 0.0000
     24 ****         0.1130  -0.3497  -1.4521 O.3            1 S1                 0.0000
     25 ****         0.7444  -1.0231  -2.4298 C.2            1 S1                 0.0000
     26 ****         1.3857  -0.0913  -3.4482 C.3            1 S1                 0.0000
     27 ****         0.8406  -2.2461  -2.5260 O.2            1 S1                 0.0000
     28 ****        -1.8246  -0.3393   0.0129 C.3            1 S1                 0.0000
     29 ****        -2.5282   0.1993  -1.1007 O.3            1 S1                 0.0000
     30 ****        -3.3498  -0.5811  -1.8214 C.2            1 S1                 0.0000
     31 ****        -4.0168   0.1752  -2.9622 C.3            1 S1                 0.0000
     32 ****        -3.5676  -1.7769  -1.6273 O.2            1 S1                 0.0000
     33 ****        -5.1825   4.3514   1.1178 H              1 S1                 0.0000
     34 ****        -6.3778   3.0493   1.1935 H              1 S1                 0.0000
     35 ****        -5.1496   3.0473  -0.0787 H              1 S1                 0.0000
     36 ****        -1.8741   1.9064   2.6876 H              1 S1                 0.0000
     37 ****        -2.8291   0.4457   2.4610 H              1 S1                 0.0000
     38 ****        -0.8835   1.5731   0.3720 H              1 S1                 0.0000
     39 ****         0.1702  -1.8489   1.5441 H              1 S1                 0.0000
     40 ****         2.4569  -4.7469   2.8615 H              1 S1                 0.0000
     41 ****         1.7608  -3.1218   3.0659 H              1 S1                 0.0000
     42 ****         3.5256  -3.3297   2.9847 H              1 S1                 0.0000
     43 ****         6.3960   0.0864   0.0427 H              1 S1                 0.0000
     44 ****         6.5843   1.8189  -0.1220 H              1 S1                 0.0000
     45 ****         2.5119   3.6315   0.2439 H              1 S1                 0.0000
     46 ****        -0.7299  -2.0881  -0.6407 H              1 S1                 0.0000
     47 ****         2.1609   0.5097  -2.9722 H              1 S1                 0.0000
     48 ****         0.6377   0.5787  -3.8726 H              1 S1                 0.0000
     49 ****         1.8391  -0.6622  -4.2585 H              1 S1                 0.0000
     50 ****        -2.4562  -1.0237   0.5822 H              1 S1                 0.0000
     51 ****        -3.3168   0.3076  -3.7871 H              1 S1                 0.0000
     52 ****        -4.3487   1.1579  -2.6265 H              1 S1                 0.0000
     53 ****        -4.8838  -0.3746  -3.3287 H              1 S1                 0.0000
     54 ****        -5.5182   2.6764   3.4521 LP             1 S1                 0.0000
     55 ****        -4.0505   1.7765   3.6420 LP             1 S1                 0.0000
     56 ****        -0.5824  -0.2079   2.5403 LP             1 S1                 0.0000
     57 ****         0.4895   0.7862   1.8127 LP             1 S1                 0.0000
     58 ****         4.7931  -1.8210   0.4180 LP             1 S1                 0.0000
     59 ****         4.7698   3.2075  -0.0035 LP             1 S1                 0.0000
     60 ****         0.9266   1.9080   0.5901 LP             1 S1                 0.0000
     61 ****         0.4251  -2.8363  -1.8339 LP             1 S1                 0.0000
     62 ****         1.3343  -2.6497  -3.2963 LP             1 S1                 0.0000
     63 ****        -3.1124  -2.2522  -0.8744 LP             1 S1                 0.0000
     64 ****        -4.1998  -2.2730  -2.2225 LP             1 S1                 0.0000
@<TRIPOS>BOND
    1    1    2 1     
    2    1   33 1     
    3    1   34 1     
    4    1   35 1     
    5    2    3 2     
    6    2    4 1     
    7    4    5 1     
    8    5    6 1     
    9    5   36 1     
   10    5   37 1     
   11    6   28 1     
   12    6    7 1     
   13    6   38 1     
   14    7    8 1     
   15    8    9 1     
   16    8   23 1     
   17    8   39 1     
   18    9   22 1     
   19    9   10 1     
   20   10   11 1     
   21   10   15 2     
   22   11   12 1     
   23   11   13 2     
   24   11   14 2     
   25   12   40 1     
   26   12   41 1     
   27   12   42 1     
   28   15   16 1     
   29   16   22 ar    
   30   16   17 ar    
   31   17   18 1     
   32   17   19 ar    
   33   18   43 1     
   34   18   44 1     
   35   19   20 ar    
   36   20   21 ar    
   37   20   45 1     
   38   21   22 ar    
   39   23   24 1     
   40   23   28 1     
   41   23   46 1     
   42   24   25 1     
   43   25   26 1     
   44   25   27 2     
   45   26   47 1     
   46   26   48 1     
   47   26   49 1     
   48   28   29 1     
   49   28   50 1     
   50   29   30 1     
   51   30   31 1     
   52   30   32 2     
   53   31   51 1     
   54   31   52 1     
   55   31   53 1     
   56    3   54 1     
   57    3   55 1     
   58    7   56 1     
   59    7   57 1     
   60   15   58 1     
   61   19   59 1     
   62   21   60 1     
   63   27   61 1     
   64   27   62 1     
   65   32   63 1     
   66   32   64 1     
@<TRIPOS>SUBSTRUCTURE
      1 S1             1
@<TRIPOS>SET
LONE_PAIRS      STATIC     ATOMS    <user>   **** ""
13 54 55 56 57 13 14 58 59 60 61 62 63 64
DONOR_HYDROGENS      STATIC     ATOMS    <user>   **** ""
2 43 44
ATOM$BLUE        STATIC     ATOMS    COLORGROUP SYSTEM
13 54 55 56 57 13 14 58 59 60 61 62 63 64
ATOM$RED        STATIC     ATOMS    COLORGROUP SYSTEM
2 43 44
