AV-unprocessed.smi:3273|AV-procd|sdf|12521|dock9
  -GOLD-   2272018433D 1   1.00000     0.00000
 Structure written by MMmdl.
 41 42  0  0  0  0  0  0  0  0  1 V2000
  148.8915  140.2265  157.0114 C   0  0  0  0  0  0  0  0  0  0  0  0
  149.6222  141.1271  155.9951 C   0  0  0  0  0  0  0  0  0  0  0  0
  148.7060  141.3497  154.7767 C   0  0  0  0  0  0  0  0  0  0  0  0
  151.0226  140.5593  155.6117 C   0  0  1  0  0  0  0  0  0  0  0  0
  152.0535  140.6206  156.7692 C   0  0  0  0  0  0  0  0  0  0  0  0
  151.7368  141.6556  157.7511 N   0  0  0  0  0  0  0  0  0  0  0  0
  152.5108  142.0029  158.7909 C   0  0  0  0  0  0  0  0  0  0  0  0
  153.6246  141.5215  158.9989 O   0  0  0  0  0  0  0  0  0  0  0  0
  151.9318  143.0386  159.7544 C   0  0  0  0  0  0  0  0  0  0  0  0
  151.4980  144.3014  159.0308 C   0  0  0  0  0  0  0  0  0  0  0  0
  152.4654  145.0709  158.1611 C   0  0  0  0  0  0  0  0  0  0  0  0
  151.9916  145.6641  159.4649 C   0  0  0  0  0  0  0  0  0  0  0  0
  150.9548  139.1700  155.0257 C   0  0  0  0  0  0  0  0  0  0  0  0
  149.9118  138.2861  154.9453 C   0  0  0  0  0  0  0  0  0  0  0  0
  150.4731  137.1321  154.3355 C   0  0  0  0  0  0  0  0  0  0  0  0
  151.7562  137.2794  154.0609 N   0  0  0  0  0  0  0  0  0  0  0  0
  152.0567  138.5243  154.4887 N   0  0  0  0  0  0  0  0  0  0  0  0
  153.4174  139.0061  154.3415 C   0  0  0  0  0  0  0  0  0  0  0  0
  148.7416  139.2231  156.6118 H   0  0  0  0  0  0  0  0  0  0  0  0
  147.9105  140.6318  157.2604 H   0  0  0  0  0  0  0  0  0  0  0  0
  149.4379  140.1300  157.9489 H   0  0  0  0  0  0  0  0  0  0  0  0
  149.7628  142.0991  156.4698 H   0  0  0  0  0  0  0  0  0  0  0  0
  148.5914  140.4356  154.1933 H   0  0  0  0  0  0  0  0  0  0  0  0
  149.0881  142.1275  154.1164 H   0  0  0  0  0  0  0  0  0  0  0  0
  147.7111  141.6696  155.0876 H   0  0  0  0  0  0  0  0  0  0  0  0
  151.4061  141.2221  154.8353 H   0  0  0  0  0  0  0  0  0  0  0  0
  152.1264  139.6469  157.2549 H   0  0  0  0  0  0  0  0  0  0  0  0
  153.0549  140.8125  156.3869 H   0  0  0  0  0  0  0  0  0  0  0  0
  150.8400  142.1102  157.6581 H   0  0  0  0  0  0  0  0  0  0  0  0
  151.0746  142.5966  160.2637 H   0  0  0  0  0  0  0  0  0  0  0  0
  152.6582  143.3011  160.5248 H   0  0  0  0  0  0  0  0  0  0  0  0
  150.4681  144.2668  158.6794 H   0  0  0  0  0  0  0  0  0  0  0  0
  153.4957  144.7241  158.1145 H   0  0  0  0  0  0  0  0  0  0  0  0
  152.0773  145.5030  157.2411 H   0  0  0  0  0  0  0  0  0  0  0  0
  151.2848  146.4901  159.4179 H   0  0  0  0  0  0  0  0  0  0  0  0
  152.7069  145.7091  160.2839 H   0  0  0  0  0  0  0  0  0  0  0  0
  148.8973  138.4378  155.2829 H   0  0  0  0  0  0  0  0  0  0  0  0
  149.9909  136.1974  154.0907 H   0  0  0  0  0  0  0  0  0  0  0  0
  153.8427  139.2172  155.3222 H   0  0  0  0  0  0  0  0  0  0  0  0
  153.4229  139.9176  153.7436 H   0  0  0  0  0  0  0  0  0  0  0  0
  154.0388  138.2596  153.8451 H   0  0  0  0  0  0  0  0  0  0  0  0
  1  2  1  0  0  0  0
  1 19  1  0  0  0  0
  1 20  1  0  0  0  0
  1 21  1  0  0  0  0
  2  3  1  0  0  0  0
  2  4  1  0  0  0  0
  2 22  1  0  0  0  0
  3 23  1  0  0  0  0
  3 24  1  0  0  0  0
  3 25  1  0  0  0  0
  4  5  1  0  0  0  0
  4 13  1  0  0  0  0
  4 26  1  0  0  0  0
  5  6  1  0  0  0  0
  5 27  1  0  0  0  0
  5 28  1  0  0  0  0
  6  7  1  0  0  0  0
  6 29  1  0  0  0  0
  7  8  2  0  0  0  0
  7  9  1  0  0  0  0
  9 10  1  0  0  0  0
  9 30  1  0  0  0  0
  9 31  1  0  0  0  0
 10 12  1  0  0  0  0
 10 11  1  0  0  0  0
 10 32  1  0  0  0  0
 11 12  1  0  0  0  0
 11 33  1  0  0  0  0
 11 34  1  0  0  0  0
 12 35  1  0  0  0  0
 12 36  1  0  0  0  0
 13 17  1  0  0  0  0
 13 14  2  0  0  0  0
 14 15  1  0  0  0  0
 14 37  1  0  0  0  0
 15 16  2  0  0  0  0
 15 38  1  0  0  0  0
 16 17  1  0  0  0  0
 17 18  1  0  0  0  0
 18 39  1  0  0  0  0
 18 40  1  0  0  0  0
 18 41  1  0  0  0  0
M  END
> <s_m_source_file>
AV-unprocessed.smi

> <i_m_source_file_index>
3273

> <i_lp_mmshare_version>
43012

> <i_f3d_flags>
0

> <s_epik_input>
W0NIM11uMW5bY0hdW2NIXWMxW0NASF0oW0NIXShbQ0gzXSlbQ0gzXSlbQ0gyXVtOSF1DKD1PKVtDSDJdW0NIXTJbQ0gyXVtDSDJdMg==

> <s_epik_cmdline>
J2VwaWtfcHl0aG9uJywgJy1waCcsICc3LjAnLCAnLXRuJywgJzgnLCAnLW1hJywgJzIwMCcsICctbWV0YWxfYmluZGluZycsICctaW1hZScsICc8aW5maWxlLm1hZT4nLCAnLW9tYWUnLCAnPG91dGZpbGUubWFlPic=

> <r_lp_tautomer_probability>
1

> <r_epik_Ionization_Penalty>
0.00116261

> <r_epik_Ionization_Penalty_Charging>
0

> <r_epik_Ionization_Penalty_Neutral>
0.00116261

> <r_epik_State_Penalty>
-0

> <r_epik_Charging_Adjusted_Penalty>
0

> <i_epik_Tot_Q>
0

> <i_epik_Tot_abs_Q>
0

> <r_epik_Metal_State_Penalty>
-0

> <b_epik_Metal_Only>
0

> <s_lp_Force_Field>
OPLS_2005

> <r_lp_Energy>
15.0656

> <b_lp_Chiralities_Consistent>
1

> <s_lp_Variant>
AV-unprocessed.smi:3273-2

> <Gold.Version>
5.8.1

> <Gold.Id.Protein>
6NUR|6NUR_protein|mol2

> <Gold.PLP.Fitness>
42.9947

> <Gold.PLP.PLP>
-39.1988

> <Gold.PLP.part.hbond>
-1.0000

> <Gold.PLP.part.metal>
0.0000

> <Gold.PLP.part.buried>
-1.2510

> <Gold.PLP.part.nonpolar>
-37.4991

> <Gold.PLP.part.repulsive>
0.7981

> <Gold.PLP.ligand.clash>
0.0000

> <Gold.PLP.ligand.torsion>
0.9616

> <Gold.PLP.Chemscore.Hbond>
1.0000

> <Gold.PLP.Chemscore.CHOScore>
0.6668

> <Gold.PLP.Chemscore.Metal>
0.0000

> <Gold.Chemscore.Hbonds>
donor molecule, donor type, donor heavy atom, donor atom, acceptor molecule, acceptor atom, score
      P1  H 10752 10765       L1    16  0.86
      L1  C    15    38       P1  7948  0.63

> <Gold.PLP.Chemscore.Internal.Correction>
0.7187

> <Gold.Rescore>
     Score         DG    S(hbond)    S(metal)    S(lipo)     H(rot)  DE(clash)    DE(int)     intcor
     15.61     -16.68       0.99        0.00     103.53       1.64       0.14       0.92       ----

> <Gold.Chemscore.Fitness>
15.6125

> <Gold.Chemscore.DG>
-16.6793

> <Gold.Chemscore.ZeroCoef>
-5.4800

> <Gold.Chemscore.Hbond>
0.9858

> <Gold.Chemscore.Metal>
0.0000

> <Gold.Chemscore.Lipo>
103.5290

> <Gold.Chemscore.Internal_Hbond>
0.0000

> <Gold.Chemscore.DEClash>
0.1443

> <Gold.Chemscore.DEInternal>
0.9224

> <Gold.Chemscore.Rot>
1.6430

> <Gold.Chemscore.Internal.Correction>
   9.000000E+99

> <Gold.Chemscore.Hbonds>
donor molecule, donor type, donor heavy atom, donor atom, acceptor molecule, acceptor atom, score
      P1  H 10752 10765       L1    16  0.73

> <Gold.Chemscore.Hbond.Weighted>
-3.2926

> <Gold.Chemscore.Metal.Weighted>
-0.0000

> <Gold.Chemscore.Lipo.Weighted>
-12.1129

> <Gold.Chemscore.Internal_Hbond.Weighted>
0.0000

> <Gold.Chemscore.DEClash.Weighted>
0.1443

> <Gold.Chemscore.DEInternal.Weighted>
0.9224

> <Gold.Chemscore.Rot.Weighted>
4.2062

> <Gold.Chemscore.Internal.Correction.Weighted>
   9.000000E+99

> <Gold.Protein.RotatedTorsions>
[ 6907 6896 6895 6894 ] final  -28.70 input  -60.11 | X-H torsion
[ 7974 7965 7964 7962 ] final  -60.47 input  175.53 | X-H torsion
[ 8008 7997 7996 7995 ] final  -65.04 input   59.86 | X-H torsion
[ 10167 10162 10161 10158 ] final  113.61 input  -65.29 | X-H torsion
[ 10718 10713 10712 10709 ] final   77.86 input   66.30 | X-H torsion
[ 10763 10752 10751 10750 ] final  172.97 input  -60.55 | X-H torsion
[ 11005 11000 10999 10996 ] final  119.67 input  -57.11 | X-H torsion

> <Gold.Protein.ActiveResidues>
 VAL166  LYS551  ARG553  GLY616  TRP617  ASP618  TYR619  PRO620  LYS621  CYS622 
 ASP623  PHE694  ASN695  SER759  ASP760  ASP761  ALA762  ILE779  LEU786  VAL792 
 PHE793  MET794  SER795  GLU796  ALA797  LYS798  CYS799  TRP800  GLU811  SER814 

> <Gold.Protein.RotatedAtoms>
  151.1294  135.0122  159.8574 H   0  0  0  0  0  0  0  0  0  0  0  0  # atno 6907 bound_to 6896
  152.5450  134.1629  159.8575 H   0  0  0  0  0  0  0  0  0  0  0  0  # atno 6908 bound_to 6896
  151.1694  133.4749  159.2627 H   0  0  0  0  0  0  0  0  0  0  0  0  # atno 6909 bound_to 6896
  145.8152  140.8574  143.0161 H   0  0  0  0  0  0  0  0  0  0  0  0  # atno 7974 bound_to 7965
  154.4648  140.0941  156.6989 H   0  0  0  0  0  0  0  0  0  0  0  0  # atno 8008 bound_to 7997
  155.4891  140.3470  155.4333 H   0  0  0  0  0  0  0  0  0  0  0  0  # atno 8009 bound_to 7997
  156.0935  140.1403  156.9549 H   0  0  0  0  0  0  0  0  0  0  0  0  # atno 8010 bound_to 7997
  139.6448  144.7126  151.2164 H   0  0  0  0  0  0  0  0  0  0  0  0  # atno 10167 bound_to 10162
  157.6725  130.9841  150.1702 H   0  0  0  0  0  0  0  0  0  0  0  0  # atno 10718 bound_to 10713
  154.4336  135.2760  155.1896 H   0  0  0  0  0  0  0  0  0  0  0  0  # atno 10763 bound_to 10752
  154.3792  135.6091  153.5785 H   0  0  0  0  0  0  0  0  0  0  0  0  # atno 10764 bound_to 10752
  152.9837  135.5876  154.4651 H   0  0  0  0  0  0  0  0  0  0  0  0  # atno 10765 bound_to 10752
  139.9155  134.9630  156.7691 H   0  0  0  0  0  0  0  0  0  0  0  0  # atno 11005 bound_to 11000
  144.6753  140.0453  143.7480 LP  0  0  0  0  0  0  0  0  0  0  0  0  # atno 17320 bound_to 7965
  145.9735  139.2887  143.1085 LP  0  0  0  0  0  0  0  0  0  0  0  0  # atno 17321 bound_to 7965
  140.7509  143.6249  150.8478 LP  0  0  0  0  0  0  0  0  0  0  0  0  # atno 17342 bound_to 10162
  139.9891  143.5867  152.2916 LP  0  0  0  0  0  0  0  0  0  0  0  0  # atno 17343 bound_to 10162
  156.2458  130.3695  149.8286 LP  0  0  0  0  0  0  0  0  0  0  0  0  # atno 17370 bound_to 10713
  156.6073  130.8572  151.3446 LP  0  0  0  0  0  0  0  0  0  0  0  0  # atno 17371 bound_to 10713
  140.6636  133.9623  155.7818 LP  0  0  0  0  0  0  0  0  0  0  0  0  # atno 17394 bound_to 11000
  141.0627  134.0323  157.3637 LP  0  0  0  0  0  0  0  0  0  0  0  0  # atno 17395 bound_to 11000

$$$$
