AV-unprocessed.smi:269|AV-procd|sdf|2044|dock9
  -GOLD-   2262021263D 1   1.00000     0.00000
 Structure written by MMmdl.
 61 64  0  0  0  0  0  0  0  0  3 V2000
  152.5708  137.8343  158.4537 C   0  0  0  0  0  0  0  0  0  0  0  0
  153.1465  136.7523  157.5344 C   0  0  0  0  0  0  0  0  0  0  0  0
  152.3022  136.6096  156.3523 N   0  5  0  0  0  0  0  0  0  0  0  0
  151.9004  137.6581  155.5849 C   0  0  0  0  0  0  0  0  0  0  0  0
  152.0818  138.8726  155.7210 O   0  0  0  0  0  0  0  0  0  0  0  0
  151.1242  137.1768  154.3539 C   0  0  0  0  0  0  0  0  0  0  0  0
  149.7798  137.8038  154.3205 N   0  3  0  0  0  0  0  0  0  0  0  0
  149.8482  139.2786  154.1588 C   0  0  0  0  0  0  0  0  0  0  0  0
  148.4417  139.8920  154.0361 C   0  0  0  0  0  0  0  0  0  0  0  0
  147.6010  139.4940  155.1621 N   0  0  0  0  0  0  0  0  0  0  0  0
  147.6188  140.3101  156.2504 C   0  0  0  0  0  0  0  0  0  0  0  0
  146.4706  140.5370  156.9429 N   0  0  0  0  0  0  0  0  0  0  0  0
  146.4716  141.3273  158.0194 C   0  0  0  0  0  0  0  0  0  0  0  0
  147.4926  141.9874  158.5663 N   0  0  0  0  0  0  0  0  0  0  0  0
  148.6464  141.7822  157.8700 C   0  0  0  0  0  0  0  0  0  0  0  0
  148.7977  140.9624  156.7152 C   0  0  0  0  0  0  0  0  0  0  0  0
  150.1185  140.9997  156.2844 N   0  0  0  0  0  0  0  0  0  0  0  0
  150.7139  141.7830  157.1412 C   0  0  0  0  0  0  0  0  0  0  0  0
  149.9008  142.3149  158.1173 N   0  0  0  0  0  0  0  0  0  0  0  0
  150.2988  143.2143  159.1932 C   0  0  0  0  0  0  0  0  0  0  0  0
  151.7585  143.7635  159.0945 C   0  0  0  0  0  0  0  0  0  0  0  0
  151.9714  144.5436  157.7697 C   0  0  0  0  0  0  0  0  0  0  0  0
  150.9605  145.5066  157.5464 O   0  0  0  0  0  0  0  0  0  0  0  0
  152.0933  144.7237  160.2642 C   0  0  0  0  0  0  0  0  0  0  0  0
  152.2267  143.9969  161.6151 C   0  0  0  0  0  0  0  0  0  0  0  0
  153.2166  142.9814  161.5214 O   0  0  0  0  0  0  0  0  0  0  0  0
  152.8844  141.9777  160.5714 C   0  0  0  0  0  0  0  0  0  0  0  0
  152.7767  142.5970  159.1659 C   0  0  0  0  0  0  0  0  0  0  0  0
  147.5177  138.0463  155.3560 C   0  0  0  0  0  0  0  0  0  0  0  0
  148.9169  137.4096  155.4669 C   0  0  0  0  0  0  0  0  0  0  0  0
  153.1874  137.9502  159.3451 H   0  0  0  0  0  0  0  0  0  0  0  0
  151.5615  137.5820  158.7807 H   0  0  0  0  0  0  0  0  0  0  0  0
  152.5309  138.8014  157.9514 H   0  0  0  0  0  0  0  0  0  0  0  0
  154.1698  137.0234  157.2727 H   0  0  0  0  0  0  0  0  0  0  0  0
  153.2168  135.8175  158.0916 H   0  0  0  0  0  0  0  0  0  0  0  0
  151.6539  137.3608  153.4165 H   0  0  0  0  0  0  0  0  0  0  0  0
  151.0272  136.0942  154.4455 H   0  0  0  0  0  0  0  0  0  0  0  0
  150.3726  139.7121  155.0119 H   0  0  0  0  0  0  0  0  0  0  0  0
  150.4278  139.5261  153.2687 H   0  0  0  0  0  0  0  0  0  0  0  0
  148.5234  140.9740  153.9458 H   0  0  0  0  0  0  0  0  0  0  0  0
  147.9676  139.5454  153.1171 H   0  0  0  0  0  0  0  0  0  0  0  0
  145.5183  141.4488  158.5124 H   0  0  0  0  0  0  0  0  0  0  0  0
  151.7697  142.0015  157.0765 H   0  0  0  0  0  0  0  0  0  0  0  0
  149.5758  144.0282  159.2252 H   0  0  0  0  0  0  0  0  0  0  0  0
  150.1649  142.6799  160.1344 H   0  0  0  0  0  0  0  0  0  0  0  0
  152.9414  145.0404  157.7558 H   0  0  0  0  0  0  0  0  0  0  0  0
  151.9714  143.8612  156.9190 H   0  0  0  0  0  0  0  0  0  0  0  0
  150.3502  145.1617  156.9131 H   0  0  0  0  0  0  0  0  0  0  0  0
  153.0434  145.2204  160.0631 H   0  0  0  0  0  0  0  0  0  0  0  0
  151.3579  145.5244  160.3378 H   0  0  0  0  0  0  0  0  0  0  0  0
  152.5264  144.7049  162.3878 H   0  0  0  0  0  0  0  0  0  0  0  0
  151.2802  143.5653  161.9397 H   0  0  0  0  0  0  0  0  0  0  0  0
  153.6675  141.2194  160.5820 H   0  0  0  0  0  0  0  0  0  0  0  0
  151.9617  141.4740  160.8608 H   0  0  0  0  0  0  0  0  0  0  0  0
  152.5222  141.8210  158.4433 H   0  0  0  0  0  0  0  0  0  0  0  0
  153.7659  142.9590  158.8817 H   0  0  0  0  0  0  0  0  0  0  0  0
  146.9106  137.7995  156.2280 H   0  0  0  0  0  0  0  0  0  0  0  0
  146.9940  137.6235  154.4981 H   0  0  0  0  0  0  0  0  0  0  0  0
  148.8122  136.3254  155.5096 H   0  0  0  0  0  0  0  0  0  0  0  0
  149.3990  137.7126  156.3970 H   0  0  0  0  0  0  0  0  0  0  0  0
  149.3324  137.4501  153.4869 H   0  0  0  0  0  0  0  0  0  0  0  0
  1  2  1  0  0  0  0
  1 31  1  0  0  0  0
  1 32  1  0  0  0  0
  1 33  1  0  0  0  0
  2  3  1  0  0  0  0
  2 34  1  0  0  0  0
  2 35  1  0  0  0  0
  3  4  1  0  0  0  0
  4  5  2  0  0  0  0
  4  6  1  0  0  0  0
  6  7  1  0  0  0  0
  6 36  1  0  0  0  0
  6 37  1  0  0  0  0
  7 30  1  0  0  0  0
  7  8  1  0  0  0  0
  7 61  1  0  0  0  0
  8  9  1  0  0  0  0
  8 38  1  0  0  0  0
  8 39  1  0  0  0  0
  9 10  1  0  0  0  0
  9 40  1  0  0  0  0
  9 41  1  0  0  0  0
 10 11  1  0  0  0  0
 10 29  1  0  0  0  0
 11 16  1  0  0  0  0
 11 12  2  0  0  0  0
 12 13  1  0  0  0  0
 13 14  2  0  0  0  0
 13 42  1  0  0  0  0
 14 15  1  0  0  0  0
 15 19  1  0  0  0  0
 15 16  2  0  0  0  0
 16 17  1  0  0  0  0
 17 18  2  0  0  0  0
 18 19  1  0  0  0  0
 18 43  1  0  0  0  0
 19 20  1  0  0  0  0
 20 21  1  0  0  0  0
 20 44  1  0  0  0  0
 20 45  1  0  0  0  0
 21 28  1  0  0  0  0
 21 22  1  0  0  0  0
 21 24  1  0  0  0  0
 22 23  1  0  0  0  0
 22 46  1  0  0  0  0
 22 47  1  0  0  0  0
 23 48  1  0  0  0  0
 24 25  1  0  0  0  0
 24 49  1  0  0  0  0
 24 50  1  0  0  0  0
 25 26  1  0  0  0  0
 25 51  1  0  0  0  0
 25 52  1  0  0  0  0
 26 27  1  0  0  0  0
 27 28  1  0  0  0  0
 27 53  1  0  0  0  0
 27 54  1  0  0  0  0
 28 55  1  0  0  0  0
 28 56  1  0  0  0  0
 29 30  1  0  0  0  0
 29 57  1  0  0  0  0
 29 58  1  0  0  0  0
 30 59  1  0  0  0  0
 30 60  1  0  0  0  0
M  CHG  1   3  -1
M  CHG  1   7   1
M  END
> <s_m_source_file>
AV-unprocessed.smi

> <i_m_source_file_index>
269

> <i_lp_mmshare_version>
43012

> <i_f3d_flags>
0

> <s_epik_input>
W0NIM11bQ0gyXVtOSF1DKD1PKVtDSDJdTjFbQ0gyXVtDSDJdTihbQ0gyXVtDSDJdMSljKG5bY0hdbjIpYyhjMjMpbltjSF1uM1tDSDJdQzQoW0NIMl1bT0hdKVtDSDJdW0NIMl1PW0NIMl1bQ0gyXTQ=

> <s_epik_cmdline>
J2VwaWtfcHl0aG9uJywgJy1waCcsICc3LjAnLCAnLXRuJywgJzgnLCAnLW1hJywgJzIwMCcsICctbWV0YWxfYmluZGluZycsICctaW1hZScsICc8aW5maWxlLm1hZT4nLCAnLW9tYWUnLCAnPG91dGZpbGUubWFlPic=

> <r_lp_tautomer_probability>
1

> <r_epik_Ionization_Penalty>
6.2463

> <r_epik_Ionization_Penalty_Charging>
6.24626

> <r_epik_Ionization_Penalty_Neutral>
4.36947e-05

> <r_epik_State_Penalty>
6.38251

> <r_epik_Charging_Adjusted_Penalty>
12.6288

> <i_epik_Tot_Q>
0

> <i_epik_Tot_abs_Q>
2

> <r_epik_Metal_State_Penalty>
2.3175

> <b_epik_Metal_Only>
1

> <s_lp_Force_Field>
OPLS_2005

> <r_lp_Energy>
38.3131

> <b_lp_Chiralities_Consistent>
1

> <s_lp_Variant>
AV-unprocessed.smi:269-3

> <Gold.Version>
5.8.1

> <Gold.Id.Protein>
6NUR|6NUR_protein|mol2

> <Gold.PLP.Fitness>
56.0215

> <Gold.PLP.PLP>
-41.8592

> <Gold.PLP.part.hbond>
-4.6611

> <Gold.PLP.part.metal>
0.0000

> <Gold.PLP.part.buried>
1.1910

> <Gold.PLP.part.nonpolar>
-39.1468

> <Gold.PLP.part.repulsive>
0.2535

> <Gold.PLP.ligand.clash>
0.0597

> <Gold.PLP.ligand.torsion>
0.7113

> <Gold.PLP.Chemscore.Hbond>
5.0000

> <Gold.PLP.Chemscore.CHOScore>
0.0000

> <Gold.PLP.Chemscore.Metal>
0.0000

> <Gold.Chemscore.Hbonds>
donor molecule, donor type, donor heavy atom, donor atom, acceptor molecule, acceptor atom, score
      L1  H     7    61       P1  7948  1.95
      L1  H    23    48       P1  8028  0.95
      P1  H 10752 10764       L1     3  2.00

> <Gold.PLP.Chemscore.Internal.Correction>
0.6445

> <Gold.Rescore>
     Score         DG    S(hbond)    S(metal)    S(lipo)     H(rot)  DE(clash)    DE(int)     intcor
      5.65     -16.86       1.87        0.00     115.78       3.28       3.06       8.15       ----

> <Gold.Chemscore.Fitness>
5.6525

> <Gold.Chemscore.DG>
-16.8554

> <Gold.Chemscore.ZeroCoef>
-5.4800

> <Gold.Chemscore.Hbond>
1.8652

> <Gold.Chemscore.Metal>
0.0000

> <Gold.Chemscore.Lipo>
115.7837

> <Gold.Chemscore.Internal_Hbond>
0.0000

> <Gold.Chemscore.DEClash>
3.0560

> <Gold.Chemscore.DEInternal>
8.1469

> <Gold.Chemscore.Rot>
3.2816

> <Gold.Chemscore.Internal.Correction>
   9.000000E+99

> <Gold.Chemscore.Hbonds>
donor molecule, donor type, donor heavy atom, donor atom, acceptor molecule, acceptor atom, score
      L1  H     7    61       P1  7948  0.89
      L1  H    23    48       P1  8028  0.21
      P1  H 10752 10764       L1     3  0.20

> <Gold.Chemscore.Hbond.Weighted>
-6.2296

> <Gold.Chemscore.Metal.Weighted>
-0.0000

> <Gold.Chemscore.Lipo.Weighted>
-13.5467

> <Gold.Chemscore.Internal_Hbond.Weighted>
0.0000

> <Gold.Chemscore.DEClash.Weighted>
3.0560

> <Gold.Chemscore.DEInternal.Weighted>
8.1469

> <Gold.Chemscore.Rot.Weighted>
8.4009

> <Gold.Chemscore.Internal.Correction.Weighted>
   9.000000E+99

> <Gold.Protein.RotatedTorsions>
[ 6907 6896 6895 6894 ] final   80.65 input  -60.11 | X-H torsion
[ 7974 7965 7964 7962 ] final   47.79 input  175.53 | X-H torsion
[ 8008 7997 7996 7995 ] final  149.43 input   59.86 | X-H torsion
[ 10167 10162 10161 10158 ] final -145.05 input  -65.29 | X-H torsion
[ 10718 10713 10712 10709 ] final  -69.49 input   66.30 | X-H torsion
[ 10763 10752 10751 10750 ] final   -9.85 input  -60.55 | X-H torsion
[ 11005 11000 10999 10996 ] final  110.94 input  -57.11 | X-H torsion

> <Gold.Protein.ActiveResidues>
 VAL166  LYS551  ARG553  GLY616  TRP617  ASP618  TYR619  PRO620  LYS621  CYS622 
 ASP623  PHE694  ASN695  SER759  ASP760  ASP761  ALA762  ILE779  LEU786  VAL792 
 PHE793  MET794  SER795  GLU796  ALA797  LYS798  CYS799  TRP800  GLU811  SER814 

> <Gold.Protein.RotatedAtoms>
  152.5242  134.3326  159.9187 H   0  0  0  0  0  0  0  0  0  0  0  0  # atno 6907 bound_to 6896
  151.3275  133.4008  159.2667 H   0  0  0  0  0  0  0  0  0  0  0  0  # atno 6908 bound_to 6896
  150.9908  134.9261  159.7956 H   0  0  0  0  0  0  0  0  0  0  0  0  # atno 6909 bound_to 6896
  146.0264  139.4712  142.9865 H   0  0  0  0  0  0  0  0  0  0  0  0  # atno 7974 bound_to 7965
  156.2755  140.2102  156.5858 H   0  0  0  0  0  0  0  0  0  0  0  0  # atno 8008 bound_to 7997
  154.7022  140.0520  157.0493 H   0  0  0  0  0  0  0  0  0  0  0  0  # atno 8009 bound_to 7997
  155.0719  140.3177  155.4631 H   0  0  0  0  0  0  0  0  0  0  0  0  # atno 8010 bound_to 7997
  139.7841  143.8059  152.2642 H   0  0  0  0  0  0  0  0  0  0  0  0  # atno 10167 bound_to 10162
  156.0453  130.4314  150.2156 H   0  0  0  0  0  0  0  0  0  0  0  0  # atno 10718 bound_to 10713
  153.4608  135.7016  153.6052 H   0  0  0  0  0  0  0  0  0  0  0  0  # atno 10763 bound_to 10752
  153.4347  135.3794  155.2192 H   0  0  0  0  0  0  0  0  0  0  0  0  # atno 10764 bound_to 10752
  154.8727  135.3959  154.4033 H   0  0  0  0  0  0  0  0  0  0  0  0  # atno 10765 bound_to 10752
  139.8893  134.9496  156.6357 H   0  0  0  0  0  0  0  0  0  0  0  0  # atno 11005 bound_to 11000
  145.7110  141.0106  143.1453 LP  0  0  0  0  0  0  0  0  0  0  0  0  # atno 17320 bound_to 7965
  144.7011  139.8757  143.7444 LP  0  0  0  0  0  0  0  0  0  0  0  0  # atno 17321 bound_to 7965
  139.8130  144.7328  150.9672 LP  0  0  0  0  0  0  0  0  0  0  0  0  # atno 17342 bound_to 10162
  140.7819  143.4232  151.0809 LP  0  0  0  0  0  0  0  0  0  0  0  0  # atno 17343 bound_to 10162
  157.0247  130.9989  151.3330 LP  0  0  0  0  0  0  0  0  0  0  0  0  # atno 17370 bound_to 10713
  157.5320  130.8064  149.7928 LP  0  0  0  0  0  0  0  0  0  0  0  0  # atno 17371 bound_to 10713
  140.7632  133.8800  155.8434 LP  0  0  0  0  0  0  0  0  0  0  0  0  # atno 17394 bound_to 11000
  140.9904  134.1286  157.4413 LP  0  0  0  0  0  0  0  0  0  0  0  0  # atno 17395 bound_to 11000

$$$$
