AV-unprocessed.smi:1574|AV-procd|sdf|6336|dock5
  -GOLD-   22720 6553D 1   1.00000     0.00000
 Structure written by MMmdl.
 40 41  0  0  0  0  0  0  0  0  1 V2000
  152.9471  143.5591  161.7925 C   0  0  0  0  0  0  0  0  0  0  0  0
  152.1317  143.3020  160.5160 C   0  0  1  0  0  0  0  0  0  0  0  0
  152.4363  144.3511  159.4281 C   0  0  0  0  0  0  0  0  0  0  0  0
  151.5845  144.1235  158.1693 C   0  0  0  0  0  0  0  0  0  0  0  0
  151.7629  142.6989  157.6237 C   0  0  0  0  0  0  0  0  0  0  0  0
  151.4615  141.6459  158.7038 C   0  0  0  0  0  0  0  0  0  0  0  0
  152.3092  141.8648  159.9703 C   0  0  1  0  0  0  0  0  0  0  0  0
  153.6690  141.6431  159.6189 O   0  0  0  0  0  0  0  0  0  0  0  0
  154.4639  141.0715  160.6455 C   0  0  0  0  0  0  0  0  0  0  0  0
  153.9292  139.6704  160.9730 C   0  0  0  0  0  0  0  0  0  0  0  0
  153.8558  138.8342  159.7796 N   0  0  0  0  0  0  0  0  0  0  0  0
  153.3982  137.5728  159.7435 C   0  0  0  0  0  0  0  0  0  0  0  0
  152.9985  136.9634  160.7352 O   0  0  0  0  0  0  0  0  0  0  0  0
  153.3913  136.8888  158.3772 C   0  0  0  0  0  0  0  0  0  0  0  0
  152.4916  137.5698  157.4666 N   0  0  0  0  0  0  0  0  0  0  0  0
  151.1684  137.7386  157.5045 C   0  0  0  0  0  0  0  0  0  0  0  0
  150.7324  138.4191  156.4553 N   0  0  0  0  0  0  0  0  0  0  0  0
  151.8915  138.6721  155.7406 N   0  0  0  0  0  0  0  0  0  0  0  0
  152.9387  138.1703  156.3356 N   0  0  0  0  0  0  0  0  0  0  0  0
  154.0188  143.5146  161.5977 H   0  0  0  0  0  0  0  0  0  0  0  0
  152.7146  142.8232  162.5626 H   0  0  0  0  0  0  0  0  0  0  0  0
  152.7283  144.5451  162.2028 H   0  0  0  0  0  0  0  0  0  0  0  0
  151.0813  143.4131  160.7889 H   0  0  0  0  0  0  0  0  0  0  0  0
  152.2508  145.3535  159.8151 H   0  0  0  0  0  0  0  0  0  0  0  0
  153.4939  144.3162  159.1639 H   0  0  0  0  0  0  0  0  0  0  0  0
  150.5333  144.2954  158.4038 H   0  0  0  0  0  0  0  0  0  0  0  0
  151.8539  144.8507  157.4027 H   0  0  0  0  0  0  0  0  0  0  0  0
  151.1103  142.5459  156.7638 H   0  0  0  0  0  0  0  0  0  0  0  0
  152.7840  142.5723  157.2609 H   0  0  0  0  0  0  0  0  0  0  0  0
  150.4035  141.6910  158.9651 H   0  0  0  0  0  0  0  0  0  0  0  0
  151.6360  140.6453  158.3070 H   0  0  0  0  0  0  0  0  0  0  0  0
  151.9806  141.1468  160.7246 H   0  0  0  0  0  0  0  0  0  0  0  0
  155.5114  141.0129  160.3464 H   0  0  0  0  0  0  0  0  0  0  0  0
  154.4130  141.7066  161.5309 H   0  0  0  0  0  0  0  0  0  0  0  0
  154.6048  139.1815  161.6750 H   0  0  0  0  0  0  0  0  0  0  0  0
  152.9594  139.7320  161.4696 H   0  0  0  0  0  0  0  0  0  0  0  0
  154.1689  139.2491  158.9139 H   0  0  0  0  0  0  0  0  0  0  0  0
  154.3958  136.9007  157.9519 H   0  0  0  0  0  0  0  0  0  0  0  0
  153.0937  135.8432  158.4723 H   0  0  0  0  0  0  0  0  0  0  0  0
  150.5312  137.3627  158.2914 H   0  0  0  0  0  0  0  0  0  0  0  0
  1  2  1  0  0  0  0
  1 20  1  0  0  0  0
  1 21  1  0  0  0  0
  1 22  1  0  0  0  0
  2  7  1  0  0  0  0
  2  3  1  0  0  0  0
  2 23  1  0  0  0  0
  3  4  1  0  0  0  0
  3 24  1  0  0  0  0
  3 25  1  0  0  0  0
  4  5  1  0  0  0  0
  4 26  1  0  0  0  0
  4 27  1  0  0  0  0
  5  6  1  0  0  0  0
  5 28  1  0  0  0  0
  5 29  1  0  0  0  0
  6  7  1  0  0  0  0
  6 30  1  0  0  0  0
  6 31  1  0  0  0  0
  7  8  1  0  0  0  0
  7 32  1  0  0  0  0
  8  9  1  0  0  0  0
  9 10  1  0  0  0  0
  9 33  1  0  0  0  0
  9 34  1  0  0  0  0
 10 11  1  0  0  0  0
 10 35  1  0  0  0  0
 10 36  1  0  0  0  0
 11 12  1  0  0  0  0
 11 37  1  0  0  0  0
 12 13  2  0  0  0  0
 12 14  1  0  0  0  0
 14 15  1  0  0  0  0
 14 38  1  0  0  0  0
 14 39  1  0  0  0  0
 15 19  1  0  0  0  0
 15 16  1  0  0  0  0
 16 17  2  0  0  0  0
 16 40  1  0  0  0  0
 17 18  1  0  0  0  0
 18 19  2  0  0  0  0
M  END
> <s_m_source_file>
AV-unprocessed.smi

> <i_m_source_file_index>
1574

> <i_lp_mmshare_version>
43012

> <i_f3d_flags>
0

> <s_epik_input>
W0NIM11bQ0BASF0xW0NIMl1bQ0gyXVtDSDJdW0NIMl1bQ0BIXTFPW0NIMl1bQ0gyXVtOSF1DKD1PKVtDSDJdbjJbY0hdbm5uMg==

> <s_epik_cmdline>
J2VwaWtfcHl0aG9uJywgJy1waCcsICc3LjAnLCAnLXRuJywgJzgnLCAnLW1hJywgJzIwMCcsICctbWV0YWxfYmluZGluZycsICctaW1hZScsICc8aW5maWxlLm1hZT4nLCAnLW9tYWUnLCAnPG91dGZpbGUubWFlPic=

> <r_lp_tautomer_probability>
1

> <r_epik_Ionization_Penalty>
1.44269e-06

> <r_epik_Ionization_Penalty_Charging>
0

> <r_epik_Ionization_Penalty_Neutral>
1.44269e-06

> <r_epik_State_Penalty>
-0

> <r_epik_Charging_Adjusted_Penalty>
0

> <i_epik_Tot_Q>
0

> <i_epik_Tot_abs_Q>
0

> <r_epik_Metal_State_Penalty>
-0

> <b_epik_Metal_Only>
0

> <s_lp_Force_Field>
OPLS_2005

> <r_lp_Energy>
13.6049

> <b_lp_Chiralities_Consistent>
1

> <s_lp_Variant>
AV-unprocessed.smi:1574-2

> <Gold.Version>
5.8.1

> <Gold.Id.Protein>
6NUR|6NUR_protein|mol2

> <Gold.PLP.Fitness>
43.7205

> <Gold.PLP.PLP>
-35.9551

> <Gold.PLP.part.hbond>
-3.0000

> <Gold.PLP.part.metal>
0.0000

> <Gold.PLP.part.buried>
-7.8723

> <Gold.PLP.part.nonpolar>
-26.0826

> <Gold.PLP.part.repulsive>
0.1450

> <Gold.PLP.ligand.clash>
0.0000

> <Gold.PLP.ligand.torsion>
0.4770

> <Gold.PLP.Chemscore.Hbond>
2.8873

> <Gold.PLP.Chemscore.CHOScore>
0.0000

> <Gold.PLP.Chemscore.Metal>
0.0000

> <Gold.Chemscore.Hbonds>
donor molecule, donor type, donor heavy atom, donor atom, acceptor molecule, acceptor atom, score
      P1  H  6896  6907       L1    13  0.44

> <Gold.PLP.Chemscore.Internal.Correction>
0.0577

> <Gold.Rescore>
     Score         DG    S(hbond)    S(metal)    S(lipo)     H(rot)  DE(clash)    DE(int)     intcor
     18.20     -18.70       2.80        0.00      96.67       2.90       0.00       0.50       ----

> <Gold.Chemscore.Fitness>
18.2008

> <Gold.Chemscore.DG>
-18.6999

> <Gold.Chemscore.ZeroCoef>
-5.4800

> <Gold.Chemscore.Hbond>
2.7984

> <Gold.Chemscore.Metal>
0.0000

> <Gold.Chemscore.Lipo>
96.6661

> <Gold.Chemscore.Internal_Hbond>
0.0000

> <Gold.Chemscore.DEClash>
0.0000

> <Gold.Chemscore.DEInternal>
0.4991

> <Gold.Chemscore.Rot>
2.9050

> <Gold.Chemscore.Internal.Correction>
   9.000000E+99

> <Gold.Chemscore.Hbonds>
donor molecule, donor type, donor heavy atom, donor atom, acceptor molecule, acceptor atom, score
      P1  H  6896  6907       L1    13  0.30

> <Gold.Chemscore.Hbond.Weighted>
-9.3467

> <Gold.Chemscore.Metal.Weighted>
-0.0000

> <Gold.Chemscore.Lipo.Weighted>
-11.3099

> <Gold.Chemscore.Internal_Hbond.Weighted>
0.0000

> <Gold.Chemscore.DEClash.Weighted>
0.0000

> <Gold.Chemscore.DEInternal.Weighted>
0.4991

> <Gold.Chemscore.Rot.Weighted>
7.4367

> <Gold.Chemscore.Internal.Correction.Weighted>
   9.000000E+99

> <Gold.Protein.RotatedTorsions>
[ 6907 6896 6895 6894 ] final   19.78 input  -60.11 | X-H torsion
[ 7974 7965 7964 7962 ] final  -65.22 input  175.53 | X-H torsion
[ 8008 7997 7996 7995 ] final -146.34 input   59.86 | X-H torsion
[ 10167 10162 10161 10158 ] final -109.71 input  -65.29 | X-H torsion
[ 10718 10713 10712 10709 ] final   14.00 input   66.30 | X-H torsion
[ 10763 10752 10751 10750 ] final  -60.04 input  -60.55 | X-H torsion
[ 11005 11000 10999 10996 ] final   46.90 input  -57.11 | X-H torsion

> <Gold.Protein.ActiveResidues>
 VAL166  LYS551  ARG553  GLY616  TRP617  ASP618  TYR619  PRO620  LYS621  CYS622 
 ASP623  PHE694  ASN695  SER759  ASP760  ASP761  ALA762  ILE779  LEU786  VAL792 
 PHE793  MET794  SER795  GLU796  ALA797  LYS798  CYS799  TRP800  GLU811  SER814 

> <Gold.Protein.RotatedAtoms>
  151.8863  135.0434  160.0493 H   0  0  0  0  0  0  0  0  0  0  0  0  # atno 6907 bound_to 6896
  152.2472  133.5180  159.5313 H   0  0  0  0  0  0  0  0  0  0  0  0  # atno 6908 bound_to 6896
  150.7072  134.0925  159.3979 H   0  0  0  0  0  0  0  0  0  0  0  0  # atno 6909 bound_to 6896
  145.7570  140.8880  143.0450 H   0  0  0  0  0  0  0  0  0  0  0  0  # atno 7974 bound_to 7965
  155.5577  140.0622  157.2836 H   0  0  0  0  0  0  0  0  0  0  0  0  # atno 8008 bound_to 7997
  154.4400  140.1891  156.0796 H   0  0  0  0  0  0  0  0  0  0  0  0  # atno 8009 bound_to 7997
  156.0469  140.3289  155.7311 H   0  0  0  0  0  0  0  0  0  0  0  0  # atno 8010 bound_to 7997
  140.1523  143.4189  152.1486 H   0  0  0  0  0  0  0  0  0  0  0  0  # atno 10167 bound_to 10162
  157.0328  130.6199  149.5738 H   0  0  0  0  0  0  0  0  0  0  0  0  # atno 10718 bound_to 10713
  154.2631  135.6304  153.5282 H   0  0  0  0  0  0  0  0  0  0  0  0  # atno 10763 bound_to 10752
  152.9892  135.5592  154.5682 H   0  0  0  0  0  0  0  0  0  0  0  0  # atno 10764 bound_to 10752
  154.5236  135.2884  155.1217 H   0  0  0  0  0  0  0  0  0  0  0  0  # atno 10765 bound_to 10752
  140.1327  134.4685  155.8509 H   0  0  0  0  0  0  0  0  0  0  0  0  # atno 11005 bound_to 11000
  144.6838  139.9670  143.7481 LP  0  0  0  0  0  0  0  0  0  0  0  0  # atno 17320 bound_to 7965
  146.0301  139.3327  143.0760 LP  0  0  0  0  0  0  0  0  0  0  0  0  # atno 17321 bound_to 7965
  139.5420  144.7265  151.4704 LP  0  0  0  0  0  0  0  0  0  0  0  0  # atno 17342 bound_to 10162
  140.6695  143.8326  150.6981 LP  0  0  0  0  0  0  0  0  0  0  0  0  # atno 17343 bound_to 10162
  156.0064  130.5151  150.7843 LP  0  0  0  0  0  0  0  0  0  0  0  0  # atno 17370 bound_to 10713
  157.5165  131.0929  151.0133 LP  0  0  0  0  0  0  0  0  0  0  0  0  # atno 17371 bound_to 10713
  141.2173  133.6802  156.7099 LP  0  0  0  0  0  0  0  0  0  0  0  0  # atno 17394 bound_to 11000
  140.2822  134.8308  157.3943 LP  0  0  0  0  0  0  0  0  0  0  0  0  # atno 17395 bound_to 11000

$$$$
