AV-unprocessed.smi:3333|AV-procd|sdf|12834|dock3
  -GOLD-   2272019213D 1   1.00000     0.00000
 Structure written by MMmdl.
 41 43  0  0  0  0  0  0  0  0  1 V2000
  144.5181  137.0386  155.2080 C   0  0  0  0  0  0  0  0  0  0  0  0
  145.3233  138.1622  155.8692 C   0  0  0  0  0  0  0  0  0  0  0  0
  146.1541  138.9232  154.8914 C   0  0  0  0  0  0  0  0  0  0  0  0
  146.9083  139.9739  155.2256 N   0  0  0  0  0  0  0  0  0  0  0  0
  147.5628  140.5391  154.1260 C   0  0  0  0  0  0  0  0  0  0  0  0
  148.4584  141.7294  154.3158 C   0  0  0  0  0  0  0  0  0  0  0  0
  149.6980  141.3539  155.1336 C   0  0  0  0  0  0  0  0  0  0  0  0
  150.3569  140.3551  154.8415 O   0  0  0  0  0  0  0  0  0  0  0  0
  149.9992  142.1564  156.1663 N   0  0  0  0  0  0  0  0  0  0  0  0
  151.1181  141.9622  157.0828 C   0  0  0  0  0  0  0  0  0  0  0  0
  151.0497  142.9105  158.2999 C   0  0  1  0  0  0  0  0  0  0  0  0
  152.0778  142.5585  159.3981 C   0  0  0  0  0  0  0  0  0  0  0  0
  152.8242  143.8871  159.6163 C   0  0  2  0  0  0  0  0  0  0  0  0
  151.8829  144.9062  160.2856 C   0  0  0  0  0  0  0  0  0  0  0  0
  150.9139  145.2727  159.1455 C   0  0  0  0  0  0  0  0  0  0  0  0
  151.4038  144.3847  157.9861 C   0  0  1  0  0  0  0  0  0  0  0  0
  152.9146  144.4250  158.1943 C   0  0  0  0  0  0  0  0  0  0  0  0
  147.2899  139.8934  152.9449 C   0  0  0  0  0  0  0  0  0  0  0  0
  146.1844  138.5663  153.1686 S   0  0  0  0  0  0  0  0  0  0  0  0
  143.9285  136.4967  155.9474 H   0  0  0  0  0  0  0  0  0  0  0  0
  145.1752  136.3218  154.7148 H   0  0  0  0  0  0  0  0  0  0  0  0
  143.8315  137.4350  154.4594 H   0  0  0  0  0  0  0  0  0  0  0  0
  144.6512  138.8551  156.3766 H   0  0  0  0  0  0  0  0  0  0  0  0
  145.9797  137.7468  156.6343 H   0  0  0  0  0  0  0  0  0  0  0  0
  148.7557  142.1421  153.3504 H   0  0  0  0  0  0  0  0  0  0  0  0
  147.9291  142.5256  154.8400 H   0  0  0  0  0  0  0  0  0  0  0  0
  149.4054  142.9553  156.3350 H   0  0  0  0  0  0  0  0  0  0  0  0
  151.1396  140.9232  157.4164 H   0  0  0  0  0  0  0  0  0  0  0  0
  152.0409  142.1230  156.5251 H   0  0  0  0  0  0  0  0  0  0  0  0
  150.0442  142.8563  158.7196 H   0  0  0  0  0  0  0  0  0  0  0  0
  151.6019  142.1951  160.3097 H   0  0  0  0  0  0  0  0  0  0  0  0
  152.7714  141.7875  159.0593 H   0  0  0  0  0  0  0  0  0  0  0  0
  153.7802  143.7720  160.1277 H   0  0  0  0  0  0  0  0  0  0  0  0
  151.3682  144.4870  161.1509 H   0  0  0  0  0  0  0  0  0  0  0  0
  152.4343  145.7870  160.6170 H   0  0  0  0  0  0  0  0  0  0  0  0
  149.8715  145.0852  159.4054 H   0  0  0  0  0  0  0  0  0  0  0  0
  151.0079  146.3285  158.8884 H   0  0  0  0  0  0  0  0  0  0  0  0
  151.0656  144.7318  157.0096 H   0  0  0  0  0  0  0  0  0  0  0  0
  153.3328  145.4318  158.1389 H   0  0  0  0  0  0  0  0  0  0  0  0
  153.4682  143.7721  157.5179 H   0  0  0  0  0  0  0  0  0  0  0  0
  147.6621  140.1265  151.9582 H   0  0  0  0  0  0  0  0  0  0  0  0
  1  2  1  0  0  0  0
  1 20  1  0  0  0  0
  1 21  1  0  0  0  0
  1 22  1  0  0  0  0
  2  3  1  0  0  0  0
  2 23  1  0  0  0  0
  2 24  1  0  0  0  0
  3 19  1  0  0  0  0
  3  4  2  0  0  0  0
  4  5  1  0  0  0  0
  5  6  1  0  0  0  0
  5 18  2  0  0  0  0
  6  7  1  0  0  0  0
  6 25  1  0  0  0  0
  6 26  1  0  0  0  0
  7  8  2  0  0  0  0
  7  9  1  0  0  0  0
  9 10  1  0  0  0  0
  9 27  1  0  0  0  0
 10 11  1  0  0  0  0
 10 28  1  0  0  0  0
 10 29  1  0  0  0  0
 11 16  1  0  0  0  0
 11 12  1  0  0  0  0
 11 30  1  0  0  0  0
 12 13  1  0  0  0  0
 12 31  1  0  0  0  0
 12 32  1  0  0  0  0
 13 17  1  0  0  0  0
 13 14  1  0  0  0  0
 13 33  1  0  0  0  0
 14 15  1  0  0  0  0
 14 34  1  0  0  0  0
 14 35  1  0  0  0  0
 15 16  1  0  0  0  0
 15 36  1  0  0  0  0
 15 37  1  0  0  0  0
 16 17  1  0  0  0  0
 16 38  1  0  0  0  0
 17 39  1  0  0  0  0
 17 40  1  0  0  0  0
 18 19  1  0  0  0  0
 18 41  1  0  0  0  0
M  END
> <s_m_source_file>
AV-unprocessed.smi

> <i_m_source_file_index>
3333

> <i_lp_mmshare_version>
43012

> <i_f3d_flags>
0

> <s_epik_input>
W0NIM11bQ0gyXWMxbmMoW2NIXXMxKVtDSDJdQyg9TylbTkhdW0NIMl1bQ0BIXShbQ0gyXVtDQEBIXTIzKVtDQEBIXShbQ0gyXTMpW0NIMl1bQ0gyXTI=

> <s_epik_cmdline>
J2VwaWtfcHl0aG9uJywgJy1waCcsICc3LjAnLCAnLXRuJywgJzgnLCAnLW1hJywgJzIwMCcsICctbWV0YWxfYmluZGluZycsICctaW1hZScsICc8aW5maWxlLm1hZT4nLCAnLW9tYWUnLCAnPG91dGZpbGUubWFlPic=

> <r_lp_tautomer_probability>
1

> <r_epik_Ionization_Penalty>
6.68371e-05

> <r_epik_Ionization_Penalty_Charging>
0

> <r_epik_Ionization_Penalty_Neutral>
6.68371e-05

> <r_epik_State_Penalty>
-0

> <r_epik_Charging_Adjusted_Penalty>
0

> <i_epik_Tot_Q>
0

> <i_epik_Tot_abs_Q>
0

> <r_epik_Metal_State_Penalty>
-0

> <b_epik_Metal_Only>
0

> <s_lp_Force_Field>
OPLS_2005

> <r_lp_Energy>
43.9975

> <b_lp_Chiralities_Consistent>
1

> <s_lp_Variant>
AV-unprocessed.smi:3333-4

> <Gold.Version>
5.8.1

> <Gold.Id.Protein>
6NUR|6NUR_protein|mol2

> <Gold.PLP.Fitness>
49.0848

> <Gold.PLP.PLP>
-41.2582

> <Gold.PLP.part.hbond>
-2.0000

> <Gold.PLP.part.metal>
0.0000

> <Gold.PLP.part.buried>
-4.2093

> <Gold.PLP.part.nonpolar>
-35.9989

> <Gold.PLP.part.repulsive>
0.2122

> <Gold.PLP.ligand.clash>
0.0000

> <Gold.PLP.ligand.torsion>
0.2810

> <Gold.PLP.Chemscore.Hbond>
1.7840

> <Gold.PLP.Chemscore.CHOScore>
1.0000

> <Gold.PLP.Chemscore.Metal>
0.0000

> <Gold.Chemscore.Hbonds>
donor molecule, donor type, donor heavy atom, donor atom, acceptor molecule, acceptor atom, score
      L1  H     9    27       P1  8028  0.90
      P1  H  7989  7998       L1     8  1.00
      L1  C    18    41       P1  7957  1.00

> <Gold.PLP.Chemscore.Internal.Correction>
0.0367

> <Gold.Rescore>
     Score         DG    S(hbond)    S(metal)    S(lipo)     H(rot)  DE(clash)    DE(int)     intcor
     20.94     -21.33       1.59        0.00     121.24       1.42       0.12       0.26       ----

> <Gold.Chemscore.Fitness>
20.9450

> <Gold.Chemscore.DG>
-21.3254

> <Gold.Chemscore.ZeroCoef>
-5.4800

> <Gold.Chemscore.Hbond>
1.5875

> <Gold.Chemscore.Metal>
0.0000

> <Gold.Chemscore.Lipo>
121.2415

> <Gold.Chemscore.Internal_Hbond>
0.0000

> <Gold.Chemscore.DEClash>
0.1179

> <Gold.Chemscore.DEInternal>
0.2624

> <Gold.Chemscore.Rot>
1.4227

> <Gold.Chemscore.Internal.Correction>
   9.000000E+99

> <Gold.Chemscore.Hbonds>
donor molecule, donor type, donor heavy atom, donor atom, acceptor molecule, acceptor atom, score
      L1  H     9    27       P1  8028  0.85
      P1  H  7989  7998       L1     8  0.58

> <Gold.Chemscore.Hbond.Weighted>
-5.3022

> <Gold.Chemscore.Metal.Weighted>
-0.0000

> <Gold.Chemscore.Lipo.Weighted>
-14.1853

> <Gold.Chemscore.Internal_Hbond.Weighted>
0.0000

> <Gold.Chemscore.DEClash.Weighted>
0.1179

> <Gold.Chemscore.DEInternal.Weighted>
0.2624

> <Gold.Chemscore.Rot.Weighted>
3.6421

> <Gold.Chemscore.Internal.Correction.Weighted>
   9.000000E+99

> <Gold.Protein.RotatedTorsions>
[ 6907 6896 6895 6894 ] final -177.19 input  -60.11 | X-H torsion
[ 7974 7965 7964 7962 ] final    7.01 input  175.53 | X-H torsion
[ 8008 7997 7996 7995 ] final -135.28 input   59.86 | X-H torsion
[ 10167 10162 10161 10158 ] final -176.54 input  -65.29 | X-H torsion
[ 10718 10713 10712 10709 ] final  141.97 input   66.30 | X-H torsion
[ 10763 10752 10751 10750 ] final -136.60 input  -60.55 | X-H torsion
[ 11005 11000 10999 10996 ] final -136.57 input  -57.11 | X-H torsion

> <Gold.Protein.ActiveResidues>
 VAL166  LYS551  ARG553  GLY616  TRP617  ASP618  TYR619  PRO620  LYS621  CYS622 
 ASP623  PHE694  ASN695  SER759  ASP760  ASP761  ALA762  ILE779  LEU786  VAL792 
 PHE793  MET794  SER795  GLU796  ALA797  LYS798  CYS799  TRP800  GLU811  SER814 

> <Gold.Protein.RotatedAtoms>
  151.6170  133.3342  159.3079 H   0  0  0  0  0  0  0  0  0  0  0  0  # atno 6907 bound_to 6896
  150.8126  134.7294  159.6713 H   0  0  0  0  0  0  0  0  0  0  0  0  # atno 6908 bound_to 6896
  152.4223  134.5938  160.0033 H   0  0  0  0  0  0  0  0  0  0  0  0  # atno 6909 bound_to 6896
  146.2430  140.0147  142.8403 H   0  0  0  0  0  0  0  0  0  0  0  0  # atno 7974 bound_to 7965
  155.3761  140.0491  157.3044 H   0  0  0  0  0  0  0  0  0  0  0  0  # atno 8008 bound_to 7997
  154.5105  140.2190  155.9127 H   0  0  0  0  0  0  0  0  0  0  0  0  # atno 8009 bound_to 7997
  156.1577  140.3123  155.8760 H   0  0  0  0  0  0  0  0  0  0  0  0  # atno 8010 bound_to 7997
  139.5524  144.2074  152.1101 H   0  0  0  0  0  0  0  0  0  0  0  0  # atno 10167 bound_to 10162
  157.3859  131.0998  151.0693 H   0  0  0  0  0  0  0  0  0  0  0  0  # atno 10718 bound_to 10713
  154.8680  135.3667  154.5087 H   0  0  0  0  0  0  0  0  0  0  0  0  # atno 10763 bound_to 10752
  153.5723  135.7020  153.5504 H   0  0  0  0  0  0  0  0  0  0  0  0  # atno 10764 bound_to 10752
  153.3530  135.4067  155.1624 H   0  0  0  0  0  0  0  0  0  0  0  0  # atno 10765 bound_to 10752
  140.8793  134.1952  157.4601 H   0  0  0  0  0  0  0  0  0  0  0  0  # atno 11005 bound_to 11000
  145.1296  140.9510  143.4552 LP  0  0  0  0  0  0  0  0  0  0  0  0  # atno 17320 bound_to 7965
  145.0401  139.3267  143.5981 LP  0  0  0  0  0  0  0  0  0  0  0  0  # atno 17321 bound_to 7965
  140.1572  144.5059  150.6653 LP  0  0  0  0  0  0  0  0  0  0  0  0  # atno 17342 bound_to 10162
  140.6790  143.2318  151.5433 LP  0  0  0  0  0  0  0  0  0  0  0  0  # atno 17343 bound_to 10162
  157.1745  130.6282  149.5651 LP  0  0  0  0  0  0  0  0  0  0  0  0  # atno 17370 bound_to 10713
  155.9786  130.4774  150.6669 LP  0  0  0  0  0  0  0  0  0  0  0  0  # atno 17371 bound_to 10713
  139.8718  134.9810  156.5098 LP  0  0  0  0  0  0  0  0  0  0  0  0  # atno 17394 bound_to 11000
  140.8481  133.8153  155.9141 LP  0  0  0  0  0  0  0  0  0  0  0  0  # atno 17395 bound_to 11000

$$$$
