AV-unprocessed.smi:2734|AV-procd|sdf|10538|dock5
  -GOLD-   2272014583D 1   1.00000     0.00000
 Structure written by MMmdl.
 40 42  0  0  0  0  0  0  0  0  1 V2000
  153.4717  141.8133  162.4188 C   0  0  0  0  0  0  0  0  0  0  0  0
  152.8489  141.7891  161.0340 C   0  0  0  0  0  0  0  0  0  0  0  0
  153.1585  140.7227  160.1600 C   0  0  0  0  0  0  0  0  0  0  0  0
  152.6042  140.6656  158.8625 C   0  0  0  0  0  0  0  0  0  0  0  0
  152.7725  139.7328  157.8535 N   0  0  0  0  0  0  0  0  0  0  0  0
  152.0035  140.2360  156.8923 C   0  0  0  0  0  0  0  0  0  0  0  0
  151.3562  141.3865  157.1590 N   0  0  0  0  0  0  0  0  0  0  0  0
  150.4752  142.1178  156.2666 C   0  0  0  0  0  0  0  0  0  0  0  0
  149.2717  141.2763  155.7973 C   0  0  1  0  0  0  0  0  0  0  0  0
  148.1221  142.0960  155.8545 O   0  0  0  0  0  0  0  0  0  0  0  0
  149.4270  140.7187  154.3701 C   0  0  0  0  0  0  0  0  0  0  0  0
  149.1414  138.9246  154.2926 S   0  0  0  0  0  0  0  0  0  0  0  0
  150.8023  138.3533  154.4831 C   0  0  0  0  0  0  0  0  0  0  0  0
  151.9079  139.0840  154.3901 N   0  0  0  0  0  0  0  0  0  0  0  0
  152.9272  138.1788  154.6160 N   0  0  0  0  0  0  0  0  0  0  0  0
  152.4580  136.9840  154.8301 N   0  0  0  0  0  0  0  0  0  0  0  0
  151.1084  137.0774  154.7486 N   0  0  0  0  0  0  0  0  0  0  0  0
  150.2641  135.9150  154.9395 C   0  0  0  0  0  0  0  0  0  0  0  0
  151.7220  141.7110  158.4614 C   0  0  0  0  0  0  0  0  0  0  0  0
  151.4046  142.7760  159.3228 C   0  0  0  0  0  0  0  0  0  0  0  0
  151.9700  142.8198  160.6141 C   0  0  0  0  0  0  0  0  0  0  0  0
  151.6275  143.9788  161.5333 C   0  0  0  0  0  0  0  0  0  0  0  0
  154.1119  140.9460  162.5830 H   0  0  0  0  0  0  0  0  0  0  0  0
  152.6979  141.8076  163.1867 H   0  0  0  0  0  0  0  0  0  0  0  0
  154.0812  142.7082  162.5468 H   0  0  0  0  0  0  0  0  0  0  0  0
  153.8294  139.9385  160.4784 H   0  0  0  0  0  0  0  0  0  0  0  0
  151.9071  139.7418  155.9365 H   0  0  0  0  0  0  0  0  0  0  0  0
  150.1295  143.0121  156.7872 H   0  0  0  0  0  0  0  0  0  0  0  0
  151.0569  142.4628  155.4106 H   0  0  0  0  0  0  0  0  0  0  0  0
  149.1257  140.4478  156.4915 H   0  0  0  0  0  0  0  0  0  0  0  0
  148.3742  142.9792  155.6308 H   0  0  0  0  0  0  0  0  0  0  0  0
  148.7384  141.2246  153.6920 H   0  0  0  0  0  0  0  0  0  0  0  0
  150.4364  140.9040  154.0033 H   0  0  0  0  0  0  0  0  0  0  0  0
  149.5927  136.0850  155.7814 H   0  0  0  0  0  0  0  0  0  0  0  0
  150.8692  135.0306  155.1426 H   0  0  0  0  0  0  0  0  0  0  0  0
  149.6727  135.7406  154.0404 H   0  0  0  0  0  0  0  0  0  0  0  0
  150.7370  143.5567  158.9892 H   0  0  0  0  0  0  0  0  0  0  0  0
  150.9358  144.6739  161.0564 H   0  0  0  0  0  0  0  0  0  0  0  0
  152.5275  144.5331  161.7998 H   0  0  0  0  0  0  0  0  0  0  0  0
  151.1589  143.6160  162.4484 H   0  0  0  0  0  0  0  0  0  0  0  0
  1  2  1  0  0  0  0
  1 23  1  0  0  0  0
  1 24  1  0  0  0  0
  1 25  1  0  0  0  0
  2 21  1  0  0  0  0
  2  3  2  0  0  0  0
  3  4  1  0  0  0  0
  3 26  1  0  0  0  0
  4 19  2  0  0  0  0
  4  5  1  0  0  0  0
  5  6  2  0  0  0  0
  6  7  1  0  0  0  0
  6 27  1  0  0  0  0
  7  8  1  0  0  0  0
  7 19  1  0  0  0  0
  8  9  1  0  0  0  0
  8 28  1  0  0  0  0
  8 29  1  0  0  0  0
  9 10  1  0  0  0  0
  9 11  1  0  0  0  0
  9 30  1  0  0  0  0
 10 31  1  0  0  0  0
 11 12  1  0  0  0  0
 11 32  1  0  0  0  0
 11 33  1  0  0  0  0
 12 13  1  0  0  0  0
 13 17  1  0  0  0  0
 13 14  2  0  0  0  0
 14 15  1  0  0  0  0
 15 16  2  0  0  0  0
 16 17  1  0  0  0  0
 17 18  1  0  0  0  0
 18 34  1  0  0  0  0
 18 35  1  0  0  0  0
 18 36  1  0  0  0  0
 19 20  1  0  0  0  0
 20 21  2  0  0  0  0
 20 37  1  0  0  0  0
 21 22  1  0  0  0  0
 22 38  1  0  0  0  0
 22 39  1  0  0  0  0
 22 40  1  0  0  0  0
M  END
> <s_m_source_file>
AV-unprocessed.smi

> <i_m_source_file_index>
2734

> <i_lp_mmshare_version>
43012

> <i_f3d_flags>
0

> <s_epik_input>
W0NIM11jKFtjSF0xKWMoW0NIM10pW2NIXWMoYzEyKW4oW2NIXW4yKVtDSDJdW0NASF0oW09IXSlbQ0gyXVNjM25ubm4zW0NIM10=

> <s_epik_cmdline>
J2VwaWtfcHl0aG9uJywgJy1waCcsICc3LjAnLCAnLXRuJywgJzgnLCAnLW1hJywgJzIwMCcsICctbWV0YWxfYmluZGluZycsICctaW1hZScsICc8aW5maWxlLm1hZT4nLCAnLW9tYWUnLCAnPG91dGZpbGUubWFlPic=

> <r_lp_tautomer_probability>
1

> <r_epik_Ionization_Penalty>
0.105517

> <r_epik_Ionization_Penalty_Charging>
0

> <r_epik_Ionization_Penalty_Neutral>
0.105517

> <r_epik_State_Penalty>
0.0953887

> <r_epik_Charging_Adjusted_Penalty>
0.0953887

> <i_epik_Tot_Q>
0

> <i_epik_Tot_abs_Q>
0

> <r_epik_Metal_State_Penalty>
0.0808533

> <b_epik_Metal_Only>
0

> <s_lp_Force_Field>
OPLS_2005

> <r_lp_Energy>
9.84292

> <b_lp_Chiralities_Consistent>
1

> <s_lp_Variant>
AV-unprocessed.smi:2734-2

> <Gold.Version>
5.8.1

> <Gold.Id.Protein>
6NUR|6NUR_protein|mol2

> <Gold.PLP.Fitness>
54.6336

> <Gold.PLP.PLP>
-46.0889

> <Gold.PLP.part.hbond>
-4.4441

> <Gold.PLP.part.metal>
0.0000

> <Gold.PLP.part.buried>
-3.2890

> <Gold.PLP.part.nonpolar>
-39.1155

> <Gold.PLP.part.repulsive>
0.3268

> <Gold.PLP.ligand.clash>
0.0000

> <Gold.PLP.ligand.torsion>
1.6900

> <Gold.PLP.Chemscore.Hbond>
3.9600

> <Gold.PLP.Chemscore.CHOScore>
0.0000

> <Gold.PLP.Chemscore.Metal>
0.0000

> <Gold.Chemscore.Hbonds>
donor molecule, donor type, donor heavy atom, donor atom, acceptor molecule, acceptor atom, score
      L1  H    10    31       P1  8028  1.00
      P1  H  7989  7998       L1    14  0.91
      P1  H  7997  8010       L1     5  0.60
      P1  H 10752 10765       L1    16  0.61

> <Gold.PLP.Chemscore.Internal.Correction>
0.0448

> <Gold.Rescore>
     Score         DG    S(hbond)    S(metal)    S(lipo)     H(rot)  DE(clash)    DE(int)     intcor
     16.89     -20.96       3.01        0.00     108.64       2.85       0.89       3.18       ----

> <Gold.Chemscore.Fitness>
16.8853

> <Gold.Chemscore.DG>
-20.9614

> <Gold.Chemscore.ZeroCoef>
-5.4800

> <Gold.Chemscore.Hbond>
3.0101

> <Gold.Chemscore.Metal>
0.0000

> <Gold.Chemscore.Lipo>
108.6447

> <Gold.Chemscore.Internal_Hbond>
0.0000

> <Gold.Chemscore.DEClash>
0.8944

> <Gold.Chemscore.DEInternal>
3.1817

> <Gold.Chemscore.Rot>
2.8452

> <Gold.Chemscore.Internal.Correction>
   9.000000E+99

> <Gold.Chemscore.Hbonds>
donor molecule, donor type, donor heavy atom, donor atom, acceptor molecule, acceptor atom, score
      L1  H    10    31       P1  8028  0.98
      P1  H  7989  7998       L1    14  0.77
      P1  H  7997  8010       L1     5  0.03
      P1  H 10752 10765       L1    16  0.50

> <Gold.Chemscore.Hbond.Weighted>
-10.0537

> <Gold.Chemscore.Metal.Weighted>
-0.0000

> <Gold.Chemscore.Lipo.Weighted>
-12.7114

> <Gold.Chemscore.Internal_Hbond.Weighted>
0.0000

> <Gold.Chemscore.DEClash.Weighted>
0.8944

> <Gold.Chemscore.DEInternal.Weighted>
3.1817

> <Gold.Chemscore.Rot.Weighted>
7.2837

> <Gold.Chemscore.Internal.Correction.Weighted>
   9.000000E+99

> <Gold.Protein.RotatedTorsions>
[ 6907 6896 6895 6894 ] final -119.86 input  -60.11 | X-H torsion
[ 7974 7965 7964 7962 ] final   -4.79 input  175.53 | X-H torsion
[ 8008 7997 7996 7995 ] final   50.59 input   59.86 | X-H torsion
[ 10167 10162 10161 10158 ] final   37.55 input  -65.29 | X-H torsion
[ 10718 10713 10712 10709 ] final -140.34 input   66.30 | X-H torsion
[ 10763 10752 10751 10750 ] final  176.72 input  -60.55 | X-H torsion
[ 11005 11000 10999 10996 ] final  -41.64 input  -57.11 | X-H torsion

> <Gold.Protein.ActiveResidues>
 VAL166  LYS551  ARG553  GLY616  TRP617  ASP618  TYR619  PRO620  LYS621  CYS622 
 ASP623  PHE694  ASN695  SER759  ASP760  ASP761  ALA762  ILE779  LEU786  VAL792 
 PHE793  MET794  SER795  GLU796  ALA797  LYS798  CYS799  TRP800  GLU811  SER814 

> <Gold.Protein.RotatedAtoms>
  150.8342  133.8040  159.3085 H   0  0  0  0  0  0  0  0  0  0  0  0  # atno 6907 bound_to 6896
  151.5761  135.1059  160.0016 H   0  0  0  0  0  0  0  0  0  0  0  0  # atno 6908 bound_to 6896
  152.4417  133.7419  159.6702 H   0  0  0  0  0  0  0  0  0  0  0  0  # atno 6909 bound_to 6896
  146.2365  140.1924  142.8333 H   0  0  0  0  0  0  0  0  0  0  0  0  # atno 7974 bound_to 7965
  155.4213  140.3446  155.4271 H   0  0  0  0  0  0  0  0  0  0  0  0  # atno 8008 bound_to 7997
  156.1391  140.1537  156.8979 H   0  0  0  0  0  0  0  0  0  0  0  0  # atno 8009 bound_to 7997
  154.4956  140.0829  156.7670 H   0  0  0  0  0  0  0  0  0  0  0  0  # atno 8010 bound_to 7997
  140.4022  144.1708  150.6134 H   0  0  0  0  0  0  0  0  0  0  0  0  # atno 10167 bound_to 10162
  156.3212  130.7535  151.1633 H   0  0  0  0  0  0  0  0  0  0  0  0  # atno 10718 bound_to 10713
  154.4849  135.2776  155.1542 H   0  0  0  0  0  0  0  0  0  0  0  0  # atno 10763 bound_to 10752
  154.3237  135.6204  153.5523 H   0  0  0  0  0  0  0  0  0  0  0  0  # atno 10764 bound_to 10752
  152.9880  135.5749  154.5258 H   0  0  0  0  0  0  0  0  0  0  0  0  # atno 10765 bound_to 10752
  141.0260  133.6841  156.2486 H   0  0  0  0  0  0  0  0  0  0  0  0  # atno 11005 bound_to 11000
  144.9847  140.8492  143.5375 LP  0  0  0  0  0  0  0  0  0  0  0  0  # atno 17320 bound_to 7965
  145.1922  139.2295  143.5237 LP  0  0  0  0  0  0  0  0  0  0  0  0  # atno 17321 bound_to 7965
  140.4728  143.2407  151.9065 LP  0  0  0  0  0  0  0  0  0  0  0  0  # atno 17342 bound_to 10162
  139.4784  144.5352  151.8609 LP  0  0  0  0  0  0  0  0  0  0  0  0  # atno 17343 bound_to 10162
  157.7412  131.0507  150.5113 LP  0  0  0  0  0  0  0  0  0  0  0  0  # atno 17370 bound_to 10713
  156.5266  130.4174  149.6223 LP  0  0  0  0  0  0  0  0  0  0  0  0  # atno 17371 bound_to 10713
  140.6490  134.5087  157.5576 LP  0  0  0  0  0  0  0  0  0  0  0  0  # atno 17394 bound_to 11000
  139.9176  134.8213  156.1314 LP  0  0  0  0  0  0  0  0  0  0  0  0  # atno 17395 bound_to 11000

$$$$
