AV-unprocessed.smi:2409|AV-procd|sdf|9522|dock1
  -GOLD-   2272013153D 1   1.00000     0.00000
 Structure written by MMmdl.
 35 36  0  0  0  0  0  0  0  0  1 V2000
  152.8045  139.1232  155.2648 C   0  0  0  0  0  0  0  0  0  0  0  0
  151.7818  139.6268  156.1069 O   0  0  0  0  0  0  0  0  0  0  0  0
  150.6532  139.9583  155.4440 C   0  0  0  0  0  0  0  0  0  0  0  0
  149.9377  141.1217  155.3814 C   0  0  0  0  0  0  0  0  0  0  0  0
  150.1728  142.3724  156.0063 N   0  0  0  0  0  0  0  0  0  0  0  0
  150.9706  142.6280  157.0596 C   0  0  0  0  0  0  0  0  0  0  0  0
  151.5976  141.7710  157.6786 O   0  0  0  0  0  0  0  0  0  0  0  0
  150.9892  143.9177  157.4402 N   0  0  0  0  0  0  0  0  0  0  0  0
  151.7311  144.5030  158.5161 C   0  0  2  0  0  0  0  0  0  0  0  0
  153.0436  143.8405  158.8716 C   0  0  0  0  0  0  0  0  0  0  0  0
  151.8683  143.7192  159.8049 C   0  0  1  0  0  0  0  0  0  0  0  0
  151.8876  144.4260  161.1426 C   0  0  0  0  0  0  0  0  0  0  0  0
  148.8798  140.8559  154.4688 C   0  0  0  0  0  0  0  0  0  0  0  0
  147.7907  141.7691  153.9834 C   0  0  0  0  0  0  0  0  0  0  0  0
  148.9208  139.5992  154.0404 N   0  0  0  0  0  0  0  0  0  0  0  0
  150.0014  139.0447  154.6421 N   0  0  0  0  0  0  0  0  0  0  0  0
  150.3389  137.6627  154.3701 C   0  0  0  0  0  0  0  0  0  0  0  0
  153.6793  138.8706  155.8637 H   0  0  0  0  0  0  0  0  0  0  0  0
  153.1096  139.8579  154.5187 H   0  0  0  0  0  0  0  0  0  0  0  0
  152.4764  138.2193  154.7496 H   0  0  0  0  0  0  0  0  0  0  0  0
  149.6220  143.1455  155.6632 H   0  0  0  0  0  0  0  0  0  0  0  0
  150.3526  144.5368  156.9593 H   0  0  0  0  0  0  0  0  0  0  0  0
  151.7341  145.5893  158.5956 H   0  0  0  0  0  0  0  0  0  0  0  0
  153.3347  142.9510  158.3157 H   0  0  0  0  0  0  0  0  0  0  0  0
  153.8648  144.4889  159.1707 H   0  0  0  0  0  0  0  0  0  0  0  0
  151.3791  142.7471  159.8321 H   0  0  0  0  0  0  0  0  0  0  0  0
  152.3943  145.3887  161.0660 H   0  0  0  0  0  0  0  0  0  0  0  0
  152.4087  143.8163  161.8806 H   0  0  0  0  0  0  0  0  0  0  0  0
  150.8683  144.5973  161.4889 H   0  0  0  0  0  0  0  0  0  0  0  0
  147.8752  142.7625  154.4245 H   0  0  0  0  0  0  0  0  0  0  0  0
  146.8071  141.3765  154.2413 H   0  0  0  0  0  0  0  0  0  0  0  0
  147.8305  141.8846  152.9000 H   0  0  0  0  0  0  0  0  0  0  0  0
  150.9824  137.2711  155.1582 H   0  0  0  0  0  0  0  0  0  0  0  0
  150.8627  137.5951  153.4163 H   0  0  0  0  0  0  0  0  0  0  0  0
  149.4322  137.0584  154.3250 H   0  0  0  0  0  0  0  0  0  0  0  0
  1  2  1  0  0  0  0
  1 18  1  0  0  0  0
  1 19  1  0  0  0  0
  1 20  1  0  0  0  0
  2  3  1  0  0  0  0
  3 16  1  0  0  0  0
  3  4  2  0  0  0  0
  4  5  1  0  0  0  0
  4 13  1  0  0  0  0
  5  6  1  0  0  0  0
  5 21  1  0  0  0  0
  6  7  2  0  0  0  0
  6  8  1  0  0  0  0
  8  9  1  0  0  0  0
  8 22  1  0  0  0  0
  9 11  1  0  0  0  0
  9 10  1  0  0  0  0
  9 23  1  0  0  0  0
 10 11  1  0  0  0  0
 10 24  1  0  0  0  0
 10 25  1  0  0  0  0
 11 12  1  0  0  0  0
 11 26  1  0  0  0  0
 12 27  1  0  0  0  0
 12 28  1  0  0  0  0
 12 29  1  0  0  0  0
 13 14  1  0  0  0  0
 13 15  2  0  0  0  0
 14 30  1  0  0  0  0
 14 31  1  0  0  0  0
 14 32  1  0  0  0  0
 15 16  1  0  0  0  0
 16 17  1  0  0  0  0
 17 33  1  0  0  0  0
 17 34  1  0  0  0  0
 17 35  1  0  0  0  0
M  END
> <s_m_source_file>
AV-unprocessed.smi

> <i_m_source_file_index>
2409

> <i_lp_mmshare_version>
43012

> <i_f3d_flags>
0

> <s_epik_input>
W0NIM11uMW5jKFtDSDNdKWMoYzFPW0NIM10pW05IXUMoPU8pW05IXVtDQEBIXTJbQ0gyXVtDQEhdMltDSDNd

> <s_epik_cmdline>
J2VwaWtfcHl0aG9uJywgJy1waCcsICc3LjAnLCAnLXRuJywgJzgnLCAnLW1hJywgJzIwMCcsICctbWV0YWxfYmluZGluZycsICctaW1hZScsICc8aW5maWxlLm1hZT4nLCAnLW9tYWUnLCAnPG91dGZpbGUubWFlPic=

> <r_lp_tautomer_probability>
1

> <r_epik_Ionization_Penalty>
0.000417804

> <r_epik_Ionization_Penalty_Charging>
0

> <r_epik_Ionization_Penalty_Neutral>
0.000417804

> <r_epik_State_Penalty>
-0

> <r_epik_Charging_Adjusted_Penalty>
0

> <i_epik_Tot_Q>
0

> <i_epik_Tot_abs_Q>
0

> <r_epik_Metal_State_Penalty>
-0

> <b_epik_Metal_Only>
0

> <s_lp_Force_Field>
OPLS_2005

> <r_lp_Energy>
34.5155

> <b_lp_Chiralities_Consistent>
1

> <s_lp_Variant>
AV-unprocessed.smi:2409-1

> <Gold.Version>
5.8.1

> <Gold.Id.Protein>
6NUR|6NUR_protein|mol2

> <Gold.PLP.Fitness>
45.2768

> <Gold.PLP.PLP>
-40.0943

> <Gold.PLP.part.hbond>
-2.0000

> <Gold.PLP.part.metal>
0.0000

> <Gold.PLP.part.buried>
-4.1952

> <Gold.PLP.part.nonpolar>
-35.8612

> <Gold.PLP.part.repulsive>
0.9440

> <Gold.PLP.ligand.clash>
0.0000

> <Gold.PLP.ligand.torsion>
0.4180

> <Gold.PLP.Chemscore.Hbond>
1.9920

> <Gold.PLP.Chemscore.CHOScore>
0.0000

> <Gold.PLP.Chemscore.Metal>
0.0000

> <Gold.Chemscore.Hbonds>
donor molecule, donor type, donor heavy atom, donor atom, acceptor molecule, acceptor atom, score
      L1  H     5    21       P1  8028  1.00
      L1  H     8    22       P1  8028  0.98

> <Gold.PLP.Chemscore.Internal.Correction>
0.0425

> <Gold.Rescore>
     Score         DG    S(hbond)    S(metal)    S(lipo)     H(rot)  DE(clash)    DE(int)     intcor
     13.68     -18.92       1.89        0.00      87.72       1.23       0.09       5.15       ----

> <Gold.Chemscore.Fitness>
13.6803

> <Gold.Chemscore.DG>
-18.9210

> <Gold.Chemscore.ZeroCoef>
-5.4800

> <Gold.Chemscore.Hbond>
1.8935

> <Gold.Chemscore.Metal>
0.0000

> <Gold.Chemscore.Lipo>
87.7208

> <Gold.Chemscore.Internal_Hbond>
0.0000

> <Gold.Chemscore.DEClash>
0.0888

> <Gold.Chemscore.DEInternal>
5.1519

> <Gold.Chemscore.Rot>
1.2292

> <Gold.Chemscore.Internal.Correction>
   9.000000E+99

> <Gold.Chemscore.Hbonds>
donor molecule, donor type, donor heavy atom, donor atom, acceptor molecule, acceptor atom, score
      L1  H     5    21       P1  8028  0.99
      L1  H     8    22       P1  8028  0.73

> <Gold.Chemscore.Hbond.Weighted>
-6.3243

> <Gold.Chemscore.Metal.Weighted>
-0.0000

> <Gold.Chemscore.Lipo.Weighted>
-10.2633

> <Gold.Chemscore.Internal_Hbond.Weighted>
0.0000

> <Gold.Chemscore.DEClash.Weighted>
0.0888

> <Gold.Chemscore.DEInternal.Weighted>
5.1519

> <Gold.Chemscore.Rot.Weighted>
3.1467

> <Gold.Chemscore.Internal.Correction.Weighted>
   9.000000E+99

> <Gold.Protein.RotatedTorsions>
[ 6907 6896 6895 6894 ] final  -14.11 input  -60.11 | X-H torsion
[ 7974 7965 7964 7962 ] final   -1.27 input  175.53 | X-H torsion
[ 8008 7997 7996 7995 ] final   71.62 input   59.86 | X-H torsion
[ 10167 10162 10161 10158 ] final -152.87 input  -65.29 | X-H torsion
[ 10718 10713 10712 10709 ] final  -10.95 input   66.30 | X-H torsion
[ 10763 10752 10751 10750 ] final   96.27 input  -60.55 | X-H torsion
[ 11005 11000 10999 10996 ] final  164.12 input  -57.11 | X-H torsion

> <Gold.Protein.ActiveResidues>
 VAL166  LYS551  ARG553  GLY616  TRP617  ASP618  TYR619  PRO620  LYS621  CYS622 
 ASP623  PHE694  ASN695  SER759  ASP760  ASP761  ALA762  ILE779  LEU786  VAL792 
 PHE793  MET794  SER795  GLU796  ALA797  LYS798  CYS799  TRP800  GLU811  SER814 

> <Gold.Protein.RotatedAtoms>
  151.3445  135.0871  159.9381 H   0  0  0  0  0  0  0  0  0  0  0  0  # atno 6907 bound_to 6896
  152.5203  133.9414  159.7638 H   0  0  0  0  0  0  0  0  0  0  0  0  # atno 6908 bound_to 6896
  150.9777  133.6224  159.2757 H   0  0  0  0  0  0  0  0  0  0  0  0  # atno 6909 bound_to 6896
  146.2419  140.1395  142.8336 H   0  0  0  0  0  0  0  0  0  0  0  0  # atno 7974 bound_to 7965
  155.7566  140.3487  155.5177 H   0  0  0  0  0  0  0  0  0  0  0  0  # atno 8008 bound_to 7997
  155.8953  140.1025  157.1410 H   0  0  0  0  0  0  0  0  0  0  0  0  # atno 8009 bound_to 7997
  154.4038  140.1296  156.4355 H   0  0  0  0  0  0  0  0  0  0  0  0  # atno 8010 bound_to 7997
  139.7144  143.9056  152.2480 H   0  0  0  0  0  0  0  0  0  0  0  0  # atno 10167 bound_to 10162
  156.6661  130.4996  149.6015 H   0  0  0  0  0  0  0  0  0  0  0  0  # atno 10718 bound_to 10713
  153.2630  135.4224  155.0912 H   0  0  0  0  0  0  0  0  0  0  0  0  # atno 10763 bound_to 10752
  154.8427  135.3453  154.6352 H   0  0  0  0  0  0  0  0  0  0  0  0  # atno 10764 bound_to 10752
  153.6772  135.7040  153.5186 H   0  0  0  0  0  0  0  0  0  0  0  0  # atno 10765 bound_to 10752
  140.2427  134.8038  157.3426 H   0  0  0  0  0  0  0  0  0  0  0  0  # atno 11005 bound_to 11000
  145.0259  140.8831  143.5139 LP  0  0  0  0  0  0  0  0  0  0  0  0  # atno 17320 bound_to 7965
  145.1451  139.2548  143.5470 LP  0  0  0  0  0  0  0  0  0  0  0  0  # atno 17321 bound_to 7965
  139.8934  144.6952  150.8744 LP  0  0  0  0  0  0  0  0  0  0  0  0  # atno 17342 bound_to 10162
  140.7740  143.3568  151.1905 LP  0  0  0  0  0  0  0  0  0  0  0  0  # atno 17343 bound_to 10162
  156.1974  130.6598  151.1129 LP  0  0  0  0  0  0  0  0  0  0  0  0  # atno 17370 bound_to 10713
  157.7093  131.0742  150.6557 LP  0  0  0  0  0  0  0  0  0  0  0  0  # atno 17371 bound_to 10713
  140.1637  134.4696  155.7877 LP  0  0  0  0  0  0  0  0  0  0  0  0  # atno 17394 bound_to 11000
  141.2209  133.6912  156.7588 LP  0  0  0  0  0  0  0  0  0  0  0  0  # atno 17395 bound_to 11000

$$$$
