AV-unprocessed.smi:511|AV-procd|sdf|2766|dock8
  -GOLD-   2262023233D 1   1.00000     0.00000
 Structure written by MMmdl.
 45 47  0  0  0  0  0  0  0  0  3 V2000
  147.4369  141.5976  154.2561 C   0  0  0  0  0  0  0  0  0  0  0  0
  148.7861  141.1660  154.2377 O   0  0  0  0  0  0  0  0  0  0  0  0
  149.0409  140.1455  155.1879 C   0  0  0  0  0  0  0  0  0  0  0  0
  150.5498  139.8739  155.2328 C   0  0  0  0  0  0  0  0  0  0  0  0
  151.0393  139.8035  156.6079 N   0  0  0  0  0  0  0  0  0  0  0  0
  150.9975  140.7637  157.5702 C   0  0  0  0  0  0  0  0  0  0  0  0
  150.3822  141.9979  157.3609 N   0  0  0  0  0  0  0  0  0  0  0  0
  149.2275  142.4889  158.1102 C   0  0  0  0  0  0  0  0  0  0  0  0
  149.6491  143.5086  159.1847 C   0  0  0  0  0  0  0  0  0  0  0  0
  150.4034  144.6350  158.5844 N   0  3  0  0  0  0  0  0  0  0  0  0
  150.8198  145.6397  159.5858 C   0  0  0  0  0  0  0  0  0  0  0  0
  151.5313  144.1594  157.7486 C   0  0  0  0  0  0  0  0  0  0  0  0
  151.0431  143.1285  156.7162 C   0  0  0  0  0  0  0  0  0  0  0  0
  151.6038  140.4369  158.7129 N   0  0  0  0  0  0  0  0  0  0  0  0
  152.0434  139.1441  158.4710 C   0  0  0  0  0  0  0  0  0  0  0  0
  151.7167  138.7407  157.2139 C   0  0  0  0  0  0  0  0  0  0  0  0
  152.0698  137.4163  156.6571 C   0  0  0  0  0  0  0  0  0  0  0  0
  151.7630  137.1098  155.5069 O   0  0  0  0  0  0  0  0  0  0  0  0
  152.7462  136.6394  157.5613 N   0  5  0  0  0  0  0  0  0  0  0  0
  153.0926  137.0043  158.8446 C   0  0  0  0  0  0  0  0  0  0  0  0
  153.7005  136.2411  159.5963 O   0  0  0  0  0  0  0  0  0  0  0  0
  152.7575  138.2482  159.3123 N   0  0  0  0  0  0  0  0  0  0  0  0
  153.1172  138.6659  160.6705 C   0  0  0  0  0  0  0  0  0  0  0  0
  147.2934  142.3823  153.5135 H   0  0  0  0  0  0  0  0  0  0  0  0
  147.1650  142.0037  155.2315 H   0  0  0  0  0  0  0  0  0  0  0  0
  146.7580  140.7783  154.0164 H   0  0  0  0  0  0  0  0  0  0  0  0
  148.6793  140.4510  156.1707 H   0  0  0  0  0  0  0  0  0  0  0  0
  148.5058  139.2363  154.9087 H   0  0  0  0  0  0  0  0  0  0  0  0
  150.7581  138.9467  154.7059 H   0  0  0  0  0  0  0  0  0  0  0  0
  151.1009  140.6443  154.6947 H   0  0  0  0  0  0  0  0  0  0  0  0
  148.5096  142.9328  157.4196 H   0  0  0  0  0  0  0  0  0  0  0  0
  148.7216  141.6583  158.6023 H   0  0  0  0  0  0  0  0  0  0  0  0
  148.7663  143.8906  159.6985 H   0  0  0  0  0  0  0  0  0  0  0  0
  150.2691  143.0165  159.9363 H   0  0  0  0  0  0  0  0  0  0  0  0
  151.5140  145.2090  160.3084 H   0  0  0  0  0  0  0  0  0  0  0  0
  149.9547  146.0229  160.1281 H   0  0  0  0  0  0  0  0  0  0  0  0
  151.3105  146.4846  159.1017 H   0  0  0  0  0  0  0  0  0  0  0  0
  151.9915  145.0054  157.2374 H   0  0  0  0  0  0  0  0  0  0  0  0
  152.2973  143.7142  158.3860 H   0  0  0  0  0  0  0  0  0  0  0  0
  151.8853  142.7676  156.1244 H   0  0  0  0  0  0  0  0  0  0  0  0
  150.3508  143.5946  156.0136 H   0  0  0  0  0  0  0  0  0  0  0  0
  154.1951  138.5921  160.8221 H   0  0  0  0  0  0  0  0  0  0  0  0
  152.6250  138.0295  161.4070 H   0  0  0  0  0  0  0  0  0  0  0  0
  152.8311  139.6955  160.8842 H   0  0  0  0  0  0  0  0  0  0  0  0
  149.7637  145.1006  157.9566 H   0  0  0  0  0  0  0  0  0  0  0  0
  1  2  1  0  0  0  0
  1 24  1  0  0  0  0
  1 25  1  0  0  0  0
  1 26  1  0  0  0  0
  2  3  1  0  0  0  0
  3  4  1  0  0  0  0
  3 27  1  0  0  0  0
  3 28  1  0  0  0  0
  4  5  1  0  0  0  0
  4 29  1  0  0  0  0
  4 30  1  0  0  0  0
  5 16  1  0  0  0  0
  5  6  1  0  0  0  0
  6  7  1  0  0  0  0
  6 14  2  0  0  0  0
  7 13  1  0  0  0  0
  7  8  1  0  0  0  0
  8  9  1  0  0  0  0
  8 31  1  0  0  0  0
  8 32  1  0  0  0  0
  9 10  1  0  0  0  0
  9 33  1  0  0  0  0
  9 34  1  0  0  0  0
 10 11  1  0  0  0  0
 10 12  1  0  0  0  0
 10 45  1  0  0  0  0
 11 35  1  0  0  0  0
 11 36  1  0  0  0  0
 11 37  1  0  0  0  0
 12 13  1  0  0  0  0
 12 38  1  0  0  0  0
 12 39  1  0  0  0  0
 13 40  1  0  0  0  0
 13 41  1  0  0  0  0
 14 15  1  0  0  0  0
 15 22  1  0  0  0  0
 15 16  2  0  0  0  0
 16 17  1  0  0  0  0
 17 18  2  0  0  0  0
 17 19  1  0  0  0  0
 19 20  1  0  0  0  0
 20 21  2  0  0  0  0
 20 22  1  0  0  0  0
 22 23  1  0  0  0  0
 23 42  1  0  0  0  0
 23 43  1  0  0  0  0
 23 44  1  0  0  0  0
M  CHG  1  10   1
M  CHG  1  19  -1
M  END
> <s_m_source_file>
AV-unprocessed.smi

> <i_m_source_file_index>
511

> <i_lp_mmshare_version>
43012

> <i_f3d_flags>
0

> <s_epik_input>
W0NIM11uMWMoPU8pW25IXWMoPU8pYyhjMTIpbihbQ0gyXVtDSDJdT1tDSDNdKWMobjIpTjNbQ0gyXVtDSDJdTihbQ0gzXSlbQ0gyXVtDSDJdMw==

> <s_epik_cmdline>
J2VwaWtfcHl0aG9uJywgJy1waCcsICc3LjAnLCAnLXRuJywgJzgnLCAnLW1hJywgJzIwMCcsICctbWV0YWxfYmluZGluZycsICctaW1hZScsICc8aW5maWxlLm1hZT4nLCAnLW9tYWUnLCAnPG91dGZpbGUubWFlPic=

> <r_epik_Ionization_Penalty>
5.9833

> <r_epik_Ionization_Penalty_Charging>
0.125752

> <r_epik_Ionization_Penalty_Neutral>
5.85754

> <r_epik_State_Penalty>
5.9139

> <r_epik_Charging_Adjusted_Penalty>
6.03966

> <i_epik_Tot_Q>
0

> <i_epik_Tot_abs_Q>
2

> <r_epik_Metal_State_Penalty>
1.87741

> <b_epik_Metal_Only>
1

> <s_lp_Force_Field>
OPLS_2005

> <r_lp_Energy>
51.0512

> <b_lp_Chiralities_Consistent>
1

> <s_lp_Variant>
AV-unprocessed.smi:511-3

> <Gold.Version>
5.8.1

> <Gold.Id.Protein>
6NUR|6NUR_protein|mol2

> <Gold.PLP.Fitness>
44.1769

> <Gold.PLP.PLP>
-32.0512

> <Gold.PLP.part.hbond>
-5.2820

> <Gold.PLP.part.metal>
0.0000

> <Gold.PLP.part.buried>
0.0622

> <Gold.PLP.part.nonpolar>
-29.7433

> <Gold.PLP.part.repulsive>
0.7201

> <Gold.PLP.ligand.clash>
0.0000

> <Gold.PLP.ligand.torsion>
1.6865

> <Gold.PLP.Chemscore.Hbond>
4.9795

> <Gold.PLP.Chemscore.CHOScore>
0.0000

> <Gold.PLP.Chemscore.Metal>
0.0000

> <Gold.Chemscore.Hbonds>
donor molecule, donor type, donor heavy atom, donor atom, acceptor molecule, acceptor atom, score
      L1  H    10    45       P1  8029  1.07
      P1  H  6896  6909       L1    21  1.00

> <Gold.PLP.Chemscore.Internal.Correction>
0.5601

> <Gold.Rescore>
     Score         DG    S(hbond)    S(metal)    S(lipo)     H(rot)  DE(clash)    DE(int)     intcor
     11.92     -15.88       1.56        0.00      77.01       1.49       2.52       1.44       ----

> <Gold.Chemscore.Fitness>
11.9238

> <Gold.Chemscore.DG>
-15.8788

> <Gold.Chemscore.ZeroCoef>
-5.4800

> <Gold.Chemscore.Hbond>
1.5590

> <Gold.Chemscore.Metal>
0.0000

> <Gold.Chemscore.Lipo>
77.0102

> <Gold.Chemscore.Internal_Hbond>
0.0000

> <Gold.Chemscore.DEClash>
2.5176

> <Gold.Chemscore.DEInternal>
1.4374

> <Gold.Chemscore.Rot>
1.4915

> <Gold.Chemscore.Internal.Correction>
   9.000000E+99

> <Gold.Chemscore.Hbonds>
donor molecule, donor type, donor heavy atom, donor atom, acceptor molecule, acceptor atom, score
      L1  H    10    45       P1  8029  0.07
      P1  H  6896  6909       L1    21  0.42
      P1  H  8011  8017       L1     2  0.01

> <Gold.Chemscore.Hbond.Weighted>
-5.2070

> <Gold.Chemscore.Metal.Weighted>
-0.0000

> <Gold.Chemscore.Lipo.Weighted>
-9.0102

> <Gold.Chemscore.Internal_Hbond.Weighted>
0.0000

> <Gold.Chemscore.DEClash.Weighted>
2.5176

> <Gold.Chemscore.DEInternal.Weighted>
1.4374

> <Gold.Chemscore.Rot.Weighted>
3.8183

> <Gold.Chemscore.Internal.Correction.Weighted>
   9.000000E+99

> <Gold.Protein.RotatedTorsions>
[ 6907 6896 6895 6894 ] final  169.85 input  -60.11 | X-H torsion
[ 7974 7965 7964 7962 ] final   81.29 input  175.53 | X-H torsion
[ 8008 7997 7996 7995 ] final  118.69 input   59.86 | X-H torsion
[ 10167 10162 10161 10158 ] final  146.86 input  -65.29 | X-H torsion
[ 10718 10713 10712 10709 ] final  153.38 input   66.30 | X-H torsion
[ 10763 10752 10751 10750 ] final    3.34 input  -60.55 | X-H torsion
[ 11005 11000 10999 10996 ] final   44.39 input  -57.11 | X-H torsion

> <Gold.Protein.ActiveResidues>
 VAL166  LYS551  ARG553  GLY616  TRP617  ASP618  TYR619  PRO620  LYS621  CYS622 
 ASP623  PHE694  ASN695  SER759  ASP760  ASP761  ALA762  ILE779  LEU786  VAL792 
 PHE793  MET794  SER795  GLU796  ALA797  LYS798  CYS799  TRP800  GLU811  SER814 

> <Gold.Protein.RotatedAtoms>
  151.8254  133.3400  159.3596 H   0  0  0  0  0  0  0  0  0  0  0  0  # atno 6907 bound_to 6896
  150.7281  134.5534  159.5815 H   0  0  0  0  0  0  0  0  0  0  0  0  # atno 6908 bound_to 6896
  152.2975  134.7651  160.0416 H   0  0  0  0  0  0  0  0  0  0  0  0  # atno 6909 bound_to 6896
  145.6401  139.2423  143.2035 H   0  0  0  0  0  0  0  0  0  0  0  0  # atno 7974 bound_to 7965
  156.2559  140.2869  156.0874 H   0  0  0  0  0  0  0  0  0  0  0  0  # atno 8008 bound_to 7997
  155.1500  140.0397  157.2836 H   0  0  0  0  0  0  0  0  0  0  0  0  # atno 8009 bound_to 7997
  154.6468  140.2535  155.7266 H   0  0  0  0  0  0  0  0  0  0  0  0  # atno 8010 bound_to 7997
  139.4900  144.5798  151.6894 H   0  0  0  0  0  0  0  0  0  0  0  0  # atno 10167 bound_to 10162
  157.2455  131.0768  151.1765 H   0  0  0  0  0  0  0  0  0  0  0  0  # atno 10718 bound_to 10713
  153.2846  135.6943  153.7352 H   0  0  0  0  0  0  0  0  0  0  0  0  # atno 10763 bound_to 10752
  153.6327  135.3407  155.3047 H   0  0  0  0  0  0  0  0  0  0  0  0  # atno 10764 bound_to 10752
  154.8505  135.4412  154.1909 H   0  0  0  0  0  0  0  0  0  0  0  0  # atno 10765 bound_to 10752
  140.1556  134.4405  155.8351 H   0  0  0  0  0  0  0  0  0  0  0  0  # atno 11005 bound_to 11000
  146.1287  140.7214  142.9422 LP  0  0  0  0  0  0  0  0  0  0  0  0  # atno 17320 bound_to 7965
  144.7160  140.4212  143.7044 LP  0  0  0  0  0  0  0  0  0  0  0  0  # atno 17321 bound_to 7965
  140.5402  144.0592  150.6085 LP  0  0  0  0  0  0  0  0  0  0  0  0  # atno 17342 bound_to 10162
  140.3611  143.2907  152.0382 LP  0  0  0  0  0  0  0  0  0  0  0  0  # atno 17343 bound_to 10162
  157.3334  130.6996  149.6338 LP  0  0  0  0  0  0  0  0  0  0  0  0  # atno 17370 bound_to 10713
  155.9668  130.4301  150.4861 LP  0  0  0  0  0  0  0  0  0  0  0  0  # atno 17371 bound_to 10713
  141.2204  133.6891  156.7502 LP  0  0  0  0  0  0  0  0  0  0  0  0  # atno 17394 bound_to 11000
  140.2551  134.8510  157.3705 LP  0  0  0  0  0  0  0  0  0  0  0  0  # atno 17395 bound_to 11000

$$$$
