AV-unprocessed.smi:3089|AV-procd|sdf|11772|dock5
  -GOLD-   2272017153D 1   1.00000     0.00000
 Structure written by MMmdl.
 24 24  0  0  0  0  0  0  0  0  1 V2000
  151.9479  142.3132  158.4683 C   0  0  0  0  0  0  0  0  0  0  0  0
  151.4661  141.5590  157.3312 N   0  0  0  0  0  0  0  0  0  0  0  0
  150.3319  141.7690  156.5778 C   0  0  0  0  0  0  0  0  0  0  0  0
  150.2947  140.8071  155.6058 C   0  0  0  0  0  0  0  0  0  0  0  0
  149.2575  140.6009  154.5219 C   0  0  1  0  0  0  0  0  0  0  0  0
  148.0710  141.5541  154.7492 C   0  0  0  0  0  0  0  0  0  0  0  0
  149.7531  140.9199  153.2353 O   0  0  0  0  0  0  0  0  0  0  0  0
  148.7586  139.1398  154.4679 C   0  0  0  0  0  0  0  0  0  0  0  0
  148.1109  138.7821  153.1943 N   0  0  0  0  0  0  0  0  0  0  0  0
  151.4714  140.0435  155.8633 C   0  0  0  0  0  0  0  0  0  0  0  0
  152.1691  140.4957  156.8926 N   0  0  0  0  0  0  0  0  0  0  0  0
  151.2718  143.1414  158.6812 H   0  0  0  0  0  0  0  0  0  0  0  0
  152.9395  142.7124  158.2529 H   0  0  0  0  0  0  0  0  0  0  0  0
  152.0031  141.6664  159.3444 H   0  0  0  0  0  0  0  0  0  0  0  0
  149.6499  142.5789  156.7906 H   0  0  0  0  0  0  0  0  0  0  0  0
  147.5871  141.3653  155.7082 H   0  0  0  0  0  0  0  0  0  0  0  0
  147.3118  141.4401  153.9745 H   0  0  0  0  0  0  0  0  0  0  0  0
  148.3926  142.5967  154.7448 H   0  0  0  0  0  0  0  0  0  0  0  0
  149.5421  140.2102  152.6484 H   0  0  0  0  0  0  0  0  0  0  0  0
  149.6062  138.4710  154.6214 H   0  0  0  0  0  0  0  0  0  0  0  0
  148.0768  138.9495  155.2977 H   0  0  0  0  0  0  0  0  0  0  0  0
  148.4811  139.3497  152.4334 H   0  0  0  0  0  0  0  0  0  0  0  0
  148.3014  137.8082  152.9621 H   0  0  0  0  0  0  0  0  0  0  0  0
  151.8381  139.1770  155.3327 H   0  0  0  0  0  0  0  0  0  0  0  0
  1  2  1  0  0  0  0
  1 12  1  0  0  0  0
  1 13  1  0  0  0  0
  1 14  1  0  0  0  0
  2 11  1  0  0  0  0
  2  3  1  0  0  0  0
  3  4  2  0  0  0  0
  3 15  1  0  0  0  0
  4  5  1  0  0  0  0
  4 10  1  0  0  0  0
  5  6  1  0  0  0  0
  5  7  1  0  0  0  0
  5  8  1  0  0  0  0
  6 16  1  0  0  0  0
  6 17  1  0  0  0  0
  6 18  1  0  0  0  0
  7 19  1  0  0  0  0
  8  9  1  0  0  0  0
  8 20  1  0  0  0  0
  8 21  1  0  0  0  0
  9 22  1  0  0  0  0
  9 23  1  0  0  0  0
 10 11  2  0  0  0  0
 10 24  1  0  0  0  0
M  END
> <s_m_source_file>
AV-unprocessed.smi

> <i_m_source_file_index>
3089

> <i_lp_mmshare_version>
43012

> <i_f3d_flags>
0

> <s_epik_input>
W0NIM11uMVtjSF1jKFtjSF1uMSlbQ0BAXShbQ0gzXSkoW09IXSlbQ0gyXVtOSDJd

> <s_epik_cmdline>
J2VwaWtfcHl0aG9uJywgJy1waCcsICc3LjAnLCAnLXRuJywgJzgnLCAnLW1hJywgJzIwMCcsICctbWV0YWxfYmluZGluZycsICctaW1hZScsICc8aW5maWxlLm1hZT4nLCAnLW9tYWUnLCAnPG91dGZpbGUubWFlPic=

> <r_lp_tautomer_probability>
1

> <r_epik_Ionization_Penalty>
2.22427

> <r_epik_Ionization_Penalty_Charging>
0

> <r_epik_Ionization_Penalty_Neutral>
2.22427

> <r_epik_State_Penalty>
2.36938

> <r_epik_Charging_Adjusted_Penalty>
2.36938

> <i_epik_Tot_Q>
0

> <i_epik_Tot_abs_Q>
0

> <r_epik_Metal_State_Penalty>
2.36933

> <b_epik_Metal_Only>
0

> <s_lp_Force_Field>
OPLS_2005

> <r_lp_Energy>
8.30458

> <b_lp_Chiralities_Consistent>
1

> <s_lp_Variant>
AV-unprocessed.smi:3089-3

> <Gold.Version>
5.8.1

> <Gold.Id.Protein>
6NUR|6NUR_protein|mol2

> <Gold.PLP.Fitness>
37.2005

> <Gold.PLP.PLP>
-22.3911

> <Gold.PLP.part.hbond>
-4.2523

> <Gold.PLP.part.metal>
0.0000

> <Gold.PLP.part.buried>
-0.2811

> <Gold.PLP.part.nonpolar>
-17.0516

> <Gold.PLP.part.repulsive>
0.0000

> <Gold.PLP.ligand.clash>
0.0000

> <Gold.PLP.ligand.torsion>
0.5140

> <Gold.PLP.Chemscore.Hbond>
4.2819

> <Gold.PLP.Chemscore.CHOScore>
0.9902

> <Gold.PLP.Chemscore.Metal>
0.0000

> <Gold.Chemscore.Hbonds>
donor molecule, donor type, donor heavy atom, donor atom, acceptor molecule, acceptor atom, score
      L1  H     7    19       P1  7957  0.62
      L1  H     9    22       P1  7957  1.00
      L1  H     9    23       P1  7948  1.00
      P1  H  7989  7998       L1     7  0.19
      P1  H  7997  8009       L1    11  0.45
      P1  H  8011  8017       L1     7  1.00
      L1  C     3    15       P1  8028  0.98

> <Gold.PLP.Chemscore.Internal.Correction>
0.0209

> <Gold.Rescore>
     Score         DG    S(hbond)    S(metal)    S(lipo)     H(rot)  DE(clash)    DE(int)     intcor
     18.12     -18.93       3.69        0.00      49.84       1.84       0.17       0.64       ----

> <Gold.Chemscore.Fitness>
18.1180

> <Gold.Chemscore.DG>
-18.9279

> <Gold.Chemscore.ZeroCoef>
-5.4800

> <Gold.Chemscore.Hbond>
3.6896

> <Gold.Chemscore.Metal>
0.0000

> <Gold.Chemscore.Lipo>
49.8412

> <Gold.Chemscore.Internal_Hbond>
0.0000

> <Gold.Chemscore.DEClash>
0.1739

> <Gold.Chemscore.DEInternal>
0.6360

> <Gold.Chemscore.Rot>
1.8386

> <Gold.Chemscore.Internal.Correction>
   9.000000E+99

> <Gold.Chemscore.Hbonds>
donor molecule, donor type, donor heavy atom, donor atom, acceptor molecule, acceptor atom, score
      L1  H     7    19       P1  7957  0.58
      L1  H     9    22       P1  7957  1.00
      L1  H     9    23       P1  7948  0.93
      P1  H  7989  7998       L1     7  0.05
      P1  H  7997  8009       L1    11  0.30
      P1  H  8011  8017       L1     7  0.70

> <Gold.Chemscore.Hbond.Weighted>
-12.3234

> <Gold.Chemscore.Metal.Weighted>
-0.0000

> <Gold.Chemscore.Lipo.Weighted>
-5.8314

> <Gold.Chemscore.Internal_Hbond.Weighted>
0.0000

> <Gold.Chemscore.DEClash.Weighted>
0.1739

> <Gold.Chemscore.DEInternal.Weighted>
0.6360

> <Gold.Chemscore.Rot.Weighted>
4.7069

> <Gold.Chemscore.Internal.Correction.Weighted>
   9.000000E+99

> <Gold.Protein.RotatedTorsions>
[ 6907 6896 6895 6894 ] final   51.21 input  -60.11 | X-H torsion
[ 7974 7965 7964 7962 ] final  127.92 input  175.53 | X-H torsion
[ 8008 7997 7996 7995 ] final -171.07 input   59.86 | X-H torsion
[ 10167 10162 10161 10158 ] final  160.89 input  -65.29 | X-H torsion
[ 10718 10713 10712 10709 ] final  172.60 input   66.30 | X-H torsion
[ 10763 10752 10751 10750 ] final   65.39 input  -60.55 | X-H torsion
[ 11005 11000 10999 10996 ] final -142.67 input  -57.11 | X-H torsion

> <Gold.Protein.ActiveResidues>
 VAL166  LYS551  ARG553  GLY616  TRP617  ASP618  TYR619  PRO620  LYS621  CYS622 
 ASP623  PHE694  ASN695  SER759  ASP760  ASP761  ALA762  ILE779  LEU786  VAL792 
 PHE793  MET794  SER795  GLU796  ALA797  LYS798  CYS799  TRP800  GLU811  SER814 

> <Gold.Protein.RotatedAtoms>
  152.3102  134.7507  160.0337 H   0  0  0  0  0  0  0  0  0  0  0  0  # atno 6907 bound_to 6896
  151.7990  133.3362  159.3529 H   0  0  0  0  0  0  0  0  0  0  0  0  # atno 6908 bound_to 6896
  150.7316  134.5701  159.5930 H   0  0  0  0  0  0  0  0  0  0  0  0  # atno 6909 bound_to 6896
  145.0453  139.3929  143.5081 H   0  0  0  0  0  0  0  0  0  0  0  0  # atno 7974 bound_to 7965
  155.9267  140.1084  157.1165 H   0  0  0  0  0  0  0  0  0  0  0  0  # atno 8008 bound_to 7997
  154.4063  140.1245  156.4814 H   0  0  0  0  0  0  0  0  0  0  0  0  # atno 8009 bound_to 7997
  155.7130  140.3470  155.4984 H   0  0  0  0  0  0  0  0  0  0  0  0  # atno 8010 bound_to 7997
  139.4844  144.4590  151.8730 H   0  0  0  0  0  0  0  0  0  0  0  0  # atno 10167 bound_to 10162
  156.9765  131.0106  151.2892 H   0  0  0  0  0  0  0  0  0  0  0  0  # atno 10718 bound_to 10713
  153.0095  135.5358  154.6660 H   0  0  0  0  0  0  0  0  0  0  0  0  # atno 10763 bound_to 10752
  154.5857  135.2854  155.0690 H   0  0  0  0  0  0  0  0  0  0  0  0  # atno 10764 bound_to 10752
  154.1802  135.6517  153.5084 H   0  0  0  0  0  0  0  0  0  0  0  0  # atno 10765 bound_to 10752
  140.8202  134.2640  157.4903 H   0  0  0  0  0  0  0  0  0  0  0  0  # atno 11005 bound_to 11000
  146.3513  140.0074  142.8670 LP  0  0  0  0  0  0  0  0  0  0  0  0  # atno 17320 bound_to 7965
  145.1596  140.9666  143.4385 LP  0  0  0  0  0  0  0  0  0  0  0  0  # atno 17321 bound_to 7965
  140.4051  144.2442  150.5891 LP  0  0  0  0  0  0  0  0  0  0  0  0  # atno 17342 bound_to 10162
  140.5020  143.2315  151.8664 LP  0  0  0  0  0  0  0  0  0  0  0  0  # atno 17343 bound_to 10162
  157.5556  130.8211  149.8200 LP  0  0  0  0  0  0  0  0  0  0  0  0  # atno 17370 bound_to 10713
  156.0261  130.3779  150.1818 LP  0  0  0  0  0  0  0  0  0  0  0  0  # atno 17371 bound_to 10713
  139.8709  134.9531  156.4135 LP  0  0  0  0  0  0  0  0  0  0  0  0  # atno 17394 bound_to 11000
  140.9107  133.7714  155.9788 LP  0  0  0  0  0  0  0  0  0  0  0  0  # atno 17395 bound_to 11000

$$$$
