AV-unprocessed.smi:3097|AV-procd|sdf|11798|dock7
  -GOLD-   2272017173D 1   1.00000     0.00000
 Structure written by MMmdl.
 35 35  0  0  0  0  0  0  0  0  2 V2000
  148.2019  139.1572  153.7631 C   0  0  0  0  0  0  0  0  0  0  0  0
  146.8676  139.5486  153.1151 C   0  0  0  0  0  0  0  0  0  0  0  0
  146.6728  138.9414  151.7178 C   0  0  0  0  0  0  0  0  0  0  0  0
  146.3931  137.4992  151.7833 N   0  0  0  0  0  0  0  0  0  0  0  0
  145.2603  136.9269  152.2372 C   0  0  0  0  0  0  0  0  0  0  0  0
  145.1520  135.5841  152.2660 N   0  3  0  0  0  0  0  0  0  0  0  0
  146.1842  134.6338  151.8346 C   0  0  0  0  0  0  0  0  0  0  0  0
  144.2376  137.6934  152.6636 N   0  0  0  0  0  0  0  0  0  0  0  0
  142.9577  137.2005  153.1887 C   0  0  0  0  0  0  0  0  0  0  0  0
  141.8407  138.2325  152.9856 C   0  0  0  0  0  0  0  0  0  0  0  0
  140.5792  137.7672  153.5275 N   0  0  0  0  0  0  0  0  0  0  0  0
  139.3047  138.2082  153.2387 C   0  0  0  0  0  0  0  0  0  0  0  0
  138.4391  137.4711  153.9949 C   0  0  0  0  0  0  0  0  0  0  0  0
  139.2898  136.5948  154.7254 C   0  0  0  0  0  0  0  0  0  0  0  0
  140.5703  136.7738  154.4426 N   0  0  0  0  0  0  0  0  0  0  0  0
  148.3084  139.6249  154.7421 H   0  0  0  0  0  0  0  0  0  0  0  0
  149.0458  139.4748  153.1497 H   0  0  0  0  0  0  0  0  0  0  0  0
  148.2752  138.0784  153.9026 H   0  0  0  0  0  0  0  0  0  0  0  0
  146.0466  139.2495  153.7676 H   0  0  0  0  0  0  0  0  0  0  0  0
  146.8125  140.6351  153.0407 H   0  0  0  0  0  0  0  0  0  0  0  0
  145.8520  139.4394  151.2010 H   0  0  0  0  0  0  0  0  0  0  0  0
  147.5644  139.1020  151.1112 H   0  0  0  0  0  0  0  0  0  0  0  0
  147.1475  136.8896  151.5010 H   0  0  0  0  0  0  0  0  0  0  0  0
  145.8378  133.6107  151.9798 H   0  0  0  0  0  0  0  0  0  0  0  0
  147.0977  134.7745  152.4124 H   0  0  0  0  0  0  0  0  0  0  0  0
  146.4133  134.7740  150.7781 H   0  0  0  0  0  0  0  0  0  0  0  0
  144.3550  138.6962  152.6397 H   0  0  0  0  0  0  0  0  0  0  0  0
  142.7020  136.2682  152.6840 H   0  0  0  0  0  0  0  0  0  0  0  0
  143.0772  136.9735  154.2487 H   0  0  0  0  0  0  0  0  0  0  0  0
  142.0986  139.1774  153.4665 H   0  0  0  0  0  0  0  0  0  0  0  0
  141.7061  138.4429  151.9236 H   0  0  0  0  0  0  0  0  0  0  0  0
  139.1208  139.0001  152.5272 H   0  0  0  0  0  0  0  0  0  0  0  0
  137.3621  137.5468  154.0231 H   0  0  0  0  0  0  0  0  0  0  0  0
  139.0169  135.8385  155.4467 H   0  0  0  0  0  0  0  0  0  0  0  0
  144.2925  135.1836  152.6143 H   0  0  0  0  0  0  0  0  0  0  0  0
  1  2  1  0  0  0  0
  1 16  1  0  0  0  0
  1 17  1  0  0  0  0
  1 18  1  0  0  0  0
  2  3  1  0  0  0  0
  2 19  1  0  0  0  0
  2 20  1  0  0  0  0
  3  4  1  0  0  0  0
  3 21  1  0  0  0  0
  3 22  1  0  0  0  0
  4  5  1  0  0  0  0
  4 23  1  0  0  0  0
  5  6  2  0  0  0  0
  5  8  1  0  0  0  0
  6  7  1  0  0  0  0
  6 35  1  0  0  0  0
  7 24  1  0  0  0  0
  7 25  1  0  0  0  0
  7 26  1  0  0  0  0
  8  9  1  0  0  0  0
  8 27  1  0  0  0  0
  9 10  1  0  0  0  0
  9 28  1  0  0  0  0
  9 29  1  0  0  0  0
 10 11  1  0  0  0  0
 10 30  1  0  0  0  0
 10 31  1  0  0  0  0
 11 15  1  0  0  0  0
 11 12  1  0  0  0  0
 12 13  2  0  0  0  0
 12 32  1  0  0  0  0
 13 14  1  0  0  0  0
 13 33  1  0  0  0  0
 14 15  2  0  0  0  0
 14 34  1  0  0  0  0
M  CHG  1   6   1
M  END
> <s_m_source_file>
AV-unprocessed.smi

> <i_m_source_file_index>
3097

> <i_lp_mmshare_version>
43012

> <i_f3d_flags>
0

> <s_epik_input>
W0NIM11bQ0gyXVtDSDJdW05IXS9DKD1OXFtDSDNdKVtOSF1bQ0gyXVtDSDJdbjFbY0hdW2NIXVtjSF1uMQ==

> <s_epik_cmdline>
J2VwaWtfcHl0aG9uJywgJy1waCcsICc3LjAnLCAnLXRuJywgJzgnLCAnLW1hJywgJzIwMCcsICctbWV0YWxfYmluZGluZycsICctaW1hZScsICc8aW5maWxlLm1hZT4nLCAnLW9tYWUnLCAnPG91dGZpbGUubWFlPic=

> <r_lp_tautomer_probability>
1

> <r_epik_Ionization_Penalty>
4.40305e-05

> <r_epik_Ionization_Penalty_Charging>
1.64417e-07

> <r_epik_Ionization_Penalty_Neutral>
4.38661e-05

> <r_epik_State_Penalty>
-0

> <r_epik_Charging_Adjusted_Penalty>
1.64417e-07

> <i_epik_Tot_Q>
1

> <i_epik_Tot_abs_Q>
1

> <r_epik_Metal_State_Penalty>
-0

> <b_epik_Metal_Only>
0

> <s_epik_Chemistry_Notes>
This compound has an imine and may undergo hydrolysis.

> <s_lp_Force_Field>
OPLS_2005

> <r_lp_Energy>
7.72145

> <b_lp_Chiralities_Consistent>
1

> <s_lp_Variant>
AV-unprocessed.smi:3097-1

> <Gold.Version>
5.8.1

> <Gold.Id.Protein>
6NUR|6NUR_protein|mol2

> <Gold.PLP.Fitness>
46.0080

> <Gold.PLP.PLP>
-29.3052

> <Gold.PLP.part.hbond>
-3.0000

> <Gold.PLP.part.metal>
0.0000

> <Gold.PLP.part.buried>
-0.1677

> <Gold.PLP.part.nonpolar>
-26.6533

> <Gold.PLP.part.repulsive>
0.1367

> <Gold.PLP.ligand.clash>
0.0000

> <Gold.PLP.ligand.torsion>
0.5396

> <Gold.PLP.Chemscore.Hbond>
4.0000

> <Gold.PLP.Chemscore.CHOScore>
1.9204

> <Gold.PLP.Chemscore.Metal>
0.0000

> <Gold.Chemscore.Hbonds>
donor molecule, donor type, donor heavy atom, donor atom, acceptor molecule, acceptor atom, score
      L1  H     4    23       P1  7948  1.95
      L1  H     8    27       P1 10175  2.00
      L1  C    12    32       P1 10160  0.80
      L1  C    14    34       P1 11000  1.00

> <Gold.PLP.Chemscore.Internal.Correction>
0.0208

> <Gold.Rescore>
     Score         DG    S(hbond)    S(metal)    S(lipo)     H(rot)  DE(clash)    DE(int)     intcor
     13.46     -14.63       1.95        0.00      63.15       1.86       0.49       0.68       ----

> <Gold.Chemscore.Fitness>
13.4585

> <Gold.Chemscore.DG>
-14.6299

> <Gold.Chemscore.ZeroCoef>
-5.4800

> <Gold.Chemscore.Hbond>
1.9502

> <Gold.Chemscore.Metal>
0.0000

> <Gold.Chemscore.Lipo>
63.1463

> <Gold.Chemscore.Internal_Hbond>
0.0000

> <Gold.Chemscore.DEClash>
0.4935

> <Gold.Chemscore.DEInternal>
0.6779

> <Gold.Chemscore.Rot>
1.8561

> <Gold.Chemscore.Internal.Correction>
   9.000000E+99

> <Gold.Chemscore.Hbonds>
donor molecule, donor type, donor heavy atom, donor atom, acceptor molecule, acceptor atom, score
      L1  H     4    23       P1  7948  0.93
      L1  H     8    27       P1 10175  0.95

> <Gold.Chemscore.Hbond.Weighted>
-6.5135

> <Gold.Chemscore.Metal.Weighted>
-0.0000

> <Gold.Chemscore.Lipo.Weighted>
-7.3881

> <Gold.Chemscore.Internal_Hbond.Weighted>
0.0000

> <Gold.Chemscore.DEClash.Weighted>
0.4935

> <Gold.Chemscore.DEInternal.Weighted>
0.6779

> <Gold.Chemscore.Rot.Weighted>
4.7517

> <Gold.Chemscore.Internal.Correction.Weighted>
   9.000000E+99

> <Gold.Protein.RotatedTorsions>
[ 6907 6896 6895 6894 ] final  149.26 input  -60.11 | X-H torsion
[ 7974 7965 7964 7962 ] final   21.00 input  175.53 | X-H torsion
[ 8008 7997 7996 7995 ] final -164.78 input   59.86 | X-H torsion
[ 10167 10162 10161 10158 ] final  -48.73 input  -65.29 | X-H torsion
[ 10718 10713 10712 10709 ] final  -89.84 input   66.30 | X-H torsion
[ 10763 10752 10751 10750 ] final  132.72 input  -60.55 | X-H torsion
[ 11005 11000 10999 10996 ] final -105.58 input  -57.11 | X-H torsion

> <Gold.Protein.ActiveResidues>
 VAL166  LYS551  ARG553  GLY616  TRP617  ASP618  TYR619  PRO620  LYS621  CYS622 
 ASP623  PHE694  ASN695  SER759  ASP760  ASP761  ALA762  ILE779  LEU786  VAL792 
 PHE793  MET794  SER795  GLU796  ALA797  LYS798  CYS799  TRP800  GLU811  SER814 

> <Gold.Protein.RotatedAtoms>
  152.1304  133.4404  159.4717 H   0  0  0  0  0  0  0  0  0  0  0  0  # atno 6907 bound_to 6896
  150.6878  134.2427  159.4488 H   0  0  0  0  0  0  0  0  0  0  0  0  # atno 6908 bound_to 6896
  152.0311  134.9767  160.0623 H   0  0  0  0  0  0  0  0  0  0  0  0  # atno 6909 bound_to 6896
  146.2089  139.8089  142.8704 H   0  0  0  0  0  0  0  0  0  0  0  0  # atno 7974 bound_to 7965
  155.8405  140.0947  157.1737 H   0  0  0  0  0  0  0  0  0  0  0  0  # atno 8008 bound_to 7997
  154.3982  140.1402  156.3784 H   0  0  0  0  0  0  0  0  0  0  0  0  # atno 8009 bound_to 7997
  155.8069  140.3451  155.5437 H   0  0  0  0  0  0  0  0  0  0  0  0  # atno 8010 bound_to 7997
  140.6718  143.2727  151.4113 H   0  0  0  0  0  0  0  0  0  0  0  0  # atno 10167 bound_to 10162
  155.9985  130.4887  150.5232 H   0  0  0  0  0  0  0  0  0  0  0  0  # atno 10718 bound_to 10713
  153.7954  135.3149  155.3383 H   0  0  0  0  0  0  0  0  0  0  0  0  # atno 10763 bound_to 10752
  154.8110  135.4667  154.0519 H   0  0  0  0  0  0  0  0  0  0  0  0  # atno 10764 bound_to 10752
  153.1850  135.6899  153.8515 H   0  0  0  0  0  0  0  0  0  0  0  0  # atno 10765 bound_to 10752
  141.1046  133.8820  157.1751 H   0  0  0  0  0  0  0  0  0  0  0  0  # atno 11005 bound_to 11000
  145.3217  141.0245  143.3497 LP  0  0  0  0  0  0  0  0  0  0  0  0  # atno 17320 bound_to 7965
  144.8862  139.4836  143.6699 LP  0  0  0  0  0  0  0  0  0  0  0  0  # atno 17321 bound_to 7965
  139.5990  144.1337  152.2176 LP  0  0  0  0  0  0  0  0  0  0  0  0  # atno 17342 bound_to 10162
  140.0715  144.5775  150.7188 LP  0  0  0  0  0  0  0  0  0  0  0  0  # atno 17343 bound_to 10162
  157.3191  131.0678  151.1945 LP  0  0  0  0  0  0  0  0  0  0  0  0  # atno 17370 bound_to 10713
  157.2865  130.6775  149.6092 LP  0  0  0  0  0  0  0  0  0  0  0  0  # atno 17371 bound_to 10713
  139.9911  135.0064  156.9978 LP  0  0  0  0  0  0  0  0  0  0  0  0  # atno 17394 bound_to 11000
  140.4934  134.1170  155.7237 LP  0  0  0  0  0  0  0  0  0  0  0  0  # atno 17395 bound_to 11000

$$$$
