AV-unprocessed.smi:3321|AV-procd|sdf|12771|dock8
  -GOLD-   2272019113D 1   1.00000     0.00000
 Structure written by MMmdl.
 40 41  0  0  0  0  0  0  0  0  1 V2000
  151.1287  140.3250  155.6253 C   0  0  0  0  0  0  0  0  0  0  0  0
  150.1436  141.5044  155.6344 C   0  0  2  0  0  0  0  0  0  0  0  0
  150.7433  142.6405  156.3596 N   0  0  0  0  0  0  0  0  0  0  0  0
  151.2183  142.2962  157.6957 C   0  0  0  0  0  0  0  0  0  0  0  0
  151.9552  143.4989  158.3006 C   0  0  0  0  0  0  0  0  0  0  0  0
  152.3458  143.2455  159.6737 N   0  0  0  0  0  0  0  0  0  0  0  0
  152.0270  143.9698  160.8029 C   0  0  0  0  0  0  0  0  0  0  0  0
  152.6287  143.3543  161.8631 C   0  0  0  0  0  0  0  0  0  0  0  0
  153.3030  142.2483  161.2735 C   0  0  0  0  0  0  0  0  0  0  0  0
  153.1325  142.1863  159.9627 N   0  0  0  0  0  0  0  0  0  0  0  0
  148.7831  141.0514  156.2159 C   0  0  0  0  0  0  0  0  0  0  0  0
  148.7507  140.6865  157.3932 O   0  0  0  0  0  0  0  0  0  0  0  0
  147.6686  141.0677  155.4416 N   0  0  0  0  0  0  0  0  0  0  0  0
  146.3269  140.8286  155.9902 C   0  0  0  0  0  0  0  0  0  0  0  0
  145.5643  142.1674  156.0071 C   0  0  0  0  0  0  0  0  0  0  0  0
  145.5232  142.8026  154.6023 C   0  0  0  0  0  0  0  0  0  0  0  0
  146.9185  142.8435  153.9473 C   0  0  0  0  0  0  0  0  0  0  0  0
  147.5938  141.4630  154.0289 C   0  0  0  0  0  0  0  0  0  0  0  0
  150.7349  139.4786  155.0615 H   0  0  0  0  0  0  0  0  0  0  0  0
  151.3453  139.9774  156.6365 H   0  0  0  0  0  0  0  0  0  0  0  0
  152.0748  140.6099  155.1641 H   0  0  0  0  0  0  0  0  0  0  0  0
  150.0105  141.8453  154.6091 H   0  0  0  0  0  0  0  0  0  0  0  0
  151.4864  143.0701  155.8270 H   0  0  0  0  0  0  0  0  0  0  0  0
  150.3723  142.0203  158.3271 H   0  0  0  0  0  0  0  0  0  0  0  0
  151.8919  141.4397  157.6610 H   0  0  0  0  0  0  0  0  0  0  0  0
  152.8528  143.7263  157.7234 H   0  0  0  0  0  0  0  0  0  0  0  0
  151.3264  144.3905  158.2742 H   0  0  0  0  0  0  0  0  0  0  0  0
  151.4071  144.8533  160.7583 H   0  0  0  0  0  0  0  0  0  0  0  0
  152.5939  143.6497  162.9012 H   0  0  0  0  0  0  0  0  0  0  0  0
  153.9079  141.4942  161.7557 H   0  0  0  0  0  0  0  0  0  0  0  0
  145.8008  140.1021  155.3693 H   0  0  0  0  0  0  0  0  0  0  0  0
  146.3448  140.4000  156.9929 H   0  0  0  0  0  0  0  0  0  0  0  0
  144.5506  142.0185  156.3799 H   0  0  0  0  0  0  0  0  0  0  0  0
  146.0521  142.8524  156.7023 H   0  0  0  0  0  0  0  0  0  0  0  0
  144.8528  142.2189  153.9703 H   0  0  0  0  0  0  0  0  0  0  0  0
  145.1006  143.8063  154.6538 H   0  0  0  0  0  0  0  0  0  0  0  0
  146.8337  143.1615  152.9078 H   0  0  0  0  0  0  0  0  0  0  0  0
  147.5407  143.5853  154.4502 H   0  0  0  0  0  0  0  0  0  0  0  0
  148.5539  141.4672  153.5170 H   0  0  0  0  0  0  0  0  0  0  0  0
  146.9963  140.7305  153.4841 H   0  0  0  0  0  0  0  0  0  0  0  0
  1  2  1  0  0  0  0
  1 19  1  0  0  0  0
  1 20  1  0  0  0  0
  1 21  1  0  0  0  0
  2  3  1  0  0  0  0
  2 11  1  0  0  0  0
  2 22  1  0  0  0  0
  3  4  1  0  0  0  0
  3 23  1  0  0  0  0
  4  5  1  0  0  0  0
  4 24  1  0  0  0  0
  4 25  1  0  0  0  0
  5  6  1  0  0  0  0
  5 26  1  0  0  0  0
  5 27  1  0  0  0  0
  6 10  1  0  0  0  0
  6  7  1  0  0  0  0
  7  8  2  0  0  0  0
  7 28  1  0  0  0  0
  8  9  1  0  0  0  0
  8 29  1  0  0  0  0
  9 10  2  0  0  0  0
  9 30  1  0  0  0  0
 11 12  2  0  0  0  0
 11 13  1  0  0  0  0
 13 18  1  0  0  0  0
 13 14  1  0  0  0  0
 14 15  1  0  0  0  0
 14 31  1  0  0  0  0
 14 32  1  0  0  0  0
 15 16  1  0  0  0  0
 15 33  1  0  0  0  0
 15 34  1  0  0  0  0
 16 17  1  0  0  0  0
 16 35  1  0  0  0  0
 16 36  1  0  0  0  0
 17 18  1  0  0  0  0
 17 37  1  0  0  0  0
 17 38  1  0  0  0  0
 18 39  1  0  0  0  0
 18 40  1  0  0  0  0
M  END
> <s_m_source_file>
AV-unprocessed.smi

> <i_m_source_file_index>
3321

> <i_lp_mmshare_version>
43012

> <i_f3d_flags>
0

> <s_epik_input>
W0NIMl0xW0NIMl1bQ0gyXVtDSDJdW0NIMl1OMUMoPU8pW0NASF0oW0NIM10pW05IXVtDSDJdW0NIMl1uMltjSF1bY0hdW2NIXW4y

> <s_epik_cmdline>
J2VwaWtfcHl0aG9uJywgJy1waCcsICc3LjAnLCAnLXRuJywgJzgnLCAnLW1hJywgJzIwMCcsICctbWV0YWxfYmluZGluZycsICctaW1hZScsICc8aW5maWxlLm1hZT4nLCAnLW9tYWUnLCAnPG91dGZpbGUubWFlPic=

> <r_lp_tautomer_probability>
1

> <r_epik_Ionization_Penalty>
0.736446

> <r_epik_Ionization_Penalty_Charging>
0

> <r_epik_Ionization_Penalty_Neutral>
0.736446

> <r_epik_State_Penalty>
0.761204

> <r_epik_Charging_Adjusted_Penalty>
0.761204

> <i_epik_Tot_Q>
0

> <i_epik_Tot_abs_Q>
0

> <r_epik_Metal_State_Penalty>
0.760551

> <b_epik_Metal_Only>
0

> <s_lp_Force_Field>
OPLS_2005

> <r_lp_Energy>
27.234

> <b_lp_Chiralities_Consistent>
1

> <s_lp_Variant>
AV-unprocessed.smi:3321-3

> <Gold.Version>
5.8.1

> <Gold.Id.Protein>
6NUR|6NUR_protein|mol2

> <Gold.PLP.Fitness>
41.0500

> <Gold.PLP.PLP>
-41.1447

> <Gold.PLP.part.hbond>
-1.0000

> <Gold.PLP.part.metal>
0.0000

> <Gold.PLP.part.buried>
-4.9271

> <Gold.PLP.part.nonpolar>
-35.1699

> <Gold.PLP.part.repulsive>
0.0273

> <Gold.PLP.ligand.clash>
0.0000

> <Gold.PLP.ligand.torsion>
0.0919

> <Gold.PLP.Chemscore.Hbond>
0.0000

> <Gold.PLP.Chemscore.CHOScore>
0.0000

> <Gold.PLP.Chemscore.Metal>
0.0000

> <Gold.PLP.Chemscore.Internal.Correction>
0.0890

> <Gold.Rescore>
     Score         DG    S(hbond)    S(metal)    S(lipo)     H(rot)  DE(clash)    DE(int)     intcor
     11.59     -11.81       0.00        0.00      91.91       1.73       0.04       0.18       ----

> <Gold.Chemscore.Fitness>
11.5870

> <Gold.Chemscore.DG>
-11.8108

> <Gold.Chemscore.ZeroCoef>
-5.4800

> <Gold.Chemscore.Hbond>
0.0000

> <Gold.Chemscore.Metal>
0.0000

> <Gold.Chemscore.Lipo>
91.9111

> <Gold.Chemscore.Internal_Hbond>
0.0000

> <Gold.Chemscore.DEClash>
0.0409

> <Gold.Chemscore.DEInternal>
0.1830

> <Gold.Chemscore.Rot>
1.7277

> <Gold.Chemscore.Internal.Correction>
   9.000000E+99

> <Gold.Chemscore.Hbond.Weighted>
-0.0000

> <Gold.Chemscore.Metal.Weighted>
-0.0000

> <Gold.Chemscore.Lipo.Weighted>
-10.7536

> <Gold.Chemscore.Internal_Hbond.Weighted>
0.0000

> <Gold.Chemscore.DEClash.Weighted>
0.0409

> <Gold.Chemscore.DEInternal.Weighted>
0.1830

> <Gold.Chemscore.Rot.Weighted>
4.4228

> <Gold.Chemscore.Internal.Correction.Weighted>
   9.000000E+99

> <Gold.Protein.RotatedTorsions>
[ 6907 6896 6895 6894 ] final  108.87 input  -60.11 | X-H torsion
[ 7974 7965 7964 7962 ] final  115.32 input  175.53 | X-H torsion
[ 8008 7997 7996 7995 ] final  122.87 input   59.86 | X-H torsion
[ 10167 10162 10161 10158 ] final  -76.21 input  -65.29 | X-H torsion
[ 10718 10713 10712 10709 ] final  -56.53 input   66.30 | X-H torsion
[ 10763 10752 10751 10750 ] final  -89.38 input  -60.55 | X-H torsion
[ 11005 11000 10999 10996 ] final  -28.21 input  -57.11 | X-H torsion

> <Gold.Protein.ActiveResidues>
 VAL166  LYS551  ARG553  GLY616  TRP617  ASP618  TYR619  PRO620  LYS621  CYS622 
 ASP623  PHE694  ASN695  SER759  ASP760  ASP761  ALA762  ILE779  LEU786  VAL792 
 PHE793  MET794  SER795  GLU796  ALA797  LYS798  CYS799  TRP800  GLU811  SER814 

> <Gold.Protein.RotatedAtoms>
  152.5093  133.9026  159.7448 H   0  0  0  0  0  0  0  0  0  0  0  0  # atno 6907 bound_to 6896
  150.9438  133.6617  159.2792 H   0  0  0  0  0  0  0  0  0  0  0  0  # atno 6908 bound_to 6896
  151.3919  135.0962  159.9581 H   0  0  0  0  0  0  0  0  0  0  0  0  # atno 6909 bound_to 6896
  145.1935  139.2988  143.4356 H   0  0  0  0  0  0  0  0  0  0  0  0  # atno 7974 bound_to 7965
  156.2744  140.2776  156.1537 H   0  0  0  0  0  0  0  0  0  0  0  0  # atno 8008 bound_to 7997
  155.0826  140.0388  157.2661 H   0  0  0  0  0  0  0  0  0  0  0  0  # atno 8009 bound_to 7997
  154.6952  140.2637  155.6779 H   0  0  0  0  0  0  0  0  0  0  0  0  # atno 8010 bound_to 7997
  140.4876  143.2387  151.7958 H   0  0  0  0  0  0  0  0  0  0  0  0  # atno 10167 bound_to 10162
  156.1281  130.4161  150.0318 H   0  0  0  0  0  0  0  0  0  0  0  0  # atno 10718 bound_to 10713
  154.6546  135.5343  153.7944 H   0  0  0  0  0  0  0  0  0  0  0  0  # atno 10763 bound_to 10752
  153.0406  135.6491  154.0964 H   0  0  0  0  0  0  0  0  0  0  0  0  # atno 10764 bound_to 10752
  154.0878  135.2942  155.3257 H   0  0  0  0  0  0  0  0  0  0  0  0  # atno 10765 bound_to 10752
  140.9188  133.7412  156.0772 H   0  0  0  0  0  0  0  0  0  0  0  0  # atno 11005 bound_to 11000
  146.3431  140.2155  142.8590 LP  0  0  0  0  0  0  0  0  0  0  0  0  # atno 17320 bound_to 7965
  145.0018  140.8638  143.5277 LP  0  0  0  0  0  0  0  0  0  0  0  0  # atno 17321 bound_to 7965
  139.4845  144.4691  151.9447 LP  0  0  0  0  0  0  0  0  0  0  0  0  # atno 17342 bound_to 10162
  140.3777  144.2776  150.5912 LP  0  0  0  0  0  0  0  0  0  0  0  0  # atno 17343 bound_to 10162
  156.8238  130.9368  151.3640 LP  0  0  0  0  0  0  0  0  0  0  0  0  # atno 17370 bound_to 10713
  157.6461  130.8845  149.9541 LP  0  0  0  0  0  0  0  0  0  0  0  0  # atno 17371 bound_to 10713
  140.8015  134.3503  157.5438 LP  0  0  0  0  0  0  0  0  0  0  0  0  # atno 17394 bound_to 11000
  139.8771  134.9200  156.3242 LP  0  0  0  0  0  0  0  0  0  0  0  0  # atno 17395 bound_to 11000

$$$$
