#       Name:                AV-unprocessed.smi:604
#       Creating user name   scv26
#       Creation time:       Thu Mar 26 23:55:47 2020


#       File generated by GOLD software.
#

@<TRIPOS>MOLECULE
AV-unprocessed.smi:604
    52    54     1
SMALL
NO_CHARGES


@<TRIPOS>ATOM
      1 ****        -1.0262   3.7450   0.5716 O.2            1 S1                 0.0000
      2 ****        -1.2647   3.0154  -0.3903 C.2            1 S1                 0.0000
      3 ****        -2.4246   2.9752  -1.0682 N.am           1 S1                 0.0000
      4 ****        -3.6009   3.7430  -0.8512 C.ar           1 S1                 0.0000
      5 ****        -3.6244   4.9975  -0.1945 C.ar           1 S1                 0.0000
      6 ****        -4.8544   5.6693  -0.0563 C.ar           1 S1                 0.0000
      7 ****        -6.0131   5.0678  -0.5843 C.ar           1 S1                 0.0000
      8 ****        -6.0034   3.8799  -1.2249 N.ar           1 S1                 0.0000
      9 ****        -4.8204   3.2424  -1.3552 C.ar           1 S1                 0.0000
     10 ****        -0.3849   2.1293  -0.8794 N.am           1 S1                 0.0000
     11 ****         0.9641   1.9040  -0.3598 C.3            1 S1                 0.0000
     12 ****         1.8349   1.1908  -1.4091 C.3            1 S1                 0.0000
     13 ****         1.4309  -0.2842  -1.5960 C.3            1 S1                 0.0000
     14 ****         1.4471  -1.0180  -0.3037 N.4            1 S1                 1.0000
     15 ****         1.2008  -2.4751  -0.4632 C.3            1 S1                 0.0000
     16 ****         2.1793  -3.3238   0.3723 C.3            1 S1                 0.0000
     17 ****         2.0943  -4.8202   0.0587 C.3            1 S1                 0.0000
     18 ****         2.7442  -5.5197   1.2569 C.3            1 S1                 0.0000
     19 ****         2.6388  -4.5390   2.4335 C.3            1 S1                 0.0000
     20 ****         1.9497  -3.2844   1.8868 C.3            1 S1                 0.0000
     21 ****         0.5468  -0.3815   0.6931 C.3            1 S1                 0.0000
     22 ****         0.9481   1.0819   0.9445 C.3            1 S1                 0.0000
     23 ****        -2.4979   2.2679  -1.7847 H              1 S1                 0.0000
     24 ****        -2.7302   5.4619   0.1905 H              1 S1                 0.0000
     25 ****        -4.9075   6.6272   0.4399 H              1 S1                 0.0000
     26 ****        -6.9720   5.5567  -0.4952 H              1 S1                 0.0000
     27 ****        -4.8506   2.2960  -1.8755 H              1 S1                 0.0000
     28 ****        -0.6668   1.5743  -1.6743 H              1 S1                 0.0000
     29 ****         1.4104   2.8793  -0.1563 H              1 S1                 0.0000
     30 ****         1.7860   1.7175  -2.3632 H              1 S1                 0.0000
     31 ****         2.8784   1.2343  -1.0943 H              1 S1                 0.0000
     32 ****         0.4382  -0.3540  -2.0436 H              1 S1                 0.0000
     33 ****         2.1263  -0.7547  -2.2925 H              1 S1                 0.0000
     34 ****         0.1637  -2.7216  -0.2298 H              1 S1                 0.0000
     35 ****         1.3386  -2.7538  -1.5092 H              1 S1                 0.0000
     36 ****         3.2006  -2.9979   0.1668 H              1 S1                 0.0000
     37 ****         1.0492  -5.1253  -0.0136 H              1 S1                 0.0000
     38 ****         2.5778  -5.0788  -0.8840 H              1 S1                 0.0000
     39 ****         2.2596  -6.4723   1.4732 H              1 S1                 0.0000
     40 ****         3.7935  -5.7289   1.0459 H              1 S1                 0.0000
     41 ****         2.0823  -4.9635   3.2695 H              1 S1                 0.0000
     42 ****         3.6365  -4.2926   2.7985 H              1 S1                 0.0000
     43 ****         2.3361  -2.3740   2.3460 H              1 S1                 0.0000
     44 ****         0.8814  -3.3386   2.1023 H              1 S1                 0.0000
     45 ****        -0.4847  -0.4342   0.3415 H              1 S1                 0.0000
     46 ****         0.5801  -0.9258   1.6356 H              1 S1                 0.0000
     47 ****         1.9417   1.1051   1.3941 H              1 S1                 0.0000
     48 ****         0.2784   1.5327   1.6778 H              1 S1                 0.0000
     49 ****         2.3884  -0.9307   0.0526 H              1 S1                 0.0000
     50 ****        -1.7268   4.3744   0.9076 LP             1 S1                 0.0000
     51 ****        -0.1317   3.7084   1.0173 LP             1 S1                 0.0000
     52 ****        -6.8456   3.4845  -1.5914 LP             1 S1                 0.0000
@<TRIPOS>BOND
    1    1    2 2     
    2    2    3 am    
    3    2   10 am    
    4    3    4 1     
    5    3   23 1     
    6    4    9 ar    
    7    4    5 ar    
    8    5    6 ar    
    9    5   24 1     
   10    6    7 ar    
   11    6   25 1     
   12    7    8 ar    
   13    7   26 1     
   14    8    9 ar    
   15    9   27 1     
   16   10   11 1     
   17   10   28 1     
   18   11   22 1     
   19   11   12 1     
   20   11   29 1     
   21   12   13 1     
   22   12   30 1     
   23   12   31 1     
   24   13   14 1     
   25   13   32 1     
   26   13   33 1     
   27   14   15 1     
   28   14   21 1     
   29   14   49 1     
   30   15   16 1     
   31   15   34 1     
   32   15   35 1     
   33   16   20 1     
   34   16   17 1     
   35   16   36 1     
   36   17   18 1     
   37   17   37 1     
   38   17   38 1     
   39   18   19 1     
   40   18   39 1     
   41   18   40 1     
   42   19   20 1     
   43   19   41 1     
   44   19   42 1     
   45   20   43 1     
   46   20   44 1     
   47   21   22 1     
   48   21   45 1     
   49   21   46 1     
   50   22   47 1     
   51   22   48 1     
   52    1   50 1     
   53    1   51 1     
   54    8   52 1     
@<TRIPOS>SUBSTRUCTURE
      1 S1             1
@<TRIPOS>SET
LONE_PAIRS      STATIC     ATOMS    <user>   **** ""
3 50 51 52
DONOR_HYDROGENS      STATIC     ATOMS    <user>   **** ""
3 23 28 49
ATOM$BLUE        STATIC     ATOMS    COLORGROUP SYSTEM
3 50 51 52
ATOM$RED        STATIC     ATOMS    COLORGROUP SYSTEM
3 23 28 49
