AV-unprocessed.smi:104|AV-procd|sdf|1002|dock3
  -GOLD-   2262017593D 1   1.00000     0.00000
 Structure written by MMmdl.
 47 49  0  0  0  0  0  0  0  0  1 V2000
  149.0352  141.1587  154.2049 C   0  0  0  0  0  0  0  0  0  0  0  0
  149.5193  139.7749  154.6163 C   0  0  0  0  0  0  0  0  0  0  0  0
  150.7063  139.4577  154.5386 O   0  0  0  0  0  0  0  0  0  0  0  0
  148.5213  138.9951  155.0526 O   0  0  0  0  0  0  0  0  0  0  0  0
  148.8084  137.7055  155.5688 C   0  0  0  0  0  0  0  0  0  0  0  0
  147.5254  136.8670  155.6526 C   0  0  1  0  0  0  0  0  0  0  0  0
  147.1340  136.4062  154.3701 O   0  0  0  0  0  0  0  0  0  0  0  0
  146.2857  135.3120  154.5235 C   0  0  1  0  0  0  0  0  0  0  0  0
  146.6134  134.3288  153.4402 N   0  0  0  0  0  0  0  0  0  0  0  0
  147.7700  133.6104  153.2385 C   0  0  0  0  0  0  0  0  0  0  0  0
  149.2820  133.7659  154.3860 Br  0  0  0  0  0  0  0  0  0  0  0  0
  147.8051  132.8154  152.2057 N   0  0  0  0  0  0  0  0  0  0  0  0
  146.5542  133.0043  151.6315 C   0  0  0  0  0  0  0  0  0  0  0  0
  145.9052  132.4757  150.4872 C   0  0  0  0  0  0  0  0  0  0  0  0
  146.4777  131.5810  149.6699 N   0  0  0  0  0  0  0  0  0  0  0  0
  144.6500  132.8953  150.2030 N   0  0  0  0  0  0  0  0  0  0  0  0
  144.0575  133.7895  151.0008 C   0  0  0  0  0  0  0  0  0  0  0  0
  144.5352  134.3704  152.1042 N   0  0  0  0  0  0  0  0  0  0  0  0
  145.8004  133.9454  152.3916 C   0  0  0  0  0  0  0  0  0  0  0  0
  146.4954  134.7354  155.9434 C   0  0  1  0  0  0  0  0  0  0  0  0
  146.8606  133.3584  155.9242 O   0  0  0  0  0  0  0  0  0  0  0  0
  147.0485  132.6866  157.0704 C   0  0  0  0  0  0  0  0  0  0  0  0
  147.3940  131.2235  156.8306 C   0  0  0  0  0  0  0  0  0  0  0  0
  146.9651  133.1519  158.2070 O   0  0  0  0  0  0  0  0  0  0  0  0
  147.6208  135.5974  156.5010 C   0  0  2  0  0  0  0  0  0  0  0  0
  147.3774  135.8688  157.8749 O   0  0  0  0  0  0  0  0  0  0  0  0
  148.4028  135.9665  158.7377 C   0  0  0  0  0  0  0  0  0  0  0  0
  147.9415  136.3078  160.1480 C   0  0  0  0  0  0  0  0  0  0  0  0
  149.5947  135.8120  158.4705 O   0  0  0  0  0  0  0  0  0  0  0  0
  148.2649  141.0782  153.4378 H   0  0  0  0  0  0  0  0  0  0  0  0
  149.8592  141.7512  153.8072 H   0  0  0  0  0  0  0  0  0  0  0  0
  148.6166  141.6822  155.0643 H   0  0  0  0  0  0  0  0  0  0  0  0
  149.5279  137.2050  154.9193 H   0  0  0  0  0  0  0  0  0  0  0  0
  149.2664  137.7947  156.5546 H   0  0  0  0  0  0  0  0  0  0  0  0
  146.7129  137.4925  156.0270 H   0  0  0  0  0  0  0  0  0  0  0  0
  145.2548  135.6138  154.3423 H   0  0  0  0  0  0  0  0  0  0  0  0
  147.4145  131.2541  149.8588 H   0  0  0  0  0  0  0  0  0  0  0  0
  145.9715  131.2338  148.8681 H   0  0  0  0  0  0  0  0  0  0  0  0
  143.0591  134.0834  150.7126 H   0  0  0  0  0  0  0  0  0  0  0  0
  145.5676  134.8975  156.4946 H   0  0  0  0  0  0  0  0  0  0  0  0
  146.5367  130.6968  156.4111 H   0  0  0  0  0  0  0  0  0  0  0  0
  147.6759  130.7377  157.7649 H   0  0  0  0  0  0  0  0  0  0  0  0
  148.2276  131.1403  156.1328 H   0  0  0  0  0  0  0  0  0  0  0  0
  148.5729  135.0908  156.3345 H   0  0  0  0  0  0  0  0  0  0  0  0
  147.5258  137.3149  160.1765 H   0  0  0  0  0  0  0  0  0  0  0  0
  148.7768  136.2583  160.8467 H   0  0  0  0  0  0  0  0  0  0  0  0
  147.1744  135.6061  160.4764 H   0  0  0  0  0  0  0  0  0  0  0  0
  1  2  1  0  0  0  0
  1 30  1  0  0  0  0
  1 31  1  0  0  0  0
  1 32  1  0  0  0  0
  2  3  2  0  0  0  0
  2  4  1  0  0  0  0
  4  5  1  0  0  0  0
  5  6  1  0  0  0  0
  5 33  1  0  0  0  0
  5 34  1  0  0  0  0
  6 25  1  0  0  0  0
  6  7  1  0  0  0  0
  6 35  1  0  0  0  0
  7  8  1  0  0  0  0
  8  9  1  0  0  0  0
  8 20  1  0  0  0  0
  8 36  1  0  0  0  0
  9 19  1  0  0  0  0
  9 10  1  0  0  0  0
 10 11  1  0  0  0  0
 10 12  2  0  0  0  0
 12 13  1  0  0  0  0
 13 19  2  0  0  0  0
 13 14  1  0  0  0  0
 14 15  1  0  0  0  0
 14 16  2  0  0  0  0
 15 37  1  0  0  0  0
 15 38  1  0  0  0  0
 16 17  1  0  0  0  0
 17 18  2  0  0  0  0
 17 39  1  0  0  0  0
 18 19  1  0  0  0  0
 20 21  1  0  0  0  0
 20 25  1  0  0  0  0
 20 40  1  0  0  0  0
 21 22  1  0  0  0  0
 22 23  1  0  0  0  0
 22 24  2  0  0  0  0
 23 41  1  0  0  0  0
 23 42  1  0  0  0  0
 23 43  1  0  0  0  0
 25 26  1  0  0  0  0
 25 44  1  0  0  0  0
 26 27  1  0  0  0  0
 27 28  1  0  0  0  0
 27 29  2  0  0  0  0
 28 45  1  0  0  0  0
 28 46  1  0  0  0  0
 28 47  1  0  0  0  0
M  END
> <s_m_source_file>
AV-unprocessed.smi

> <i_m_source_file_index>
104

> <i_lp_mmshare_version>
43012

> <i_f3d_flags>
0

> <s_epik_input>
W0NIM11DKD1PKU9bQ0gyXVtDQEBIXTFPW0NASF0oW0NAQEhdKE9DKD1PKVtDSDNdKVtDQEhdMU9DKD1PKVtDSDNdKW4oYyhCciluMiljKGMyMyluW2NIXW5jM1tOSDJd

> <s_epik_cmdline>
J2VwaWtfcHl0aG9uJywgJy1waCcsICc3LjAnLCAnLXRuJywgJzgnLCAnLW1hJywgJzIwMCcsICctbWV0YWxfYmluZGluZycsICctaW1hZScsICc8aW5maWxlLm1hZT4nLCAnLW9tYWUnLCAnPG91dGZpbGUubWFlPic=

> <r_lp_tautomer_probability>
1

> <r_epik_Ionization_Penalty>
7.36622e-05

> <r_epik_Ionization_Penalty_Charging>
0

> <r_epik_Ionization_Penalty_Neutral>
7.36622e-05

> <r_epik_State_Penalty>
-0

> <r_epik_Charging_Adjusted_Penalty>
0

> <i_epik_Tot_Q>
0

> <i_epik_Tot_abs_Q>
0

> <r_epik_Metal_State_Penalty>
-0

> <b_epik_Metal_Only>
0

> <s_epik_Chemistry_Notes>
This compound has an ester and may undergo hydrolysis at high or low pH. This compound contains an acetal/aminal-like group ( X-CH(R)-Y where X, Y are N, S, or O) that may be acid/base labile, releasing an aldehyde.

> <s_lp_Force_Field>
OPLS_2005

> <r_lp_Energy>
14.3188

> <b_lp_Chiralities_Consistent>
1

> <s_lp_Variant>
AV-unprocessed.smi:104-10

> <Gold.Version>
5.8.1

> <Gold.Id.Protein>
6NUR|6NUR_protein|mol2

> <Gold.PLP.Fitness>
39.6701

> <Gold.PLP.PLP>
-29.1636

> <Gold.PLP.part.hbond>
-3.0000

> <Gold.PLP.part.metal>
0.0000

> <Gold.PLP.part.buried>
-5.0140

> <Gold.PLP.part.nonpolar>
-22.1305

> <Gold.PLP.part.repulsive>
1.5925

> <Gold.PLP.ligand.clash>
0.0000

> <Gold.PLP.ligand.torsion>
0.8023

> <Gold.PLP.Chemscore.Hbond>
3.0000

> <Gold.PLP.Chemscore.CHOScore>
1.0000

> <Gold.PLP.Chemscore.Metal>
0.0000

> <Gold.Chemscore.Hbonds>
donor molecule, donor type, donor heavy atom, donor atom, acceptor molecule, acceptor atom, score
      L1  H    15    37       P1 10747  1.00
      P1  H  6896  6908       L1    29  1.00
      P1  H  7989  7998       L1     3  1.00
      L1  C    17    39       P1 10186  1.00

> <Gold.PLP.Chemscore.Internal.Correction>
0.1112

> <Gold.Rescore>
     Score         DG    S(hbond)    S(metal)    S(lipo)     H(rot)  DE(clash)    DE(int)     intcor
      5.30      -7.50       2.94        0.00      27.42       4.31       0.02       2.17       ----

> <Gold.Chemscore.Fitness>
5.3030

> <Gold.Chemscore.DG>
-7.4970

> <Gold.Chemscore.ZeroCoef>
-5.4800

> <Gold.Chemscore.Hbond>
2.9447

> <Gold.Chemscore.Metal>
0.0000

> <Gold.Chemscore.Lipo>
27.4155

> <Gold.Chemscore.Internal_Hbond>
0.0000

> <Gold.Chemscore.DEClash>
0.0234

> <Gold.Chemscore.DEInternal>
2.1706

> <Gold.Chemscore.Rot>
4.3070

> <Gold.Chemscore.Internal.Correction>
   9.000000E+99

> <Gold.Chemscore.Hbonds>
donor molecule, donor type, donor heavy atom, donor atom, acceptor molecule, acceptor atom, score
      L1  H    15    37       P1 10747  1.00
      P1  H  6896  6908       L1    29  0.93
      P1  H  7989  7998       L1     3  0.64

> <Gold.Chemscore.Hbond.Weighted>
-9.8353

> <Gold.Chemscore.Metal.Weighted>
-0.0000

> <Gold.Chemscore.Lipo.Weighted>
-3.2076

> <Gold.Chemscore.Internal_Hbond.Weighted>
0.0000

> <Gold.Chemscore.DEClash.Weighted>
0.0234

> <Gold.Chemscore.DEInternal.Weighted>
2.1706

> <Gold.Chemscore.Rot.Weighted>
11.0259

> <Gold.Chemscore.Internal.Correction.Weighted>
   9.000000E+99

> <Gold.Protein.RotatedTorsions>
[ 6907 6896 6895 6894 ] final -167.50 input  -60.11 | X-H torsion
[ 7974 7965 7964 7962 ] final  -24.73 input  175.53 | X-H torsion
[ 8008 7997 7996 7995 ] final -102.77 input   59.86 | X-H torsion
[ 10167 10162 10161 10158 ] final -137.25 input  -65.29 | X-H torsion
[ 10718 10713 10712 10709 ] final  175.14 input   66.30 | X-H torsion
[ 10763 10752 10751 10750 ] final  119.39 input  -60.55 | X-H torsion
[ 11005 11000 10999 10996 ] final   56.08 input  -57.11 | X-H torsion

> <Gold.Protein.ActiveResidues>
 VAL166  LYS551  ARG553  GLY616  TRP617  ASP618  TYR619  PRO620  LYS621  CYS622 
 ASP623  PHE694  ASN695  SER759  ASP760  ASP761  ALA762  ILE779  LEU786  VAL792 
 PHE793  MET794  SER795  GLU796  ALA797  LYS798  CYS799  TRP800  GLU811  SER814 

> <Gold.Protein.RotatedAtoms>
  151.4605  133.3594  159.2808 H   0  0  0  0  0  0  0  0  0  0  0  0  # atno 6907 bound_to 6896
  150.9029  134.8444  159.7383 H   0  0  0  0  0  0  0  0  0  0  0  0  # atno 6908 bound_to 6896
  152.4889  134.4527  159.9631 H   0  0  0  0  0  0  0  0  0  0  0  0  # atno 6909 bound_to 6896
  146.1536  140.4791  142.8601 H   0  0  0  0  0  0  0  0  0  0  0  0  # atno 7974 bound_to 7965
  154.8614  140.0426  157.1668 H   0  0  0  0  0  0  0  0  0  0  0  0  # atno 8008 bound_to 7997
  154.8836  140.2976  155.5390 H   0  0  0  0  0  0  0  0  0  0  0  0  # atno 8009 bound_to 7997
  156.2998  140.2407  156.3842 H   0  0  0  0  0  0  0  0  0  0  0  0  # atno 8010 bound_to 7997
  139.8597  143.7093  152.2651 H   0  0  0  0  0  0  0  0  0  0  0  0  # atno 10167 bound_to 10162
  156.9393  130.9996  151.2971 H   0  0  0  0  0  0  0  0  0  0  0  0  # atno 10718 bound_to 10713
  153.5823  135.3481  155.2879 H   0  0  0  0  0  0  0  0  0  0  0  0  # atno 10763 bound_to 10752
  154.8666  135.4185  154.2607 H   0  0  0  0  0  0  0  0  0  0  0  0  # atno 10764 bound_to 10752
  153.3396  135.7049  153.6949 H   0  0  0  0  0  0  0  0  0  0  0  0  # atno 10765 bound_to 10752
  140.0557  134.5674  155.9211 H   0  0  0  0  0  0  0  0  0  0  0  0  # atno 11005 bound_to 11000
  144.7935  140.6077  143.6526 LP  0  0  0  0  0  0  0  0  0  0  0  0  # atno 17320 bound_to 7965
  145.4763  139.1499  143.3786 LP  0  0  0  0  0  0  0  0  0  0  0  0  # atno 17321 bound_to 7965
  139.7386  144.7565  151.0688 LP  0  0  0  0  0  0  0  0  0  0  0  0  # atno 17342 bound_to 10162
  140.7777  143.5000  150.9783 LP  0  0  0  0  0  0  0  0  0  0  0  0  # atno 17343 bound_to 10162
  157.5795  130.8367  149.8503 LP  0  0  0  0  0  0  0  0  0  0  0  0  # atno 17370 bound_to 10713
  156.0411  130.3738  150.1432 LP  0  0  0  0  0  0  0  0  0  0  0  0  # atno 17371 bound_to 10713
  141.1950  133.6585  156.5625 LP  0  0  0  0  0  0  0  0  0  0  0  0  # atno 17394 bound_to 11000
  140.3848  134.7491  157.4684 LP  0  0  0  0  0  0  0  0  0  0  0  0  # atno 17395 bound_to 11000

$$$$
