AV-unprocessed.smi:1965|AV-procd|sdf|7937|dock7
  -GOLD-   2272010103D 1   1.00000     0.00000
 Structure written by MMmdl.
 37 39  0  0  0  0  0  0  0  0  2 V2000
  152.4862  140.1458  157.4012 O   0  0  0  0  0  0  0  0  0  0  0  0
  151.6010  140.9802  157.5812 C   0  0  0  0  0  0  0  0  0  0  0  0
  151.5675  141.7285  158.7045 N   0  0  0  0  0  0  0  0  0  0  0  0
  152.4218  141.7633  159.8454 C   0  0  0  0  0  0  0  0  0  0  0  0
  153.3751  140.8656  160.1270 N   0  0  0  0  0  0  0  0  0  0  0  0
  154.0450  141.1612  161.3171 C   0  0  0  0  0  0  0  0  0  0  0  0
  153.5848  142.2952  161.9374 C   0  0  0  0  0  0  0  0  0  0  0  0
  152.2857  143.0406  161.0459 S   0  0  0  0  0  0  0  0  0  0  0  0
  150.6245  141.2035  156.6868 N   0  0  0  0  0  0  0  0  0  0  0  0
  150.4740  140.5239  155.4044 C   0  0  1  0  0  0  0  0  0  0  0  0
  150.8775  139.0399  155.4645 C   0  0  0  0  0  0  0  0  0  0  0  0
  149.8634  138.3037  154.5668 C   0  0  0  0  0  0  0  0  0  0  0  0
  149.0277  139.3633  153.9710 N   0  3  1  0  0  0  0  0  0  0  0  0
  147.6729  138.9786  153.5185 C   0  0  0  0  0  0  0  0  0  0  0  0
  146.9953  140.1933  152.8533 C   0  0  0  0  0  0  0  0  0  0  0  0
  147.0100  141.4310  153.7733 C   0  0  0  0  0  0  0  0  0  0  0  0
  148.4322  141.7260  154.2876 C   0  0  0  0  0  0  0  0  0  0  0  0
  149.0146  140.4637  154.9464 C   0  0  2  0  0  0  0  0  0  0  0  0
  150.7858  142.3657  158.7553 H   0  0  0  0  0  0  0  0  0  0  0  0
  154.8387  140.5087  161.6499 H   0  0  0  0  0  0  0  0  0  0  0  0
  153.9296  142.7353  162.8614 H   0  0  0  0  0  0  0  0  0  0  0  0
  149.9355  141.9064  156.9155 H   0  0  0  0  0  0  0  0  0  0  0  0
  151.0778  141.0128  154.6367 H   0  0  0  0  0  0  0  0  0  0  0  0
  151.9024  138.8986  155.1196 H   0  0  0  0  0  0  0  0  0  0  0  0
  150.8185  138.6505  156.4821 H   0  0  0  0  0  0  0  0  0  0  0  0
  150.3476  137.7108  153.7904 H   0  0  0  0  0  0  0  0  0  0  0  0
  149.2476  137.6346  155.1699 H   0  0  0  0  0  0  0  0  0  0  0  0
  147.7437  138.1523  152.8105 H   0  0  0  0  0  0  0  0  0  0  0  0
  147.0829  138.6286  154.3670 H   0  0  0  0  0  0  0  0  0  0  0  0
  147.5149  140.4315  151.9241 H   0  0  0  0  0  0  0  0  0  0  0  0
  145.9703  139.9449  152.5768 H   0  0  0  0  0  0  0  0  0  0  0  0
  146.6145  142.2981  153.2434 H   0  0  0  0  0  0  0  0  0  0  0  0
  146.3466  141.2588  154.6218 H   0  0  0  0  0  0  0  0  0  0  0  0
  149.0678  142.0476  153.4615 H   0  0  0  0  0  0  0  0  0  0  0  0
  148.4039  142.5497  155.0010 H   0  0  0  0  0  0  0  0  0  0  0  0
  148.3860  140.1720  155.7913 H   0  0  0  0  0  0  0  0  0  0  0  0
  149.5296  139.7051  153.1639 H   0  0  0  0  0  0  0  0  0  0  0  0
  1  2  2  0  0  0  0
  2  3  1  0  0  0  0
  2  9  1  0  0  0  0
  3  4  1  0  0  0  0
  3 19  1  0  0  0  0
  4  8  1  0  0  0  0
  4  5  2  0  0  0  0
  5  6  1  0  0  0  0
  6  7  2  0  0  0  0
  6 20  1  0  0  0  0
  7  8  1  0  0  0  0
  7 21  1  0  0  0  0
  9 10  1  0  0  0  0
  9 22  1  0  0  0  0
 10 18  1  0  0  0  0
 10 11  1  0  0  0  0
 10 23  1  0  0  0  0
 11 12  1  0  0  0  0
 11 24  1  0  0  0  0
 11 25  1  0  0  0  0
 12 13  1  0  0  0  0
 12 26  1  0  0  0  0
 12 27  1  0  0  0  0
 13 18  1  0  0  0  0
 13 14  1  0  0  0  0
 13 37  1  0  0  0  0
 14 15  1  0  0  0  0
 14 28  1  0  0  0  0
 14 29  1  0  0  0  0
 15 16  1  0  0  0  0
 15 30  1  0  0  0  0
 15 31  1  0  0  0  0
 16 17  1  0  0  0  0
 16 32  1  0  0  0  0
 16 33  1  0  0  0  0
 17 18  1  0  0  0  0
 17 34  1  0  0  0  0
 17 35  1  0  0  0  0
 18 36  1  0  0  0  0
M  CHG  1  13   1
M  END
> <s_m_source_file>
AV-unprocessed.smi

> <i_m_source_file_index>
1965

> <i_lp_mmshare_version>
43012

> <i_f3d_flags>
0

> <s_epik_input>
czFbY0hdW2NIXW5jMVtOSF1DKD1PKVtOSF1bQ0BIXShbQ0gyXVtDSDJdMilbQ0BASF0oTjIzKVtDSDJdW0NIMl1bQ0gyXVtDSDJdMw==

> <s_epik_cmdline>
J2VwaWtfcHl0aG9uJywgJy1waCcsICc3LjAnLCAnLXRuJywgJzgnLCAnLW1hJywgJzIwMCcsICctbWV0YWxfYmluZGluZycsICctaW1hZScsICc8aW5maWxlLm1hZT4nLCAnLW9tYWUnLCAnPG91dGZpbGUubWFlPic=

> <r_lp_tautomer_probability>
1

> <r_epik_Ionization_Penalty>
0.00125962

> <r_epik_Ionization_Penalty_Charging>
0.00107044

> <r_epik_Ionization_Penalty_Neutral>
0.000189176

> <r_epik_State_Penalty>
-0

> <r_epik_Charging_Adjusted_Penalty>
0.00107044

> <i_epik_Tot_Q>
1

> <i_epik_Tot_abs_Q>
1

> <r_epik_Metal_State_Penalty>
0.0179285

> <b_epik_Metal_Only>
0

> <s_lp_Force_Field>
OPLS_2005

> <r_lp_Energy>
35.2761

> <b_lp_Chiralities_Consistent>
1

> <s_lp_Variant>
AV-unprocessed.smi:1965-6

> <Gold.Version>
5.8.1

> <Gold.Id.Protein>
6NUR|6NUR_protein|mol2

> <Gold.PLP.Fitness>
41.8319

> <Gold.PLP.PLP>
-36.6318

> <Gold.PLP.part.hbond>
-2.0000

> <Gold.PLP.part.metal>
0.0000

> <Gold.PLP.part.buried>
-0.7509

> <Gold.PLP.part.nonpolar>
-32.9882

> <Gold.PLP.part.repulsive>
0.2510

> <Gold.PLP.ligand.clash>
0.0041

> <Gold.PLP.ligand.torsion>
0.3785

> <Gold.PLP.Chemscore.Hbond>
1.9840

> <Gold.PLP.Chemscore.CHOScore>
0.0000

> <Gold.PLP.Chemscore.Metal>
0.0000

> <Gold.Chemscore.Hbonds>
donor molecule, donor type, donor heavy atom, donor atom, acceptor molecule, acceptor atom, score
      L1  H    13    37       P1  7957  0.98
      P1  H  7997  8009       L1     1  0.92

> <Gold.PLP.Chemscore.Internal.Correction>
0.0093

> <Gold.Rescore>
     Score         DG    S(hbond)    S(metal)    S(lipo)     H(rot)  DE(clash)    DE(int)     intcor
     16.72     -19.84       1.91        0.00      90.06       1.00       0.17       2.95       ----

> <Gold.Chemscore.Fitness>
16.7152

> <Gold.Chemscore.DG>
-19.8418

> <Gold.Chemscore.ZeroCoef>
-5.4800

> <Gold.Chemscore.Hbond>
1.9118

> <Gold.Chemscore.Metal>
0.0000

> <Gold.Chemscore.Lipo>
90.0552

> <Gold.Chemscore.Internal_Hbond>
0.0000

> <Gold.Chemscore.DEClash>
0.1733

> <Gold.Chemscore.DEInternal>
2.9532

> <Gold.Chemscore.Rot>
1.0000

> <Gold.Chemscore.Internal.Correction>
   9.000000E+99

> <Gold.Chemscore.Hbonds>
donor molecule, donor type, donor heavy atom, donor atom, acceptor molecule, acceptor atom, score
      L1  H    13    37       P1  7957  0.87
      P1  H  7997  8009       L1     1  0.84

> <Gold.Chemscore.Hbond.Weighted>
-6.3853

> <Gold.Chemscore.Metal.Weighted>
-0.0000

> <Gold.Chemscore.Lipo.Weighted>
-10.5365

> <Gold.Chemscore.Internal_Hbond.Weighted>
0.0000

> <Gold.Chemscore.DEClash.Weighted>
0.1733

> <Gold.Chemscore.DEInternal.Weighted>
2.9532

> <Gold.Chemscore.Rot.Weighted>
2.5600

> <Gold.Chemscore.Internal.Correction.Weighted>
   9.000000E+99

> <Gold.Protein.RotatedTorsions>
[ 6907 6896 6895 6894 ] final  159.83 input  -60.11 | X-H torsion
[ 7974 7965 7964 7962 ] final   88.36 input  175.53 | X-H torsion
[ 8008 7997 7996 7995 ] final -171.68 input   59.86 | X-H torsion
[ 10167 10162 10161 10158 ] final  175.55 input  -65.29 | X-H torsion
[ 10718 10713 10712 10709 ] final -132.78 input   66.30 | X-H torsion
[ 10763 10752 10751 10750 ] final  -88.71 input  -60.55 | X-H torsion
[ 11005 11000 10999 10996 ] final -139.18 input  -57.11 | X-H torsion

> <Gold.Protein.ActiveResidues>
 VAL166  LYS551  ARG553  GLY616  TRP617  ASP618  TYR619  PRO620  LYS621  CYS622 
 ASP623  PHE694  ASN695  SER759  ASP760  ASP761  ALA762  ILE779  LEU786  VAL792 
 PHE793  MET794  SER795  GLU796  ALA797  LYS798  CYS799  TRP800  GLU811  SER814 

> <Gold.Protein.RotatedAtoms>
  151.9797  133.3753  159.4102 H   0  0  0  0  0  0  0  0  0  0  0  0  # atno 6907 bound_to 6896
  150.6936  134.4052  159.5146 H   0  0  0  0  0  0  0  0  0  0  0  0  # atno 6908 bound_to 6896
  152.1769  134.8787  160.0580 H   0  0  0  0  0  0  0  0  0  0  0  0  # atno 6909 bound_to 6896
  145.5468  139.2292  143.2535 H   0  0  0  0  0  0  0  0  0  0  0  0  # atno 7974 bound_to 7965
  155.9347  140.1097  157.1104 H   0  0  0  0  0  0  0  0  0  0  0  0  # atno 8008 bound_to 7997
  154.4077  140.1231  156.4914 H   0  0  0  0  0  0  0  0  0  0  0  0  # atno 8009 bound_to 7997
  155.7037  140.3471  155.4946 H   0  0  0  0  0  0  0  0  0  0  0  0  # atno 8010 bound_to 7997
  139.5181  144.3018  152.0371 H   0  0  0  0  0  0  0  0  0  0  0  0  # atno 10167 bound_to 10162
  156.2381  130.7079  151.0929 H   0  0  0  0  0  0  0  0  0  0  0  0  # atno 10718 bound_to 10713
  154.6475  135.5367  153.7862 H   0  0  0  0  0  0  0  0  0  0  0  0  # atno 10763 bound_to 10752
  153.0367  135.6474  154.1067 H   0  0  0  0  0  0  0  0  0  0  0  0  # atno 10764 bound_to 10752
  154.0987  135.2935  155.3236 H   0  0  0  0  0  0  0  0  0  0  0  0  # atno 10765 bound_to 10752
  140.8544  134.2246  157.4742 H   0  0  0  0  0  0  0  0  0  0  0  0  # atno 11005 bound_to 11000
  146.1944  140.6289  142.9131 LP  0  0  0  0  0  0  0  0  0  0  0  0  # atno 17320 bound_to 7965
  144.7549  140.5283  143.6776 LP  0  0  0  0  0  0  0  0  0  0  0  0  # atno 17321 bound_to 7965
  140.2465  144.4214  150.6238 LP  0  0  0  0  0  0  0  0  0  0  0  0  # atno 17342 bound_to 10162
  140.6254  143.2181  151.6607 LP  0  0  0  0  0  0  0  0  0  0  0  0  # atno 17343 bound_to 10162
  157.7163  131.0707  150.6312 LP  0  0  0  0  0  0  0  0  0  0  0  0  # atno 17370 bound_to 10713
  156.6384  130.4451  149.5761 LP  0  0  0  0  0  0  0  0  0  0  0  0  # atno 17371 bound_to 10713
  139.8705  134.9699  156.4683 LP  0  0  0  0  0  0  0  0  0  0  0  0  # atno 17394 bound_to 11000
  140.8753  133.7957  155.9408 LP  0  0  0  0  0  0  0  0  0  0  0  0  # atno 17395 bound_to 11000

$$$$
