#       Name:                AV-unprocessed.smi:1529
#       Creating user name   scv26
#       Creation time:       Fri Mar 27 06:30:01 2020


#       File generated by GOLD software.
#

@<TRIPOS>MOLECULE
AV-unprocessed.smi:1529
    58    59     1
SMALL
NO_CHARGES


@<TRIPOS>ATOM
      1 ****        -7.8833   0.5089  -2.3045 C.3            1 S1                 0.0000
      2 ****        -7.2068   0.8544  -0.9821 C.2            1 S1                 0.0000
      3 ****        -6.9020   2.0197  -0.7297 O.2            1 S1                 0.0000
      4 ****        -6.9773  -0.1707  -0.1477 N.am           1 S1                 0.0000
      5 ****        -6.3407  -0.0617   1.1612 C.3            1 S1                 0.0000
      6 ****        -4.8101   0.0751   1.0661 C.3            1 S1                 0.0000
      7 ****        -4.1253  -1.1223   0.3822 C.3            1 S1                 0.0000
      8 ****        -2.6783  -0.9525   0.3320 N.am           1 S1                 0.0000
      9 ****        -1.8328  -1.2395   1.3353 C.2            1 S1                 0.0000
     10 ****        -2.1987  -1.6657   2.4311 O.2            1 S1                 0.0000
     11 ****        -0.3854  -0.9405   1.0713 C.ar           1 S1                 0.0000
     12 ****         0.4800  -0.5874   2.1275 C.ar           1 S1                 0.0000
     13 ****         1.8366  -0.3337   1.8486 C.ar           1 S1                 0.0000
     14 ****         2.3014  -0.4450   0.5169 C.ar           1 S1                 0.0000
     15 ****         3.6564  -0.1898   0.2135 N.3            1 S1                 0.0000
     16 ****         4.1410  -0.5548  -1.1161 C.3            1 S1                 0.0000
     17 ****         5.6782  -0.4828  -1.1681 C.3            1 S1                 0.0000
     18 ****         6.2188  -0.7431  -2.5780 C.3            1 S1                 0.0000
     19 ****         6.0982   0.8164  -0.7605 O.3            1 S1                 0.0000
     20 ****         5.7151   1.1170   0.5787 C.3            1 S1                 0.0000
     21 ****         6.2929   2.4874   0.9473 C.3            1 S1                 0.0000
     22 ****         4.1787   1.0899   0.6855 C.3            1 S1                 0.0000
     23 ****         1.4722  -0.8035  -0.4942 N.ar           1 S1                 0.0000
     24 ****         0.1725  -1.0453  -0.2222 C.ar           1 S1                 0.0000
     25 ****        -7.3075  -0.2448  -2.8426 H              1 S1                 0.0000
     26 ****        -7.9672   1.3916  -2.9395 H              1 S1                 0.0000
     27 ****        -8.8858   0.1184  -2.1281 H              1 S1                 0.0000
     28 ****        -7.2657  -1.0936  -0.4394 H              1 S1                 0.0000
     29 ****        -6.7588   0.7866   1.7056 H              1 S1                 0.0000
     30 ****        -6.5960  -0.9507   1.7385 H              1 S1                 0.0000
     31 ****        -4.5552   0.9938   0.5356 H              1 S1                 0.0000
     32 ****        -4.4122   0.1917   2.0750 H              1 S1                 0.0000
     33 ****        -4.3784  -2.0520   0.8949 H              1 S1                 0.0000
     34 ****        -4.4818  -1.2266  -0.6427 H              1 S1                 0.0000
     35 ****        -2.2920  -0.5824  -0.5244 H              1 S1                 0.0000
     36 ****         0.1165  -0.5085   3.1421 H              1 S1                 0.0000
     37 ****         2.5029  -0.0736   2.6574 H              1 S1                 0.0000
     38 ****         3.8181  -1.5658  -1.3687 H              1 S1                 0.0000
     39 ****         3.7072   0.1212  -1.8545 H              1 S1                 0.0000
     40 ****         6.1038  -1.2258  -0.4911 H              1 S1                 0.0000
     41 ****         5.9316  -1.7335  -2.9318 H              1 S1                 0.0000
     42 ****         7.3076  -0.6876  -2.5939 H              1 S1                 0.0000
     43 ****         5.8375  -0.0092  -3.2888 H              1 S1                 0.0000
     44 ****         6.1427   0.3696   1.2497 H              1 S1                 0.0000
     45 ****         6.0365   2.7592   1.9716 H              1 S1                 0.0000
     46 ****         5.9105   3.2671   0.2879 H              1 S1                 0.0000
     47 ****         7.3801   2.4863   0.8663 H              1 S1                 0.0000
     48 ****         3.7456   1.8876   0.0803 H              1 S1                 0.0000
     49 ****         3.8914   1.2851   1.7177 H              1 S1                 0.0000
     50 ****        -0.4313  -1.3342  -1.0701 H              1 S1                 0.0000
     51 ****        -7.0979   2.7425  -1.3924 LP             1 S1                 0.0000
     52 ****        -6.4585   2.2438   0.1381 LP             1 S1                 0.0000
     53 ****        -3.1712  -1.8151   2.6101 LP             1 S1                 0.0000
     54 ****        -1.5234  -1.8624   3.1419 LP             1 S1                 0.0000
     55 ****         4.0789  -0.8858   0.7940 LP             1 S1                 0.0000
     56 ****         5.6871   1.4930  -1.3715 LP             1 S1                 0.0000
     57 ****         7.0945   0.8676  -0.8285 LP             1 S1                 0.0000
     58 ****         1.8188  -0.8876  -1.4285 LP             1 S1                 0.0000
@<TRIPOS>BOND
    1    1    2 1     
    2    1   25 1     
    3    1   26 1     
    4    1   27 1     
    5    2    3 2     
    6    2    4 am    
    7    4    5 1     
    8    4   28 1     
    9    5    6 1     
   10    5   29 1     
   11    5   30 1     
   12    6    7 1     
   13    6   31 1     
   14    6   32 1     
   15    7    8 1     
   16    7   33 1     
   17    7   34 1     
   18    8    9 am    
   19    8   35 1     
   20    9   10 2     
   21    9   11 1     
   22   11   24 ar    
   23   11   12 ar    
   24   12   13 ar    
   25   12   36 1     
   26   13   14 ar    
   27   13   37 1     
   28   14   15 1     
   29   14   23 ar    
   30   15   22 1     
   31   15   16 1     
   32   16   17 1     
   33   16   38 1     
   34   16   39 1     
   35   17   18 1     
   36   17   19 1     
   37   17   40 1     
   38   18   41 1     
   39   18   42 1     
   40   18   43 1     
   41   19   20 1     
   42   20   21 1     
   43   20   22 1     
   44   20   44 1     
   45   21   45 1     
   46   21   46 1     
   47   21   47 1     
   48   22   48 1     
   49   22   49 1     
   50   23   24 ar    
   51   24   50 1     
   52    3   51 1     
   53    3   52 1     
   54   10   53 1     
   55   10   54 1     
   56   15   55 1     
   57   19   56 1     
   58   19   57 1     
   59   23   58 1     
@<TRIPOS>SUBSTRUCTURE
      1 S1             1
@<TRIPOS>SET
LONE_PAIRS      STATIC     ATOMS    <user>   **** ""
8 51 52 53 54 55 56 57 58
DONOR_HYDROGENS      STATIC     ATOMS    <user>   **** ""
2 28 35
ATOM$BLUE        STATIC     ATOMS    COLORGROUP SYSTEM
8 51 52 53 54 55 56 57 58
ATOM$RED        STATIC     ATOMS    COLORGROUP SYSTEM
2 28 35
