AV-unprocessed.smi:1985|AV-procd|sdf|8045|dock9
  -GOLD-   2272010243D 1   1.00000     0.00000
 Structure written by MMmdl.
 51 52  0  0  0  0  0  0  0  0  2 V2000
  149.6546  136.7792  157.9159 C   0  0  0  0  0  0  0  0  0  0  0  0
  148.8088  136.0302  156.8707 C   0  0  0  0  0  0  0  0  0  0  0  0
  149.2126  136.2668  155.3832 C   0  0  2  0  0  0  0  0  0  0  0  0
  150.7015  135.8552  155.2338 C   0  0  0  0  0  0  0  0  0  0  0  0
  149.0672  137.7821  155.0532 C   0  0  0  0  0  0  0  0  0  0  0  0
  150.2467  138.5610  155.4193 N   0  0  0  0  0  0  0  0  0  0  0  0
  150.2397  139.8785  155.6643 C   0  0  0  0  0  0  0  0  0  0  0  0
  149.2139  140.5599  155.6429 O   0  0  0  0  0  0  0  0  0  0  0  0
  151.6011  140.5082  155.9922 C   0  0  0  0  0  0  0  0  0  0  0  0
  151.6031  141.2752  157.2451 N   0  0  0  0  0  0  0  0  0  0  0  0
  150.8404  142.4245  157.3445 C   0  0  0  0  0  0  0  0  0  0  0  0
  150.7940  143.1943  158.4535 C   0  0  0  0  0  0  0  0  0  0  0  0
  151.5653  142.8441  159.6396 C   0  0  0  0  0  0  0  0  0  0  0  0
  151.5720  143.5255  160.6656 O   0  0  0  0  0  0  0  0  0  0  0  0
  152.3248  141.6570  159.5178 N   0  0  0  0  0  0  0  0  0  0  0  0
  153.1356  141.2678  160.6532 C   0  0  0  0  0  0  0  0  0  0  0  0
  152.3821  140.8634  158.3489 C   0  0  0  0  0  0  0  0  0  0  0  0
  153.0850  139.8526  158.2734 O   0  0  0  0  0  0  0  0  0  0  0  0
  148.3439  135.4360  154.4704 N   0  3  0  0  0  0  0  0  0  0  0  0
  148.6423  133.9758  154.4406 C   0  0  0  0  0  0  0  0  0  0  0  0
  147.8342  133.2822  153.3324 C   0  0  0  0  0  0  0  0  0  0  0  0
  146.4478  133.4992  153.5513 O   0  0  0  0  0  0  0  0  0  0  0  0
  146.1184  134.8798  153.4996 C   0  0  0  0  0  0  0  0  0  0  0  0
  146.8729  135.6401  154.6037 C   0  0  0  0  0  0  0  0  0  0  0  0
  149.3032  136.5516  158.9226 H   0  0  0  0  0  0  0  0  0  0  0  0
  149.5913  137.8597  157.7898 H   0  0  0  0  0  0  0  0  0  0  0  0
  150.7057  136.4945  157.8689 H   0  0  0  0  0  0  0  0  0  0  0  0
  148.8212  134.9661  157.1051 H   0  0  0  0  0  0  0  0  0  0  0  0
  147.7692  136.3246  157.0185 H   0  0  0  0  0  0  0  0  0  0  0  0
  151.3170  136.2618  156.0369 H   0  0  0  0  0  0  0  0  0  0  0  0
  151.1348  136.2207  154.3023 H   0  0  0  0  0  0  0  0  0  0  0  0
  150.8266  134.7722  155.2526 H   0  0  0  0  0  0  0  0  0  0  0  0
  148.8924  137.9331  153.9880 H   0  0  0  0  0  0  0  0  0  0  0  0
  148.2079  138.2043  155.5753 H   0  0  0  0  0  0  0  0  0  0  0  0
  151.1290  138.0716  155.4634 H   0  0  0  0  0  0  0  0  0  0  0  0
  152.3430  139.7101  156.0421 H   0  0  0  0  0  0  0  0  0  0  0  0
  151.9139  141.1497  155.1665 H   0  0  0  0  0  0  0  0  0  0  0  0
  150.2534  142.7292  156.4903 H   0  0  0  0  0  0  0  0  0  0  0  0
  150.1802  144.0831  158.4622 H   0  0  0  0  0  0  0  0  0  0  0  0
  153.3339  140.1960  160.6258 H   0  0  0  0  0  0  0  0  0  0  0  0
  152.5872  141.4855  161.5713 H   0  0  0  0  0  0  0  0  0  0  0  0
  154.0603  141.8433  160.5929 H   0  0  0  0  0  0  0  0  0  0  0  0
  149.6981  133.7862  154.2574 H   0  0  0  0  0  0  0  0  0  0  0  0
  148.3933  133.5180  155.3983 H   0  0  0  0  0  0  0  0  0  0  0  0
  148.1253  133.6494  152.3468 H   0  0  0  0  0  0  0  0  0  0  0  0
  148.0278  132.2094  153.3423 H   0  0  0  0  0  0  0  0  0  0  0  0
  146.3554  135.2869  152.5153 H   0  0  0  0  0  0  0  0  0  0  0  0
  145.0425  134.9901  153.6370 H   0  0  0  0  0  0  0  0  0  0  0  0
  146.5304  135.2977  155.5804 H   0  0  0  0  0  0  0  0  0  0  0  0
  146.6026  136.6908  154.5177 H   0  0  0  0  0  0  0  0  0  0  0  0
  148.5668  135.7692  153.5432 H   0  0  0  0  0  0  0  0  0  0  0  0
  1  2  1  0  0  0  0
  1 25  1  0  0  0  0
  1 26  1  0  0  0  0
  1 27  1  0  0  0  0
  2  3  1  0  0  0  0
  2 28  1  0  0  0  0
  2 29  1  0  0  0  0
  3  4  1  0  0  0  0
  3  5  1  0  0  0  0
  3 19  1  0  0  0  0
  4 30  1  0  0  0  0
  4 31  1  0  0  0  0
  4 32  1  0  0  0  0
  5  6  1  0  0  0  0
  5 33  1  0  0  0  0
  5 34  1  0  0  0  0
  6  7  1  0  0  0  0
  6 35  1  0  0  0  0
  7  8  2  0  0  0  0
  7  9  1  0  0  0  0
  9 10  1  0  0  0  0
  9 36  1  0  0  0  0
  9 37  1  0  0  0  0
 10 17  1  0  0  0  0
 10 11  1  0  0  0  0
 11 12  2  0  0  0  0
 11 38  1  0  0  0  0
 12 13  1  0  0  0  0
 12 39  1  0  0  0  0
 13 14  2  0  0  0  0
 13 15  1  0  0  0  0
 15 16  1  0  0  0  0
 15 17  1  0  0  0  0
 16 40  1  0  0  0  0
 16 41  1  0  0  0  0
 16 42  1  0  0  0  0
 17 18  2  0  0  0  0
 19 24  1  0  0  0  0
 19 20  1  0  0  0  0
 19 51  1  0  0  0  0
 20 21  1  0  0  0  0
 20 43  1  0  0  0  0
 20 44  1  0  0  0  0
 21 22  1  0  0  0  0
 21 45  1  0  0  0  0
 21 46  1  0  0  0  0
 22 23  1  0  0  0  0
 23 24  1  0  0  0  0
 23 47  1  0  0  0  0
 23 48  1  0  0  0  0
 24 49  1  0  0  0  0
 24 50  1  0  0  0  0
M  CHG  1  19   1
M  END
> <s_m_source_file>
AV-unprocessed.smi

> <i_m_source_file_index>
1985

> <i_lp_mmshare_version>
43012

> <i_f3d_flags>
0

> <s_epik_input>
W0NIMl0xW0NIMl1PW0NIMl1bQ0gyXU4xW0NAQF0oW0NIM10pKFtDSDJdW0NIM10pW0NIMl1bTkhdQyg9TylbQ0gyXW4yW2NIXVtjSF1jKD1PKW4oW0NIM10pYzI9Tw==

> <s_epik_cmdline>
J2VwaWtfcHl0aG9uJywgJy1waCcsICc3LjAnLCAnLXRuJywgJzgnLCAnLW1hJywgJzIwMCcsICctbWV0YWxfYmluZGluZycsICctaW1hZScsICc8aW5maWxlLm1hZT4nLCAnLW9tYWUnLCAnPG91dGZpbGUubWFlPic=

> <r_lp_tautomer_probability>
1

> <r_epik_Ionization_Penalty>
0.519658

> <r_epik_Ionization_Penalty_Charging>
0.519658

> <r_epik_Ionization_Penalty_Neutral>
8.70177e-08

> <r_epik_State_Penalty>
0.527569

> <r_epik_Charging_Adjusted_Penalty>
1.04723

> <i_epik_Tot_Q>
1

> <i_epik_Tot_abs_Q>
1

> <r_epik_Metal_State_Penalty>
0.527613

> <b_epik_Metal_Only>
0

> <s_lp_Force_Field>
OPLS_2005

> <r_lp_Energy>
37.4979

> <b_lp_Chiralities_Consistent>
1

> <s_lp_Variant>
AV-unprocessed.smi:1985-4

> <Gold.Version>
5.8.1

> <Gold.Id.Protein>
6NUR|6NUR_protein|mol2

> <Gold.PLP.Fitness>
43.5300

> <Gold.PLP.PLP>
-33.0612

> <Gold.PLP.part.hbond>
-2.0650

> <Gold.PLP.part.metal>
0.0000

> <Gold.PLP.part.buried>
-3.6429

> <Gold.PLP.part.nonpolar>
-26.8799

> <Gold.PLP.part.repulsive>
0.2944

> <Gold.PLP.ligand.clash>
0.0013

> <Gold.PLP.ligand.torsion>
0.8884

> <Gold.PLP.Chemscore.Hbond>
3.0000

> <Gold.PLP.Chemscore.CHOScore>
1.0000

> <Gold.PLP.Chemscore.Metal>
0.0000

> <Gold.Chemscore.Hbonds>
donor molecule, donor type, donor heavy atom, donor atom, acceptor molecule, acceptor atom, score
      L1  H    19    51       P1  7948  2.00
      P1  H  7997  8010       L1    18  1.00
      L1  C    11    38       P1  8028  0.95

> <Gold.PLP.Chemscore.Internal.Correction>
0.2470

> <Gold.Rescore>
     Score         DG    S(hbond)    S(metal)    S(lipo)     H(rot)  DE(clash)    DE(int)     intcor
     12.48     -13.34       1.93        0.00      61.91       2.27       0.01       0.85       ----

> <Gold.Chemscore.Fitness>
12.4825

> <Gold.Chemscore.DG>
-13.3378

> <Gold.Chemscore.ZeroCoef>
-5.4800

> <Gold.Chemscore.Hbond>
1.9258

> <Gold.Chemscore.Metal>
0.0000

> <Gold.Chemscore.Lipo>
61.9050

> <Gold.Chemscore.Internal_Hbond>
0.0000

> <Gold.Chemscore.DEClash>
0.0075

> <Gold.Chemscore.DEInternal>
0.8479

> <Gold.Chemscore.Rot>
2.2724

> <Gold.Chemscore.Internal.Correction>
   9.000000E+99

> <Gold.Chemscore.Hbonds>
donor molecule, donor type, donor heavy atom, donor atom, acceptor molecule, acceptor atom, score
      L1  H    19    51       P1  7948  1.00
      P1  H  7997  8010       L1    18  0.73

> <Gold.Chemscore.Hbond.Weighted>
-6.4323

> <Gold.Chemscore.Metal.Weighted>
-0.0000

> <Gold.Chemscore.Lipo.Weighted>
-7.2429

> <Gold.Chemscore.Internal_Hbond.Weighted>
0.0000

> <Gold.Chemscore.DEClash.Weighted>
0.0075

> <Gold.Chemscore.DEInternal.Weighted>
0.8479

> <Gold.Chemscore.Rot.Weighted>
5.8174

> <Gold.Chemscore.Internal.Correction.Weighted>
   9.000000E+99

> <Gold.Protein.RotatedTorsions>
[ 6907 6896 6895 6894 ] final   -8.68 input  -60.11 | X-H torsion
[ 7974 7965 7964 7962 ] final  -18.49 input  175.53 | X-H torsion
[ 8008 7997 7996 7995 ] final   47.68 input   59.86 | X-H torsion
[ 10167 10162 10161 10158 ] final  -61.17 input  -65.29 | X-H torsion
[ 10718 10713 10712 10709 ] final   43.27 input   66.30 | X-H torsion
[ 10763 10752 10751 10750 ] final -172.19 input  -60.55 | X-H torsion
[ 11005 11000 10999 10996 ] final   78.40 input  -57.11 | X-H torsion

> <Gold.Protein.ActiveResidues>
 VAL166  LYS551  ARG553  GLY616  TRP617  ASP618  TYR619  PRO620  LYS621  CYS622 
 ASP623  PHE694  ASN695  SER759  ASP760  ASP761  ALA762  ILE779  LEU786  VAL792 
 PHE793  MET794  SER795  GLU796  ALA797  LYS798  CYS799  TRP800  GLU811  SER814 

> <Gold.Protein.RotatedAtoms>
  151.4298  135.1008  159.9638 H   0  0  0  0  0  0  0  0  0  0  0  0  # atno 6907 bound_to 6896
  152.4960  133.8628  159.7269 H   0  0  0  0  0  0  0  0  0  0  0  0  # atno 6908 bound_to 6896
  150.9163  133.6877  159.2870 H   0  0  0  0  0  0  0  0  0  0  0  0  # atno 6909 bound_to 6896
  146.1889  140.3928  142.8465 H   0  0  0  0  0  0  0  0  0  0  0  0  # atno 7974 bound_to 7965
  155.3731  140.3425  155.4244 H   0  0  0  0  0  0  0  0  0  0  0  0  # atno 8008 bound_to 7997
  156.1652  140.1613  156.8578 H   0  0  0  0  0  0  0  0  0  0  0  0  # atno 8009 bound_to 7997
  154.5178  140.0774  156.8096 H   0  0  0  0  0  0  0  0  0  0  0  0  # atno 8010 bound_to 7997
  140.6023  143.2364  151.5900 H   0  0  0  0  0  0  0  0  0  0  0  0  # atno 10167 bound_to 10162
  157.4140  130.7931  149.7456 H   0  0  0  0  0  0  0  0  0  0  0  0  # atno 10718 bound_to 10713
  154.6221  135.2876  155.0314 H   0  0  0  0  0  0  0  0  0  0  0  0  # atno 10763 bound_to 10752
  154.1505  135.6504  153.4966 H   0  0  0  0  0  0  0  0  0  0  0  0  # atno 10764 bound_to 10752
  153.0241  135.5354  154.7015 H   0  0  0  0  0  0  0  0  0  0  0  0  # atno 10765 bound_to 10752
  139.9214  134.7760  156.1645 H   0  0  0  0  0  0  0  0  0  0  0  0  # atno 11005 bound_to 11000
  144.8450  140.6915  143.6205 LP  0  0  0  0  0  0  0  0  0  0  0  0  # atno 17320 bound_to 7965
  145.3853  139.1628  143.4259 LP  0  0  0  0  0  0  0  0  0  0  0  0  # atno 17321 bound_to 7965
  139.5300  144.2944  152.1125 LP  0  0  0  0  0  0  0  0  0  0  0  0  # atno 17342 bound_to 10162
  140.2127  144.4546  150.6378 LP  0  0  0  0  0  0  0  0  0  0  0  0  # atno 17343 bound_to 10162
  155.9859  130.3979  150.3237 LP  0  0  0  0  0  0  0  0  0  0  0  0  # atno 17370 bound_to 10713
  157.1378  131.0288  151.2941 LP  0  0  0  0  0  0  0  0  0  0  0  0  # atno 17371 bound_to 10713
  141.0738  133.6785  156.2194 LP  0  0  0  0  0  0  0  0  0  0  0  0  # atno 17394 bound_to 11000
  140.6463  134.5114  157.5574 LP  0  0  0  0  0  0  0  0  0  0  0  0  # atno 17395 bound_to 11000

$$$$
