AV-unprocessed.smi:500|AV-procd|sdf|2738|dock10
  -GOLD-   2262023193D 1   1.00000     0.00000
 Structure written by MMmdl.
 44 46  0  0  0  0  0  0  0  0  2 V2000
  147.5571  141.2041  153.8183 C   0  0  0  0  0  0  0  0  0  0  0  0
  148.5869  140.1201  154.1446 C   0  0  0  0  0  0  0  0  0  0  0  0
  149.8195  140.7451  154.4721 O   0  0  0  0  0  0  0  0  0  0  0  0
  150.1011  140.7639  155.8640 C   0  0  0  0  0  0  0  0  0  0  0  0
  151.0554  141.9145  156.2285 C   0  0  0  0  0  0  0  0  0  0  0  0
  151.5498  141.7924  157.6010 N   0  0  0  0  0  0  0  0  0  0  0  0
  151.9568  140.6895  158.3039 C   0  0  0  0  0  0  0  0  0  0  0  0
  151.9735  139.2744  157.7458 C   0  0  2  0  0  0  0  0  0  0  0  0
  151.0193  138.3621  158.5291 C   0  0  0  0  0  0  0  0  0  0  0  0
  153.3120  138.6777  157.7472 N   0  5  0  0  0  0  0  0  0  0  0  0
  153.5627  137.3548  157.9604 C   0  0  0  0  0  0  0  0  0  0  0  0
  153.5872  136.4177  157.1553 O   0  0  0  0  0  0  0  0  0  0  0  0
  153.8446  137.0566  159.3845 C   0  0  0  0  0  0  0  0  0  0  0  0
  153.9515  137.9035  160.4560 C   0  0  0  0  0  0  0  0  0  0  0  0
  154.2303  137.0961  161.5934 C   0  0  0  0  0  0  0  0  0  0  0  0
  154.2761  135.8101  161.1381 C   0  0  0  0  0  0  0  0  0  0  0  0
  154.0440  135.7672  159.7985 O   0  0  0  0  0  0  0  0  0  0  0  0
  152.3395  140.9335  159.5624 N   0  0  0  0  0  0  0  0  0  0  0  0
  152.1949  142.2991  159.6815 C   0  0  0  0  0  0  0  0  0  0  0  0
  152.4510  143.1561  160.7757 C   0  0  0  0  0  0  0  0  0  0  0  0
  152.2254  144.5434  160.6638 C   0  0  0  0  0  0  0  0  0  0  0  0
  151.7411  145.0911  159.4585 C   0  0  0  0  0  0  0  0  0  0  0  0
  151.4785  144.2533  158.3575 C   0  0  0  0  0  0  0  0  0  0  0  0
  151.7051  142.8678  158.4741 C   0  0  0  0  0  0  0  0  0  0  0  0
  146.5952  140.7621  153.5577 H   0  0  0  0  0  0  0  0  0  0  0  0
  147.8848  141.8139  152.9761 H   0  0  0  0  0  0  0  0  0  0  0  0
  147.4021  141.8651  154.6715 H   0  0  0  0  0  0  0  0  0  0  0  0
  148.2259  139.5093  154.9720 H   0  0  0  0  0  0  0  0  0  0  0  0
  148.7170  139.4624  153.2839 H   0  0  0  0  0  0  0  0  0  0  0  0
  149.1788  140.8076  156.4435 H   0  0  0  0  0  0  0  0  0  0  0  0
  150.5764  139.8159  156.1169 H   0  0  0  0  0  0  0  0  0  0  0  0
  151.9083  141.9078  155.5496 H   0  0  0  0  0  0  0  0  0  0  0  0
  150.5901  142.8898  156.0924 H   0  0  0  0  0  0  0  0  0  0  0  0
  151.5912  139.3162  156.7256 H   0  0  0  0  0  0  0  0  0  0  0  0
  150.0022  138.7542  158.5069 H   0  0  0  0  0  0  0  0  0  0  0  0
  151.3181  138.2753  159.5745 H   0  0  0  0  0  0  0  0  0  0  0  0
  150.9933  137.3579  158.1046 H   0  0  0  0  0  0  0  0  0  0  0  0
  153.8405  138.9773  160.4234 H   0  0  0  0  0  0  0  0  0  0  0  0
  154.3782  137.4158  162.6142 H   0  0  0  0  0  0  0  0  0  0  0  0
  154.4525  134.8530  161.6060 H   0  0  0  0  0  0  0  0  0  0  0  0
  152.8234  142.7433  161.7014 H   0  0  0  0  0  0  0  0  0  0  0  0
  152.4262  145.1892  161.5058 H   0  0  0  0  0  0  0  0  0  0  0  0
  151.5718  146.1550  159.3793 H   0  0  0  0  0  0  0  0  0  0  0  0
  151.1085  144.6721  157.4336 H   0  0  0  0  0  0  0  0  0  0  0  0
  1  2  1  0  0  0  0
  1 25  1  0  0  0  0
  1 26  1  0  0  0  0
  1 27  1  0  0  0  0
  2  3  1  0  0  0  0
  2 28  1  0  0  0  0
  2 29  1  0  0  0  0
  3  4  1  0  0  0  0
  4  5  1  0  0  0  0
  4 30  1  0  0  0  0
  4 31  1  0  0  0  0
  5  6  1  0  0  0  0
  5 32  1  0  0  0  0
  5 33  1  0  0  0  0
  6 24  1  0  0  0  0
  6  7  1  0  0  0  0
  7  8  1  0  0  0  0
  7 18  2  0  0  0  0
  8  9  1  0  0  0  0
  8 10  1  0  0  0  0
  8 34  1  0  0  0  0
  9 35  1  0  0  0  0
  9 36  1  0  0  0  0
  9 37  1  0  0  0  0
 10 11  1  0  0  0  0
 11 12  2  0  0  0  0
 11 13  1  0  0  0  0
 13 17  1  0  0  0  0
 13 14  2  0  0  0  0
 14 15  1  0  0  0  0
 14 38  1  0  0  0  0
 15 16  2  0  0  0  0
 15 39  1  0  0  0  0
 16 17  1  0  0  0  0
 16 40  1  0  0  0  0
 18 19  1  0  0  0  0
 19 24  2  0  0  0  0
 19 20  1  0  0  0  0
 20 21  2  0  0  0  0
 20 41  1  0  0  0  0
 21 22  1  0  0  0  0
 21 42  1  0  0  0  0
 22 23  2  0  0  0  0
 22 43  1  0  0  0  0
 23 24  1  0  0  0  0
 23 44  1  0  0  0  0
M  CHG  1  10  -1
M  END
> <s_m_source_file>
AV-unprocessed.smi

> <i_m_source_file_index>
500

> <i_lp_mmshare_version>
43012

> <i_f3d_flags>
0

> <s_epik_input>
W0NIM11bQ0gyXU9bQ0gyXVtDSDJdbihjKGMxMilbY0hdW2NIXVtjSF1bY0hdMiljKG4xKVtDQEhdKFtDSDNdKVtOSF1DKD1PKWMzW2NIXVtjSF1bY0hdbzM=

> <s_epik_cmdline>
J2VwaWtfcHl0aG9uJywgJy1waCcsICc3LjAnLCAnLXRuJywgJzgnLCAnLW1hJywgJzIwMCcsICctbWV0YWxfYmluZGluZycsICctaW1hZScsICc8aW5maWxlLm1hZT4nLCAnLW9tYWUnLCAnPG91dGZpbGUubWFlPic=

> <r_epik_Ionization_Penalty>
7.31223

> <r_epik_Ionization_Penalty_Charging>
6.43826

> <r_epik_Ionization_Penalty_Neutral>
0.873973

> <r_epik_State_Penalty>
6.5378

> <r_epik_Charging_Adjusted_Penalty>
12.9761

> <i_epik_Tot_Q>
-1

> <i_epik_Tot_abs_Q>
1

> <r_epik_Metal_State_Penalty>
2.55818

> <b_epik_Metal_Only>
1

> <s_lp_Force_Field>
OPLS_2005

> <r_lp_Energy>
15.486

> <b_lp_Chiralities_Consistent>
1

> <s_lp_Variant>
AV-unprocessed.smi:500-5

> <Gold.Version>
5.8.1

> <Gold.Id.Protein>
6NUR|6NUR_protein|mol2

> <Gold.PLP.Fitness>
57.4872

> <Gold.PLP.PLP>
-47.7300

> <Gold.PLP.part.hbond>
-4.0000

> <Gold.PLP.part.metal>
0.0000

> <Gold.PLP.part.buried>
-7.0354

> <Gold.PLP.part.nonpolar>
-36.5032

> <Gold.PLP.part.repulsive>
0.1251

> <Gold.PLP.ligand.clash>
0.0000

> <Gold.PLP.ligand.torsion>
1.8399

> <Gold.PLP.Chemscore.Hbond>
4.3897

> <Gold.PLP.Chemscore.CHOScore>
0.0000

> <Gold.PLP.Chemscore.Metal>
0.0000

> <Gold.Chemscore.Hbonds>
donor molecule, donor type, donor heavy atom, donor atom, acceptor molecule, acceptor atom, score
      P1  H  6896  6909       L1    17  0.75
      P1  H  7989  7998       L1     3  0.67
      P1  H  7997  8009       L1    10  1.95
      P1  H 10752 10765       L1    12  0.93

> <Gold.PLP.Chemscore.Internal.Correction>
0.2680

> <Gold.Rescore>
     Score         DG    S(hbond)    S(metal)    S(lipo)     H(rot)  DE(clash)    DE(int)     intcor
     21.60     -23.43       2.37        0.00     125.89       1.84       0.07       1.76       ----

> <Gold.Chemscore.Fitness>
21.6028

> <Gold.Chemscore.DG>
-23.4279

> <Gold.Chemscore.ZeroCoef>
-5.4800

> <Gold.Chemscore.Hbond>
2.3726

> <Gold.Chemscore.Metal>
0.0000

> <Gold.Chemscore.Lipo>
125.8913

> <Gold.Chemscore.Internal_Hbond>
0.0000

> <Gold.Chemscore.DEClash>
0.0678

> <Gold.Chemscore.DEInternal>
1.7573

> <Gold.Chemscore.Rot>
1.8382

> <Gold.Chemscore.Internal.Correction>
   9.000000E+99

> <Gold.Chemscore.Hbonds>
donor molecule, donor type, donor heavy atom, donor atom, acceptor molecule, acceptor atom, score
      P1  H  6896  6909       L1    17  0.09
      P1  H  7989  7998       L1     3  0.42
      P1  H  7997  8009       L1    10  0.73
      P1  H 10752 10765       L1    12  0.88

> <Gold.Chemscore.Hbond.Weighted>
-7.9244

> <Gold.Chemscore.Metal.Weighted>
-0.0000

> <Gold.Chemscore.Lipo.Weighted>
-14.7293

> <Gold.Chemscore.Internal_Hbond.Weighted>
0.0000

> <Gold.Chemscore.DEClash.Weighted>
0.0678

> <Gold.Chemscore.DEInternal.Weighted>
1.7573

> <Gold.Chemscore.Rot.Weighted>
4.7059

> <Gold.Chemscore.Internal.Correction.Weighted>
   9.000000E+99

> <Gold.Protein.RotatedTorsions>
[ 6907 6896 6895 6894 ] final -162.57 input  -60.11 | X-H torsion
[ 7974 7965 7964 7962 ] final   89.02 input  175.53 | X-H torsion
[ 8008 7997 7996 7995 ] final  142.51 input   59.86 | X-H torsion
[ 10167 10162 10161 10158 ] final   -2.55 input  -65.29 | X-H torsion
[ 10718 10713 10712 10709 ] final -128.10 input   66.30 | X-H torsion
[ 10763 10752 10751 10750 ] final -108.55 input  -60.55 | X-H torsion
[ 11005 11000 10999 10996 ] final   63.52 input  -57.11 | X-H torsion

> <Gold.Protein.ActiveResidues>
 VAL166  LYS551  ARG553  GLY616  TRP617  ASP618  TYR619  PRO620  LYS621  CYS622 
 ASP623  PHE694  ASN695  SER759  ASP760  ASP761  ALA762  ILE779  LEU786  VAL792 
 PHE793  MET794  SER795  GLU796  ALA797  LYS798  CYS799  TRP800  GLU811  SER814 

> <Gold.Protein.RotatedAtoms>
  151.3823  133.3817  159.2711 H   0  0  0  0  0  0  0  0  0  0  0  0  # atno 6907 bound_to 6896
  150.9568  134.8962  159.7716 H   0  0  0  0  0  0  0  0  0  0  0  0  # atno 6908 bound_to 6896
  152.5134  134.3781  159.9393 H   0  0  0  0  0  0  0  0  0  0  0  0  # atno 6909 bound_to 6896
  145.5379  139.2287  143.2582 H   0  0  0  0  0  0  0  0  0  0  0  0  # atno 7974 bound_to 7965
  156.2948  140.2287  156.4739 H   0  0  0  0  0  0  0  0  0  0  0  0  # atno 8008 bound_to 7997
  154.7911  140.0454  157.1222 H   0  0  0  0  0  0  0  0  0  0  0  0  # atno 8009 bound_to 7997
  154.9644  140.3058  155.5019 H   0  0  0  0  0  0  0  0  0  0  0  0  # atno 8010 bound_to 7997
  140.6855  143.6644  150.8239 H   0  0  0  0  0  0  0  0  0  0  0  0  # atno 10167 bound_to 10162
  156.1919  130.6801  151.0435 H   0  0  0  0  0  0  0  0  0  0  0  0  # atno 10718 bound_to 10713
  154.8142  135.4633  154.0598 H   0  0  0  0  0  0  0  0  0  0  0  0  # atno 10763 bound_to 10752
  153.2004  135.6868  153.8245 H   0  0  0  0  0  0  0  0  0  0  0  0  # atno 10764 bound_to 10752
  153.7731  135.3267  155.3332 H   0  0  0  0  0  0  0  0  0  0  0  0  # atno 10765 bound_to 10752
  140.0019  134.6429  155.9917 H   0  0  0  0  0  0  0  0  0  0  0  0  # atno 11005 bound_to 11000
  146.2000  140.6198  142.9106 LP  0  0  0  0  0  0  0  0  0  0  0  0  # atno 17320 bound_to 7965
  144.7592  140.5381  143.6747 LP  0  0  0  0  0  0  0  0  0  0  0  0  # atno 17321 bound_to 7965
  140.0350  143.5404  152.2743 LP  0  0  0  0  0  0  0  0  0  0  0  0  # atno 17342 bound_to 10162
  139.6211  144.7629  151.2739 LP  0  0  0  0  0  0  0  0  0  0  0  0  # atno 17343 bound_to 10162
  157.6934  131.0802  150.7040 LP  0  0  0  0  0  0  0  0  0  0  0  0  # atno 17370 bound_to 10713
  156.7097  130.4648  149.5550 LP  0  0  0  0  0  0  0  0  0  0  0  0  # atno 17371 bound_to 10713
  141.1648  133.6537  156.4442 LP  0  0  0  0  0  0  0  0  0  0  0  0  # atno 17394 bound_to 11000
  140.4712  134.6751  157.5130 LP  0  0  0  0  0  0  0  0  0  0  0  0  # atno 17395 bound_to 11000

$$$$
