#       Name:                AV-unprocessed.smi:562
#       Creating user name   scv26
#       Creation time:       Thu Mar 26 23:44:27 2020


#       File generated by GOLD software.
#

@<TRIPOS>MOLECULE
AV-unprocessed.smi:562
    49    51     1
SMALL
NO_CHARGES


@<TRIPOS>ATOM
      1 ****        -2.4163   2.6319   1.2216 C.3            1 S1                 0.0000
      2 ****        -1.9544   1.4413   0.6104 O.3            1 S1                 0.0000
      3 ****        -2.3738   0.2752   1.2998 C.3            1 S1                 0.0000
      4 ****        -1.8006  -0.9665   0.6031 C.3            1 S1                 0.0000
      5 ****        -0.3397  -0.9719   0.6065 N.pl3          1 S1                 0.0000
      6 ****         0.5018  -0.5405  -0.3689 C.2            1 S1                 0.0000
      7 ****         0.0199   0.0086  -1.5762 N.pl3          1 S1                 0.0000
      8 ****        -0.5857  -0.7806  -2.4906 N.2            1 S1                 0.0000
      9 ****        -0.8962   0.0314  -3.4874 C.2            1 S1                 0.0000
     10 ****        -1.6071  -0.5151  -4.6901 C.3            1 S1                 0.0000
     11 ****        -0.4784   1.3694  -3.2427 C.2            1 S1                 0.0000
     12 ****         0.1142   1.3178  -2.0125 C.2            1 S1                 0.0000
     13 ****         0.7636   2.3972  -1.2088 C.3            1 S1                 0.0000
     14 ****         1.8004  -0.6432  -0.0796 N.2            1 S1                 0.0000
     15 ****         1.7852  -1.1928   1.1942 C.2            1 S1                 0.0000
     16 ****         0.5124  -1.3936   1.6309 C.2            1 S1                 0.0000
     17 ****         0.1743  -1.9431   2.9617 C.2            1 S1                 0.0000
     18 ****        -0.9958  -2.0925   3.3081 O.2            1 S1                 0.0000
     19 ****         1.2924  -2.2331   3.6996 N.pl3          1 S1                -1.0000
     20 ****         2.5984  -2.0476   3.2987 C.2            1 S1                 0.0000
     21 ****         3.5488  -2.3310   4.0293 O.2            1 S1                 0.0000
     22 ****         2.8633  -1.5328   2.0565 N.am           1 S1                 0.0000
     23 ****         4.2418  -1.3202   1.6062 C.3            1 S1                 0.0000
     24 ****        -2.0699   3.4933   0.6506 H              1 S1                 0.0000
     25 ****        -2.0331   2.7262   2.2384 H              1 S1                 0.0000
     26 ****        -3.5062   2.6625   1.2519 H              1 S1                 0.0000
     27 ****        -2.0392   0.3126   2.3375 H              1 S1                 0.0000
     28 ****        -3.4634   0.2226   1.3102 H              1 S1                 0.0000
     29 ****        -2.1614  -1.8760   1.0814 H              1 S1                 0.0000
     30 ****        -2.1700  -1.0163  -0.4195 H              1 S1                 0.0000
     31 ****        -1.7529   0.2568  -5.4459 H              1 S1                 0.0000
     32 ****        -2.5888  -0.9058  -4.4214 H              1 S1                 0.0000
     33 ****        -1.0385  -1.3245  -5.1489 H              1 S1                 0.0000
     34 ****        -0.5924   2.2361  -3.8768 H              1 S1                 0.0000
     35 ****         0.4657   3.3823  -1.5678 H              1 S1                 0.0000
     36 ****         1.8493   2.3269  -1.2763 H              1 S1                 0.0000
     37 ****         0.4872   2.3281  -0.1567 H              1 S1                 0.0000
     38 ****         4.8037  -2.2547   1.6361 H              1 S1                 0.0000
     39 ****         4.7449  -0.5980   2.2503 H              1 S1                 0.0000
     40 ****         4.2976  -0.9414   0.5862 H              1 S1                 0.0000
     41 ****        -0.9548   1.4590   0.5899 LP             1 S1                 0.0000
     42 ****        -2.3064   1.4043  -0.3249 LP             1 S1                 0.0000
     43 ****        -0.7608  -1.7631  -2.4275 LP             1 S1                 0.0000
     44 ****         2.5877  -0.3878  -0.6407 LP             1 S1                 0.0000
     45 ****        -1.7374  -1.8410   2.6862 LP             1 S1                 0.0000
     46 ****        -1.2060  -2.4655   4.2118 LP             1 S1                 0.0000
     47 ****         1.1475  -2.6142   4.6127 LP             1 S1                 0.0000
     48 ****         3.3838  -2.7069   4.9412 LP             1 S1                 0.0000
     49 ****         4.4853  -2.1852   3.7106 LP             1 S1                 0.0000
@<TRIPOS>BOND
    1    1    2 1     
    2    1   24 1     
    3    1   25 1     
    4    1   26 1     
    5    2    3 1     
    6    3    4 1     
    7    3   27 1     
    8    3   28 1     
    9    4    5 1     
   10    4   29 1     
   11    4   30 1     
   12    5   16 1     
   13    5    6 1     
   14    6    7 1     
   15    6   14 2     
   16    7   12 1     
   17    7    8 1     
   18    8    9 2     
   19    9   10 1     
   20    9   11 1     
   21   10   31 1     
   22   10   32 1     
   23   10   33 1     
   24   11   12 2     
   25   11   34 1     
   26   12   13 1     
   27   13   35 1     
   28   13   36 1     
   29   13   37 1     
   30   14   15 1     
   31   15   22 1     
   32   15   16 2     
   33   16   17 1     
   34   17   18 2     
   35   17   19 1     
   36   19   20 1     
   37   20   21 2     
   38   20   22 am    
   39   22   23 1     
   40   23   38 1     
   41   23   39 1     
   42   23   40 1     
   43    2   41 1     
   44    2   42 1     
   45    8   43 1     
   46   14   44 1     
   47   18   45 1     
   48   18   46 1     
   49   19   47 1     
   50   21   48 1     
   51   21   49 1     
@<TRIPOS>SUBSTRUCTURE
      1 S1             1
@<TRIPOS>SET
LONE_PAIRS      STATIC     ATOMS    <user>   **** ""
9 41 42 43 44 45 46 47 48 49
ATOM$BLUE        STATIC     ATOMS    COLORGROUP SYSTEM
9 41 42 43 44 45 46 47 48 49
