#       Name:                AV-unprocessed.smi:551
#       Creating user name   scv26
#       Creation time:       Thu Mar 26 23:39:28 2020


#       File generated by GOLD software.
#

@<TRIPOS>MOLECULE
AV-unprocessed.smi:551
    41    42     1
SMALL
NO_CHARGES


@<TRIPOS>ATOM
      1 ****         0.1576  -3.1979  -2.3045 C.3            1 S1                 0.0000
      2 ****         0.5030  -2.4410  -1.0151 C.3            1 S1                 0.0000
      3 ****         2.0309  -2.3634  -0.8037 C.3            1 S1                 0.0000
      4 ****         2.4034  -1.7884   0.4934 N.pl3          1 S1                 0.0000
      5 ****         2.9093  -0.5366   0.7349 C.2            1 S1                 0.0000
      6 ****         3.0873  -0.4424   2.0911 C.2            1 S1                 0.0000
      7 ****         2.6890  -1.6415   2.6187 N.pl3          1 S1                 1.0000
      8 ****         2.2783  -2.4605   1.6450 C.2            1 S1                 0.0000
      9 ****        -0.0857  -1.1040  -1.0793 N.am           1 S1                 0.0000
     10 ****        -0.6264  -0.4337  -0.0490 C.2            1 S1                 0.0000
     11 ****        -0.6950  -0.8900   1.0930 O.2            1 S1                 0.0000
     12 ****        -1.1498   0.9758  -0.3516 C.3            1 S1                 0.0000
     13 ****        -0.3488   2.0376   0.4318 C.3            1 S1                 0.0000
     14 ****        -0.8685   3.4550   0.1406 C.3            1 S1                 0.0000
     15 ****        -2.3708   3.5710   0.4448 C.3            1 S1                 0.0000
     16 ****        -3.1779   2.5097  -0.3196 C.3            1 S1                 0.0000
     17 ****        -2.6543   1.0937  -0.0276 C.3            1 S1                 0.0000
     18 ****         0.5529  -4.2138  -2.2808 H              1 S1                 0.0000
     19 ****         0.5725  -2.7005  -3.1818 H              1 S1                 0.0000
     20 ****        -0.9221  -3.2699  -2.4413 H              1 S1                 0.0000
     21 ****         0.0590  -2.9984  -0.1883 H              1 S1                 0.0000
     22 ****         2.4736  -3.3590  -0.8565 H              1 S1                 0.0000
     23 ****         2.5011  -1.7670  -1.5871 H              1 S1                 0.0000
     24 ****         3.0923   0.1783  -0.0543 H              1 S1                 0.0000
     25 ****         3.4567   0.3668   2.7040 H              1 S1                 0.0000
     26 ****         1.9071  -3.4625   1.7666 H              1 S1                 0.0000
     27 ****        -0.0780  -0.6492  -1.9811 H              1 S1                 0.0000
     28 ****        -1.0171   1.1692  -1.4179 H              1 S1                 0.0000
     29 ****        -0.4152   1.8449   1.5039 H              1 S1                 0.0000
     30 ****         0.7093   1.9775   0.1731 H              1 S1                 0.0000
     31 ****        -0.3128   4.1839   0.7312 H              1 S1                 0.0000
     32 ****        -0.6873   3.7026  -0.9061 H              1 S1                 0.0000
     33 ****        -2.5364   3.4533   1.5165 H              1 S1                 0.0000
     34 ****        -2.7273   4.5680   0.1843 H              1 S1                 0.0000
     35 ****        -4.2320   2.5791  -0.0494 H              1 S1                 0.0000
     36 ****        -3.1197   2.7073  -1.3908 H              1 S1                 0.0000
     37 ****        -3.2228   0.3679  -0.6108 H              1 S1                 0.0000
     38 ****        -2.8346   0.8551   1.0220 H              1 S1                 0.0000
     39 ****         2.6994  -1.8760   3.6035 H              1 S1                 0.0000
     40 ****        -0.3374  -1.8031   1.2889 LP             1 S1                 0.0000
     41 ****        -1.1084  -0.3474   1.8242 LP             1 S1                 0.0000
@<TRIPOS>BOND
    1    1    2 1     
    2    1   18 1     
    3    1   19 1     
    4    1   20 1     
    5    2    3 1     
    6    2    9 1     
    7    2   21 1     
    8    3    4 1     
    9    3   22 1     
   10    3   23 1     
   11    4    8 1     
   12    4    5 1     
   13    5    6 2     
   14    5   24 1     
   15    6    7 1     
   16    6   25 1     
   17    7    8 2     
   18    7   39 1     
   19    8   26 1     
   20    9   10 am    
   21    9   27 1     
   22   10   11 2     
   23   10   12 1     
   24   12   17 1     
   25   12   13 1     
   26   12   28 1     
   27   13   14 1     
   28   13   29 1     
   29   13   30 1     
   30   14   15 1     
   31   14   31 1     
   32   14   32 1     
   33   15   16 1     
   34   15   33 1     
   35   15   34 1     
   36   16   17 1     
   37   16   35 1     
   38   16   36 1     
   39   17   37 1     
   40   17   38 1     
   41   11   40 1     
   42   11   41 1     
@<TRIPOS>SUBSTRUCTURE
      1 S1             1
@<TRIPOS>SET
LONE_PAIRS      STATIC     ATOMS    <user>   **** ""
2 40 41
DONOR_HYDROGENS      STATIC     ATOMS    <user>   **** ""
2 39 27
ATOM$BLUE        STATIC     ATOMS    COLORGROUP SYSTEM
2 40 41
ATOM$RED        STATIC     ATOMS    COLORGROUP SYSTEM
2 39 27
