#       Name:                AV-unprocessed.smi:3043
#       Creating user name   scv26
#       Creation time:       Fri Mar 27 16:58:14 2020


#       File generated by GOLD software.
#

@<TRIPOS>MOLECULE
AV-unprocessed.smi:3043
    47    48     1
SMALL
NO_CHARGES


@<TRIPOS>ATOM
      1 ****        -4.5271   3.4541   1.3734 C.3            1 S1                 0.0000
      2 ****        -4.4046   2.9253  -0.0575 C.2            1 S1                 0.0000
      3 ****        -4.7464   3.6668  -0.9786 O.2            1 S1                 0.0000
      4 ****        -3.9257   1.6748  -0.2641 N.am           1 S1                 0.0000
      5 ****        -3.7118   1.1192  -1.6057 C.3            1 S1                 0.0000
      6 ****        -2.1985   0.9852  -1.8536 C.3            1 S1                 0.0000
      7 ****        -1.5239   0.1171  -0.7681 C.3            1 S1                 0.0000
      8 ****         0.0008   0.0576  -0.9722 C.3            1 S1                 0.0000
      9 ****         0.6252  -0.9532  -0.0914 N.4            1 S1                 1.0000
     10 ****         2.0957  -1.0761  -0.2051 C.3            1 S1                 0.0000
     11 ****         2.4854  -1.8741  -1.4650 C.3            1 S1                 0.0000
     12 ****         2.6508  -1.7021   1.0910 C.3            1 S1                 0.0000
     13 ****         4.0955  -1.8492   1.0781 N.pl3          1 S1                 0.0000
     14 ****         5.0567  -0.8828   1.2878 C.2            1 S1                 0.0000
     15 ****         6.2744  -1.4905   1.1762 C.2            1 S1                 0.0000
     16 ****         5.9509  -2.8480   0.8975 C.2            1 S1                 0.0000
     17 ****         4.6457  -3.0595   0.8410 N.2            1 S1                 0.0000
     18 ****        -1.9119   0.6217   0.6421 C.3            1 S1                 0.0000
     19 ****        -3.4379   0.7675   0.7821 C.3            1 S1                 0.0000
     20 ****        -3.5592   3.4441   1.8753 H              1 S1                 0.0000
     21 ****        -5.2330   2.8543   1.9486 H              1 S1                 0.0000
     22 ****        -4.8887   4.4828   1.3719 H              1 S1                 0.0000
     23 ****        -4.1929   0.1424  -1.6737 H              1 S1                 0.0000
     24 ****        -4.1627   1.7262  -2.3920 H              1 S1                 0.0000
     25 ****        -2.0261   0.5534  -2.8401 H              1 S1                 0.0000
     26 ****        -1.7462   1.9781  -1.8685 H              1 S1                 0.0000
     27 ****        -1.9167  -0.8953  -0.8789 H              1 S1                 0.0000
     28 ****         0.2157  -0.1919  -2.0111 H              1 S1                 0.0000
     29 ****         0.4449   1.0359  -0.7824 H              1 S1                 0.0000
     30 ****         0.4135  -0.6877   0.8598 H              1 S1                 0.0000
     31 ****         2.5125  -0.0712  -0.2895 H              1 S1                 0.0000
     32 ****         3.5676  -1.9268  -1.5861 H              1 S1                 0.0000
     33 ****         2.0929  -1.4189  -2.3736 H              1 S1                 0.0000
     34 ****         2.1086  -2.8962  -1.4161 H              1 S1                 0.0000
     35 ****         2.3850  -1.0844   1.9500 H              1 S1                 0.0000
     36 ****         2.1989  -2.6809   1.2630 H              1 S1                 0.0000
     37 ****         4.7977   0.1453   1.4948 H              1 S1                 0.0000
     38 ****         7.2485  -1.0355   1.2793 H              1 S1                 0.0000
     39 ****         6.6206  -3.6799   0.7359 H              1 S1                 0.0000
     40 ****        -1.5419  -0.0630   1.4056 H              1 S1                 0.0000
     41 ****        -1.4387   1.5857   0.8354 H              1 S1                 0.0000
     42 ****        -3.6873   1.0904   1.7917 H              1 S1                 0.0000
     43 ****        -3.9174  -0.2052   0.6632 H              1 S1                 0.0000
     44 ****         0.2090  -1.8559  -0.2709 H              1 S1                 0.0000
     45 ****        -5.0915   4.5841  -0.7802 LP             1 S1                 0.0000
     46 ****        -4.6789   3.3519  -1.9253 LP             1 S1                 0.0000
     47 ****         4.1728  -3.9224   0.6627 LP             1 S1                 0.0000
@<TRIPOS>BOND
    1    1    2 1     
    2    1   20 1     
    3    1   21 1     
    4    1   22 1     
    5    2    3 2     
    6    2    4 am    
    7    4   19 1     
    8    4    5 1     
    9    5    6 1     
   10    5   23 1     
   11    5   24 1     
   12    6    7 1     
   13    6   25 1     
   14    6   26 1     
   15    7    8 1     
   16    7   18 1     
   17    7   27 1     
   18    8    9 1     
   19    8   28 1     
   20    8   29 1     
   21    9   10 1     
   22    9   30 1     
   23    9   44 1     
   24   10   11 1     
   25   10   12 1     
   26   10   31 1     
   27   11   32 1     
   28   11   33 1     
   29   11   34 1     
   30   12   13 1     
   31   12   35 1     
   32   12   36 1     
   33   13   17 1     
   34   13   14 1     
   35   14   15 2     
   36   14   37 1     
   37   15   16 1     
   38   15   38 1     
   39   16   17 2     
   40   16   39 1     
   41   18   19 1     
   42   18   40 1     
   43   18   41 1     
   44   19   42 1     
   45   19   43 1     
   46    3   45 1     
   47    3   46 1     
   48   17   47 1     
@<TRIPOS>SUBSTRUCTURE
      1 S1             1
@<TRIPOS>SET
LONE_PAIRS      STATIC     ATOMS    <user>   **** ""
3 45 46 47
DONOR_HYDROGENS      STATIC     ATOMS    <user>   **** ""
2 30 44
ATOM$BLUE        STATIC     ATOMS    COLORGROUP SYSTEM
3 45 46 47
ATOM$RED        STATIC     ATOMS    COLORGROUP SYSTEM
2 30 44
