AV-unprocessed.smi:278|AV-procd|sdf|2091|dock8
  -GOLD-   2262021373D 1   1.00000     0.00000
 Structure written by MMmdl.
 50 54  0  0  0  0  0  0  0  0  1 V2000
  143.7066  136.3789  161.6291 O   0  0  0  0  0  0  0  0  0  0  0  0
  145.1742  136.3893  161.5349 S   0  0  0  0  0  0  0  0  0  0  0  0
  145.9300  137.6378  161.7212 O   0  0  0  0  0  0  0  0  0  0  0  0
  145.8532  135.1070  162.6584 C   0  0  0  0  0  0  0  0  0  0  0  0
  146.2459  133.9195  161.7697 C   0  0  0  0  0  0  0  0  0  0  0  0
  146.6207  134.4382  160.3695 C   0  0  2  0  0  0  0  0  0  0  0  0
  147.9972  135.1082  160.3005 C   0  0  0  0  0  0  0  0  0  0  0  0
  147.8867  136.0918  159.2326 N   0  0  0  0  0  0  0  0  0  0  0  0
  148.8896  136.9723  158.9782 C   0  0  0  0  0  0  0  0  0  0  0  0
  150.1668  136.6141  159.2784 N   0  0  0  0  0  0  0  0  0  0  0  0
  151.1813  137.4507  159.0424 C   0  0  0  0  0  0  0  0  0  0  0  0
  151.1474  138.6738  158.5118 N   0  0  0  0  0  0  0  0  0  0  0  0
  149.8724  139.0370  158.1942 C   0  0  0  0  0  0  0  0  0  0  0  0
  148.6958  138.2577  158.3906 C   0  0  0  0  0  0  0  0  0  0  0  0
  147.5882  138.9639  157.9312 N   0  0  0  0  0  0  0  0  0  0  0  0
  148.0795  140.0930  157.4993 C   0  0  0  0  0  0  0  0  0  0  0  0
  149.4439  140.2186  157.6175 N   0  0  0  0  0  0  0  0  0  0  0  0
  150.2515  141.3567  157.2172 C   0  0  0  0  0  0  0  0  0  0  0  0
  149.9779  142.6029  158.0802 C   0  0  2  0  0  0  0  0  0  0  0  0
  148.7667  143.2226  157.6898 O   0  0  0  0  0  0  0  0  0  0  0  0
  151.1424  143.6140  158.0534 C   0  0  2  0  0  0  0  0  0  0  0  0
  152.4862  143.1248  158.6008 C   0  0  0  0  0  0  0  0  0  0  0  0
  153.1546  144.4361  158.9496 C   0  0  0  0  0  0  0  0  0  0  0  0
  151.9810  145.2491  159.4906 C   0  0  0  0  0  0  0  0  0  0  0  0
  150.8336  144.8078  158.7692 O   0  0  0  0  0  0  0  0  0  0  0  0
  146.4940  136.4734  159.0369 C   0  0  0  0  0  0  0  0  0  0  0  0
  145.6706  135.5657  159.9621 C   0  0  2  0  0  0  0  0  0  0  0  0
  146.5810  133.6342  159.6331 H   0  0  0  0  0  0  0  0  0  0  0  0
  144.7688  135.1888  159.4790 H   0  0  0  0  0  0  0  0  0  0  0  0
  146.7288  135.5256  163.1548 H   0  0  0  0  0  0  0  0  0  0  0  0
  145.1177  134.8441  163.4188 H   0  0  0  0  0  0  0  0  0  0  0  0
  147.0474  133.3292  162.2149 H   0  0  0  0  0  0  0  0  0  0  0  0
  145.3839  133.2584  161.6729 H   0  0  0  0  0  0  0  0  0  0  0  0
  148.2358  135.6163  161.2359 H   0  0  0  0  0  0  0  0  0  0  0  0
  148.7848  134.3822  160.0957 H   0  0  0  0  0  0  0  0  0  0  0  0
  152.1604  137.0868  159.3167 H   0  0  0  0  0  0  0  0  0  0  0  0
  147.4566  140.8704  157.0811 H   0  0  0  0  0  0  0  0  0  0  0  0
  151.3018  141.0719  157.2883 H   0  0  0  0  0  0  0  0  0  0  0  0
  150.0560  141.5669  156.1647 H   0  0  0  0  0  0  0  0  0  0  0  0
  149.8411  142.2823  159.1137 H   0  0  0  0  0  0  0  0  0  0  0  0
  148.9203  143.7034  156.8911 H   0  0  0  0  0  0  0  0  0  0  0  0
  151.3004  143.9231  157.0186 H   0  0  0  0  0  0  0  0  0  0  0  0
  152.3619  142.5281  159.5049 H   0  0  0  0  0  0  0  0  0  0  0  0
  153.0509  142.5352  157.8779 H   0  0  0  0  0  0  0  0  0  0  0  0
  153.9668  144.3280  159.6689 H   0  0  0  0  0  0  0  0  0  0  0  0
  153.5538  144.9051  158.0491 H   0  0  0  0  0  0  0  0  0  0  0  0
  151.8264  145.0333  160.5487 H   0  0  0  0  0  0  0  0  0  0  0  0
  152.1326  146.3236  159.3832 H   0  0  0  0  0  0  0  0  0  0  0  0
  146.3197  137.5305  159.2383 H   0  0  0  0  0  0  0  0  0  0  0  0
  146.2276  136.2854  157.9965 H   0  0  0  0  0  0  0  0  0  0  0  0
  1  2  2  0  0  0  0
  2 27  1  0  0  0  0
  2  3  2  0  0  0  0
  2  4  1  0  0  0  0
  4  5  1  0  0  0  0
  4 30  1  0  0  0  0
  4 31  1  0  0  0  0
  5  6  1  0  0  0  0
  5 32  1  0  0  0  0
  5 33  1  0  0  0  0
  6 28  1  0  0  0  0
  6 27  1  0  0  0  0
  6  7  1  0  0  0  0
  7  8  1  0  0  0  0
  7 34  1  0  0  0  0
  7 35  1  0  0  0  0
  8  9  1  0  0  0  0
  8 26  1  0  0  0  0
  9 14  1  0  0  0  0
  9 10  2  0  0  0  0
 10 11  1  0  0  0  0
 11 12  2  0  0  0  0
 11 36  1  0  0  0  0
 12 13  1  0  0  0  0
 13 17  1  0  0  0  0
 13 14  2  0  0  0  0
 14 15  1  0  0  0  0
 15 16  2  0  0  0  0
 16 17  1  0  0  0  0
 16 37  1  0  0  0  0
 17 18  1  0  0  0  0
 18 19  1  0  0  0  0
 18 38  1  0  0  0  0
 18 39  1  0  0  0  0
 19 20  1  0  0  0  0
 19 21  1  0  0  0  0
 19 40  1  0  0  0  0
 20 41  1  0  0  0  0
 21 25  1  0  0  0  0
 21 22  1  0  0  0  0
 21 42  1  0  0  0  0
 22 23  1  0  0  0  0
 22 43  1  0  0  0  0
 22 44  1  0  0  0  0
 23 24  1  0  0  0  0
 23 45  1  0  0  0  0
 23 46  1  0  0  0  0
 24 25  1  0  0  0  0
 24 47  1  0  0  0  0
 24 48  1  0  0  0  0
 26 27  1  0  0  0  0
 26 49  1  0  0  0  0
 26 50  1  0  0  0  0
 27 29  1  0  0  0  0
M  END
> <s_m_source_file>
AV-unprocessed.smi

> <i_m_source_file_index>
278

> <i_lp_mmshare_version>
43012

> <i_f3d_flags>
0

> <s_epik_input>
W0NIMl0xW0NIMl1TKD1PKSg9TylbQ0BASF0oW0NAQEhdMTIpW0NIMl1OKFtDSDJdMiljKG5bY0hdbjMpYyhjMzQpbltjSF1uNFtDSDJdW0NASF0oW09IXSlbQ0BASF01W0NIMl1bQ0gyXVtDSDJdTzU=

> <s_epik_cmdline>
J2VwaWtfcHl0aG9uJywgJy1waCcsICc3LjAnLCAnLXRuJywgJzgnLCAnLW1hJywgJzIwMCcsICctbWV0YWxfYmluZGluZycsICctaW1hZScsICc8aW5maWxlLm1hZT4nLCAnLW9tYWUnLCAnPG91dGZpbGUubWFlPic=

> <r_lp_tautomer_probability>
1

> <r_epik_Ionization_Penalty>
0.000636766

> <r_epik_Ionization_Penalty_Charging>
0

> <r_epik_Ionization_Penalty_Neutral>
0.000636766

> <r_epik_State_Penalty>
0.000329976

> <r_epik_Charging_Adjusted_Penalty>
0.000329976

> <i_epik_Tot_Q>
0

> <i_epik_Tot_abs_Q>
0

> <r_epik_Metal_State_Penalty>
-0

> <b_epik_Metal_Only>
0

> <s_lp_Force_Field>
OPLS_2005

> <r_lp_Energy>
50.4142

> <b_lp_Chiralities_Consistent>
1

> <s_lp_Variant>
AV-unprocessed.smi:278-5

> <Gold.Version>
5.8.1

> <Gold.Id.Protein>
6NUR|6NUR_protein|mol2

> <Gold.PLP.Fitness>
45.9708

> <Gold.PLP.PLP>
-37.9875

> <Gold.PLP.part.hbond>
-4.3928

> <Gold.PLP.part.metal>
0.0000

> <Gold.PLP.part.buried>
-4.5593

> <Gold.PLP.part.nonpolar>
-28.4126

> <Gold.PLP.part.repulsive>
0.1856

> <Gold.PLP.ligand.clash>
0.0000

> <Gold.PLP.ligand.torsion>
0.4453

> <Gold.PLP.Chemscore.Hbond>
2.8640

> <Gold.PLP.Chemscore.CHOScore>
0.0000

> <Gold.PLP.Chemscore.Metal>
0.0000

> <Gold.Chemscore.Hbonds>
donor molecule, donor type, donor heavy atom, donor atom, acceptor molecule, acceptor atom, score
      L1  H    20    41       P1  8028  1.00
      P1  H  6896  6909       L1    10  1.00
      P1  H  6934  6947       L1     3  0.86

> <Gold.PLP.Chemscore.Internal.Correction>
0.2819

> <Gold.Rescore>
     Score         DG    S(hbond)    S(metal)    S(lipo)     H(rot)  DE(clash)    DE(int)     intcor
     17.48     -19.56       2.58        0.00      93.32       2.13       0.20       1.88       ----

> <Gold.Chemscore.Fitness>
17.4760

> <Gold.Chemscore.DG>
-19.5647

> <Gold.Chemscore.ZeroCoef>
-5.4800

> <Gold.Chemscore.Hbond>
2.5842

> <Gold.Chemscore.Metal>
0.0000

> <Gold.Chemscore.Lipo>
93.3166

> <Gold.Chemscore.Internal_Hbond>
0.0000

> <Gold.Chemscore.DEClash>
0.2044

> <Gold.Chemscore.DEInternal>
1.8843

> <Gold.Chemscore.Rot>
2.1346

> <Gold.Chemscore.Internal.Correction>
   9.000000E+99

> <Gold.Chemscore.Hbonds>
donor molecule, donor type, donor heavy atom, donor atom, acceptor molecule, acceptor atom, score
      L1  H    20    41       P1  8028  0.44
      P1  H  6896  6909       L1    10  0.70
      P1  H  6934  6947       L1     3  0.82

> <Gold.Chemscore.Hbond.Weighted>
-8.6313

> <Gold.Chemscore.Metal.Weighted>
-0.0000

> <Gold.Chemscore.Lipo.Weighted>
-10.9180

> <Gold.Chemscore.Internal_Hbond.Weighted>
0.0000

> <Gold.Chemscore.DEClash.Weighted>
0.2044

> <Gold.Chemscore.DEInternal.Weighted>
1.8843

> <Gold.Chemscore.Rot.Weighted>
5.4646

> <Gold.Chemscore.Internal.Correction.Weighted>
   9.000000E+99

> <Gold.Protein.RotatedTorsions>
[ 6907 6896 6895 6894 ] final   70.58 input  -60.11 | X-H torsion
[ 7974 7965 7964 7962 ] final  -81.17 input  175.53 | X-H torsion
[ 8008 7997 7996 7995 ] final  -97.14 input   59.86 | X-H torsion
[ 10167 10162 10161 10158 ] final  167.13 input  -65.29 | X-H torsion
[ 10718 10713 10712 10709 ] final  -89.47 input   66.30 | X-H torsion
[ 10763 10752 10751 10750 ] final  -27.66 input  -60.55 | X-H torsion
[ 11005 11000 10999 10996 ] final   36.65 input  -57.11 | X-H torsion

> <Gold.Protein.ActiveResidues>
 VAL166  LYS551  ARG553  GLY616  TRP617  ASP618  TYR619  PRO620  LYS621  CYS622 
 ASP623  PHE694  ASN695  SER759  ASP760  ASP761  ALA762  ILE779  LEU786  VAL792 
 PHE793  MET794  SER795  GLU796  ALA797  LYS798  CYS799  TRP800  GLU811  SER814 

> <Gold.Protein.RotatedAtoms>
  152.4758  134.4848  159.9676 H   0  0  0  0  0  0  0  0  0  0  0  0  # atno 6907 bound_to 6896
  151.4864  133.3529  159.2854 H   0  0  0  0  0  0  0  0  0  0  0  0  # atno 6908 bound_to 6896
  150.8795  134.8211  159.7276 H   0  0  0  0  0  0  0  0  0  0  0  0  # atno 6909 bound_to 6896
  145.5502  140.9498  143.1503 H   0  0  0  0  0  0  0  0  0  0  0  0  # atno 7974 bound_to 7965
  154.7838  140.0465  157.1148 H   0  0  0  0  0  0  0  0  0  0  0  0  # atno 8008 bound_to 7997
  154.9673  140.3085  155.4984 H   0  0  0  0  0  0  0  0  0  0  0  0  # atno 8009 bound_to 7997
  156.2940  140.2260  156.4763 H   0  0  0  0  0  0  0  0  0  0  0  0  # atno 8010 bound_to 7997
  139.4939  144.3955  151.9469 H   0  0  0  0  0  0  0  0  0  0  0  0  # atno 10167 bound_to 10162
  155.9984  130.4873  150.5175 H   0  0  0  0  0  0  0  0  0  0  0  0  # atno 10718 bound_to 10713
  153.7356  135.6936  153.4979 H   0  0  0  0  0  0  0  0  0  0  0  0  # atno 10763 bound_to 10752
  153.2105  135.4404  155.0372 H   0  0  0  0  0  0  0  0  0  0  0  0  # atno 10764 bound_to 10752
  154.8238  135.3435  154.6884 H   0  0  0  0  0  0  0  0  0  0  0  0  # atno 10765 bound_to 10752
  140.2304  134.3534  155.7966 H   0  0  0  0  0  0  0  0  0  0  0  0  # atno 11005 bound_to 11000
  144.7533  139.7137  143.7264 LP  0  0  0  0  0  0  0  0  0  0  0  0  # atno 17320 bound_to 7965
  146.1922  139.5169  142.9797 LP  0  0  0  0  0  0  0  0  0  0  0  0  # atno 17321 bound_to 7965
  140.3393  144.3223  150.5970 LP  0  0  0  0  0  0  0  0  0  0  0  0  # atno 17342 bound_to 10162
  140.5579  143.2196  151.7815 LP  0  0  0  0  0  0  0  0  0  0  0  0  # atno 17343 bound_to 10162
  157.3141  131.0669  151.1980 LP  0  0  0  0  0  0  0  0  0  0  0  0  # atno 17370 bound_to 10713
  157.2916  130.6799  149.6117 LP  0  0  0  0  0  0  0  0  0  0  0  0  # atno 17371 bound_to 10713
  141.2218  133.7242  156.8722 LP  0  0  0  0  0  0  0  0  0  0  0  0  # atno 17394 bound_to 11000
  140.1756  134.9069  157.2887 LP  0  0  0  0  0  0  0  0  0  0  0  0  # atno 17395 bound_to 11000

$$$$
