AV-unprocessed.smi:1705|AV-procd|sdf|6885|dock1
  -GOLD-   22720 8 93D 1   1.00000     0.00000
 Structure written by MMmdl.
 38 39  0  0  0  0  0  0  0  0  1 V2000
  152.0211  139.8644  154.8981 C   0  0  0  0  0  0  0  0  0  0  0  0
  150.9591  139.9973  156.0005 C   0  0  1  0  0  0  0  0  0  0  0  0
  151.2108  141.1982  156.7833 N   0  0  0  0  0  0  0  0  0  0  0  0
  151.9091  141.2750  157.9844 C   0  0  0  0  0  0  0  0  0  0  0  0
  152.4544  140.1726  158.5718 C   0  0  0  0  0  0  0  0  0  0  0  0
  152.4022  138.8635  158.0012 C   0  0  0  0  0  0  0  0  0  0  0  0
  152.3786  137.7917  157.5629 N   0  0  0  0  0  0  0  0  0  0  0  0
  153.1783  140.2484  159.8391 C   0  0  0  0  0  0  0  0  0  0  0  0
  153.6800  139.2729  160.4031 O   0  0  0  0  0  0  0  0  0  0  0  0
  153.2649  141.5405  160.3949 N   0  0  0  0  0  0  0  0  0  0  0  0
  153.9633  141.6503  161.6606 C   0  0  0  0  0  0  0  0  0  0  0  0
  152.7073  142.6968  159.8108 C   0  0  0  0  0  0  0  0  0  0  0  0
  152.7932  143.8034  160.3516 O   0  0  0  0  0  0  0  0  0  0  0  0
  152.0354  142.5367  158.5738 N   0  0  0  0  0  0  0  0  0  0  0  0
  151.4778  143.7586  158.0289 C   0  0  0  0  0  0  0  0  0  0  0  0
  149.5295  140.0474  155.4307 C   0  0  1  0  0  0  0  0  0  0  0  0
  149.2309  141.2579  154.5471 C   0  0  0  0  0  0  0  0  0  0  0  0
  148.0744  140.7821  153.6845 C   0  0  0  0  0  0  0  0  0  0  0  0
  148.1597  139.2549  153.7614 C   0  0  0  0  0  0  0  0  0  0  0  0
  149.3292  138.9769  154.5197 O   0  0  0  0  0  0  0  0  0  0  0  0
  151.9084  138.9304  154.3476 H   0  0  0  0  0  0  0  0  0  0  0  0
  153.0283  139.8752  155.3142 H   0  0  0  0  0  0  0  0  0  0  0  0
  151.9522  140.6843  154.1826 H   0  0  0  0  0  0  0  0  0  0  0  0
  151.0243  139.1263  156.6520 H   0  0  0  0  0  0  0  0  0  0  0  0
  150.4481  141.8564  156.7130 H   0  0  0  0  0  0  0  0  0  0  0  0
  154.0715  142.6888  161.9704 H   0  0  0  0  0  0  0  0  0  0  0  0
  154.9546  141.2129  161.5279 H   0  0  0  0  0  0  0  0  0  0  0  0
  153.3791  141.0963  162.3972 H   0  0  0  0  0  0  0  0  0  0  0  0
  150.6825  144.0791  158.7039 H   0  0  0  0  0  0  0  0  0  0  0  0
  151.0770  143.5887  157.0326 H   0  0  0  0  0  0  0  0  0  0  0  0
  152.2807  144.4956  157.9663 H   0  0  0  0  0  0  0  0  0  0  0  0
  148.7905  139.9780  156.2315 H   0  0  0  0  0  0  0  0  0  0  0  0
  148.9894  142.1532  155.1204 H   0  0  0  0  0  0  0  0  0  0  0  0
  150.0910  141.4823  153.9148 H   0  0  0  0  0  0  0  0  0  0  0  0
  147.1208  141.1277  154.0851 H   0  0  0  0  0  0  0  0  0  0  0  0
  148.1625  141.1492  152.6614 H   0  0  0  0  0  0  0  0  0  0  0  0
  147.2890  138.8465  154.2758 H   0  0  0  0  0  0  0  0  0  0  0  0
  148.2216  138.7912  152.7768 H   0  0  0  0  0  0  0  0  0  0  0  0
  1  2  1  0  0  0  0
  1 21  1  0  0  0  0
  1 22  1  0  0  0  0
  1 23  1  0  0  0  0
  2  3  1  0  0  0  0
  2 16  1  0  0  0  0
  2 24  1  0  0  0  0
  3  4  1  0  0  0  0
  3 25  1  0  0  0  0
  4 14  1  0  0  0  0
  4  5  2  0  0  0  0
  5  6  1  0  0  0  0
  5  8  1  0  0  0  0
  6  7  3  0  0  0  0
  8  9  2  0  0  0  0
  8 10  1  0  0  0  0
 10 11  1  0  0  0  0
 10 12  1  0  0  0  0
 11 26  1  0  0  0  0
 11 27  1  0  0  0  0
 11 28  1  0  0  0  0
 12 13  2  0  0  0  0
 12 14  1  0  0  0  0
 14 15  1  0  0  0  0
 15 29  1  0  0  0  0
 15 30  1  0  0  0  0
 15 31  1  0  0  0  0
 16 20  1  0  0  0  0
 16 17  1  0  0  0  0
 16 32  1  0  0  0  0
 17 18  1  0  0  0  0
 17 33  1  0  0  0  0
 17 34  1  0  0  0  0
 18 19  1  0  0  0  0
 18 35  1  0  0  0  0
 18 36  1  0  0  0  0
 19 20  1  0  0  0  0
 19 37  1  0  0  0  0
 19 38  1  0  0  0  0
M  END
> <s_m_source_file>
AV-unprocessed.smi

> <i_m_source_file_index>
1705

> <i_lp_mmshare_version>
43012

> <i_f3d_flags>
0

> <s_epik_input>
TzFbQ0gyXVtDSDJdW0NIMl1bQ0BIXTFbQ0BIXShbQ0gzXSlbTkhdYzJjKEMjTiljKD1PKW4oW0NIM10pYyg9TyluMltDSDNd

> <s_epik_cmdline>
J2VwaWtfcHl0aG9uJywgJy1waCcsICc3LjAnLCAnLXRuJywgJzgnLCAnLW1hJywgJzIwMCcsICctbWV0YWxfYmluZGluZycsICctaW1hZScsICc8aW5maWxlLm1hZT4nLCAnLW9tYWUnLCAnPG91dGZpbGUubWFlPic=

> <r_epik_Ionization_Penalty>
0.000446268

> <r_epik_Ionization_Penalty_Charging>
9.41922e-10

> <r_epik_Ionization_Penalty_Neutral>
0.000446267

> <r_epik_State_Penalty>
0.000275531

> <r_epik_Charging_Adjusted_Penalty>
0.000275532

> <i_epik_Tot_Q>
0

> <i_epik_Tot_abs_Q>
0

> <r_epik_Metal_State_Penalty>
-0

> <b_epik_Metal_Only>
0

> <s_lp_Force_Field>
OPLS_2005

> <r_lp_Energy>
37.8394

> <b_lp_Chiralities_Consistent>
1

> <s_lp_Variant>
AV-unprocessed.smi:1705-4

> <Gold.Version>
5.8.1

> <Gold.Id.Protein>
6NUR|6NUR_protein|mol2

> <Gold.PLP.Fitness>
34.8313

> <Gold.PLP.PLP>
-35.5272

> <Gold.PLP.part.hbond>
0.0000

> <Gold.PLP.part.metal>
0.0000

> <Gold.PLP.part.buried>
2.0992

> <Gold.PLP.part.nonpolar>
-36.2568

> <Gold.PLP.part.repulsive>
0.2704

> <Gold.PLP.ligand.clash>
9.0509

> <Gold.PLP.ligand.torsion>
0.3634

> <Gold.PLP.Chemscore.Hbond>
0.0000

> <Gold.PLP.Chemscore.CHOScore>
0.0000

> <Gold.PLP.Chemscore.Metal>
0.0000

> <Gold.PLP.Chemscore.Internal.Correction>
9.0818

> <Gold.Rescore>
     Score         DG    S(hbond)    S(metal)    S(lipo)     H(rot)  DE(clash)    DE(int)     intcor
      6.26     -10.46       0.00        0.00      70.55       1.28       1.60       2.60       ----

> <Gold.Chemscore.Fitness>
6.2639

> <Gold.Chemscore.DG>
-10.4625

> <Gold.Chemscore.ZeroCoef>
-5.4800

> <Gold.Chemscore.Hbond>
0.0000

> <Gold.Chemscore.Metal>
0.0000

> <Gold.Chemscore.Lipo>
70.5488

> <Gold.Chemscore.Internal_Hbond>
0.0000

> <Gold.Chemscore.DEClash>
1.6013

> <Gold.Chemscore.DEInternal>
2.5973

> <Gold.Chemscore.Rot>
1.2780

> <Gold.Chemscore.Internal.Correction>
   9.000000E+99

> <Gold.Chemscore.Hbond.Weighted>
-0.0000

> <Gold.Chemscore.Metal.Weighted>
-0.0000

> <Gold.Chemscore.Lipo.Weighted>
-8.2542

> <Gold.Chemscore.Internal_Hbond.Weighted>
0.0000

> <Gold.Chemscore.DEClash.Weighted>
1.6013

> <Gold.Chemscore.DEInternal.Weighted>
2.5973

> <Gold.Chemscore.Rot.Weighted>
3.2717

> <Gold.Chemscore.Internal.Correction.Weighted>
   9.000000E+99

> <Gold.Protein.RotatedTorsions>
[ 6907 6896 6895 6894 ] final    9.67 input  -60.11 | X-H torsion
[ 7974 7965 7964 7962 ] final  103.60 input  175.53 | X-H torsion
[ 8008 7997 7996 7995 ] final   16.16 input   59.86 | X-H torsion
[ 10167 10162 10161 10158 ] final    0.24 input  -65.29 | X-H torsion
[ 10718 10713 10712 10709 ] final    9.04 input   66.30 | X-H torsion
[ 10763 10752 10751 10750 ] final   91.54 input  -60.55 | X-H torsion
[ 11005 11000 10999 10996 ] final   50.45 input  -57.11 | X-H torsion

> <Gold.Protein.ActiveResidues>
 VAL166  LYS551  ARG553  GLY616  TRP617  ASP618  TYR619  PRO620  LYS621  CYS622 
 ASP623  PHE694  ASN695  SER759  ASP760  ASP761  ALA762  ILE779  LEU786  VAL792 
 PHE793  MET794  SER795  GLU796  ALA797  LYS798  CYS799  TRP800  GLU811  SER814 

> <Gold.Protein.RotatedAtoms>
  151.7259  135.0885  160.0291 H   0  0  0  0  0  0  0  0  0  0  0  0  # atno 6907 bound_to 6896
  152.3572  133.6247  159.5996 H   0  0  0  0  0  0  0  0  0  0  0  0  # atno 6908 bound_to 6896
  150.7579  133.9397  159.3494 H   0  0  0  0  0  0  0  0  0  0  0  0  # atno 6909 bound_to 6896
  145.3437  139.2456  143.3595 H   0  0  0  0  0  0  0  0  0  0  0  0  # atno 7974 bound_to 7965
  154.8730  140.2961  155.5470 H   0  0  0  0  0  0  0  0  0  0  0  0  # atno 8008 bound_to 7997
  156.3021  140.2456  156.3655 H   0  0  0  0  0  0  0  0  0  0  0  0  # atno 8009 bound_to 7997
  154.8797  140.0398  157.1764 H   0  0  0  0  0  0  0  0  0  0  0  0  # atno 8010 bound_to 7997
  140.6737  143.6976  150.7977 H   0  0  0  0  0  0  0  0  0  0  0  0  # atno 10167 bound_to 10162
  156.9604  130.5931  149.5662 H   0  0  0  0  0  0  0  0  0  0  0  0  # atno 10718 bound_to 10713
  153.2094  135.4394  155.0361 H   0  0  0  0  0  0  0  0  0  0  0  0  # atno 10763 bound_to 10752
  154.8191  135.3329  154.7092 H   0  0  0  0  0  0  0  0  0  0  0  0  # atno 10764 bound_to 10752
  153.7531  135.6997  153.4997 H   0  0  0  0  0  0  0  0  0  0  0  0  # atno 10765 bound_to 10752
  140.1016  134.5073  155.8757 H   0  0  0  0  0  0  0  0  0  0  0  0  # atno 11005 bound_to 11000
  146.2997  140.4040  142.8709 LP  0  0  0  0  0  0  0  0  0  0  0  0  # atno 17320 bound_to 7965
  144.8770  140.7350  143.6010 LP  0  0  0  0  0  0  0  0  0  0  0  0  # atno 17321 bound_to 7965
  140.0666  143.5102  152.2601 LP  0  0  0  0  0  0  0  0  0  0  0  0  # atno 17342 bound_to 10162
  139.6018  144.7585  151.3153 LP  0  0  0  0  0  0  0  0  0  0  0  0  # atno 17343 bound_to 10162
  156.0324  130.5415  150.8569 LP  0  0  0  0  0  0  0  0  0  0  0  0  # atno 17370 bound_to 10713
  157.5661  131.0946  150.9487 LP  0  0  0  0  0  0  0  0  0  0  0  0  # atno 17371 bound_to 10713
  141.2107  133.6698  156.6530 LP  0  0  0  0  0  0  0  0  0  0  0  0  # atno 17394 bound_to 11000
  140.3212  134.8006  157.4254 LP  0  0  0  0  0  0  0  0  0  0  0  0  # atno 17395 bound_to 11000

$$$$
