AV-unprocessed.smi:720|AV-procd|sdf|3500|dock6
  -GOLD-   22720 0493D 1   1.00000     0.00000
 Structure written by MMmdl.
 46 48  0  0  0  0  0  0  0  0  1 V2000
  144.7489  135.9729  151.6647 C   0  0  0  0  0  0  0  0  0  0  0  0
  145.3715  136.4083  152.9097 N   0  0  0  0  0  0  0  0  0  0  0  0
  144.4125  136.2042  153.9877 C   0  0  0  0  0  0  0  0  0  0  0  0
  145.7457  137.8235  152.8702 C   0  0  0  0  0  0  0  0  0  0  0  0
  146.7273  138.2369  153.9877 C   0  0  0  0  0  0  0  0  0  0  0  0
  147.0658  139.6496  153.9699 N   0  0  0  0  0  0  0  0  0  0  0  0
  146.5087  140.6557  153.2058 C   0  0  0  0  0  0  0  0  0  0  0  0
  147.1334  141.8227  153.5415 C   0  0  0  0  0  0  0  0  0  0  0  0
  148.0649  141.4166  154.5431 C   0  0  0  0  0  0  0  0  0  0  0  0
  148.9721  142.2613  155.2313 N   0  0  0  0  0  0  0  0  0  0  0  0
  149.9575  141.9187  156.0837 C   0  0  0  0  0  0  0  0  0  0  0  0
  150.2566  140.7646  156.3836 O   0  0  0  0  0  0  0  0  0  0  0  0
  150.6122  142.9668  156.6152 N   0  0  0  0  0  0  0  0  0  0  0  0
  151.7248  142.9445  157.5677 C   0  0  1  0  0  0  0  0  0  0  0  0
  152.3968  144.3261  157.7548 C   0  0  0  0  0  0  0  0  0  0  0  0
  152.2600  144.5716  159.2685 C   0  0  2  0  0  0  0  0  0  0  0  0
  153.1656  143.5878  160.0350 C   0  0  0  0  0  0  0  0  0  0  0  0
  152.4293  142.2436  159.8691 C   0  0  0  0  0  0  0  0  0  0  0  0
  151.2224  142.6289  158.9938 C   0  0  1  0  0  0  0  0  0  0  0  0
  150.8735  144.0078  159.5463 C   0  0  0  0  0  0  0  0  0  0  0  0
  148.0086  140.1242  154.8133 N   0  0  0  0  0  0  0  0  0  0  0  0
  145.4553  135.9990  150.8376 H   0  0  0  0  0  0  0  0  0  0  0  0
  143.8918  136.5969  151.4073 H   0  0  0  0  0  0  0  0  0  0  0  0
  144.4041  134.9418  151.7506 H   0  0  0  0  0  0  0  0  0  0  0  0
  144.8465  136.4820  154.9489 H   0  0  0  0  0  0  0  0  0  0  0  0
  144.1231  135.1547  154.0516 H   0  0  0  0  0  0  0  0  0  0  0  0
  143.5105  136.7989  153.8351 H   0  0  0  0  0  0  0  0  0  0  0  0
  146.1198  138.1019  151.8837 H   0  0  0  0  0  0  0  0  0  0  0  0
  144.8366  138.4069  153.0225 H   0  0  0  0  0  0  0  0  0  0  0  0
  146.2687  138.0336  154.9558 H   0  0  0  0  0  0  0  0  0  0  0  0
  147.6365  137.6342  153.9479 H   0  0  0  0  0  0  0  0  0  0  0  0
  145.7239  140.4588  152.4907 H   0  0  0  0  0  0  0  0  0  0  0  0
  146.9404  142.8015  153.1291 H   0  0  0  0  0  0  0  0  0  0  0  0
  148.8263  143.2509  155.0962 H   0  0  0  0  0  0  0  0  0  0  0  0
  150.2944  143.8835  156.3352 H   0  0  0  0  0  0  0  0  0  0  0  0
  152.4485  142.1908  157.2514 H   0  0  0  0  0  0  0  0  0  0  0  0
  153.4375  144.3269  157.4282 H   0  0  0  0  0  0  0  0  0  0  0  0
  151.8756  145.1061  157.1973 H   0  0  0  0  0  0  0  0  0  0  0  0
  152.4008  145.6136  159.5568 H   0  0  0  0  0  0  0  0  0  0  0  0
  154.1777  143.5601  159.6299 H   0  0  0  0  0  0  0  0  0  0  0  0
  153.2338  143.8597  161.0891 H   0  0  0  0  0  0  0  0  0  0  0  0
  153.0544  141.4774  159.4091 H   0  0  0  0  0  0  0  0  0  0  0  0
  152.0989  141.8666  160.8378 H   0  0  0  0  0  0  0  0  0  0  0  0
  150.4136  141.8980  159.0304 H   0  0  0  0  0  0  0  0  0  0  0  0
  150.6148  143.9972  160.6065 H   0  0  0  0  0  0  0  0  0  0  0  0
  150.0815  144.5122  158.9896 H   0  0  0  0  0  0  0  0  0  0  0  0
  1  2  1  0  0  0  0
  1 22  1  0  0  0  0
  1 23  1  0  0  0  0
  1 24  1  0  0  0  0
  2  3  1  0  0  0  0
  2  4  1  0  0  0  0
  3 25  1  0  0  0  0
  3 26  1  0  0  0  0
  3 27  1  0  0  0  0
  4  5  1  0  0  0  0
  4 28  1  0  0  0  0
  4 29  1  0  0  0  0
  5  6  1  0  0  0  0
  5 30  1  0  0  0  0
  5 31  1  0  0  0  0
  6 21  1  0  0  0  0
  6  7  1  0  0  0  0
  7  8  2  0  0  0  0
  7 32  1  0  0  0  0
  8  9  1  0  0  0  0
  8 33  1  0  0  0  0
  9 10  1  0  0  0  0
  9 21  2  0  0  0  0
 10 11  1  0  0  0  0
 10 34  1  0  0  0  0
 11 12  2  0  0  0  0
 11 13  1  0  0  0  0
 13 14  1  0  0  0  0
 13 35  1  0  0  0  0
 14 19  1  0  0  0  0
 14 15  1  0  0  0  0
 14 36  1  0  0  0  0
 15 16  1  0  0  0  0
 15 37  1  0  0  0  0
 15 38  1  0  0  0  0
 16 20  1  0  0  0  0
 16 17  1  0  0  0  0
 16 39  1  0  0  0  0
 17 18  1  0  0  0  0
 17 40  1  0  0  0  0
 17 41  1  0  0  0  0
 18 19  1  0  0  0  0
 18 42  1  0  0  0  0
 18 43  1  0  0  0  0
 19 20  1  0  0  0  0
 19 44  1  0  0  0  0
 20 45  1  0  0  0  0
 20 46  1  0  0  0  0
M  END
> <s_m_source_file>
AV-unprocessed.smi

> <i_m_source_file_index>
720

> <i_lp_mmshare_version>
43012

> <i_f3d_flags>
0

> <s_epik_input>
W0NIM11OKFtDSDNdKVtDSDJdW0NIMl1uMVtjSF1bY0hdYyhuMSlbTkhdQyg9TylbTkhdW0NASF0oW0NIMl1bQ0BIXTIzKVtDQEhdKFtDSDJdMylbQ0gyXVtDSDJdMg==

> <s_epik_cmdline>
J2VwaWtfcHl0aG9uJywgJy1waCcsICc3LjAnLCAnLXRuJywgJzgnLCAnLW1hJywgJzIwMCcsICctbWV0YWxfYmluZGluZycsICctaW1hZScsICc8aW5maWxlLm1hZT4nLCAnLW9tYWUnLCAnPG91dGZpbGUubWFlPic=

> <r_lp_tautomer_probability>
1

> <r_epik_Ionization_Penalty>
1.83819

> <r_epik_Ionization_Penalty_Charging>
0

> <r_epik_Ionization_Penalty_Neutral>
1.83819

> <r_epik_State_Penalty>
1.95467

> <r_epik_Charging_Adjusted_Penalty>
1.95467

> <i_epik_Tot_Q>
0

> <i_epik_Tot_abs_Q>
0

> <r_epik_Metal_State_Penalty>
1.95467

> <b_epik_Metal_Only>
0

> <s_lp_Force_Field>
OPLS_2005

> <r_lp_Energy>
64.3951

> <b_lp_Chiralities_Consistent>
1

> <s_lp_Variant>
AV-unprocessed.smi:720-6

> <Gold.Version>
5.8.1

> <Gold.Id.Protein>
6NUR|6NUR_protein|mol2

> <Gold.PLP.Fitness>
47.4426

> <Gold.PLP.PLP>
-39.5693

> <Gold.PLP.part.hbond>
-1.9519

> <Gold.PLP.part.metal>
0.0000

> <Gold.PLP.part.buried>
-4.3211

> <Gold.PLP.part.nonpolar>
-33.2053

> <Gold.PLP.part.repulsive>
0.8341

> <Gold.PLP.ligand.clash>
0.0000

> <Gold.PLP.ligand.torsion>
0.3510

> <Gold.PLP.Chemscore.Hbond>
1.8800

> <Gold.PLP.Chemscore.CHOScore>
0.9578

> <Gold.PLP.Chemscore.Metal>
0.0000

> <Gold.Chemscore.Hbonds>
donor molecule, donor type, donor heavy atom, donor atom, acceptor molecule, acceptor atom, score
      L1  H    10    34       P1  8028  1.00
      L1  H    13    35       P1  8028  0.86
      L1  C     7    32       P1 10175  1.00

> <Gold.PLP.Chemscore.Internal.Correction>
0.0617

> <Gold.Rescore>
     Score         DG    S(hbond)    S(metal)    S(lipo)     H(rot)  DE(clash)    DE(int)     intcor
     18.45     -20.38       1.88        0.00     107.20       1.53       0.31       1.62       ----

> <Gold.Chemscore.Fitness>
18.4462

> <Gold.Chemscore.DG>
-20.3804

> <Gold.Chemscore.ZeroCoef>
-5.4800

> <Gold.Chemscore.Hbond>
1.8797

> <Gold.Chemscore.Metal>
0.0000

> <Gold.Chemscore.Lipo>
107.1973

> <Gold.Chemscore.Internal_Hbond>
0.0000

> <Gold.Chemscore.DEClash>
0.3092

> <Gold.Chemscore.DEInternal>
1.6250

> <Gold.Chemscore.Rot>
1.5312

> <Gold.Chemscore.Internal.Correction>
   9.000000E+99

> <Gold.Chemscore.Hbonds>
donor molecule, donor type, donor heavy atom, donor atom, acceptor molecule, acceptor atom, score
      L1  H    10    34       P1  8028  0.92
      L1  H    13    35       P1  8028  0.85

> <Gold.Chemscore.Hbond.Weighted>
-6.2782

> <Gold.Chemscore.Metal.Weighted>
-0.0000

> <Gold.Chemscore.Lipo.Weighted>
-12.5421

> <Gold.Chemscore.Internal_Hbond.Weighted>
0.0000

> <Gold.Chemscore.DEClash.Weighted>
0.3092

> <Gold.Chemscore.DEInternal.Weighted>
1.6250

> <Gold.Chemscore.Rot.Weighted>
3.9199

> <Gold.Chemscore.Internal.Correction.Weighted>
   9.000000E+99

> <Gold.Protein.RotatedTorsions>
[ 6907 6896 6895 6894 ] final  -56.44 input  -60.11 | X-H torsion
[ 7974 7965 7964 7962 ] final  100.41 input  175.53 | X-H torsion
[ 8008 7997 7996 7995 ] final  -59.47 input   59.86 | X-H torsion
[ 10167 10162 10161 10158 ] final -110.99 input  -65.29 | X-H torsion
[ 10718 10713 10712 10709 ] final -119.42 input   66.30 | X-H torsion
[ 10763 10752 10751 10750 ] final   79.87 input  -60.55 | X-H torsion
[ 11005 11000 10999 10996 ] final   21.06 input  -57.11 | X-H torsion

> <Gold.Protein.ActiveResidues>
 VAL166  LYS551  ARG553  GLY616  TRP617  ASP618  TYR619  PRO620  LYS621  CYS622 
 ASP623  PHE694  ASN695  SER759  ASP760  ASP761  ALA762  ILE779  LEU786  VAL792 
 PHE793  MET794  SER795  GLU796  ALA797  LYS798  CYS799  TRP800  GLU811  SER814 

> <Gold.Protein.RotatedAtoms>
  150.8167  134.7353  159.6736 H   0  0  0  0  0  0  0  0  0  0  0  0  # atno 6907 bound_to 6896
  152.4286  134.5818  159.9960 H   0  0  0  0  0  0  0  0  0  0  0  0  # atno 6908 bound_to 6896
  151.6013  133.3319  159.3084 H   0  0  0  0  0  0  0  0  0  0  0  0  # atno 6909 bound_to 6896
  145.3860  139.2371  143.3378 H   0  0  0  0  0  0  0  0  0  0  0  0  # atno 7974 bound_to 7965
  154.4354  140.1061  156.6121 H   0  0  0  0  0  0  0  0  0  0  0  0  # atno 8008 bound_to 7997
  155.5798  140.3490  155.4518 H   0  0  0  0  0  0  0  0  0  0  0  0  # atno 8009 bound_to 7997
  156.0327  140.1264  157.0230 H   0  0  0  0  0  0  0  0  0  0  0  0  # atno 8010 bound_to 7997
  140.1385  143.4299  152.1579 H   0  0  0  0  0  0  0  0  0  0  0  0  # atno 10167 bound_to 10162
  156.1180  130.6301  150.9414 H   0  0  0  0  0  0  0  0  0  0  0  0  # atno 10718 bound_to 10713
  153.0987  135.4824  154.8827 H   0  0  0  0  0  0  0  0  0  0  0  0  # atno 10763 bound_to 10752
  154.7354  135.3070  154.8822 H   0  0  0  0  0  0  0  0  0  0  0  0  # atno 10764 bound_to 10752
  153.9446  135.6830  153.4797 H   0  0  0  0  0  0  0  0  0  0  0  0  # atno 10765 bound_to 10752
  140.3958  134.1771  155.7663 H   0  0  0  0  0  0  0  0  0  0  0  0  # atno 11005 bound_to 11000
  146.2820  140.4535  142.8772 LP  0  0  0  0  0  0  0  0  0  0  0  0  # atno 17320 bound_to 7965
  144.8474  140.6950  143.6190 LP  0  0  0  0  0  0  0  0  0  0  0  0  # atno 17321 bound_to 7965
  139.5484  144.7317  151.4512 LP  0  0  0  0  0  0  0  0  0  0  0  0  # atno 17342 bound_to 10162
  140.6775  143.8157  150.7077 LP  0  0  0  0  0  0  0  0  0  0  0  0  # atno 17343 bound_to 10162
  157.6363  131.0915  150.8341 LP  0  0  0  0  0  0  0  0  0  0  0  0  # atno 17370 bound_to 10713
  156.8442  130.5058  149.5318 LP  0  0  0  0  0  0  0  0  0  0  0  0  # atno 17371 bound_to 10713
  141.1875  133.8281  157.1031 LP  0  0  0  0  0  0  0  0  0  0  0  0  # atno 17394 bound_to 11000
  140.0373  134.9872  157.0895 LP  0  0  0  0  0  0  0  0  0  0  0  0  # atno 17395 bound_to 11000

$$$$
