#       Name:                AV-unprocessed.smi:3335
#       Creating user name   scv26
#       Creation time:       Fri Mar 27 19:22:23 2020


#       File generated by GOLD software.
#

@<TRIPOS>MOLECULE
AV-unprocessed.smi:3335
    50    51     1
SMALL
NO_CHARGES


@<TRIPOS>ATOM
      1 ****        -3.3499  -2.4078  -2.0986 C.3            1 S1                 0.0000
      2 ****        -2.8847  -1.3062  -1.1909 C.2            1 S1                 0.0000
      3 ****        -2.4723   0.0078  -1.5508 C.2            1 S1                 0.0000
      4 ****        -2.1128   0.7362  -0.5070 N.2            1 S1                 0.0000
      5 ****        -2.2904  -0.0798   0.5565 N.pl3          1 S1                 0.0000
      6 ****        -1.9678   0.3834   1.9008 C.3            1 S1                 0.0000
      7 ****        -2.7953   1.6429   2.2269 C.3            1 S1                 0.0000
      8 ****        -0.4361   0.5840   2.0878 C.3            1 S1                 0.0000
      9 ****        -0.0781   1.1175   3.4853 C.3            1 S1                 0.0000
     10 ****         0.3017  -0.6895   1.8834 N.4            1 S1                 1.0000
     11 ****         0.9230  -0.8931   0.5520 C.3            1 S1                 0.0000
     12 ****         1.3125  -2.3700   0.3894 C.3            1 S1                 0.0000
     13 ****         2.1612   0.0044   0.3591 C.2            1 S1                 0.0000
     14 ****         2.8910   0.2234   1.3274 O.2            1 S1                 0.0000
     15 ****         2.4200   0.5192  -0.8624 N.am           1 S1                 0.0000
     16 ****         1.6294   0.3121  -2.0763 C.3            1 S1                 0.0000
     17 ****         2.4574   0.9012  -3.2180 C.3            1 S1                 0.0000
     18 ****         3.3289   1.9495  -2.5417 C.3            1 S1                 0.0000
     19 ****         3.5609   1.3911  -1.1378 C.3            1 S1                 0.0000
     20 ****        -2.7569  -1.3190   0.1692 C.2            1 S1                 0.0000
     21 ****        -3.1844  -2.1654  -3.1487 H              1 S1                 0.0000
     22 ****        -4.4154  -2.6037  -1.9781 H              1 S1                 0.0000
     23 ****        -2.8257  -3.3426  -1.8990 H              1 S1                 0.0000
     24 ****        -2.4187   0.4496  -2.5351 H              1 S1                 0.0000
     25 ****        -2.2923  -0.3979   2.5901 H              1 S1                 0.0000
     26 ****        -2.7425   1.8972   3.2852 H              1 S1                 0.0000
     27 ****        -3.8493   1.4892   1.9923 H              1 S1                 0.0000
     28 ****        -2.4522   2.5076   1.6576 H              1 S1                 0.0000
     29 ****        -0.0848   1.3253   1.3686 H              1 S1                 0.0000
     30 ****        -0.4734   2.1198   3.6490 H              1 S1                 0.0000
     31 ****         1.0032   1.1830   3.6121 H              1 S1                 0.0000
     32 ****        -0.4659   0.4693   4.2718 H              1 S1                 0.0000
     33 ****         1.0491  -0.7278   2.5620 H              1 S1                 0.0000
     34 ****         0.1747  -0.6680  -0.2019 H              1 S1                 0.0000
     35 ****         1.7547  -2.5607  -0.5891 H              1 S1                 0.0000
     36 ****         0.4379  -3.0150   0.4812 H              1 S1                 0.0000
     37 ****         2.0344  -2.6809   1.1460 H              1 S1                 0.0000
     38 ****         1.4103  -0.7410  -2.2569 H              1 S1                 0.0000
     39 ****         0.6835   0.8473  -1.9809 H              1 S1                 0.0000
     40 ****         3.0901   0.1248  -3.6502 H              1 S1                 0.0000
     41 ****         1.8420   1.3141  -4.0178 H              1 S1                 0.0000
     42 ****         4.2576   2.1402  -3.0803 H              1 S1                 0.0000
     43 ****         2.7816   2.8908  -2.4753 H              1 S1                 0.0000
     44 ****         3.6536   2.1933  -0.4038 H              1 S1                 0.0000
     45 ****         4.4759   0.7976  -1.1082 H              1 S1                 0.0000
     46 ****        -2.9526  -2.1037   0.8853 H              1 S1                 0.0000
     47 ****        -0.3341  -1.4516   2.0685 H              1 S1                 0.0000
     48 ****        -1.7830   1.6803  -0.5048 LP             1 S1                 0.0000
     49 ****         2.6751  -0.1784   2.2173 LP             1 S1                 0.0000
     50 ****         3.6993   0.8030   1.2234 LP             1 S1                 0.0000
@<TRIPOS>BOND
    1    1    2 1     
    2    1   21 1     
    3    1   22 1     
    4    1   23 1     
    5    2   20 2     
    6    2    3 1     
    7    3    4 2     
    8    3   24 1     
    9    4    5 1     
   10    5    6 1     
   11    5   20 1     
   12    6    7 1     
   13    6    8 1     
   14    6   25 1     
   15    7   26 1     
   16    7   27 1     
   17    7   28 1     
   18    8    9 1     
   19    8   10 1     
   20    8   29 1     
   21    9   30 1     
   22    9   31 1     
   23    9   32 1     
   24   10   11 1     
   25   10   33 1     
   26   10   47 1     
   27   11   12 1     
   28   11   13 1     
   29   11   34 1     
   30   12   35 1     
   31   12   36 1     
   32   12   37 1     
   33   13   14 2     
   34   13   15 am    
   35   15   19 1     
   36   15   16 1     
   37   16   17 1     
   38   16   38 1     
   39   16   39 1     
   40   17   18 1     
   41   17   40 1     
   42   17   41 1     
   43   18   19 1     
   44   18   42 1     
   45   18   43 1     
   46   19   44 1     
   47   19   45 1     
   48   20   46 1     
   49    4   48 1     
   50   14   49 1     
   51   14   50 1     
@<TRIPOS>SUBSTRUCTURE
      1 S1             1
@<TRIPOS>SET
LONE_PAIRS      STATIC     ATOMS    <user>   **** ""
3 48 49 50
DONOR_HYDROGENS      STATIC     ATOMS    <user>   **** ""
2 33 47
ATOM$BLUE        STATIC     ATOMS    COLORGROUP SYSTEM
3 48 49 50
ATOM$RED        STATIC     ATOMS    COLORGROUP SYSTEM
2 33 47
