#       Name:                AV-unprocessed.smi:155
#       Creating user name   scv26
#       Creation time:       Thu Mar 26 18:52:52 2020


#       File generated by GOLD software.
#

@<TRIPOS>MOLECULE
AV-unprocessed.smi:155
    71    74     1
SMALL
NO_CHARGES


@<TRIPOS>ATOM
      1 ****        -5.6720  -0.1343   1.8405 C.3            1 S1                 0.0000
      2 ****        -5.3571  -1.2486   0.9563 N.3            1 S1                 0.0000
      3 ****        -6.4932  -2.1644   0.9593 C.3            1 S1                 0.0000
      4 ****        -5.0824  -0.7332  -0.3854 C.3            1 S1                 0.0000
      5 ****        -4.4017  -1.7848  -1.2862 C.3            1 S1                 0.0000
      6 ****        -3.0280  -2.1045  -0.8169 N.4            1 S1                 1.0000
      7 ****        -2.6501  -3.5085  -1.1155 C.3            1 S1                 0.0000
      8 ****        -1.3583  -3.9559  -0.4107 C.3            1 S1                 0.0000
      9 ****        -0.0841  -3.3796  -1.0470 C.3            1 S1                 0.0000
     10 ****         0.2281  -2.0174  -0.6096 N.pl3          1 S1                 0.0000
     11 ****         1.5087  -1.5775  -0.7369 C.ar           1 S1                 0.0000
     12 ****         2.2907  -2.1112  -1.7131 N.ar           1 S1                 0.0000
     13 ****         3.5528  -1.7032  -1.8709 C.ar           1 S1                 0.0000
     14 ****         4.2253  -0.7865  -1.1742 N.ar           1 S1                 0.0000
     15 ****         3.4516  -0.2470  -0.1897 C.ar           1 S1                 0.0000
     16 ****         2.0992  -0.5866   0.1021 C.ar           1 S1                 0.0000
     17 ****         1.6577   0.1483   1.1974 N.2            1 S1                 0.0000
     18 ****         2.6833   0.8858   1.5238 C.2            1 S1                 0.0000
     19 ****         3.7972   0.7266   0.7314 N.pl3          1 S1                 0.0000
     20 ****         5.0690   1.4178   0.8726 C.3            1 S1                 0.0000
     21 ****         5.2874   2.5953  -0.1111 C.3            1 S1                 0.0000
     22 ****         5.3284   2.1454  -1.4500 O.3            1 S1                 0.0000
     23 ****         4.3096   3.7910  -0.0257 C.3            1 S1                 0.0000
     24 ****         4.4200   4.6076   1.2609 C.3            1 S1                 0.0000
     25 ****         3.1129   5.3683   1.2470 C.3            1 S1                 0.0000
     26 ****         2.1434   4.3457   0.6561 C.3            1 S1                 0.0000
     27 ****         2.9389   3.4084  -0.0670 O.3            1 S1                 0.0000
     28 ****        -0.8196  -1.0371  -0.3201 C.3            1 S1                 0.0000
     29 ****        -2.0188  -1.1158  -1.2776 C.3            1 S1                 0.0000
     30 ****        -4.8345   0.5622   1.8957 H              1 S1                 0.0000
     31 ****        -5.8694  -0.4900   2.8526 H              1 S1                 0.0000
     32 ****        -6.5496   0.4138   1.4936 H              1 S1                 0.0000
     33 ****        -6.2948  -3.0545   0.3640 H              1 S1                 0.0000
     34 ****        -7.3923  -1.6849   0.5694 H              1 S1                 0.0000
     35 ****        -6.7053  -2.5023   1.9744 H              1 S1                 0.0000
     36 ****        -6.0129  -0.3933  -0.8430 H              1 S1                 0.0000
     37 ****        -4.4431   0.1469  -0.3125 H              1 S1                 0.0000
     38 ****        -5.0170  -2.6824  -1.3378 H              1 S1                 0.0000
     39 ****        -4.3504  -1.4177  -2.3124 H              1 S1                 0.0000
     40 ****        -3.4522  -4.1621  -0.7699 H              1 S1                 0.0000
     41 ****        -2.5743  -3.6563  -2.1940 H              1 S1                 0.0000
     42 ****        -1.3963  -3.7452   0.6590 H              1 S1                 0.0000
     43 ****        -1.3021  -5.0417  -0.4951 H              1 S1                 0.0000
     44 ****         0.7490  -4.0257  -0.7656 H              1 S1                 0.0000
     45 ****        -0.1488  -3.4141  -2.1353 H              1 S1                 0.0000
     46 ****         4.1017  -2.1781  -2.6707 H              1 S1                 0.0000
     47 ****         2.6525   1.5800   2.3510 H              1 S1                 0.0000
     48 ****         5.1556   1.7670   1.9014 H              1 S1                 0.0000
     49 ****         5.8639   0.6822   0.7438 H              1 S1                 0.0000
     50 ****         6.2862   2.9876   0.0833 H              1 S1                 0.0000
     51 ****         5.9400   1.4273  -1.5080 H              1 S1                 0.0000
     52 ****         4.4880   4.4665  -0.8649 H              1 S1                 0.0000
     53 ****         4.4603   3.9605   2.1372 H              1 S1                 0.0000
     54 ****         5.2929   5.2610   1.2766 H              1 S1                 0.0000
     55 ****         2.8120   5.7217   2.2337 H              1 S1                 0.0000
     56 ****         3.1939   6.2322   0.5857 H              1 S1                 0.0000
     57 ****         1.6120   3.8130   1.4452 H              1 S1                 0.0000
     58 ****         1.4032   4.8152   0.0076 H              1 S1                 0.0000
     59 ****        -1.1398  -1.1323   0.7181 H              1 S1                 0.0000
     60 ****        -0.4078  -0.0325  -0.4201 H              1 S1                 0.0000
     61 ****        -1.7099  -1.3095  -2.3062 H              1 S1                 0.0000
     62 ****        -2.4778  -0.1275  -1.2894 H              1 S1                 0.0000
     63 ****        -3.0696  -2.0337   0.1900 H              1 S1                 0.0000
     64 ****        -4.5443  -1.7416   1.2665 LP             1 S1                 0.0000
     65 ****         1.9178  -2.8149  -2.3178 LP             1 S1                 0.0000
     66 ****         5.1749  -0.5279  -1.3510 LP             1 S1                 0.0000
     67 ****         0.7590   0.1183   1.6350 LP             1 S1                 0.0000
     68 ****         5.6260   2.8905  -2.0468 LP             1 S1                 0.0000
     69 ****         4.4192   1.8371  -1.7298 LP             1 S1                 0.0000
     70 ****         2.8364   2.5023   0.3435 LP             1 S1                 0.0000
     71 ****         2.6325   3.3799  -1.0184 LP             1 S1                 0.0000
@<TRIPOS>BOND
    1    1    2 1     
    2    1   30 1     
    3    1   31 1     
    4    1   32 1     
    5    2    3 1     
    6    2    4 1     
    7    3   33 1     
    8    3   34 1     
    9    3   35 1     
   10    4    5 1     
   11    4   36 1     
   12    4   37 1     
   13    5    6 1     
   14    5   38 1     
   15    5   39 1     
   16    6   29 1     
   17    6    7 1     
   18    6   63 1     
   19    7    8 1     
   20    7   40 1     
   21    7   41 1     
   22    8    9 1     
   23    8   42 1     
   24    8   43 1     
   25    9   10 1     
   26    9   44 1     
   27    9   45 1     
   28   10   11 1     
   29   10   28 1     
   30   11   16 ar    
   31   11   12 ar    
   32   12   13 ar    
   33   13   14 ar    
   34   13   46 1     
   35   14   15 ar    
   36   15   19 1     
   37   15   16 ar    
   38   16   17 1     
   39   17   18 2     
   40   18   19 1     
   41   18   47 1     
   42   19   20 1     
   43   20   21 1     
   44   20   48 1     
   45   20   49 1     
   46   21   22 1     
   47   21   23 1     
   48   21   50 1     
   49   22   51 1     
   50   23   27 1     
   51   23   24 1     
   52   23   52 1     
   53   24   25 1     
   54   24   53 1     
   55   24   54 1     
   56   25   26 1     
   57   25   55 1     
   58   25   56 1     
   59   26   27 1     
   60   26   57 1     
   61   26   58 1     
   62   28   29 1     
   63   28   59 1     
   64   28   60 1     
   65   29   61 1     
   66   29   62 1     
   67    2   64 1     
   68   12   65 1     
   69   14   66 1     
   70   17   67 1     
   71   22   68 1     
   72   22   69 1     
   73   27   70 1     
   74   27   71 1     
@<TRIPOS>SUBSTRUCTURE
      1 S1             1
@<TRIPOS>SET
LONE_PAIRS      STATIC     ATOMS    <user>   **** ""
8 64 65 66 67 68 69 70 71
DONOR_HYDROGENS      STATIC     ATOMS    <user>   **** ""
2 63 51
ATOM$BLUE        STATIC     ATOMS    COLORGROUP SYSTEM
8 64 65 66 67 68 69 70 71
ATOM$RED        STATIC     ATOMS    COLORGROUP SYSTEM
2 63 51
