AV-unprocessed.smi:3331|AV-procd|sdf|12823|dock1
  -GOLD-   2272019193D 1   1.00000     0.00000
 Structure written by MMmdl.
 46 47  0  0  0  0  0  0  0  0  1 V2000
  147.9893  139.9708  154.5798 C   0  0  0  0  0  0  0  0  0  0  0  0
  149.3120  139.4321  155.1421 C   0  0  2  0  0  0  0  0  0  0  0  0
  150.4055  140.5258  155.1636 C   0  0  0  0  0  0  0  0  0  0  0  0
  151.7910  139.9875  155.5889 C   0  0  1  0  0  0  0  0  0  0  0  0
  151.8881  139.7742  157.1100 C   0  0  0  0  0  0  0  0  0  0  0  0
  152.1290  138.7152  154.7810 C   0  0  0  0  0  0  0  0  0  0  0  0
  151.0588  137.7224  154.9523 N   0  0  0  0  0  0  0  0  0  0  0  0
  151.1409  136.5537  155.6382 C   0  0  0  0  0  0  0  0  0  0  0  0
  152.1684  136.2206  156.2328 O   0  0  0  0  0  0  0  0  0  0  0  0
  149.9334  135.5873  155.6884 C   0  0  2  0  0  0  0  0  0  0  0  0
  150.1685  134.5095  156.7580 C   0  0  0  0  0  0  0  0  0  0  0  0
  149.6479  134.9430  154.3927 N   0  0  0  0  0  0  0  0  0  0  0  0
  148.5662  133.9654  154.4543 C   0  0  0  0  0  0  0  0  0  0  0  0
  148.8675  132.8087  153.4922 C   0  0  0  0  0  0  0  0  0  0  0  0
  147.7224  132.5020  152.6577 N   0  0  0  0  0  0  0  0  0  0  0  0
  147.0873  133.3153  151.7433 C   0  0  0  0  0  0  0  0  0  0  0  0
  146.0565  132.5971  151.2084 C   0  0  0  0  0  0  0  0  0  0  0  0
  146.1424  131.3396  151.8693 C   0  0  0  0  0  0  0  0  0  0  0  0
  147.1401  131.2861  152.7372 N   0  0  0  0  0  0  0  0  0  0  0  0
  149.8027  138.1976  154.3560 C   0  0  0  0  0  0  0  0  0  0  0  0
  148.0998  140.2926  153.5438 H   0  0  0  0  0  0  0  0  0  0  0  0
  147.6361  140.8248  155.1584 H   0  0  0  0  0  0  0  0  0  0  0  0
  147.2103  139.2085  154.6097 H   0  0  0  0  0  0  0  0  0  0  0  0
  149.1229  139.1203  156.1704 H   0  0  0  0  0  0  0  0  0  0  0  0
  150.4942  140.9496  154.1622 H   0  0  0  0  0  0  0  0  0  0  0  0
  150.1052  141.3505  155.8110 H   0  0  0  0  0  0  0  0  0  0  0  0
  152.5311  140.7467  155.3334 H   0  0  0  0  0  0  0  0  0  0  0  0
  151.1674  139.0383  157.4658 H   0  0  0  0  0  0  0  0  0  0  0  0
  151.7002  140.7035  157.6476 H   0  0  0  0  0  0  0  0  0  0  0  0
  152.8822  139.4286  157.3941 H   0  0  0  0  0  0  0  0  0  0  0  0
  152.1948  138.9703  153.7222 H   0  0  0  0  0  0  0  0  0  0  0  0
  153.1230  138.3479  155.0276 H   0  0  0  0  0  0  0  0  0  0  0  0
  149.0298  136.1324  155.9528 H   0  0  0  0  0  0  0  0  0  0  0  0
  150.3351  134.9520  157.7408 H   0  0  0  0  0  0  0  0  0  0  0  0
  151.0359  133.8922  156.5203 H   0  0  0  0  0  0  0  0  0  0  0  0
  149.3055  133.8483  156.8423 H   0  0  0  0  0  0  0  0  0  0  0  0
  149.4561  135.6266  153.6742 H   0  0  0  0  0  0  0  0  0  0  0  0
  148.4710  133.5877  155.4735 H   0  0  0  0  0  0  0  0  0  0  0  0
  147.6125  134.4202  154.1850 H   0  0  0  0  0  0  0  0  0  0  0  0
  149.7076  133.0609  152.8434 H   0  0  0  0  0  0  0  0  0  0  0  0
  149.1506  131.9108  154.0440 H   0  0  0  0  0  0  0  0  0  0  0  0
  147.4171  134.3260  151.5532 H   0  0  0  0  0  0  0  0  0  0  0  0
  145.3484  132.9208  150.4604 H   0  0  0  0  0  0  0  0  0  0  0  0
  145.5134  130.4704  151.7454 H   0  0  0  0  0  0  0  0  0  0  0  0
  149.0243  137.4333  154.3444 H   0  0  0  0  0  0  0  0  0  0  0  0
  149.9724  138.4570  153.3100 H   0  0  0  0  0  0  0  0  0  0  0  0
  1  2  1  0  0  0  0
  1 21  1  0  0  0  0
  1 22  1  0  0  0  0
  1 23  1  0  0  0  0
  2 20  1  0  0  0  0
  2  3  1  0  0  0  0
  2 24  1  0  0  0  0
  3  4  1  0  0  0  0
  3 25  1  0  0  0  0
  3 26  1  0  0  0  0
  4  5  1  0  0  0  0
  4  6  1  0  0  0  0
  4 27  1  0  0  0  0
  5 28  1  0  0  0  0
  5 29  1  0  0  0  0
  5 30  1  0  0  0  0
  6  7  1  0  0  0  0
  6 31  1  0  0  0  0
  6 32  1  0  0  0  0
  7  8  1  0  0  0  0
  7 20  1  0  0  0  0
  8  9  2  0  0  0  0
  8 10  1  0  0  0  0
 10 11  1  0  0  0  0
 10 12  1  0  0  0  0
 10 33  1  0  0  0  0
 11 34  1  0  0  0  0
 11 35  1  0  0  0  0
 11 36  1  0  0  0  0
 12 13  1  0  0  0  0
 12 37  1  0  0  0  0
 13 14  1  0  0  0  0
 13 38  1  0  0  0  0
 13 39  1  0  0  0  0
 14 15  1  0  0  0  0
 14 40  1  0  0  0  0
 14 41  1  0  0  0  0
 15 19  1  0  0  0  0
 15 16  1  0  0  0  0
 16 17  2  0  0  0  0
 16 42  1  0  0  0  0
 17 18  1  0  0  0  0
 17 43  1  0  0  0  0
 18 19  2  0  0  0  0
 18 44  1  0  0  0  0
 20 45  1  0  0  0  0
 20 46  1  0  0  0  0
M  END
> <s_m_source_file>
AV-unprocessed.smi

> <i_m_source_file_index>
3331

> <i_lp_mmshare_version>
43012

> <i_f3d_flags>
0

> <s_epik_input>
W0NIM11bQ0BASF0xW0NIMl1bQ0BASF0oW0NIM10pW0NIMl1OKFtDSDJdMSlDKD1PKVtDQEhdKFtDSDNdKVtOSF1bQ0gyXVtDSDJdbjJbY0hdW2NIXVtjSF1uMg==

> <s_epik_cmdline>
J2VwaWtfcHl0aG9uJywgJy1waCcsICc3LjAnLCAnLXRuJywgJzgnLCAnLW1hJywgJzIwMCcsICctbWV0YWxfYmluZGluZycsICctaW1hZScsICc8aW5maWxlLm1hZT4nLCAnLW9tYWUnLCAnPG91dGZpbGUubWFlPic=

> <r_lp_tautomer_probability>
1

> <r_epik_Ionization_Penalty>
0.767994

> <r_epik_Ionization_Penalty_Charging>
0

> <r_epik_Ionization_Penalty_Neutral>
0.767994

> <r_epik_State_Penalty>
0.795453

> <r_epik_Charging_Adjusted_Penalty>
0.795453

> <i_epik_Tot_Q>
0

> <i_epik_Tot_abs_Q>
0

> <r_epik_Metal_State_Penalty>
0.794784

> <b_epik_Metal_Only>
0

> <s_lp_Force_Field>
OPLS_2005

> <r_lp_Energy>
29.1229

> <b_lp_Chiralities_Consistent>
1

> <s_lp_Variant>
AV-unprocessed.smi:3331-7

> <Gold.Version>
5.8.1

> <Gold.Id.Protein>
6NUR|6NUR_protein|mol2

> <Gold.PLP.Fitness>
43.8473

> <Gold.PLP.PLP>
-36.2581

> <Gold.PLP.part.hbond>
-2.0000

> <Gold.PLP.part.metal>
0.0000

> <Gold.PLP.part.buried>
-2.2428

> <Gold.PLP.part.nonpolar>
-32.5832

> <Gold.PLP.part.repulsive>
0.1287

> <Gold.PLP.ligand.clash>
0.0000

> <Gold.PLP.ligand.torsion>
0.8291

> <Gold.PLP.Chemscore.Hbond>
2.0000

> <Gold.PLP.Chemscore.CHOScore>
1.0000

> <Gold.PLP.Chemscore.Metal>
0.0000

> <Gold.Chemscore.Hbonds>
donor molecule, donor type, donor heavy atom, donor atom, acceptor molecule, acceptor atom, score
      L1  H    12    37       P1  7948  1.00
      P1  H 10752 10764       L1     9  0.90
      L1  C    16    42       P1  7948  0.97

> <Gold.PLP.Chemscore.Internal.Correction>
0.2473

> <Gold.Rescore>
     Score         DG    S(hbond)    S(metal)    S(lipo)     H(rot)  DE(clash)    DE(int)     intcor
     15.65     -16.72       1.74        0.00      82.97       1.66       0.08       1.00       ----

> <Gold.Chemscore.Fitness>
15.6465

> <Gold.Chemscore.DG>
-16.7250

> <Gold.Chemscore.ZeroCoef>
-5.4800

> <Gold.Chemscore.Hbond>
1.7364

> <Gold.Chemscore.Metal>
0.0000

> <Gold.Chemscore.Lipo>
82.9692

> <Gold.Chemscore.Internal_Hbond>
0.0000

> <Gold.Chemscore.DEClash>
0.0818

> <Gold.Chemscore.DEInternal>
0.9967

> <Gold.Chemscore.Rot>
1.6649

> <Gold.Chemscore.Internal.Correction>
   9.000000E+99

> <Gold.Chemscore.Hbonds>
donor molecule, donor type, donor heavy atom, donor atom, acceptor molecule, acceptor atom, score
      L1  H    12    37       P1  7948  0.29
      P1  H 10752 10764       L1     9  0.17

> <Gold.Chemscore.Hbond.Weighted>
-5.7997

> <Gold.Chemscore.Metal.Weighted>
-0.0000

> <Gold.Chemscore.Lipo.Weighted>
-9.7074

> <Gold.Chemscore.Internal_Hbond.Weighted>
0.0000

> <Gold.Chemscore.DEClash.Weighted>
0.0818

> <Gold.Chemscore.DEInternal.Weighted>
0.9967

> <Gold.Chemscore.Rot.Weighted>
4.2621

> <Gold.Chemscore.Internal.Correction.Weighted>
   9.000000E+99

> <Gold.Protein.RotatedTorsions>
[ 6907 6896 6895 6894 ] final   21.57 input  -60.11 | X-H torsion
[ 7974 7965 7964 7962 ] final   50.89 input  175.53 | X-H torsion
[ 8008 7997 7996 7995 ] final  -38.09 input   59.86 | X-H torsion
[ 10167 10162 10161 10158 ] final   83.48 input  -65.29 | X-H torsion
[ 10718 10713 10712 10709 ] final  -58.34 input   66.30 | X-H torsion
[ 10763 10752 10751 10750 ] final  -44.70 input  -60.55 | X-H torsion
[ 11005 11000 10999 10996 ] final   12.87 input  -57.11 | X-H torsion

> <Gold.Protein.ActiveResidues>
 VAL166  LYS551  ARG553  GLY616  TRP617  ASP618  TYR619  PRO620  LYS621  CYS622 
 ASP623  PHE694  ASN695  SER759  ASP760  ASP761  ALA762  ILE779  LEU786  VAL792 
 PHE793  MET794  SER795  GLU796  ALA797  LYS798  CYS799  TRP800  GLU811  SER814 

> <Gold.Protein.RotatedAtoms>
  151.9139  135.0327  160.0516 H   0  0  0  0  0  0  0  0  0  0  0  0  # atno 6907 bound_to 6896
  152.2256  133.5013  159.5195 H   0  0  0  0  0  0  0  0  0  0  0  0  # atno 6908 bound_to 6896
  150.7011  134.1201  159.4074 H   0  0  0  0  0  0  0  0  0  0  0  0  # atno 6909 bound_to 6896
  145.9967  139.4396  143.0040 H   0  0  0  0  0  0  0  0  0  0  0  0  # atno 7974 bound_to 7965
  154.4042  140.1587  156.2643 H   0  0  0  0  0  0  0  0  0  0  0  0  # atno 8008 bound_to 7997
  155.9009  140.3433  155.6003 H   0  0  0  0  0  0  0  0  0  0  0  0  # atno 8009 bound_to 7997
  155.7449  140.0797  157.2219 H   0  0  0  0  0  0  0  0  0  0  0  0  # atno 8010 bound_to 7997
  139.9179  144.6231  150.8470 H   0  0  0  0  0  0  0  0  0  0  0  0  # atno 10167 bound_to 10162
  156.1142  130.4172  150.0564 H   0  0  0  0  0  0  0  0  0  0  0  0  # atno 10718 bound_to 10713
  154.0164  135.6675  153.4769 H   0  0  0  0  0  0  0  0  0  0  0  0  # atno 10763 bound_to 10752
  153.0599  135.5034  154.8064 H   0  0  0  0  0  0  0  0  0  0  0  0  # atno 10764 bound_to 10752
  154.6964  135.3070  154.9369 H   0  0  0  0  0  0  0  0  0  0  0  0  # atno 10765 bound_to 10752
  140.4872  134.0877  155.7763 H   0  0  0  0  0  0  0  0  0  0  0  0  # atno 11005 bound_to 11000
  145.7549  140.9958  143.1231 LP  0  0  0  0  0  0  0  0  0  0  0  0  # atno 17320 bound_to 7965
  144.6906  139.9259  143.7470 LP  0  0  0  0  0  0  0  0  0  0  0  0  # atno 17321 bound_to 7965
  140.7669  143.3318  151.2394 LP  0  0  0  0  0  0  0  0  0  0  0  0  # atno 17342 bound_to 10162
  139.6886  143.9731  152.2847 LP  0  0  0  0  0  0  0  0  0  0  0  0  # atno 17343 bound_to 10162
  156.8519  130.9462  151.3625 LP  0  0  0  0  0  0  0  0  0  0  0  0  # atno 17370 bound_to 10713
  157.6325  130.8740  149.9299 LP  0  0  0  0  0  0  0  0  0  0  0  0  # atno 17371 bound_to 10713
  141.1502  133.8982  157.2116 LP  0  0  0  0  0  0  0  0  0  0  0  0  # atno 17394 bound_to 11000
  139.9791  135.0104  156.9705 LP  0  0  0  0  0  0  0  0  0  0  0  0  # atno 17395 bound_to 11000

$$$$
