AV-unprocessed.smi:3090|AV-procd|sdf|11776|dock7
  -GOLD-   2272017153D 1   1.00000     0.00000
 Structure written by MMmdl.
 21 21  0  0  0  0  0  0  0  0  1 V2000
  150.8227  141.8577  156.2623 C   0  0  0  0  0  0  0  0  0  0  0  0
  150.0043  141.1366  155.3113 N   0  0  0  0  0  0  0  0  0  0  0  0
  148.7316  141.4318  154.8732 C   0  0  0  0  0  0  0  0  0  0  0  0
  148.3707  140.4674  153.9732 C   0  0  0  0  0  0  0  0  0  0  0  0
  147.0844  140.3202  153.1993 C   0  0  2  0  0  0  0  0  0  0  0  0
  145.9712  140.7527  153.9530 O   0  0  0  0  0  0  0  0  0  0  0  0
  146.8256  138.8624  152.7800 C   0  0  0  0  0  0  0  0  0  0  0  0
  147.3619  138.5394  151.4484 N   0  0  0  0  0  0  0  0  0  0  0  0
  149.5103  139.6131  153.9364 C   0  0  0  0  0  0  0  0  0  0  0  0
  150.4852  140.0163  154.7350 N   0  0  0  0  0  0  0  0  0  0  0  0
  150.3044  142.7570  156.5964 H   0  0  0  0  0  0  0  0  0  0  0  0
  151.7649  142.1451  155.7949 H   0  0  0  0  0  0  0  0  0  0  0  0
  151.0286  141.2253  157.1263 H   0  0  0  0  0  0  0  0  0  0  0  0
  148.1915  142.2957  155.2319 H   0  0  0  0  0  0  0  0  0  0  0  0
  147.1128  140.9403  152.3024 H   0  0  0  0  0  0  0  0  0  0  0  0
  145.2137  140.7632  153.3880 H   0  0  0  0  0  0  0  0  0  0  0  0
  147.2535  138.1858  153.5207 H   0  0  0  0  0  0  0  0  0  0  0  0
  145.7512  138.6749  152.7841 H   0  0  0  0  0  0  0  0  0  0  0  0
  148.1393  139.1573  151.2194 H   0  0  0  0  0  0  0  0  0  0  0  0
  147.7246  137.5873  151.4326 H   0  0  0  0  0  0  0  0  0  0  0  0
  149.6553  138.7151  153.3541 H   0  0  0  0  0  0  0  0  0  0  0  0
  1  2  1  0  0  0  0
  1 11  1  0  0  0  0
  1 12  1  0  0  0  0
  1 13  1  0  0  0  0
  2 10  1  0  0  0  0
  2  3  1  0  0  0  0
  3  4  2  0  0  0  0
  3 14  1  0  0  0  0
  4  5  1  0  0  0  0
  4  9  1  0  0  0  0
  5  6  1  0  0  0  0
  5  7  1  0  0  0  0
  5 15  1  0  0  0  0
  6 16  1  0  0  0  0
  7  8  1  0  0  0  0
  7 17  1  0  0  0  0
  7 18  1  0  0  0  0
  8 19  1  0  0  0  0
  8 20  1  0  0  0  0
  9 10  2  0  0  0  0
  9 21  1  0  0  0  0
M  END
> <s_m_source_file>
AV-unprocessed.smi

> <i_m_source_file_index>
3090

> <i_lp_mmshare_version>
43012

> <i_f3d_flags>
0

> <s_epik_input>
W0NIM11uMVtjSF1jKFtjSF1uMSlbQ0BIXShbT0hdKVtDSDJdW05IMl0=

> <s_epik_cmdline>
J2VwaWtfcHl0aG9uJywgJy1waCcsICc3LjAnLCAnLXRuJywgJzgnLCAnLW1hJywgJzIwMCcsICctbWV0YWxfYmluZGluZycsICctaW1hZScsICc8aW5maWxlLm1hZT4nLCAnLW9tYWUnLCAnPG91dGZpbGUubWFlPic=

> <r_lp_tautomer_probability>
1

> <r_epik_Ionization_Penalty>
2.22426

> <r_epik_Ionization_Penalty_Charging>
0

> <r_epik_Ionization_Penalty_Neutral>
2.22426

> <r_epik_State_Penalty>
2.36938

> <r_epik_Charging_Adjusted_Penalty>
2.36938

> <i_epik_Tot_Q>
0

> <i_epik_Tot_abs_Q>
0

> <r_epik_Metal_State_Penalty>
2.36934

> <b_epik_Metal_Only>
0

> <s_lp_Force_Field>
OPLS_2005

> <r_lp_Energy>
2.27674

> <b_lp_Chiralities_Consistent>
1

> <s_lp_Variant>
AV-unprocessed.smi:3090-3

> <Gold.Version>
5.8.1

> <Gold.Id.Protein>
6NUR|6NUR_protein|mol2

> <Gold.PLP.Fitness>
36.7697

> <Gold.PLP.PLP>
-23.1729

> <Gold.PLP.part.hbond>
-5.0000

> <Gold.PLP.part.metal>
0.0000

> <Gold.PLP.part.buried>
1.2078

> <Gold.PLP.part.nonpolar>
-18.6301

> <Gold.PLP.part.repulsive>
0.0692

> <Gold.PLP.ligand.clash>
0.0000

> <Gold.PLP.ligand.torsion>
1.1339

> <Gold.PLP.Chemscore.Hbond>
4.0000

> <Gold.PLP.Chemscore.CHOScore>
1.2871

> <Gold.PLP.Chemscore.Metal>
0.0000

> <Gold.Chemscore.Hbonds>
donor molecule, donor type, donor heavy atom, donor atom, acceptor molecule, acceptor atom, score
      L1  H     6    16       P1 10175  1.00
      L1  H     8    19       P1  7957  1.00
      L1  H     8    20       P1  7948  1.00
      P1  H  7989  7998       L1    10  0.85
      L1  C     3    14       P1  8028  0.98
      L1  C     9    21       P1  7957  0.24

> <Gold.PLP.Chemscore.Internal.Correction>
0.0034

> <Gold.Rescore>
     Score         DG    S(hbond)    S(metal)    S(lipo)     H(rot)  DE(clash)    DE(int)     intcor
     14.29     -15.61       2.99        0.00      42.83       1.90       0.36       0.96       ----

> <Gold.Chemscore.Fitness>
14.2872

> <Gold.Chemscore.DG>
-15.6150

> <Gold.Chemscore.ZeroCoef>
-5.4800

> <Gold.Chemscore.Hbond>
2.9934

> <Gold.Chemscore.Metal>
0.0000

> <Gold.Chemscore.Lipo>
42.8275

> <Gold.Chemscore.Internal_Hbond>
0.0000

> <Gold.Chemscore.DEClash>
0.3648

> <Gold.Chemscore.DEInternal>
0.9630

> <Gold.Chemscore.Rot>
1.9039

> <Gold.Chemscore.Internal.Correction>
   9.000000E+99

> <Gold.Chemscore.Hbonds>
donor molecule, donor type, donor heavy atom, donor atom, acceptor molecule, acceptor atom, score
      L1  H     6    16       P1 10175  0.85
      L1  H     8    19       P1  7957  0.55
      L1  H     8    20       P1  7948  0.98
      P1  H  7989  7998       L1    10  0.04

> <Gold.Chemscore.Hbond.Weighted>
-9.9981

> <Gold.Chemscore.Metal.Weighted>
-0.0000

> <Gold.Chemscore.Lipo.Weighted>
-5.0108

> <Gold.Chemscore.Internal_Hbond.Weighted>
0.0000

> <Gold.Chemscore.DEClash.Weighted>
0.3648

> <Gold.Chemscore.DEInternal.Weighted>
0.9630

> <Gold.Chemscore.Rot.Weighted>
4.8739

> <Gold.Chemscore.Internal.Correction.Weighted>
   9.000000E+99

> <Gold.Protein.RotatedTorsions>
[ 6907 6896 6895 6894 ] final -129.77 input  -60.11 | X-H torsion
[ 7974 7965 7964 7962 ] final   69.94 input  175.53 | X-H torsion
[ 8008 7997 7996 7995 ] final  -47.73 input   59.86 | X-H torsion
[ 10167 10162 10161 10158 ] final  173.70 input  -65.29 | X-H torsion
[ 10718 10713 10712 10709 ] final   -7.04 input   66.30 | X-H torsion
[ 10763 10752 10751 10750 ] final -113.25 input  -60.55 | X-H torsion
[ 11005 11000 10999 10996 ] final  121.76 input  -57.11 | X-H torsion

> <Gold.Protein.ActiveResidues>
 VAL166  LYS551  ARG553  GLY616  TRP617  ASP618  TYR619  PRO620  LYS621  CYS622 
 ASP623  PHE694  ASN695  SER759  ASP760  ASP761  ALA762  ILE779  LEU786  VAL792 
 PHE793  MET794  SER795  GLU796  ALA797  LYS798  CYS799  TRP800  GLU811  SER814 

> <Gold.Protein.RotatedAtoms>
  150.9324  133.6751  159.2807 H   0  0  0  0  0  0  0  0  0  0  0  0  # atno 6907 bound_to 6896
  151.4169  135.0991  159.9612 H   0  0  0  0  0  0  0  0  0  0  0  0  # atno 6908 bound_to 6896
  152.5032  133.8784  159.7389 H   0  0  0  0  0  0  0  0  0  0  0  0  # atno 6909 bound_to 6896
  145.7843  139.2903  143.1247 H   0  0  0  0  0  0  0  0  0  0  0  0  # atno 7974 bound_to 7965
  154.4020  140.1339  156.4223 H   0  0  0  0  0  0  0  0  0  0  0  0  # atno 8008 bound_to 7997
  155.7631  140.3485  155.5188 H   0  0  0  0  0  0  0  0  0  0  0  0  # atno 8009 bound_to 7997
  155.8840  140.0992  157.1456 H   0  0  0  0  0  0  0  0  0  0  0  0  # atno 8010 bound_to 7997
  139.5117  144.3231  152.0184 H   0  0  0  0  0  0  0  0  0  0  0  0  # atno 10167 bound_to 10162
  156.7230  130.5157  149.5863 H   0  0  0  0  0  0  0  0  0  0  0  0  # atno 10718 bound_to 10713
  154.8387  135.4461  154.1319 H   0  0  0  0  0  0  0  0  0  0  0  0  # atno 10763 bound_to 10752
  153.2527  135.6928  153.7668 H   0  0  0  0  0  0  0  0  0  0  0  0  # atno 10764 bound_to 10752
  153.6974  135.3377  155.3192 H   0  0  0  0  0  0  0  0  0  0  0  0  # atno 10765 bound_to 10752
  139.9239  134.9639  156.8006 H   0  0  0  0  0  0  0  0  0  0  0  0  # atno 11005 bound_to 11000
  146.0042  140.8493  143.0003 LP  0  0  0  0  0  0  0  0  0  0  0  0  # atno 17320 bound_to 7965
  144.6791  140.2396  143.7345 LP  0  0  0  0  0  0  0  0  0  0  0  0  # atno 17321 bound_to 7965
  140.2672  144.4003  150.6164 LP  0  0  0  0  0  0  0  0  0  0  0  0  # atno 17342 bound_to 10162
  140.6115  143.2170  151.6877 LP  0  0  0  0  0  0  0  0  0  0  0  0  # atno 17343 bound_to 10162
  156.1581  130.6355  151.0683 LP  0  0  0  0  0  0  0  0  0  0  0  0  # atno 17370 bound_to 10713
  157.6890  131.0816  150.7161 LP  0  0  0  0  0  0  0  0  0  0  0  0  # atno 17371 bound_to 10713
  140.6393  133.9833  155.7699 LP  0  0  0  0  0  0  0  0  0  0  0  0  # atno 17394 bound_to 11000
  141.0782  134.0103  157.3426 LP  0  0  0  0  0  0  0  0  0  0  0  0  # atno 17395 bound_to 11000

$$$$
