AV-unprocessed.smi:2855|AV-procd|sdf|10985|dock10
  -GOLD-   2272015443D 1   1.00000     0.00000
 Structure written by MMmdl.
 46 47  0  0  0  0  0  0  0  0  2 V2000
  147.4241  140.8828  153.4583 C   0  0  0  0  0  0  0  0  0  0  0  0
  147.2406  139.3929  153.1365 C   0  0  2  0  0  0  0  0  0  0  0  0
  146.5849  139.1882  151.7620 C   0  0  0  0  0  0  0  0  0  0  0  0
  146.3995  137.6978  151.4368 C   0  0  0  0  0  0  0  0  0  0  0  0
  145.5678  136.9550  152.5135 C   0  0  1  0  0  0  0  0  0  0  0  0
  145.3464  135.4501  152.1630 C   0  0  0  0  0  0  0  0  0  0  0  0
  144.6210  135.2586  150.8172 C   0  0  0  0  0  0  0  0  0  0  0  0
  144.5714  134.6893  153.2568 C   0  0  0  0  0  0  0  0  0  0  0  0
  146.1982  137.1842  153.9168 C   0  0  1  0  0  0  0  0  0  0  0  0
  147.4478  136.4375  154.0581 N   0  0  0  0  0  0  0  0  0  0  0  0
  147.8264  135.7456  155.1421 C   0  0  0  0  0  0  0  0  0  0  0  0
  147.1748  135.7107  156.1864 O   0  0  0  0  0  0  0  0  0  0  0  0
  149.1586  134.9948  155.0302 C   0  0  0  0  0  0  0  0  0  0  0  0
  150.3134  135.8671  155.2937 N   0  0  0  0  0  0  0  0  0  0  0  0
  150.3701  137.1009  154.6220 C   0  0  0  0  0  0  0  0  0  0  0  0
  151.3851  137.9656  154.8100 C   0  0  0  0  0  0  0  0  0  0  0  0
  152.4450  137.5944  155.7393 C   0  0  0  0  0  0  0  0  0  0  0  0
  153.3822  138.3696  155.9197 O   0  0  0  0  0  0  0  0  0  0  0  0
  152.3424  136.3881  156.3703 N   0  5  0  0  0  0  0  0  0  0  0  0
  151.3031  135.5195  156.1711 C   0  0  0  0  0  0  0  0  0  0  0  0
  151.2281  134.4364  156.7535 O   0  0  0  0  0  0  0  0  0  0  0  0
  146.4126  138.6817  154.2211 C   0  0  0  0  0  0  0  0  0  0  0  0
  146.4650  141.3990  153.5089 H   0  0  0  0  0  0  0  0  0  0  0  0
  148.0294  141.3772  152.6981 H   0  0  0  0  0  0  0  0  0  0  0  0
  147.9258  141.0176  154.4169 H   0  0  0  0  0  0  0  0  0  0  0  0
  148.2328  138.9405  153.1096 H   0  0  0  0  0  0  0  0  0  0  0  0
  145.6156  139.6883  151.7358 H   0  0  0  0  0  0  0  0  0  0  0  0
  147.1930  139.6560  150.9868 H   0  0  0  0  0  0  0  0  0  0  0  0
  145.9182  137.6303  150.4624 H   0  0  0  0  0  0  0  0  0  0  0  0
  147.3760  137.2235  151.3289 H   0  0  0  0  0  0  0  0  0  0  0  0
  144.5833  137.4251  152.5334 H   0  0  0  0  0  0  0  0  0  0  0  0
  146.3210  134.9692  152.0692 H   0  0  0  0  0  0  0  0  0  0  0  0
  143.6739  135.7984  150.7962 H   0  0  0  0  0  0  0  0  0  0  0  0
  144.4036  134.2058  150.6341 H   0  0  0  0  0  0  0  0  0  0  0  0
  145.2230  135.5981  149.9755 H   0  0  0  0  0  0  0  0  0  0  0  0
  143.6158  135.1679  153.4727 H   0  0  0  0  0  0  0  0  0  0  0  0
  145.1358  134.6259  154.1869 H   0  0  0  0  0  0  0  0  0  0  0  0
  144.3663  133.6627  152.9525 H   0  0  0  0  0  0  0  0  0  0  0  0
  145.4948  136.8169  154.6652 H   0  0  0  0  0  0  0  0  0  0  0  0
  148.0529  136.4108  153.2505 H   0  0  0  0  0  0  0  0  0  0  0  0
  149.1706  134.1435  155.7139 H   0  0  0  0  0  0  0  0  0  0  0  0
  149.2220  134.5613  154.0313 H   0  0  0  0  0  0  0  0  0  0  0  0
  149.5430  137.3016  153.9571 H   0  0  0  0  0  0  0  0  0  0  0  0
  151.4117  138.9112  154.2890 H   0  0  0  0  0  0  0  0  0  0  0  0
  146.8897  138.8003  155.1948 H   0  0  0  0  0  0  0  0  0  0  0  0
  145.4393  139.1669  154.3048 H   0  0  0  0  0  0  0  0  0  0  0  0
  1  2  1  0  0  0  0
  1 23  1  0  0  0  0
  1 24  1  0  0  0  0
  1 25  1  0  0  0  0
  2 22  1  0  0  0  0
  2  3  1  0  0  0  0
  2 26  1  0  0  0  0
  3  4  1  0  0  0  0
  3 27  1  0  0  0  0
  3 28  1  0  0  0  0
  4  5  1  0  0  0  0
  4 29  1  0  0  0  0
  4 30  1  0  0  0  0
  5  6  1  0  0  0  0
  5  9  1  0  0  0  0
  5 31  1  0  0  0  0
  6  7  1  0  0  0  0
  6  8  1  0  0  0  0
  6 32  1  0  0  0  0
  7 33  1  0  0  0  0
  7 34  1  0  0  0  0
  7 35  1  0  0  0  0
  8 36  1  0  0  0  0
  8 37  1  0  0  0  0
  8 38  1  0  0  0  0
  9 10  1  0  0  0  0
  9 22  1  0  0  0  0
  9 39  1  0  0  0  0
 10 11  1  0  0  0  0
 10 40  1  0  0  0  0
 11 12  2  0  0  0  0
 11 13  1  0  0  0  0
 13 14  1  0  0  0  0
 13 41  1  0  0  0  0
 13 42  1  0  0  0  0
 14 20  1  0  0  0  0
 14 15  1  0  0  0  0
 15 16  2  0  0  0  0
 15 43  1  0  0  0  0
 16 17  1  0  0  0  0
 16 44  1  0  0  0  0
 17 18  2  0  0  0  0
 17 19  1  0  0  0  0
 19 20  1  0  0  0  0
 20 21  2  0  0  0  0
 22 45  1  0  0  0  0
 22 46  1  0  0  0  0
M  CHG  1  19  -1
M  END
> <s_m_source_file>
AV-unprocessed.smi

> <i_m_source_file_index>
2855

> <i_lp_mmshare_version>
43012

> <i_f3d_flags>
0

> <s_epik_input>
W0NIM11bQ0BASF0xW0NIMl1bQ0gyXVtDQEBIXShbQ0hdKFtDSDNdKVtDSDNdKVtDQEhdKFtDSDJdMSlbTkhdQyg9TylbQ0gyXW4yW2NIXVtjSF1jKD1PKVtuSF1jMj1P

> <s_epik_cmdline>
J2VwaWtfcHl0aG9uJywgJy1waCcsICc3LjAnLCAnLXRuJywgJzgnLCAnLW1hJywgJzIwMCcsICctbWV0YWxfYmluZGluZycsICctaW1hZScsICc8aW5maWxlLm1hZT4nLCAnLW9tYWUnLCAnPG91dGZpbGUubWFlPic=

> <r_lp_tautomer_probability>
0.999537

> <r_epik_Ionization_Penalty>
3.12102

> <r_epik_Ionization_Penalty_Charging>
2.9581e-08

> <r_epik_Ionization_Penalty_Neutral>
3.12102

> <r_epik_State_Penalty>
3.12011

> <r_epik_Charging_Adjusted_Penalty>
3.12011

> <i_epik_Tot_Q>
-1

> <i_epik_Tot_abs_Q>
1

> <r_epik_Metal_State_Penalty>
0.463583

> <b_epik_Metal_Only>
1

> <s_lp_Force_Field>
OPLS_2005

> <r_lp_Energy>
22.0986

> <b_lp_Chiralities_Consistent>
1

> <s_lp_Variant>
AV-unprocessed.smi:2855-9

> <Gold.Version>
5.8.1

> <Gold.Id.Protein>
6NUR|6NUR_protein|mol2

> <Gold.PLP.Fitness>
41.5834

> <Gold.PLP.PLP>
-31.0638

> <Gold.PLP.part.hbond>
-3.6420

> <Gold.PLP.part.metal>
0.0000

> <Gold.PLP.part.buried>
1.9186

> <Gold.PLP.part.nonpolar>
-30.1538

> <Gold.PLP.part.repulsive>
0.0147

> <Gold.PLP.ligand.clash>
0.0000

> <Gold.PLP.ligand.torsion>
0.7357

> <Gold.PLP.Chemscore.Hbond>
2.9936

> <Gold.PLP.Chemscore.CHOScore>
0.9899

> <Gold.PLP.Chemscore.Metal>
0.0000

> <Gold.Chemscore.Hbonds>
donor molecule, donor type, donor heavy atom, donor atom, acceptor molecule, acceptor atom, score
      L1  H    10    40       P1  7948  1.00
      P1  H  7997  8010       L1    18  0.83
      P1  H 10752 10764       L1    19  1.20
      L1  C    15    43       P1  7948  0.97

> <Gold.PLP.Chemscore.Internal.Correction>
0.0403

> <Gold.Rescore>
     Score         DG    S(hbond)    S(metal)    S(lipo)     H(rot)  DE(clash)    DE(int)     intcor
     15.90     -17.87       2.43        0.00      76.17       1.81       1.36       0.61       ----

> <Gold.Chemscore.Fitness>
15.8973

> <Gold.Chemscore.DG>
-17.8730

> <Gold.Chemscore.ZeroCoef>
-5.4800

> <Gold.Chemscore.Hbond>
2.4296

> <Gold.Chemscore.Metal>
0.0000

> <Gold.Chemscore.Lipo>
76.1684

> <Gold.Chemscore.Internal_Hbond>
0.0000

> <Gold.Chemscore.DEClash>
1.3617

> <Gold.Chemscore.DEInternal>
0.6140

> <Gold.Chemscore.Rot>
1.8100

> <Gold.Chemscore.Internal.Correction>
   9.000000E+99

> <Gold.Chemscore.Hbonds>
donor molecule, donor type, donor heavy atom, donor atom, acceptor molecule, acceptor atom, score
      L1  H    10    40       P1  7948  1.00
      P1  H  7997  8010       L1    18  0.79
      P1  H 10752 10764       L1    19  0.02

> <Gold.Chemscore.Hbond.Weighted>
-8.1148

> <Gold.Chemscore.Metal.Weighted>
-0.0000

> <Gold.Chemscore.Lipo.Weighted>
-8.9117

> <Gold.Chemscore.Internal_Hbond.Weighted>
0.0000

> <Gold.Chemscore.DEClash.Weighted>
1.3617

> <Gold.Chemscore.DEInternal.Weighted>
0.6140

> <Gold.Chemscore.Rot.Weighted>
4.6335

> <Gold.Chemscore.Internal.Correction.Weighted>
   9.000000E+99

> <Gold.Protein.RotatedTorsions>
[ 6907 6896 6895 6894 ] final  105.75 input  -60.11 | X-H torsion
[ 7974 7965 7964 7962 ] final  -49.43 input  175.53 | X-H torsion
[ 8008 7997 7996 7995 ] final   77.22 input   59.86 | X-H torsion
[ 10167 10162 10161 10158 ] final -140.38 input  -65.29 | X-H torsion
[ 10718 10713 10712 10709 ] final    5.66 input   66.30 | X-H torsion
[ 10763 10752 10751 10750 ] final    4.05 input  -60.55 | X-H torsion
[ 11005 11000 10999 10996 ] final   16.64 input  -57.11 | X-H torsion

> <Gold.Protein.ActiveResidues>
 VAL166  LYS551  ARG553  GLY616  TRP617  ASP618  TYR619  PRO620  LYS621  CYS622 
 ASP623  PHE694  ASN695  SER759  ASP760  ASP761  ALA762  ILE779  LEU786  VAL792 
 PHE793  MET794  SER795  GLU796  ALA797  LYS798  CYS799  TRP800  GLU811  SER814 

> <Gold.Protein.RotatedAtoms>
  152.5219  133.9483  159.7659 H   0  0  0  0  0  0  0  0  0  0  0  0  # atno 6907 bound_to 6896
  150.9798  133.6249  159.2731 H   0  0  0  0  0  0  0  0  0  0  0  0  # atno 6908 bound_to 6896
  151.3430  135.0874  159.9430 H   0  0  0  0  0  0  0  0  0  0  0  0  # atno 6909 bound_to 6896
  145.9406  140.7665  142.9554 H   0  0  0  0  0  0  0  0  0  0  0  0  # atno 7974 bound_to 7965
  155.8385  140.3463  155.5617 H   0  0  0  0  0  0  0  0  0  0  0  0  # atno 8008 bound_to 7997
  155.8166  140.0906  157.1893 H   0  0  0  0  0  0  0  0  0  0  0  0  # atno 8009 bound_to 7997
  154.4004  140.1438  156.3437 H   0  0  0  0  0  0  0  0  0  0  0  0  # atno 8010 bound_to 7997
  139.8287  143.7476  152.2666 H   0  0  0  0  0  0  0  0  0  0  0  0  # atno 10167 bound_to 10162
  156.9106  130.5755  149.5647 H   0  0  0  0  0  0  0  0  0  0  0  0  # atno 10718 bound_to 10713
  153.2759  135.6936  153.7433 H   0  0  0  0  0  0  0  0  0  0  0  0  # atno 10763 bound_to 10752
  153.6439  135.3388  155.3080 H   0  0  0  0  0  0  0  0  0  0  0  0  # atno 10764 bound_to 10752
  154.8479  135.4438  154.1797 H   0  0  0  0  0  0  0  0  0  0  0  0  # atno 10765 bound_to 10752
  140.4448  134.1284  155.7695 H   0  0  0  0  0  0  0  0  0  0  0  0  # atno 11005 bound_to 11000
  144.6778  140.2275  143.7359 LP  0  0  0  0  0  0  0  0  0  0  0  0  # atno 17320 bound_to 7965
  145.8304  139.2083  143.1886 LP  0  0  0  0  0  0  0  0  0  0  0  0  # atno 17321 bound_to 7965
  139.7677  144.7487  151.0270 LP  0  0  0  0  0  0  0  0  0  0  0  0  # atno 17342 bound_to 10162
  140.7808  143.4680  151.0186 LP  0  0  0  0  0  0  0  0  0  0  0  0  # atno 17343 bound_to 10162
  156.0538  130.5603  150.9046 LP  0  0  0  0  0  0  0  0  0  0  0  0  # atno 17370 bound_to 10713
  157.5970  131.0942  150.9025 LP  0  0  0  0  0  0  0  0  0  0  0  0  # atno 17371 bound_to 10713
  141.1690  133.8647  157.1629 LP  0  0  0  0  0  0  0  0  0  0  0  0  # atno 17394 bound_to 11000
  140.0045  135.0014  157.0263 LP  0  0  0  0  0  0  0  0  0  0  0  0  # atno 17395 bound_to 11000

$$$$
