AV-unprocessed.smi:560|AV-procd|sdf|2927|dock4
  -GOLD-   2262023423D 1   1.00000     0.00000
 Structure written by MMmdl.
 41 42  0  0  0  0  0  0  0  0  1 V2000
  154.0925  141.1491  161.5604 C   0  0  0  0  0  0  0  0  0  0  0  0
  153.8911  141.7354  160.1478 C   0  0  1  0  0  0  0  0  0  0  0  0
  153.3683  140.6984  159.1407 C   0  0  0  0  0  0  0  0  0  0  0  0
  154.0747  139.7552  158.7823 O   0  0  0  0  0  0  0  0  0  0  0  0
  152.1202  140.8929  158.6858 N   0  0  0  0  0  0  0  0  0  0  0  0
  151.4287  140.0381  157.7265 C   0  0  0  0  0  0  0  0  0  0  0  0
  152.1670  140.0189  156.3783 C   0  0  0  0  0  0  0  0  0  0  0  0
  151.3690  139.2375  155.3203 C   0  0  0  0  0  0  0  0  0  0  0  0
  150.0349  139.8201  155.1429 N   0  0  0  0  0  0  0  0  0  0  0  0
  149.3450  139.1290  154.0297 C   0  0  0  0  0  0  0  0  0  0  0  0
  147.8617  139.4883  153.8785 C   0  0  0  0  0  0  0  0  0  0  0  0
  147.4738  139.9993  152.7075 N   0  0  0  0  0  0  0  0  0  0  0  0
  147.0762  139.3015  154.8054 O   0  0  0  0  0  0  0  0  0  0  0  0
  149.2804  139.7551  156.4033 C   0  0  0  0  0  0  0  0  0  0  0  0
  150.0000  140.5536  157.5049 C   0  0  0  0  0  0  0  0  0  0  0  0
  153.0326  142.9146  160.1548 N   0  0  0  0  0  0  0  0  0  0  0  0
  152.3908  143.4890  161.2337 C   0  0  0  0  0  0  0  0  0  0  0  0
  151.7309  144.5944  160.7792 C   0  0  0  0  0  0  0  0  0  0  0  0
  152.0423  144.6267  159.3917 C   0  0  0  0  0  0  0  0  0  0  0  0
  152.8272  143.6278  159.0229 N   0  0  0  0  0  0  0  0  0  0  0  0
  154.7872  140.3085  161.5408 H   0  0  0  0  0  0  0  0  0  0  0  0
  153.1577  140.7935  161.9959 H   0  0  0  0  0  0  0  0  0  0  0  0
  154.5071  141.8978  162.2360 H   0  0  0  0  0  0  0  0  0  0  0  0
  154.8723  142.0579  159.7951 H   0  0  0  0  0  0  0  0  0  0  0  0
  151.6103  141.6931  159.0312 H   0  0  0  0  0  0  0  0  0  0  0  0
  151.3711  139.0216  158.1207 H   0  0  0  0  0  0  0  0  0  0  0  0
  152.3307  141.0392  156.0276 H   0  0  0  0  0  0  0  0  0  0  0  0
  153.1544  139.5711  156.4962 H   0  0  0  0  0  0  0  0  0  0  0  0
  151.9151  139.2692  154.3766 H   0  0  0  0  0  0  0  0  0  0  0  0
  151.2908  138.1870  155.6061 H   0  0  0  0  0  0  0  0  0  0  0  0
  149.8297  139.3893  153.0878 H   0  0  0  0  0  0  0  0  0  0  0  0
  149.4540  138.0488  154.1448 H   0  0  0  0  0  0  0  0  0  0  0  0
  146.5071  140.2514  152.5617 H   0  0  0  0  0  0  0  0  0  0  0  0
  148.1516  140.1322  151.9710 H   0  0  0  0  0  0  0  0  0  0  0  0
  148.2818  140.1744  156.2824 H   0  0  0  0  0  0  0  0  0  0  0  0
  149.1510  138.7160  156.7113 H   0  0  0  0  0  0  0  0  0  0  0  0
  149.4326  140.4912  158.4342 H   0  0  0  0  0  0  0  0  0  0  0  0
  150.0225  141.6088  157.2271 H   0  0  0  0  0  0  0  0  0  0  0  0
  152.4564  143.0669  162.2257 H   0  0  0  0  0  0  0  0  0  0  0  0
  151.1225  145.2788  161.3514 H   0  0  0  0  0  0  0  0  0  0  0  0
  151.7275  145.3432  158.6475 H   0  0  0  0  0  0  0  0  0  0  0  0
  1  2  1  0  0  0  0
  1 21  1  0  0  0  0
  1 22  1  0  0  0  0
  1 23  1  0  0  0  0
  2  3  1  0  0  0  0
  2 16  1  0  0  0  0
  2 24  1  0  0  0  0
  3  4  2  0  0  0  0
  3  5  1  0  0  0  0
  5  6  1  0  0  0  0
  5 25  1  0  0  0  0
  6 15  1  0  0  0  0
  6  7  1  0  0  0  0
  6 26  1  0  0  0  0
  7  8  1  0  0  0  0
  7 27  1  0  0  0  0
  7 28  1  0  0  0  0
  8  9  1  0  0  0  0
  8 29  1  0  0  0  0
  8 30  1  0  0  0  0
  9 10  1  0  0  0  0
  9 14  1  0  0  0  0
 10 11  1  0  0  0  0
 10 31  1  0  0  0  0
 10 32  1  0  0  0  0
 11 12  1  0  0  0  0
 11 13  2  0  0  0  0
 12 33  1  0  0  0  0
 12 34  1  0  0  0  0
 14 15  1  0  0  0  0
 14 35  1  0  0  0  0
 14 36  1  0  0  0  0
 15 37  1  0  0  0  0
 15 38  1  0  0  0  0
 16 20  1  0  0  0  0
 16 17  1  0  0  0  0
 17 18  2  0  0  0  0
 17 39  1  0  0  0  0
 18 19  1  0  0  0  0
 18 40  1  0  0  0  0
 19 20  2  0  0  0  0
 19 41  1  0  0  0  0
M  END
> <s_m_source_file>
AV-unprocessed.smi

> <i_m_source_file_index>
560

> <i_lp_mmshare_version>
43012

> <i_f3d_flags>
0

> <s_epik_input>
bjFbY0hdW2NIXVtjSF1uMVtDQEhdKFtDSDNdKUMoPU8pW05IXVtDSF0yW0NIMl1bQ0gyXU4oW0NIMl1bQ0gyXTIpW0NIMl1DKD1PKVtOSDJd

> <s_epik_cmdline>
J2VwaWtfcHl0aG9uJywgJy1waCcsICc3LjAnLCAnLXRuJywgJzgnLCAnLW1hJywgJzIwMCcsICctbWV0YWxfYmluZGluZycsICctaW1hZScsICc8aW5maWxlLm1hZT4nLCAnLW9tYWUnLCAnPG91dGZpbGUubWFlPic=

> <r_lp_tautomer_probability>
1

> <r_epik_Ionization_Penalty>
0.114724

> <r_epik_Ionization_Penalty_Charging>
0

> <r_epik_Ionization_Penalty_Neutral>
0.114724

> <r_epik_State_Penalty>
0.104339

> <r_epik_Charging_Adjusted_Penalty>
0.104339

> <i_epik_Tot_Q>
0

> <i_epik_Tot_abs_Q>
0

> <r_epik_Metal_State_Penalty>
0.117437

> <b_epik_Metal_Only>
0

> <s_lp_Force_Field>
OPLS_2005

> <r_lp_Energy>
15.5431

> <b_lp_Chiralities_Consistent>
1

> <s_lp_Variant>
AV-unprocessed.smi:560-2

> <Gold.Version>
5.8.1

> <Gold.Id.Protein>
6NUR|6NUR_protein|mol2

> <Gold.PLP.Fitness>
45.9982

> <Gold.PLP.PLP>
-40.5160

> <Gold.PLP.part.hbond>
-1.9729

> <Gold.PLP.part.metal>
0.0000

> <Gold.PLP.part.buried>
-4.5779

> <Gold.PLP.part.nonpolar>
-33.6553

> <Gold.PLP.part.repulsive>
0.3307

> <Gold.PLP.ligand.clash>
0.0000

> <Gold.PLP.ligand.torsion>
0.3246

> <Gold.PLP.Chemscore.Hbond>
2.0000

> <Gold.PLP.Chemscore.CHOScore>
0.0000

> <Gold.PLP.Chemscore.Metal>
0.0000

> <Gold.Chemscore.Hbonds>
donor molecule, donor type, donor heavy atom, donor atom, acceptor molecule, acceptor atom, score
      L1  H    12    34       P1  7957  1.00
      P1  H  7997  8010       L1     4  1.00

> <Gold.PLP.Chemscore.Internal.Correction>
0.1315

> <Gold.Rescore>
     Score         DG    S(hbond)    S(metal)    S(lipo)     H(rot)  DE(clash)    DE(int)     intcor
     12.59     -15.59       1.80        0.00      89.12       2.48       0.00       3.01       ----

> <Gold.Chemscore.Fitness>
12.5861

> <Gold.Chemscore.DG>
-15.5914

> <Gold.Chemscore.ZeroCoef>
-5.4800

> <Gold.Chemscore.Hbond>
1.8039

> <Gold.Chemscore.Metal>
0.0000

> <Gold.Chemscore.Lipo>
89.1207

> <Gold.Chemscore.Internal_Hbond>
0.0000

> <Gold.Chemscore.DEClash>
0.0000

> <Gold.Chemscore.DEInternal>
3.0053

> <Gold.Chemscore.Rot>
2.4768

> <Gold.Chemscore.Internal.Correction>
   9.000000E+99

> <Gold.Chemscore.Hbonds>
donor molecule, donor type, donor heavy atom, donor atom, acceptor molecule, acceptor atom, score
      L1  H    12    34       P1  7957  0.99
      P1  H  7997  8010       L1     4  0.85

> <Gold.Chemscore.Hbond.Weighted>
-6.0249

> <Gold.Chemscore.Metal.Weighted>
-0.0000

> <Gold.Chemscore.Lipo.Weighted>
-10.4271

> <Gold.Chemscore.Internal_Hbond.Weighted>
0.0000

> <Gold.Chemscore.DEClash.Weighted>
0.0000

> <Gold.Chemscore.DEInternal.Weighted>
3.0053

> <Gold.Chemscore.Rot.Weighted>
6.3406

> <Gold.Chemscore.Internal.Correction.Weighted>
   9.000000E+99

> <Gold.Protein.RotatedTorsions>
[ 6907 6896 6895 6894 ] final   53.32 input  -60.11 | X-H torsion
[ 7974 7965 7964 7962 ] final -105.31 input  175.53 | X-H torsion
[ 8008 7997 7996 7995 ] final   15.37 input   59.86 | X-H torsion
[ 10167 10162 10161 10158 ] final   77.44 input  -65.29 | X-H torsion
[ 10718 10713 10712 10709 ] final -106.46 input   66.30 | X-H torsion
[ 10763 10752 10751 10750 ] final -167.90 input  -60.55 | X-H torsion
[ 11005 11000 10999 10996 ] final -165.58 input  -57.11 | X-H torsion

> <Gold.Protein.ActiveResidues>
 VAL166  LYS551  ARG553  GLY616  TRP617  ASP618  TYR619  PRO620  LYS621  CYS622 
 ASP623  PHE694  ASN695  SER759  ASP760  ASP761  ALA762  ILE779  LEU786  VAL792 
 PHE793  MET794  SER795  GLU796  ALA797  LYS798  CYS799  TRP800  GLU811  SER814 

> <Gold.Protein.RotatedAtoms>
  152.3324  134.7242  160.0285 H   0  0  0  0  0  0  0  0  0  0  0  0  # atno 6907 bound_to 6896
  151.7654  133.3331  159.3437 H   0  0  0  0  0  0  0  0  0  0  0  0  # atno 6908 bound_to 6896
  150.7431  134.5999  159.6076 H   0  0  0  0  0  0  0  0  0  0  0  0  # atno 6909 bound_to 6896
  145.2321  140.9174  143.3199 H   0  0  0  0  0  0  0  0  0  0  0  0  # atno 7974 bound_to 7965
  154.8617  140.2945  155.5535 H   0  0  0  0  0  0  0  0  0  0  0  0  # atno 8008 bound_to 7997
  156.3020  140.2477  156.3525 H   0  0  0  0  0  0  0  0  0  0  0  0  # atno 8009 bound_to 7997
  154.8911  140.0394  157.1828 H   0  0  0  0  0  0  0  0  0  0  0  0  # atno 8010 bound_to 7997
  139.9815  144.5823  150.7896 H   0  0  0  0  0  0  0  0  0  0  0  0  # atno 10167 bound_to 10162
  156.0391  130.5614  150.7684 H   0  0  0  0  0  0  0  0  0  0  0  0  # atno 10718 bound_to 10713
  154.6685  135.2935  154.9774 H   0  0  0  0  0  0  0  0  0  0  0  0  # atno 10763 bound_to 10752
  154.0809  135.6604  153.4841 H   0  0  0  0  0  0  0  0  0  0  0  0  # atno 10764 bound_to 10752
  153.0472  135.5197  154.7669 H   0  0  0  0  0  0  0  0  0  0  0  0  # atno 10765 bound_to 10752
  140.5741  134.5208  157.5167 H   0  0  0  0  0  0  0  0  0  0  0  0  # atno 11005 bound_to 11000
  144.9667  139.3923  143.6329 LP  0  0  0  0  0  0  0  0  0  0  0  0  # atno 17320 bound_to 7965
  146.3350  139.8745  142.8834 LP  0  0  0  0  0  0  0  0  0  0  0  0  # atno 17321 bound_to 7965
  140.7487  143.2927  151.3288 LP  0  0  0  0  0  0  0  0  0  0  0  0  # atno 17342 bound_to 10162
  139.6406  144.0547  152.2551 LP  0  0  0  0  0  0  0  0  0  0  0  0  # atno 17343 bound_to 10162
  157.5184  131.0930  151.0109 LP  0  0  0  0  0  0  0  0  0  0  0  0  # atno 17370 bound_to 10713
  157.0446  130.5763  149.5361 LP  0  0  0  0  0  0  0  0  0  0  0  0  # atno 17371 bound_to 10713
  139.9348  134.7896  156.0833 LP  0  0  0  0  0  0  0  0  0  0  0  0  # atno 17394 bound_to 11000
  141.1038  133.6667  156.2815 LP  0  0  0  0  0  0  0  0  0  0  0  0  # atno 17395 bound_to 11000

$$$$
