#       Name:                AV-unprocessed.smi:287
#       Creating user name   scv26
#       Creation time:       Thu Mar 26 21:58:10 2020


#       File generated by GOLD software.
#

@<TRIPOS>MOLECULE
AV-unprocessed.smi:287
    70    73     1
SMALL
NO_CHARGES


@<TRIPOS>ATOM
      1 ****        -2.1114   3.0922  -4.3594 C.3            1 S1                 0.0000
      2 ****        -2.4764   3.1833  -2.9174 C.2            1 S1                 0.0000
      3 ****        -3.0164   2.3066  -2.0223 C.2            1 S1                 0.0000
      4 ****        -3.1223   2.9848  -0.7714 C.2            1 S1                 0.0000
      5 ****        -3.6661   2.3907   0.5212 C.3            1 S1                 0.0000
      6 ****        -5.1807   2.1564   0.3931 C.3            1 S1                 0.0000
      7 ****        -3.5169   3.2555   1.6306 O.3            1 S1                 0.0000
      8 ****        -2.9544   1.0730   0.9063 C.3            1 S1                 0.0000
      9 ****        -1.5057   1.1410   0.7425 N.pl3          1 S1                 0.0000
     10 ****        -0.7445   0.0475   0.9575 C.ar           1 S1                 0.0000
     11 ****        -1.2969  -1.1140   1.3927 N.ar           1 S1                 0.0000
     12 ****        -0.5228  -2.1829   1.5948 C.ar           1 S1                 0.0000
     13 ****         0.7958  -2.3002   1.4273 N.ar           1 S1                 0.0000
     14 ****         1.3627  -1.1374   0.9904 C.ar           1 S1                 0.0000
     15 ****         0.6564   0.0728   0.7338 C.ar           1 S1                 0.0000
     16 ****         1.5368   1.0508   0.2971 N.2            1 S1                 0.0000
     17 ****         2.6946   0.4494   0.2917 C.2            1 S1                 0.0000
     18 ****         2.6921  -0.8653   0.7064 N.pl3          1 S1                 0.0000
     19 ****         3.8933  -1.7716   0.7569 C.3            1 S1                 0.0000
     20 ****         3.9140  -2.5370  -0.4056 O.3            1 S1                 0.0000
     21 ****         3.3403  -3.8071  -0.1448 C.3            1 S1                 0.0000
     22 ****         3.8005  -4.8332  -1.1955 C.3            1 S1                 0.0000
     23 ****         5.1591  -5.1863  -1.0345 O.3            1 S1                 0.0000
     24 ****         3.6785  -4.1163   1.3238 C.3            1 S1                 0.0000
     25 ****         2.5993  -4.7903   1.9392 O.3            1 S1                 0.0000
     26 ****         3.8921  -2.7368   1.9592 C.3            1 S1                 0.0000
     27 ****         5.1329  -2.7018   2.6356 O.3            1 S1                 0.0000
     28 ****        -2.6375   4.2477  -1.0156 C.2            1 S1                 0.0000
     29 ****        -2.4587   5.4719  -0.1794 C.3            1 S1                 0.0000
     30 ****        -2.2428   4.3751  -2.3133 O.3            1 S1                 0.0000
     31 ****         4.7369  -1.0796   0.7640 H              1 S1                 0.0000
     32 ****         2.2639  -3.6802  -0.2599 H              1 S1                 0.0000
     33 ****         4.5786  -4.7258   1.4089 H              1 S1                 0.0000
     34 ****         3.1150  -2.4619   2.6724 H              1 S1                 0.0000
     35 ****        -2.2364   2.0741  -4.7288 H              1 S1                 0.0000
     36 ****        -1.0722   3.3820  -4.5146 H              1 S1                 0.0000
     37 ****        -2.7407   3.7496  -4.9595 H              1 S1                 0.0000
     38 ****        -3.2996   1.2871  -2.2378 H              1 S1                 0.0000
     39 ****        -5.4068   1.4605  -0.4155 H              1 S1                 0.0000
     40 ****        -5.7095   3.0868   0.1818 H              1 S1                 0.0000
     41 ****        -5.6000   1.7388   1.3093 H              1 S1                 0.0000
     42 ****        -3.8662   2.8242   2.3954 H              1 S1                 0.0000
     43 ****        -3.2116   0.7732   1.9236 H              1 S1                 0.0000
     44 ****        -3.3119   0.2798   0.2479 H              1 S1                 0.0000
     45 ****        -1.1367   2.0242   0.4191 H              1 S1                 0.0000
     46 ****        -1.0317  -3.0704   1.9408 H              1 S1                 0.0000
     47 ****         3.5959   0.9570  -0.0204 H              1 S1                 0.0000
     48 ****         3.2048  -5.7418  -1.1063 H              1 S1                 0.0000
     49 ****         3.6428  -4.4463  -2.2023 H              1 S1                 0.0000
     50 ****         5.3835  -5.8251  -1.6940 H              1 S1                 0.0000
     51 ****         1.8342  -4.2373   1.8857 H              1 S1                 0.0000
     52 ****         5.8111  -2.9583   2.0293 H              1 S1                 0.0000
     53 ****        -3.4073   5.7826   0.2584 H              1 S1                 0.0000
     54 ****        -2.0761   6.3031  -0.7722 H              1 S1                 0.0000
     55 ****        -1.7541   5.2861   0.6312 H              1 S1                 0.0000
     56 ****        -4.0163   4.1059   1.4652 LP             1 S1                 0.0000
     57 ****        -2.5482   3.4598   1.7714 LP             1 S1                 0.0000
     58 ****        -2.2811  -1.1687   1.5615 LP             1 S1                 0.0000
     59 ****         1.3085  -3.1409   1.6013 LP             1 S1                 0.0000
     60 ****         1.3321   1.9966   0.0451 LP             1 S1                 0.0000
     61 ****         4.8590  -2.6543  -0.7108 LP             1 S1                 0.0000
     62 ****         3.3883  -2.0739  -1.1191 LP             1 S1                 0.0000
     63 ****         5.3005  -5.5768  -0.1248 LP             1 S1                 0.0000
     64 ****         5.7334  -4.3748  -1.1418 LP             1 S1                 0.0000
     65 ****         2.8176  -4.9736   2.8978 LP             1 S1                 0.0000
     66 ****         2.4260  -5.6539   1.4659 LP             1 S1                 0.0000
     67 ****         5.1139  -3.3357   3.4089 LP             1 S1                 0.0000
     68 ****         5.3101  -1.7755   2.9683 LP             1 S1                 0.0000
     69 ****        -2.7687   5.0970  -2.7629 LP             1 S1                 0.0000
     70 ****        -1.2686   4.5966  -2.3558 LP             1 S1                 0.0000
@<TRIPOS>BOND
    1    1    2 1     
    2    1   35 1     
    3    1   36 1     
    4    1   37 1     
    5    2   30 1     
    6    2    3 2     
    7    3    4 1     
    8    3   38 1     
    9    4    5 1     
   10    4   28 2     
   11    5    6 1     
   12    5    7 1     
   13    5    8 1     
   14    6   39 1     
   15    6   40 1     
   16    6   41 1     
   17    7   42 1     
   18    8    9 1     
   19    8   43 1     
   20    8   44 1     
   21    9   10 1     
   22    9   45 1     
   23   10   15 ar    
   24   10   11 ar    
   25   11   12 ar    
   26   12   13 ar    
   27   12   46 1     
   28   13   14 ar    
   29   14   18 1     
   30   14   15 ar    
   31   15   16 1     
   32   16   17 2     
   33   17   18 1     
   34   17   47 1     
   35   18   19 1     
   36   19   31 1     
   37   19   26 1     
   38   19   20 1     
   39   20   21 1     
   40   21   32 1     
   41   21   22 1     
   42   21   24 1     
   43   22   23 1     
   44   22   48 1     
   45   22   49 1     
   46   23   50 1     
   47   24   33 1     
   48   24   25 1     
   49   24   26 1     
   50   25   51 1     
   51   26   34 1     
   52   26   27 1     
   53   27   52 1     
   54   28   29 1     
   55   28   30 1     
   56   29   53 1     
   57   29   54 1     
   58   29   55 1     
   59    7   56 1     
   60    7   57 1     
   61   11   58 1     
   62   13   59 1     
   63   16   60 1     
   64   20   61 1     
   65   20   62 1     
   66   23   63 1     
   67   23   64 1     
   68   25   65 1     
   69   25   66 1     
   70   27   67 1     
   71   27   68 1     
   72   30   69 1     
   73   30   70 1     
@<TRIPOS>SUBSTRUCTURE
      1 S1             1
@<TRIPOS>SET
LONE_PAIRS      STATIC     ATOMS    <user>   **** ""
15 56 57 58 59 60 61 62 63 64 65 66 67 68 69 70
DONOR_HYDROGENS      STATIC     ATOMS    <user>   **** ""
5 42 45 50 51 52
ATOM$BLUE        STATIC     ATOMS    COLORGROUP SYSTEM
15 56 57 58 59 60 61 62 63 64 65 66 67 68 69 70
ATOM$RED        STATIC     ATOMS    COLORGROUP SYSTEM
5 42 45 50 51 52
