AV-unprocessed.smi:2591|AV-procd|sdf|10158|dock4
  -GOLD-   2272014173D 1   1.00000     0.00000
 Structure written by MMmdl.
 34 35  0  0  0  0  0  0  0  0  1 V2000
  146.1310  142.5845  153.9179 C   0  0  0  0  0  0  0  0  0  0  0  0
  147.0814  141.4938  153.7629 N   0  0  0  0  0  0  0  0  0  0  0  0
  146.4735  140.2030  154.0554 C   0  0  0  0  0  0  0  0  0  0  0  0
  147.4825  139.0537  153.8942 C   0  0  0  0  0  0  0  0  0  0  0  0
  148.6152  139.2913  154.7248 O   0  0  0  0  0  0  0  0  0  0  0  0
  149.2716  140.5285  154.4428 C   0  0  2  0  0  0  0  0  0  0  0  0
  150.4887  140.6672  155.3687 C   0  0  0  0  0  0  0  0  0  0  0  0
  151.5790  140.2046  155.0296 O   0  0  0  0  0  0  0  0  0  0  0  0
  150.2608  141.2916  156.5402 N   0  0  0  0  0  0  0  0  0  0  0  0
  151.1768  141.5558  157.5926 C   0  0  0  0  0  0  0  0  0  0  0  0
  150.9495  142.7601  158.2953 C   0  0  0  0  0  0  0  0  0  0  0  0
  151.7960  143.1155  159.3677 C   0  0  0  0  0  0  0  0  0  0  0  0
  151.5772  144.4076  160.1397 C   0  0  0  0  0  0  0  0  0  0  0  0
  152.1775  144.3570  161.3292 F   0  0  0  0  0  0  0  0  0  0  0  0
  152.0844  145.4254  159.4454 F   0  0  0  0  0  0  0  0  0  0  0  0
  150.2767  144.6272  160.3368 F   0  0  0  0  0  0  0  0  0  0  0  0
  152.8603  142.2504  159.6932 C   0  0  0  0  0  0  0  0  0  0  0  0
  153.0183  141.0729  158.9405 C   0  0  0  0  0  0  0  0  0  0  0  0
  152.2021  140.7322  157.9222 N   0  0  0  0  0  0  0  0  0  0  0  0
  148.2565  141.6837  154.6036 C   0  0  0  0  0  0  0  0  0  0  0  0
  145.2727  142.4457  153.2597 H   0  0  0  0  0  0  0  0  0  0  0  0
  146.5940  143.5383  153.6630 H   0  0  0  0  0  0  0  0  0  0  0  0
  145.7667  142.6471  154.9442 H   0  0  0  0  0  0  0  0  0  0  0  0
  146.0830  140.1999  155.0744 H   0  0  0  0  0  0  0  0  0  0  0  0
  145.6229  140.0355  153.3940 H   0  0  0  0  0  0  0  0  0  0  0  0
  147.0256  138.1053  154.1765 H   0  0  0  0  0  0  0  0  0  0  0  0
  147.7988  138.9605  152.8543 H   0  0  0  0  0  0  0  0  0  0  0  0
  149.6405  140.5070  153.4157 H   0  0  0  0  0  0  0  0  0  0  0  0
  149.3170  141.6164  156.6917 H   0  0  0  0  0  0  0  0  0  0  0  0
  150.1303  143.4064  158.0146 H   0  0  0  0  0  0  0  0  0  0  0  0
  153.5431  142.4803  160.4980 H   0  0  0  0  0  0  0  0  0  0  0  0
  153.8225  140.3865  159.1606 H   0  0  0  0  0  0  0  0  0  0  0  0
  148.7347  142.6304  154.3479 H   0  0  0  0  0  0  0  0  0  0  0  0
  147.9519  141.7605  155.6490 H   0  0  0  0  0  0  0  0  0  0  0  0
  1  2  1  0  0  0  0
  1 21  1  0  0  0  0
  1 22  1  0  0  0  0
  1 23  1  0  0  0  0
  2 20  1  0  0  0  0
  2  3  1  0  0  0  0
  3  4  1  0  0  0  0
  3 24  1  0  0  0  0
  3 25  1  0  0  0  0
  4  5  1  0  0  0  0
  4 26  1  0  0  0  0
  4 27  1  0  0  0  0
  5  6  1  0  0  0  0
  6  7  1  0  0  0  0
  6 20  1  0  0  0  0
  6 28  1  0  0  0  0
  7  8  2  0  0  0  0
  7  9  1  0  0  0  0
  9 10  1  0  0  0  0
  9 29  1  0  0  0  0
 10 19  1  0  0  0  0
 10 11  2  0  0  0  0
 11 12  1  0  0  0  0
 11 30  1  0  0  0  0
 12 13  1  0  0  0  0
 12 17  2  0  0  0  0
 13 14  1  0  0  0  0
 13 15  1  0  0  0  0
 13 16  1  0  0  0  0
 17 18  1  0  0  0  0
 17 31  1  0  0  0  0
 18 19  2  0  0  0  0
 18 32  1  0  0  0  0
 20 33  1  0  0  0  0
 20 34  1  0  0  0  0
M  END
> <s_m_source_file>
AV-unprocessed.smi

> <i_m_source_file_index>
2591

> <i_lp_mmshare_version>
43012

> <i_f3d_flags>
0

> <s_epik_input>
W0NIM11OMVtDSDJdW0NIMl1PW0NASF0oW0NIMl0xKUMoPU8pW05IXWMyW2NIXWMoQyhGKShGKUYpW2NIXVtjSF1uMg==

> <s_epik_cmdline>
J2VwaWtfcHl0aG9uJywgJy1waCcsICc3LjAnLCAnLXRuJywgJzgnLCAnLW1hJywgJzIwMCcsICctbWV0YWxfYmluZGluZycsICctaW1hZScsICc8aW5maWxlLm1hZT4nLCAnLW9tYWUnLCAnPG91dGZpbGUubWFlPic=

> <r_epik_Ionization_Penalty>
0.526245

> <r_epik_Ionization_Penalty_Charging>
0

> <r_epik_Ionization_Penalty_Neutral>
0.526245

> <r_epik_State_Penalty>
0.534659

> <r_epik_Charging_Adjusted_Penalty>
0.534659

> <i_epik_Tot_Q>
0

> <i_epik_Tot_abs_Q>
0

> <r_epik_Metal_State_Penalty>
0.534657

> <b_epik_Metal_Only>
0

> <s_lp_Force_Field>
OPLS_2005

> <r_lp_Energy>
21.9247

> <b_lp_Chiralities_Consistent>
1

> <s_lp_Variant>
AV-unprocessed.smi:2591-6

> <Gold.Version>
5.8.1

> <Gold.Id.Protein>
6NUR|6NUR_protein|mol2

> <Gold.PLP.Fitness>
42.6092

> <Gold.PLP.PLP>
-42.6294

> <Gold.PLP.part.hbond>
-1.0000

> <Gold.PLP.part.metal>
0.0000

> <Gold.PLP.part.buried>
-5.3643

> <Gold.PLP.part.nonpolar>
-35.9660

> <Gold.PLP.part.repulsive>
0.3758

> <Gold.PLP.ligand.clash>
0.0000

> <Gold.PLP.ligand.torsion>
1.8299

> <Gold.PLP.Chemscore.Hbond>
0.8500

> <Gold.PLP.Chemscore.CHOScore>
0.0000

> <Gold.PLP.Chemscore.Metal>
0.0000

> <Gold.Chemscore.Hbonds>
donor molecule, donor type, donor heavy atom, donor atom, acceptor molecule, acceptor atom, score
      P1  H  7989  7998       L1     8  0.89

> <Gold.PLP.Chemscore.Internal.Correction>
1.0897

> <Gold.Rescore>
     Score         DG    S(hbond)    S(metal)    S(lipo)     H(rot)  DE(clash)    DE(int)     intcor
     12.11     -14.48       0.86        0.00      74.20       1.00       0.03       2.34       ----

> <Gold.Chemscore.Fitness>
12.1085

> <Gold.Chemscore.DG>
-14.4787

> <Gold.Chemscore.ZeroCoef>
-5.4800

> <Gold.Chemscore.Hbond>
0.8616

> <Gold.Chemscore.Metal>
0.0000

> <Gold.Chemscore.Lipo>
74.1953

> <Gold.Chemscore.Internal_Hbond>
0.0000

> <Gold.Chemscore.DEClash>
0.0331

> <Gold.Chemscore.DEInternal>
2.3371

> <Gold.Chemscore.Rot>
1.0000

> <Gold.Chemscore.Internal.Correction>
   9.000000E+99

> <Gold.Chemscore.Hbonds>
donor molecule, donor type, donor heavy atom, donor atom, acceptor molecule, acceptor atom, score
      P1  H  7989  7998       L1     8  0.17

> <Gold.Chemscore.Hbond.Weighted>
-2.8778

> <Gold.Chemscore.Metal.Weighted>
-0.0000

> <Gold.Chemscore.Lipo.Weighted>
-8.6808

> <Gold.Chemscore.Internal_Hbond.Weighted>
0.0000

> <Gold.Chemscore.DEClash.Weighted>
0.0331

> <Gold.Chemscore.DEInternal.Weighted>
2.3371

> <Gold.Chemscore.Rot.Weighted>
2.5600

> <Gold.Chemscore.Internal.Correction.Weighted>
   9.000000E+99

> <Gold.Protein.RotatedTorsions>
[ 6907 6896 6895 6894 ] final   51.87 input  -60.11 | X-H torsion
[ 7974 7965 7964 7962 ] final -121.75 input  175.53 | X-H torsion
[ 8008 7997 7996 7995 ] final   97.24 input   59.86 | X-H torsion
[ 10167 10162 10161 10158 ] final  -93.18 input  -65.29 | X-H torsion
[ 10718 10713 10712 10709 ] final   50.45 input   66.30 | X-H torsion
[ 10763 10752 10751 10750 ] final -122.03 input  -60.55 | X-H torsion
[ 11005 11000 10999 10996 ] final -115.88 input  -57.11 | X-H torsion

> <Gold.Protein.ActiveResidues>
 VAL166  LYS551  ARG553  GLY616  TRP617  ASP618  TYR619  PRO620  LYS621  CYS622 
 ASP623  PHE694  ASN695  SER759  ASP760  ASP761  ALA762  ILE779  LEU786  VAL792 
 PHE793  MET794  SER795  GLU796  ALA797  LYS798  CYS799  TRP800  GLU811  SER814 

> <Gold.Protein.RotatedAtoms>
  152.3172  134.7424  160.0322 H   0  0  0  0  0  0  0  0  0  0  0  0  # atno 6907 bound_to 6896
  151.7885  133.3351  159.3500 H   0  0  0  0  0  0  0  0  0  0  0  0  # atno 6908 bound_to 6896
  150.7351  134.5795  159.5976 H   0  0  0  0  0  0  0  0  0  0  0  0  # atno 6909 bound_to 6896
  145.0369  140.8113  143.4289 H   0  0  0  0  0  0  0  0  0  0  0  0  # atno 7974 bound_to 7965
  156.0881  140.3261  155.7780 H   0  0  0  0  0  0  0  0  0  0  0  0  # atno 8008 bound_to 7997
  155.5042  140.0571  157.2951 H   0  0  0  0  0  0  0  0  0  0  0  0  # atno 8009 bound_to 7997
  154.4621  140.1972  156.0232 H   0  0  0  0  0  0  0  0  0  0  0  0  # atno 8010 bound_to 7997
  140.3272  143.3015  151.9981 H   0  0  0  0  0  0  0  0  0  0  0  0  # atno 10167 bound_to 10162
  157.4886  130.8361  149.8176 H   0  0  0  0  0  0  0  0  0  0  0  0  # atno 10718 bound_to 10713
  154.8681  135.4147  154.2716 H   0  0  0  0  0  0  0  0  0  0  0  0  # atno 10763 bound_to 10752
  153.3625  135.7004  153.6706 H   0  0  0  0  0  0  0  0  0  0  0  0  # atno 10764 bound_to 10752
  153.5601  135.3611  155.2768 H   0  0  0  0  0  0  0  0  0  0  0  0  # atno 10765 bound_to 10752
  141.0459  133.9764  157.2919 H   0  0  0  0  0  0  0  0  0  0  0  0  # atno 11005 bound_to 11000
  145.1697  139.2411  143.5348 LP  0  0  0  0  0  0  0  0  0  0  0  0  # atno 17320 bound_to 7965
  146.3505  140.1445  142.8594 LP  0  0  0  0  0  0  0  0  0  0  0  0  # atno 17321 bound_to 7965
  139.4863  144.6264  151.7157 LP  0  0  0  0  0  0  0  0  0  0  0  0  # atno 17342 bound_to 10162
  140.5430  144.0549  150.6096 LP  0  0  0  0  0  0  0  0  0  0  0  0  # atno 17343 bound_to 10162
  156.0161  130.3813  150.2108 LP  0  0  0  0  0  0  0  0  0  0  0  0  # atno 17370 bound_to 10713
  157.0296  131.0003  151.3316 LP  0  0  0  0  0  0  0  0  0  0  0  0  # atno 17371 bound_to 10713
  139.9311  135.0200  156.8403 LP  0  0  0  0  0  0  0  0  0  0  0  0  # atno 17394 bound_to 11000
  140.6148  134.0049  155.7592 LP  0  0  0  0  0  0  0  0  0  0  0  0  # atno 17395 bound_to 11000

$$$$
