AV-unprocessed.smi:3296|AV-procd|sdf|12637|dock3
  -GOLD-   2272018573D 1   1.00000     0.00000
 Structure written by MMmdl.
 37 38  0  0  0  0  0  0  0  0  1 V2000
  146.4322  138.4706  152.0540 C   0  0  0  0  0  0  0  0  0  0  0  0
  147.3326  139.5376  152.4619 N   0  0  0  0  0  0  0  0  0  0  0  0
  147.2213  140.2223  153.6099 C   0  0  0  0  0  0  0  0  0  0  0  0
  146.3271  140.0241  154.4321 O   0  0  0  0  0  0  0  0  0  0  0  0
  148.2782  141.2963  153.8729 C   0  0  0  0  0  0  0  0  0  0  0  0
  149.3674  140.6792  154.6897 C   0  0  0  0  0  0  0  0  0  0  0  0
  149.9030  141.2625  155.7661 N   0  0  0  0  0  0  0  0  0  0  0  0
  150.9154  140.4941  156.3483 C   0  0  0  0  0  0  0  0  0  0  0  0
  151.6437  141.0072  157.5529 C   0  0  0  0  0  0  0  0  0  0  0  0
  151.2274  142.4424  157.9124 C   0  0  0  0  0  0  0  0  0  0  0  0
  152.0872  143.0673  159.0254 C   0  0  0  0  0  0  0  0  0  0  0  0
  152.1886  142.1935  160.2767 C   0  0  0  0  0  0  0  0  0  0  0  0
  152.6725  143.1482  161.3691 C   0  0  0  0  0  0  0  0  0  0  0  0
  152.1249  144.5313  160.9887 C   0  0  0  0  0  0  0  0  0  0  0  0
  151.5542  144.3987  159.5694 C   0  0  0  0  0  0  0  0  0  0  0  0
  151.1334  139.3046  155.6990 C   0  0  0  0  0  0  0  0  0  0  0  0
  150.0763  139.1084  154.3285 S   0  0  0  0  0  0  0  0  0  0  0  0
  146.7310  138.0839  151.0798 H   0  0  0  0  0  0  0  0  0  0  0  0
  145.4068  138.8345  151.9776 H   0  0  0  0  0  0  0  0  0  0  0  0
  146.4582  137.6476  152.7694 H   0  0  0  0  0  0  0  0  0  0  0  0
  148.0989  139.7597  151.8424 H   0  0  0  0  0  0  0  0  0  0  0  0
  148.6817  141.6787  152.9343 H   0  0  0  0  0  0  0  0  0  0  0  0
  147.8436  142.1361  154.4163 H   0  0  0  0  0  0  0  0  0  0  0  0
  151.4590  140.3512  158.4044 H   0  0  0  0  0  0  0  0  0  0  0  0
  152.7188  140.9707  157.3751 H   0  0  0  0  0  0  0  0  0  0  0  0
  151.2664  143.0691  157.0204 H   0  0  0  0  0  0  0  0  0  0  0  0
  150.1852  142.4384  158.2346 H   0  0  0  0  0  0  0  0  0  0  0  0
  153.0984  143.2288  158.6474 H   0  0  0  0  0  0  0  0  0  0  0  0
  151.2047  141.8038  160.5422 H   0  0  0  0  0  0  0  0  0  0  0  0
  152.8569  141.3427  160.1413 H   0  0  0  0  0  0  0  0  0  0  0  0
  152.3511  142.8323  162.3620 H   0  0  0  0  0  0  0  0  0  0  0  0
  153.7627  143.1763  161.3714 H   0  0  0  0  0  0  0  0  0  0  0  0
  151.3491  144.8549  161.6834 H   0  0  0  0  0  0  0  0  0  0  0  0
  152.9219  145.2752  161.0214 H   0  0  0  0  0  0  0  0  0  0  0  0
  151.8293  145.2427  158.9361 H   0  0  0  0  0  0  0  0  0  0  0  0
  150.4649  144.3711  159.6212 H   0  0  0  0  0  0  0  0  0  0  0  0
  151.8526  138.5362  155.9407 H   0  0  0  0  0  0  0  0  0  0  0  0
  1  2  1  0  0  0  0
  1 18  1  0  0  0  0
  1 19  1  0  0  0  0
  1 20  1  0  0  0  0
  2  3  1  0  0  0  0
  2 21  1  0  0  0  0
  3  4  2  0  0  0  0
  3  5  1  0  0  0  0
  5  6  1  0  0  0  0
  5 22  1  0  0  0  0
  5 23  1  0  0  0  0
  6 17  1  0  0  0  0
  6  7  2  0  0  0  0
  7  8  1  0  0  0  0
  8  9  1  0  0  0  0
  8 16  2  0  0  0  0
  9 10  1  0  0  0  0
  9 24  1  0  0  0  0
  9 25  1  0  0  0  0
 10 11  1  0  0  0  0
 10 26  1  0  0  0  0
 10 27  1  0  0  0  0
 11 15  1  0  0  0  0
 11 12  1  0  0  0  0
 11 28  1  0  0  0  0
 12 13  1  0  0  0  0
 12 29  1  0  0  0  0
 12 30  1  0  0  0  0
 13 14  1  0  0  0  0
 13 31  1  0  0  0  0
 13 32  1  0  0  0  0
 14 15  1  0  0  0  0
 14 33  1  0  0  0  0
 14 34  1  0  0  0  0
 15 35  1  0  0  0  0
 15 36  1  0  0  0  0
 16 17  1  0  0  0  0
 16 37  1  0  0  0  0
M  END
> <s_m_source_file>
AV-unprocessed.smi

> <i_m_source_file_index>
3296

> <i_lp_mmshare_version>
43012

> <i_f3d_flags>
0

> <s_epik_input>
W0NIM11bTkhdQyg9TylbQ0gyXWMxbmMoW2NIXXMxKVtDSDJdW0NIMl1bQ0hdMltDSDJdW0NIMl1bQ0gyXVtDSDJdMg==

> <s_epik_cmdline>
J2VwaWtfcHl0aG9uJywgJy1waCcsICc3LjAnLCAnLXRuJywgJzgnLCAnLW1hJywgJzIwMCcsICctbWV0YWxfYmluZGluZycsICctaW1hZScsICc8aW5maWxlLm1hZT4nLCAnLW9tYWUnLCAnPG91dGZpbGUubWFlPic=

> <r_lp_tautomer_probability>
1

> <r_epik_Ionization_Penalty>
6.30814e-05

> <r_epik_Ionization_Penalty_Charging>
0

> <r_epik_Ionization_Penalty_Neutral>
6.30814e-05

> <r_epik_State_Penalty>
-0

> <r_epik_Charging_Adjusted_Penalty>
0

> <i_epik_Tot_Q>
0

> <i_epik_Tot_abs_Q>
0

> <r_epik_Metal_State_Penalty>
-0

> <b_epik_Metal_Only>
0

> <s_lp_Force_Field>
OPLS_2005

> <r_lp_Energy>
17.2937

> <b_lp_Chiralities_Consistent>
1

> <s_lp_Variant>
AV-unprocessed.smi:3296-1

> <Gold.Version>
5.8.1

> <Gold.Id.Protein>
6NUR|6NUR_protein|mol2

> <Gold.PLP.Fitness>
45.4539

> <Gold.PLP.PLP>
-43.6605

> <Gold.PLP.part.hbond>
-1.0000

> <Gold.PLP.part.metal>
0.0000

> <Gold.PLP.part.buried>
-2.3715

> <Gold.PLP.part.nonpolar>
-39.2541

> <Gold.PLP.part.repulsive>
0.2797

> <Gold.PLP.ligand.clash>
0.0000

> <Gold.PLP.ligand.torsion>
0.6150

> <Gold.PLP.Chemscore.Hbond>
1.0000

> <Gold.PLP.Chemscore.CHOScore>
0.0000

> <Gold.PLP.Chemscore.Metal>
0.0000

> <Gold.Chemscore.Hbonds>
donor molecule, donor type, donor heavy atom, donor atom, acceptor molecule, acceptor atom, score
      L1  H     2    21       P1  7957  1.00

> <Gold.PLP.Chemscore.Internal.Correction>
0.0234

> <Gold.Rescore>
     Score         DG    S(hbond)    S(metal)    S(lipo)     H(rot)  DE(clash)    DE(int)     intcor
     18.02     -18.54       0.99        0.00     120.07       1.68       0.04       0.48       ----

> <Gold.Chemscore.Fitness>
18.0228

> <Gold.Chemscore.DG>
-18.5403

> <Gold.Chemscore.ZeroCoef>
-5.4800

> <Gold.Chemscore.Hbond>
0.9915

> <Gold.Chemscore.Metal>
0.0000

> <Gold.Chemscore.Lipo>
120.0652

> <Gold.Chemscore.Internal_Hbond>
0.0000

> <Gold.Chemscore.DEClash>
0.0425

> <Gold.Chemscore.DEInternal>
0.4750

> <Gold.Chemscore.Rot>
1.6792

> <Gold.Chemscore.Internal.Correction>
   9.000000E+99

> <Gold.Chemscore.Hbonds>
donor molecule, donor type, donor heavy atom, donor atom, acceptor molecule, acceptor atom, score
      L1  H     2    21       P1  7957  1.00

> <Gold.Chemscore.Hbond.Weighted>
-3.3115

> <Gold.Chemscore.Metal.Weighted>
-0.0000

> <Gold.Chemscore.Lipo.Weighted>
-14.0476

> <Gold.Chemscore.Internal_Hbond.Weighted>
0.0000

> <Gold.Chemscore.DEClash.Weighted>
0.0425

> <Gold.Chemscore.DEInternal.Weighted>
0.4750

> <Gold.Chemscore.Rot.Weighted>
4.2988

> <Gold.Chemscore.Internal.Correction.Weighted>
   9.000000E+99

> <Gold.Protein.RotatedTorsions>
[ 6907 6896 6895 6894 ] final   78.36 input  -60.11 | X-H torsion
[ 7974 7965 7964 7962 ] final -156.08 input  175.53 | X-H torsion
[ 8008 7997 7996 7995 ] final   60.02 input   59.86 | X-H torsion
[ 10167 10162 10161 10158 ] final   -1.35 input  -65.29 | X-H torsion
[ 10718 10713 10712 10709 ] final   -5.55 input   66.30 | X-H torsion
[ 10763 10752 10751 10750 ] final  155.57 input  -60.55 | X-H torsion
[ 11005 11000 10999 10996 ] final -136.84 input  -57.11 | X-H torsion

> <Gold.Protein.ActiveResidues>
 VAL166  LYS551  ARG553  GLY616  TRP617  ASP618  TYR619  PRO620  LYS621  CYS622 
 ASP623  PHE694  ASN695  SER759  ASP760  ASP761  ALA762  ILE779  LEU786  VAL792 
 PHE793  MET794  SER795  GLU796  ALA797  LYS798  CYS799  TRP800  GLU811  SER814 

> <Gold.Protein.RotatedAtoms>
  152.5156  134.3676  159.9306 H   0  0  0  0  0  0  0  0  0  0  0  0  # atno 6907 bound_to 6896
  151.3630  133.3876  159.2699 H   0  0  0  0  0  0  0  0  0  0  0  0  # atno 6908 bound_to 6896
  150.9637  134.9040  159.7804 H   0  0  0  0  0  0  0  0  0  0  0  0  # atno 6909 bound_to 6896
  144.7610  140.4160  143.5977 H   0  0  0  0  0  0  0  0  0  0  0  0  # atno 7974 bound_to 7965
  155.5756  140.3490  155.4526 H   0  0  0  0  0  0  0  0  0  0  0  0  # atno 8008 bound_to 7997
  156.0412  140.1296  157.0179 H   0  0  0  0  0  0  0  0  0  0  0  0  # atno 8009 bound_to 7997
  154.4392  140.1024  156.6225 H   0  0  0  0  0  0  0  0  0  0  0  0  # atno 8010 bound_to 7997
  140.6806  143.6786  150.8125 H   0  0  0  0  0  0  0  0  0  0  0  0  # atno 10167 bound_to 10162
  156.7450  130.5221  149.5816 H   0  0  0  0  0  0  0  0  0  0  0  0  # atno 10718 bound_to 10713
  154.1705  135.2805  155.3082 H   0  0  0  0  0  0  0  0  0  0  0  0  # atno 10763 bound_to 10752
  154.6079  135.5508  153.7445 H   0  0  0  0  0  0  0  0  0  0  0  0  # atno 10764 bound_to 10752
  153.0166  135.6408  154.1845 H   0  0  0  0  0  0  0  0  0  0  0  0  # atno 10765 bound_to 10752
  140.8767  134.1983  157.4617 H   0  0  0  0  0  0  0  0  0  0  0  0  # atno 11005 bound_to 11000
  145.6620  139.1583  143.2803 LP  0  0  0  0  0  0  0  0  0  0  0  0  # atno 17320 bound_to 7965
  146.1672  140.6700  142.9250 LP  0  0  0  0  0  0  0  0  0  0  0  0  # atno 17321 bound_to 7965
  140.0485  143.5273  152.2684 LP  0  0  0  0  0  0  0  0  0  0  0  0  # atno 17342 bound_to 10162
  139.6127  144.7612  151.2916 LP  0  0  0  0  0  0  0  0  0  0  0  0  # atno 17343 bound_to 10162
  156.1439  130.6264  151.0505 LP  0  0  0  0  0  0  0  0  0  0  0  0  # atno 17370 bound_to 10713
  157.6802  131.0840  150.7390 LP  0  0  0  0  0  0  0  0  0  0  0  0  # atno 17371 bound_to 10713
  139.8716  134.9799  156.5054 LP  0  0  0  0  0  0  0  0  0  0  0  0  # atno 17394 bound_to 11000
  140.8509  133.8132  155.9168 LP  0  0  0  0  0  0  0  0  0  0  0  0  # atno 17395 bound_to 11000

$$$$
