#       Name:                AV-unprocessed.smi:114
#       Creating user name   scv26
#       Creation time:       Thu Mar 26 18:24:38 2020


#       File generated by GOLD software.
#

@<TRIPOS>MOLECULE
AV-unprocessed.smi:114
    43    45     1
SMALL
NO_CHARGES


@<TRIPOS>ATOM
      1 ****        -5.2450   0.9678   0.7389 N.pl3          1 S1                 0.0000
      2 ****        -3.9680   1.3747   0.7212 C.ar           1 S1                 0.0000
      3 ****        -3.7121   2.6989   0.8379 N.ar           1 S1                 0.0000
      4 ****        -2.4505   3.1487   0.8239 C.ar           1 S1                 0.0000
      5 ****        -2.2889   4.4871   0.9457 F              1 S1                 0.0000
      6 ****        -1.3318   2.4248   0.7029 N.ar           1 S1                 0.0000
      7 ****        -1.5886   1.0900   0.5869 C.ar           1 S1                 0.0000
      8 ****        -2.8737   0.4858   0.5850 C.ar           1 S1                 0.0000
      9 ****        -2.7490  -0.8903   0.4420 N.2            1 S1                 0.0000
     10 ****        -1.4585  -1.0828   0.3647 C.2            1 S1                 0.0000
     11 ****        -0.6886   0.0582   0.4459 N.pl3          1 S1                 0.0000
     12 ****         0.7976   0.1955   0.3884 C.3            1 S1                 0.0000
     13 ****         1.3744  -0.9997   0.7978 O.3            1 S1                 0.0000
     14 ****         2.6825  -1.0810   0.2438 C.3            1 S1                 0.0000
     15 ****         3.0266  -2.5523  -0.0509 C.3            1 S1                 0.0000
     16 ****         2.3260  -3.0421  -1.1760 O.3            1 S1                 0.0000
     17 ****         2.7256  -0.1176  -0.9634 C.3            1 S1                 0.0000
     18 ****         3.6526   0.9196  -0.7043 O.3            1 S1                 0.0000
     19 ****         1.3147   0.4584  -1.0313 C.3            1 S1                 0.0000
     20 ****         0.5483  -0.1915  -2.0297 O.3            1 S1                 0.0000
     21 ****         1.0506   0.9905   1.0921 H              1 S1                 0.0000
     22 ****         3.3596  -0.7283   1.0244 H              1 S1                 0.0000
     23 ****         3.0162  -0.6054  -1.8948 H              1 S1                 0.0000
     24 ****         1.2974   1.5301  -1.2351 H              1 S1                 0.0000
     25 ****        -5.4607  -0.0152   0.6525 H              1 S1                 0.0000
     26 ****        -5.9889   1.6433   0.8394 H              1 S1                 0.0000
     27 ****        -1.0300  -2.0671   0.2406 H              1 S1                 0.0000
     28 ****         4.0935  -2.6456  -0.2556 H              1 S1                 0.0000
     29 ****         2.8119  -3.1792   0.8149 H              1 S1                 0.0000
     30 ****         2.5812  -3.9403  -1.3222 H              1 S1                 0.0000
     31 ****         4.5182   0.5435  -0.6559 H              1 S1                 0.0000
     32 ****        -0.3419   0.1203  -1.9703 H              1 S1                 0.0000
     33 ****        -4.4692   3.3449   0.9351 LP             1 S1                 0.0000
     34 ****        -0.4122   2.8175   0.6981 LP             1 S1                 0.0000
     35 ****        -3.4774  -1.5746   0.4065 LP             1 S1                 0.0000
     36 ****         0.8228  -1.7688   0.4751 LP             1 S1                 0.0000
     37 ****         1.4285  -1.0239   1.7961 LP             1 S1                 0.0000
     38 ****         2.5528  -2.4922  -1.9798 LP             1 S1                 0.0000
     39 ****         1.3415  -2.9947  -1.0068 LP             1 S1                 0.0000
     40 ****         3.4287   1.3631   0.1636 LP             1 S1                 0.0000
     41 ****         3.6188   1.5942  -1.4418 LP             1 S1                 0.0000
     42 ****         0.5707  -1.1804  -1.8829 LP             1 S1                 0.0000
     43 ****         0.9210   0.0200  -2.9332 LP             1 S1                 0.0000
@<TRIPOS>BOND
    1    1    2 1     
    2    1   25 1     
    3    1   26 1     
    4    2    8 ar    
    5    2    3 ar    
    6    3    4 ar    
    7    4    5 1     
    8    4    6 ar    
    9    6    7 ar    
   10    7   11 1     
   11    7    8 ar    
   12    8    9 1     
   13    9   10 2     
   14   10   11 1     
   15   10   27 1     
   16   11   12 1     
   17   12   21 1     
   18   12   19 1     
   19   12   13 1     
   20   13   14 1     
   21   14   22 1     
   22   14   15 1     
   23   14   17 1     
   24   15   16 1     
   25   15   28 1     
   26   15   29 1     
   27   16   30 1     
   28   17   23 1     
   29   17   18 1     
   30   17   19 1     
   31   18   31 1     
   32   19   24 1     
   33   19   20 1     
   34   20   32 1     
   35    3   33 1     
   36    6   34 1     
   37    9   35 1     
   38   13   36 1     
   39   13   37 1     
   40   16   38 1     
   41   16   39 1     
   42   18   40 1     
   43   18   41 1     
   44   20   42 1     
   45   20   43 1     
@<TRIPOS>SUBSTRUCTURE
      1 S1             1
@<TRIPOS>SET
LONE_PAIRS      STATIC     ATOMS    <user>   **** ""
11 33 34 35 36 37 38 39 40 41 42 43
DONOR_HYDROGENS      STATIC     ATOMS    <user>   **** ""
5 25 26 30 31 32
ATOM$BLUE        STATIC     ATOMS    COLORGROUP SYSTEM
11 33 34 35 36 37 38 39 40 41 42 43
ATOM$RED        STATIC     ATOMS    COLORGROUP SYSTEM
5 25 26 30 31 32
