AV-unprocessed.smi:3039|AV-procd|sdf|11592|dock4
  -GOLD-   2272016563D 1   1.00000     0.00000
 Structure written by MMmdl.
 38 39  0  0  0  0  0  0  0  0  1 V2000
  152.7996  139.9942  156.8672 O   0  0  0  0  0  0  0  0  0  0  0  0
  151.9319  140.1316  157.7292 C   0  0  0  0  0  0  0  0  0  0  0  0
  150.7383  139.1769  157.7753 C   0  0  0  0  0  0  0  0  0  0  0  0
  150.1730  138.9835  156.3931 C   0  0  0  0  0  0  0  0  0  0  0  0
  150.8671  138.6699  155.1914 C   0  0  0  0  0  0  0  0  0  0  0  0
  149.8746  138.6082  154.2561 C   0  0  0  0  0  0  0  0  0  0  0  0
  148.6689  138.8628  154.8244 O   0  0  0  0  0  0  0  0  0  0  0  0
  148.8692  139.1046  156.1881 N   0  0  0  0  0  0  0  0  0  0  0  0
  151.9598  141.0932  158.6651 N   0  0  0  0  0  0  0  0  0  0  0  0
  153.0189  142.0866  158.8484 C   0  0  1  0  0  0  0  0  0  0  0  0
  152.5004  143.5185  158.5727 C   0  0  0  0  0  0  0  0  0  0  0  0
  151.2477  143.9257  159.3741 C   0  0  0  0  0  0  0  0  0  0  0  0
  151.5094  144.4709  160.7886 C   0  0  0  0  0  0  0  0  0  0  0  0
  152.6726  143.8373  161.5705 C   0  0  0  0  0  0  0  0  0  0  0  0
  152.8263  142.3137  161.4227 C   0  0  0  0  0  0  0  0  0  0  0  0
  153.7137  141.9037  160.2215 C   0  0  1  0  0  0  0  0  0  0  0  0
  154.2462  140.4604  160.3827 C   0  0  0  0  0  0  0  0  0  0  0  0
  155.0461  140.0865  159.2798 O   0  0  0  0  0  0  0  0  0  0  0  0
  151.0547  138.2256  158.2059 H   0  0  0  0  0  0  0  0  0  0  0  0
  149.9763  139.5810  158.4428 H   0  0  0  0  0  0  0  0  0  0  0  0
  151.9250  138.5123  155.0413 H   0  0  0  0  0  0  0  0  0  0  0  0
  149.8660  138.4044  153.1956 H   0  0  0  0  0  0  0  0  0  0  0  0
  151.1960  141.1252  159.3250 H   0  0  0  0  0  0  0  0  0  0  0  0
  153.7894  141.8915  158.1000 H   0  0  0  0  0  0  0  0  0  0  0  0
  153.2977  144.2482  158.7187 H   0  0  0  0  0  0  0  0  0  0  0  0
  152.2481  143.5777  157.5131 H   0  0  0  0  0  0  0  0  0  0  0  0
  150.7147  144.6973  158.8175 H   0  0  0  0  0  0  0  0  0  0  0  0
  150.5453  143.0949  159.4330 H   0  0  0  0  0  0  0  0  0  0  0  0
  151.6918  145.5444  160.7275 H   0  0  0  0  0  0  0  0  0  0  0  0
  150.5910  144.3658  161.3674 H   0  0  0  0  0  0  0  0  0  0  0  0
  153.6074  144.3273  161.2956 H   0  0  0  0  0  0  0  0  0  0  0  0
  152.5293  144.0754  162.6251 H   0  0  0  0  0  0  0  0  0  0  0  0
  153.2975  141.9560  162.3385 H   0  0  0  0  0  0  0  0  0  0  0  0
  151.8533  141.8225  161.3876 H   0  0  0  0  0  0  0  0  0  0  0  0
  154.5899  142.5541  160.2156 H   0  0  0  0  0  0  0  0  0  0  0  0
  154.8289  140.3543  161.2988 H   0  0  0  0  0  0  0  0  0  0  0  0
  153.4188  139.7529  160.4463 H   0  0  0  0  0  0  0  0  0  0  0  0
  155.3340  139.1951  159.4059 H   0  0  0  0  0  0  0  0  0  0  0  0
  1  2  2  0  0  0  0
  2  3  1  0  0  0  0
  2  9  1  0  0  0  0
  3  4  1  0  0  0  0
  3 19  1  0  0  0  0
  3 20  1  0  0  0  0
  4  8  2  0  0  0  0
  4  5  1  0  0  0  0
  5  6  2  0  0  0  0
  5 21  1  0  0  0  0
  6  7  1  0  0  0  0
  6 22  1  0  0  0  0
  7  8  1  0  0  0  0
  9 10  1  0  0  0  0
  9 23  1  0  0  0  0
 10 16  1  0  0  0  0
 10 11  1  0  0  0  0
 10 24  1  0  0  0  0
 11 12  1  0  0  0  0
 11 25  1  0  0  0  0
 11 26  1  0  0  0  0
 12 13  1  0  0  0  0
 12 27  1  0  0  0  0
 12 28  1  0  0  0  0
 13 14  1  0  0  0  0
 13 29  1  0  0  0  0
 13 30  1  0  0  0  0
 14 15  1  0  0  0  0
 14 31  1  0  0  0  0
 14 32  1  0  0  0  0
 15 16  1  0  0  0  0
 15 33  1  0  0  0  0
 15 34  1  0  0  0  0
 16 17  1  0  0  0  0
 16 35  1  0  0  0  0
 17 18  1  0  0  0  0
 17 36  1  0  0  0  0
 17 37  1  0  0  0  0
 18 38  1  0  0  0  0
M  END
> <s_m_source_file>
AV-unprocessed.smi

> <i_m_source_file_index>
3039

> <i_lp_mmshare_version>
43012

> <i_f3d_flags>
0

> <s_epik_input>
bjFvW2NIXVtjSF1jMVtDSDJdQyg9TylbTkhdW0NAQEhdMltDSDJdW0NIMl1bQ0gyXVtDSDJdW0NIMl1bQ0BIXTJbQ0gyXVtPSF0=

> <s_epik_cmdline>
J2VwaWtfcHl0aG9uJywgJy1waCcsICc3LjAnLCAnLXRuJywgJzgnLCAnLW1hJywgJzIwMCcsICctbWV0YWxfYmluZGluZycsICctaW1hZScsICc8aW5maWxlLm1hZT4nLCAnLW9tYWUnLCAnPG91dGZpbGUubWFlPic=

> <r_lp_tautomer_probability>
1

> <r_epik_Ionization_Penalty>
3.05817e-07

> <r_epik_Ionization_Penalty_Charging>
0

> <r_epik_Ionization_Penalty_Neutral>
3.05817e-07

> <r_epik_State_Penalty>
-0

> <r_epik_Charging_Adjusted_Penalty>
0

> <i_epik_Tot_Q>
0

> <i_epik_Tot_abs_Q>
0

> <r_epik_Metal_State_Penalty>
-0

> <b_epik_Metal_Only>
0

> <s_lp_Force_Field>
OPLS_2005

> <r_lp_Energy>
19.8887

> <b_lp_Chiralities_Consistent>
1

> <s_lp_Variant>
AV-unprocessed.smi:3039-2

> <Gold.Version>
5.8.1

> <Gold.Id.Protein>
6NUR|6NUR_protein|mol2

> <Gold.PLP.Fitness>
43.4165

> <Gold.PLP.PLP>
-34.4360

> <Gold.PLP.part.hbond>
-2.0000

> <Gold.PLP.part.metal>
0.0000

> <Gold.PLP.part.buried>
-4.6637

> <Gold.PLP.part.nonpolar>
-28.2174

> <Gold.PLP.part.repulsive>
0.2346

> <Gold.PLP.ligand.clash>
0.0000

> <Gold.PLP.ligand.torsion>
0.3192

> <Gold.PLP.Chemscore.Hbond>
1.3291

> <Gold.PLP.Chemscore.CHOScore>
1.8584

> <Gold.PLP.Chemscore.Metal>
0.0000

> <Gold.Chemscore.Hbonds>
donor molecule, donor type, donor heavy atom, donor atom, acceptor molecule, acceptor atom, score
      P1  H  7997  8009       L1    18  0.59
      P1  H  7997  8010       L1     1  0.50
      L1  C     6    22       P1  7948  0.67
      L1  C     6    22       P1  7957  0.81

> <Gold.PLP.Chemscore.Internal.Correction>
0.0564

> <Gold.Rescore>
     Score         DG    S(hbond)    S(metal)    S(lipo)     H(rot)  DE(clash)    DE(int)     intcor
     13.94     -15.37       0.89        0.00     108.68       2.26       0.02       1.41       ----

> <Gold.Chemscore.Fitness>
13.9437

> <Gold.Chemscore.DG>
-15.3739

> <Gold.Chemscore.ZeroCoef>
-5.4800

> <Gold.Chemscore.Hbond>
0.8885

> <Gold.Chemscore.Metal>
0.0000

> <Gold.Chemscore.Lipo>
108.6829

> <Gold.Chemscore.Internal_Hbond>
0.0000

> <Gold.Chemscore.DEClash>
0.0216

> <Gold.Chemscore.DEInternal>
1.4085

> <Gold.Chemscore.Rot>
2.2616

> <Gold.Chemscore.Internal.Correction>
   9.000000E+99

> <Gold.Chemscore.Hbonds>
donor molecule, donor type, donor heavy atom, donor atom, acceptor molecule, acceptor atom, score
      P1  H  7997  8009       L1    18  0.05
      P1  H  7997  8010       L1     1  0.50

> <Gold.Chemscore.Hbond.Weighted>
-2.9676

> <Gold.Chemscore.Metal.Weighted>
-0.0000

> <Gold.Chemscore.Lipo.Weighted>
-12.7159

> <Gold.Chemscore.Internal_Hbond.Weighted>
0.0000

> <Gold.Chemscore.DEClash.Weighted>
0.0216

> <Gold.Chemscore.DEInternal.Weighted>
1.4085

> <Gold.Chemscore.Rot.Weighted>
5.7896

> <Gold.Chemscore.Internal.Correction.Weighted>
   9.000000E+99

> <Gold.Protein.RotatedTorsions>
[ 6907 6896 6895 6894 ] final -120.38 input  -60.11 | X-H torsion
[ 7974 7965 7964 7962 ] final -114.55 input  175.53 | X-H torsion
[ 8008 7997 7996 7995 ] final  100.66 input   59.86 | X-H torsion
[ 10167 10162 10161 10158 ] final  115.62 input  -65.29 | X-H torsion
[ 10718 10713 10712 10709 ] final  -77.17 input   66.30 | X-H torsion
[ 10763 10752 10751 10750 ] final   93.61 input  -60.55 | X-H torsion
[ 11005 11000 10999 10996 ] final   -1.01 input  -57.11 | X-H torsion

> <Gold.Protein.ActiveResidues>
 VAL166  LYS551  ARG553  GLY616  TRP617  ASP618  TYR619  PRO620  LYS621  CYS622 
 ASP623  PHE694  ASN695  SER759  ASP760  ASP761  ALA762  ILE779  LEU786  VAL792 
 PHE793  MET794  SER795  GLU796  ALA797  LYS798  CYS799  TRP800  GLU811  SER814 

> <Gold.Protein.RotatedAtoms>
  150.8388  133.7969  159.3068 H   0  0  0  0  0  0  0  0  0  0  0  0  # atno 6907 bound_to 6896
  151.5677  135.1062  159.9997 H   0  0  0  0  0  0  0  0  0  0  0  0  # atno 6908 bound_to 6896
  152.4456  133.7488  159.6738 H   0  0  0  0  0  0  0  0  0  0  0  0  # atno 6909 bound_to 6896
  145.1188  140.8656  143.3826 H   0  0  0  0  0  0  0  0  0  0  0  0  # atno 7974 bound_to 7965
  156.1225  140.3210  155.8229 H   0  0  0  0  0  0  0  0  0  0  0  0  # atno 8008 bound_to 7997
  155.4479  140.0530  157.3021 H   0  0  0  0  0  0  0  0  0  0  0  0  # atno 8009 bound_to 7997
  154.4838  140.2064  155.9716 H   0  0  0  0  0  0  0  0  0  0  0  0  # atno 8010 bound_to 7997
  139.6304  144.7114  151.2444 H   0  0  0  0  0  0  0  0  0  0  0  0  # atno 10167 bound_to 10162
  156.0153  130.4484  150.3305 H   0  0  0  0  0  0  0  0  0  0  0  0  # atno 10718 bound_to 10713
  153.2323  135.4319  155.0608 H   0  0  0  0  0  0  0  0  0  0  0  0  # atno 10763 bound_to 10752
  154.8302  135.3382  154.6770 H   0  0  0  0  0  0  0  0  0  0  0  0  # atno 10764 bound_to 10752
  153.7196  135.7018  153.5072 H   0  0  0  0  0  0  0  0  0  0  0  0  # atno 10765 bound_to 10752
  140.6426  133.9476  155.8334 H   0  0  0  0  0  0  0  0  0  0  0  0  # atno 11005 bound_to 11000
  145.0764  139.2993  143.5806 LP  0  0  0  0  0  0  0  0  0  0  0  0  # atno 17320 bound_to 7965
  146.3522  140.0255  142.8655 LP  0  0  0  0  0  0  0  0  0  0  0  0  # atno 17321 bound_to 7965
  140.7435  143.6491  150.8265 LP  0  0  0  0  0  0  0  0  0  0  0  0  # atno 17342 bound_to 10162
  140.0115  143.5638  152.2837 LP  0  0  0  0  0  0  0  0  0  0  0  0  # atno 17343 bound_to 10162
  157.1403  131.0294  151.2931 LP  0  0  0  0  0  0  0  0  0  0  0  0  # atno 17370 bound_to 10713
  157.4477  130.7580  149.7124 LP  0  0  0  0  0  0  0  0  0  0  0  0  # atno 17371 bound_to 10713
  141.0596  134.0366  157.3676 LP  0  0  0  0  0  0  0  0  0  0  0  0  # atno 17394 bound_to 11000
  139.9075  135.0183  156.7548 LP  0  0  0  0  0  0  0  0  0  0  0  0  # atno 17395 bound_to 11000

$$$$
