#       Name:                AV-unprocessed.smi:322
#       Creating user name   scv26
#       Creation time:       Thu Mar 26 22:24:40 2020


#       File generated by GOLD software.
#

@<TRIPOS>MOLECULE
AV-unprocessed.smi:322
    50    52     1
SMALL
NO_CHARGES


@<TRIPOS>ATOM
      1 ****        -3.7764   1.2581  -2.1379 O.3            1 S1                 0.0000
      2 ****        -2.5547   1.9487  -1.9987 C.3            1 S1                 0.0000
      3 ****        -2.3127   2.3950  -0.5947 C.2            1 S1                 0.0000
      4 ****        -2.5814   3.6343  -0.0948 N.pl3          1 S1                 1.0000
      5 ****        -2.2315   3.6858   1.2551 C.ar           1 S1                 0.0000
      6 ****        -2.3167   4.7212   2.1808 C.ar           1 S1                 0.0000
      7 ****        -1.8708   4.4386   3.4887 C.ar           1 S1                 0.0000
      8 ****        -1.3652   3.1682   3.8343 C.ar           1 S1                 0.0000
      9 ****        -1.2840   2.1262   2.8871 C.ar           1 S1                 0.0000
     10 ****        -1.7261   2.4148   1.5965 C.ar           1 S1                 0.0000
     11 ****        -1.7931   1.6525   0.4256 N.pl3          1 S1                 0.0000
     12 ****        -1.3351   0.2545   0.4551 C.3            1 S1                 0.0000
     13 ****         0.1989   0.1230   0.3774 C.3            1 S1                 0.0000
     14 ****         0.6490   0.7281  -0.8189 O.3            1 S1                 0.0000
     15 ****         0.6493  -1.3452   0.3844 C.3            1 S1                 0.0000
     16 ****         2.0063  -1.4064   0.8001 O.3            1 S1                 0.0000
     17 ****         2.5390  -2.7229   0.8299 C.3            1 S1                 0.0000
     18 ****         2.7623  -3.3097  -0.5537 C.ar           1 S1                 0.0000
     19 ****         3.3888  -2.5397  -1.5564 C.ar           1 S1                 0.0000
     20 ****         3.6026  -3.0842  -2.8375 C.ar           1 S1                 0.0000
     21 ****         3.1969  -4.4034  -3.1191 C.ar           1 S1                 0.0000
     22 ****         3.4588  -5.0712  -4.6883 Cl             1 S1                 0.0000
     23 ****         2.5787  -5.1779  -2.1180 C.ar           1 S1                 0.0000
     24 ****         2.3640  -4.6331  -0.8369 C.ar           1 S1                 0.0000
     25 ****        -3.8688   0.9887  -3.0392 H              1 S1                 0.0000
     26 ****        -1.7383   1.3038  -2.3241 H              1 S1                 0.0000
     27 ****        -2.5599   2.8163  -2.6590 H              1 S1                 0.0000
     28 ****        -2.7034   5.6951   1.9186 H              1 S1                 0.0000
     29 ****        -1.9175   5.2116   4.2422 H              1 S1                 0.0000
     30 ****        -1.0325   2.9890   4.8464 H              1 S1                 0.0000
     31 ****        -0.8945   1.1567   3.1606 H              1 S1                 0.0000
     32 ****        -1.7210  -0.2116   1.3627 H              1 S1                 0.0000
     33 ****        -1.8040  -0.2692  -0.3789 H              1 S1                 0.0000
     34 ****         0.6482   0.6434   1.2238 H              1 S1                 0.0000
     35 ****         0.4276   1.6460  -0.7904 H              1 S1                 0.0000
     36 ****         0.0503  -1.9103   1.1003 H              1 S1                 0.0000
     37 ****         0.4974  -1.8036  -0.5943 H              1 S1                 0.0000
     38 ****         3.5043  -2.6824   1.3348 H              1 S1                 0.0000
     39 ****         1.9030  -3.3745   1.4313 H              1 S1                 0.0000
     40 ****         3.7032  -1.5279  -1.3459 H              1 S1                 0.0000
     41 ****         4.0792  -2.4890  -3.6026 H              1 S1                 0.0000
     42 ****         2.2691  -6.1905  -2.3308 H              1 S1                 0.0000
     43 ****         1.8905  -5.2340  -0.0744 H              1 S1                 0.0000
     44 ****        -2.9800   4.3873  -0.6406 H              1 S1                 0.0000
     45 ****        -4.5344   1.8600  -1.8866 LP             1 S1                 0.0000
     46 ****        -3.7785   0.4537  -1.5438 LP             1 S1                 0.0000
     47 ****         0.2033   0.2974  -1.6037 LP             1 S1                 0.0000
     48 ****         1.6401   0.6221  -0.8989 LP             1 S1                 0.0000
     49 ****         2.0719  -1.0190   1.7197 LP             1 S1                 0.0000
     50 ****         2.5545  -0.8589   0.1679 LP             1 S1                 0.0000
@<TRIPOS>BOND
    1    1    2 1     
    2    1   25 1     
    3    2    3 1     
    4    2   26 1     
    5    2   27 1     
    6    3   11 1     
    7    3    4 2     
    8    4    5 1     
    9    4   44 1     
   10    5   10 ar    
   11    5    6 ar    
   12    6    7 ar    
   13    6   28 1     
   14    7    8 ar    
   15    7   29 1     
   16    8    9 ar    
   17    8   30 1     
   18    9   10 ar    
   19    9   31 1     
   20   10   11 1     
   21   11   12 1     
   22   12   13 1     
   23   12   32 1     
   24   12   33 1     
   25   13   14 1     
   26   13   15 1     
   27   13   34 1     
   28   14   35 1     
   29   15   16 1     
   30   15   36 1     
   31   15   37 1     
   32   16   17 1     
   33   17   18 1     
   34   17   38 1     
   35   17   39 1     
   36   18   24 ar    
   37   18   19 ar    
   38   19   20 ar    
   39   19   40 1     
   40   20   21 ar    
   41   20   41 1     
   42   21   22 1     
   43   21   23 ar    
   44   23   24 ar    
   45   23   42 1     
   46   24   43 1     
   47    1   45 1     
   48    1   46 1     
   49   14   47 1     
   50   14   48 1     
   51   16   49 1     
   52   16   50 1     
@<TRIPOS>SUBSTRUCTURE
      1 S1             1
@<TRIPOS>SET
LONE_PAIRS      STATIC     ATOMS    <user>   **** ""
6 45 46 47 48 49 50
DONOR_HYDROGENS      STATIC     ATOMS    <user>   **** ""
3 25 44 35
ATOM$BLUE        STATIC     ATOMS    COLORGROUP SYSTEM
6 45 46 47 48 49 50
ATOM$RED        STATIC     ATOMS    COLORGROUP SYSTEM
3 25 44 35
