AV-unprocessed.smi:1535|AV-procd|sdf|6173|dock10
  -GOLD-   22720 6323D 1   1.00000     0.00000
 Structure written by MMmdl.
 46 47  0  0  0  0  0  0  0  0  1 V2000
  153.0771  142.8646  161.7902 C   0  0  0  0  0  0  0  0  0  0  0  0
  152.5386  142.5020  160.4175 C   0  0  0  0  0  0  0  0  0  0  0  0
  152.9689  141.3033  159.8056 C   0  0  0  0  0  0  0  0  0  0  0  0
  152.4904  140.9285  158.5309 C   0  0  0  0  0  0  0  0  0  0  0  0
  152.7728  139.8160  157.7572 N   0  0  0  0  0  0  0  0  0  0  0  0
  152.0186  140.0378  156.6847 C   0  0  0  0  0  0  0  0  0  0  0  0
  151.2810  141.1644  156.6709 N   0  0  0  0  0  0  0  0  0  0  0  0
  150.3889  141.6075  155.6138 C   0  0  0  0  0  0  0  0  0  0  0  0
  148.9380  141.1384  155.8330 C   0  0  1  0  0  0  0  0  0  0  0  0
  148.1253  142.2603  156.1193 O   0  0  0  0  0  0  0  0  0  0  0  0
  148.3786  140.4287  154.5814 C   0  0  0  0  0  0  0  0  0  0  0  0
  147.9305  139.0464  154.7753 N   0  0  0  0  0  0  0  0  0  0  0  0
  147.6172  138.4436  153.4839 C   0  0  0  0  0  0  0  0  0  0  0  0
  148.9161  138.2403  155.5050 C   0  0  0  0  0  0  0  0  0  0  0  0
  150.0738  137.6818  154.6550 C   0  0  1  0  0  0  0  0  0  0  0  0
  150.9812  138.8096  154.1479 C   0  0  0  0  0  0  0  0  0  0  0  0
  150.8582  136.6809  155.3975 C   0  0  0  0  0  0  0  0  0  0  0  0
  151.4752  135.8945  155.9804 N   0  0  0  0  0  0  0  0  0  0  0  0
  151.5622  141.7927  157.8795 C   0  0  0  0  0  0  0  0  0  0  0  0
  151.1276  142.9886  158.4778 C   0  0  0  0  0  0  0  0  0  0  0  0
  151.6164  143.3485  159.7512 C   0  0  0  0  0  0  0  0  0  0  0  0
  151.1411  144.6424  160.3884 C   0  0  0  0  0  0  0  0  0  0  0  0
  153.7348  142.0863  162.1782 H   0  0  0  0  0  0  0  0  0  0  0  0
  152.2601  142.9950  162.5001 H   0  0  0  0  0  0  0  0  0  0  0  0
  153.6474  143.7926  161.7432 H   0  0  0  0  0  0  0  0  0  0  0  0
  153.6720  140.6586  160.3120 H   0  0  0  0  0  0  0  0  0  0  0  0
  151.9990  139.3403  155.8600 H   0  0  0  0  0  0  0  0  0  0  0  0
  150.4369  142.6952  155.5450 H   0  0  0  0  0  0  0  0  0  0  0  0
  150.7685  141.2197  154.6677 H   0  0  0  0  0  0  0  0  0  0  0  0
  148.9242  140.4793  156.6994 H   0  0  0  0  0  0  0  0  0  0  0  0
  148.4919  143.0159  155.6867 H   0  0  0  0  0  0  0  0  0  0  0  0
  147.5486  141.0297  154.2064 H   0  0  0  0  0  0  0  0  0  0  0  0
  149.1316  140.4473  153.7917 H   0  0  0  0  0  0  0  0  0  0  0  0
  147.1730  137.4563  153.6029 H   0  0  0  0  0  0  0  0  0  0  0  0
  148.5105  138.3468  152.8654 H   0  0  0  0  0  0  0  0  0  0  0  0
  146.8929  139.0501  152.9389 H   0  0  0  0  0  0  0  0  0  0  0  0
  149.3240  138.8269  156.3296 H   0  0  0  0  0  0  0  0  0  0  0  0
  148.4272  137.3844  155.9659 H   0  0  0  0  0  0  0  0  0  0  0  0
  149.6751  137.1700  153.7801 H   0  0  0  0  0  0  0  0  0  0  0  0
  151.7826  138.4141  153.5235 H   0  0  0  0  0  0  0  0  0  0  0  0
  151.4408  139.3494  154.9765 H   0  0  0  0  0  0  0  0  0  0  0  0
  150.4197  139.5279  153.5501 H   0  0  0  0  0  0  0  0  0  0  0  0
  150.4222  143.6224  157.9614 H   0  0  0  0  0  0  0  0  0  0  0  0
  150.4793  145.1951  159.7211 H   0  0  0  0  0  0  0  0  0  0  0  0
  151.9879  145.2863  160.6263 H   0  0  0  0  0  0  0  0  0  0  0  0
  150.5938  144.4348  161.3079 H   0  0  0  0  0  0  0  0  0  0  0  0
  1  2  1  0  0  0  0
  1 23  1  0  0  0  0
  1 24  1  0  0  0  0
  1 25  1  0  0  0  0
  2 21  1  0  0  0  0
  2  3  2  0  0  0  0
  3  4  1  0  0  0  0
  3 26  1  0  0  0  0
  4 19  2  0  0  0  0
  4  5  1  0  0  0  0
  5  6  2  0  0  0  0
  6  7  1  0  0  0  0
  6 27  1  0  0  0  0
  7  8  1  0  0  0  0
  7 19  1  0  0  0  0
  8  9  1  0  0  0  0
  8 28  1  0  0  0  0
  8 29  1  0  0  0  0
  9 10  1  0  0  0  0
  9 11  1  0  0  0  0
  9 30  1  0  0  0  0
 10 31  1  0  0  0  0
 11 12  1  0  0  0  0
 11 32  1  0  0  0  0
 11 33  1  0  0  0  0
 12 13  1  0  0  0  0
 12 14  1  0  0  0  0
 13 34  1  0  0  0  0
 13 35  1  0  0  0  0
 13 36  1  0  0  0  0
 14 15  1  0  0  0  0
 14 37  1  0  0  0  0
 14 38  1  0  0  0  0
 15 16  1  0  0  0  0
 15 17  1  0  0  0  0
 15 39  1  0  0  0  0
 16 40  1  0  0  0  0
 16 41  1  0  0  0  0
 16 42  1  0  0  0  0
 17 18  3  0  0  0  0
 19 20  1  0  0  0  0
 20 21  2  0  0  0  0
 20 43  1  0  0  0  0
 21 22  1  0  0  0  0
 22 44  1  0  0  0  0
 22 45  1  0  0  0  0
 22 46  1  0  0  0  0
M  END
> <s_m_source_file>
AV-unprocessed.smi

> <i_m_source_file_index>
1535

> <i_lp_mmshare_version>
43012

> <i_f3d_flags>
0

> <s_epik_input>
W0NIM11jKFtjSF0xKWMoW0NIM10pW2NIXWMoYzEyKW4oW2NIXW4yKVtDSDJdW0NASF0oW09IXSlbQ0gyXU4oW0NIM10pW0NIMl1bQ0BIXShbQ0gzXSlDI04=

> <s_epik_cmdline>
J2VwaWtfcHl0aG9uJywgJy1waCcsICc3LjAnLCAnLXRuJywgJzgnLCAnLW1hJywgJzIwMCcsICctbWV0YWxfYmluZGluZycsICctaW1hZScsICc8aW5maWxlLm1hZT4nLCAnLW9tYWUnLCAnPG91dGZpbGUubWFlPic=

> <r_epik_Ionization_Penalty>
0.098511

> <r_epik_Ionization_Penalty_Charging>
0

> <r_epik_Ionization_Penalty_Neutral>
0.098511

> <r_epik_State_Penalty>
0.0881608

> <r_epik_Charging_Adjusted_Penalty>
0.0881608

> <i_epik_Tot_Q>
0

> <i_epik_Tot_abs_Q>
0

> <r_epik_Metal_State_Penalty>
0.0128087

> <b_epik_Metal_Only>
0

> <s_lp_Force_Field>
OPLS_2005

> <r_lp_Energy>
24.0286

> <b_lp_Chiralities_Consistent>
1

> <s_lp_Variant>
AV-unprocessed.smi:1535-4

> <Gold.Version>
5.8.1

> <Gold.Id.Protein>
6NUR|6NUR_protein|mol2

> <Gold.PLP.Fitness>
45.7183

> <Gold.PLP.PLP>
-40.8673

> <Gold.PLP.part.hbond>
-3.0000

> <Gold.PLP.part.metal>
0.0000

> <Gold.PLP.part.buried>
-3.7673

> <Gold.PLP.part.nonpolar>
-32.8233

> <Gold.PLP.part.repulsive>
0.1132

> <Gold.PLP.ligand.clash>
0.0000

> <Gold.PLP.ligand.torsion>
2.1178

> <Gold.PLP.Chemscore.Hbond>
3.0000

> <Gold.PLP.Chemscore.CHOScore>
0.0000

> <Gold.PLP.Chemscore.Metal>
0.0000

> <Gold.Chemscore.Hbonds>
donor molecule, donor type, donor heavy atom, donor atom, acceptor molecule, acceptor atom, score
      L1  H    10    31       P1  8028  1.00
      P1  H  7997  8009       L1     5  1.00
      P1  H 10752 10763       L1    18  1.00

> <Gold.PLP.Chemscore.Internal.Correction>
0.0867

> <Gold.Rescore>
     Score         DG    S(hbond)    S(metal)    S(lipo)     H(rot)  DE(clash)    DE(int)     intcor
     18.17     -20.55       2.36        0.00     116.53       2.51       0.27       2.12       ----

> <Gold.Chemscore.Fitness>
18.1700

> <Gold.Chemscore.DG>
-20.5544

> <Gold.Chemscore.ZeroCoef>
-5.4800

> <Gold.Chemscore.Hbond>
2.3561

> <Gold.Chemscore.Metal>
0.0000

> <Gold.Chemscore.Lipo>
116.5296

> <Gold.Chemscore.Internal_Hbond>
0.0000

> <Gold.Chemscore.DEClash>
0.2680

> <Gold.Chemscore.DEInternal>
2.1164

> <Gold.Chemscore.Rot>
2.5113

> <Gold.Chemscore.Internal.Correction>
   9.000000E+99

> <Gold.Chemscore.Hbonds>
donor molecule, donor type, donor heavy atom, donor atom, acceptor molecule, acceptor atom, score
      L1  H    10    31       P1  8028  0.95
      P1  H  7997  8009       L1     5  0.16
      P1  H 10752 10763       L1    18  0.34

> <Gold.Chemscore.Hbond.Weighted>
-7.8693

> <Gold.Chemscore.Metal.Weighted>
-0.0000

> <Gold.Chemscore.Lipo.Weighted>
-13.6340

> <Gold.Chemscore.Internal_Hbond.Weighted>
0.0000

> <Gold.Chemscore.DEClash.Weighted>
0.2680

> <Gold.Chemscore.DEInternal.Weighted>
2.1164

> <Gold.Chemscore.Rot.Weighted>
6.4289

> <Gold.Chemscore.Internal.Correction.Weighted>
   9.000000E+99

> <Gold.Protein.RotatedTorsions>
[ 6907 6896 6895 6894 ] final -146.53 input  -60.11 | X-H torsion
[ 7974 7965 7964 7962 ] final  -50.14 input  175.53 | X-H torsion
[ 8008 7997 7996 7995 ] final  156.60 input   59.86 | X-H torsion
[ 10167 10162 10161 10158 ] final  154.10 input  -65.29 | X-H torsion
[ 10718 10713 10712 10709 ] final  121.54 input   66.30 | X-H torsion
[ 10763 10752 10751 10750 ] final   67.34 input  -60.55 | X-H torsion
[ 11005 11000 10999 10996 ] final   68.43 input  -57.11 | X-H torsion

> <Gold.Protein.ActiveResidues>
 VAL166  LYS551  ARG553  GLY616  TRP617  ASP618  TYR619  PRO620  LYS621  CYS622 
 ASP623  PHE694  ASN695  SER759  ASP760  ASP761  ALA762  ILE779  LEU786  VAL792 
 PHE793  MET794  SER795  GLU796  ALA797  LYS798  CYS799  TRP800  GLU811  SER814 

> <Gold.Protein.RotatedAtoms>
  151.1430  133.4958  159.2596 H   0  0  0  0  0  0  0  0  0  0  0  0  # atno 6907 bound_to 6896
  151.1635  135.0284  159.8730 H   0  0  0  0  0  0  0  0  0  0  0  0  # atno 6908 bound_to 6896
  152.5462  134.1301  159.8489 H   0  0  0  0  0  0  0  0  0  0  0  0  # atno 6909 bound_to 6896
  145.9330  140.7732  142.9590 H   0  0  0  0  0  0  0  0  0  0  0  0  # atno 7974 bound_to 7965
  156.2413  140.1908  156.6980 H   0  0  0  0  0  0  0  0  0  0  0  0  # atno 8008 bound_to 7997
  154.6202  140.0609  156.9632 H   0  0  0  0  0  0  0  0  0  0  0  0  # atno 8009 bound_to 7997
  155.1874  140.3281  155.4367 H   0  0  0  0  0  0  0  0  0  0  0  0  # atno 8010 bound_to 7997
  139.4824  144.5216  151.7867 H   0  0  0  0  0  0  0  0  0  0  0  0  # atno 10167 bound_to 10162
  157.5810  131.1075  150.8187 H   0  0  0  0  0  0  0  0  0  0  0  0  # atno 10718 bound_to 10713
  153.0182  135.5287  154.6964 H   0  0  0  0  0  0  0  0  0  0  0  0  # atno 10763 bound_to 10752
  154.6085  135.2875  155.0460 H   0  0  0  0  0  0  0  0  0  0  0  0  # atno 10764 bound_to 10752
  154.1491  135.6566  153.5012 H   0  0  0  0  0  0  0  0  0  0  0  0  # atno 10765 bound_to 10752
  139.9712  134.6897  156.0443 H   0  0  0  0  0  0  0  0  0  0  0  0  # atno 11005 bound_to 11000
  144.6767  140.2158  143.7372 LP  0  0  0  0  0  0  0  0  0  0  0  0  # atno 17320 bound_to 7965
  145.8400  139.2125  143.1833 LP  0  0  0  0  0  0  0  0  0  0  0  0  # atno 17321 bound_to 7965
  140.4731  144.1559  150.5921 LP  0  0  0  0  0  0  0  0  0  0  0  0  # atno 17342 bound_to 10162
  140.4361  143.2547  151.9533 LP  0  0  0  0  0  0  0  0  0  0  0  0  # atno 17343 bound_to 10162
  156.8633  130.5121  149.5302 LP  0  0  0  0  0  0  0  0  0  0  0  0  # atno 17370 bound_to 10713
  156.0856  130.5855  150.9642 LP  0  0  0  0  0  0  0  0  0  0  0  0  # atno 17371 bound_to 10713
  141.1391  133.6568  156.3679 LP  0  0  0  0  0  0  0  0  0  0  0  0  # atno 17394 bound_to 11000
  140.5289  134.6231  157.5343 LP  0  0  0  0  0  0  0  0  0  0  0  0  # atno 17395 bound_to 11000

$$$$
