AV-unprocessed.smi:776|AV-procd|sdf|3700|dock10
  -GOLD-   22720 1123D 1   1.00000     0.00000
 Structure written by MMmdl.
 44 45  0  0  0  0  0  0  0  0  1 V2000
  148.1510  133.3928  159.9398 C   0  0  0  0  0  0  0  0  0  0  0  0
  147.6756  134.5116  159.0008 C   0  0  0  0  0  0  0  0  0  0  0  0
  147.6460  134.0857  157.5249 C   0  0  0  0  0  0  0  0  0  0  0  0
  148.4508  135.7778  159.2036 C   0  0  0  0  0  0  0  0  0  0  0  0
  147.8771  136.8768  159.6828 N   0  0  0  0  0  0  0  0  0  0  0  0
  148.9237  137.8094  159.6999 O   0  0  0  0  0  0  0  0  0  0  0  0
  150.0133  137.1501  159.2392 C   0  0  0  0  0  0  0  0  0  0  0  0
  151.2961  137.8962  159.0879 C   0  0  0  0  0  0  0  0  0  0  0  0
  151.1126  139.2325  158.3507 C   0  0  0  0  0  0  0  0  0  0  0  0
  151.9337  140.2858  158.9362 N   0  0  0  0  0  0  0  0  0  0  0  0
  151.6034  141.5874  158.9884 C   0  0  0  0  0  0  0  0  0  0  0  0
  150.5598  142.0192  158.4984 O   0  0  0  0  0  0  0  0  0  0  0  0
  152.5805  142.3729  159.5093 N   0  0  0  0  0  0  0  0  0  0  0  0
  153.4215  141.9009  160.6249 C   0  0  0  0  0  0  0  0  0  0  0  0
  152.7946  142.3583  161.9570 C   0  0  0  0  0  0  0  0  0  0  0  0
  152.6072  143.8866  161.9876 C   0  0  0  0  0  0  0  0  0  0  0  0
  151.9057  144.4043  160.7175 C   0  0  0  0  0  0  0  0  0  0  0  0
  152.5916  143.8517  159.4509 C   0  0  2  0  0  0  0  0  0  0  0  0
  152.0248  144.4687  158.1545 C   0  0  0  0  0  0  0  0  0  0  0  0
  149.7736  135.8865  158.8981 N   0  0  0  0  0  0  0  0  0  0  0  0
  148.0851  133.7034  160.9831 H   0  0  0  0  0  0  0  0  0  0  0  0
  149.1865  133.1167  159.7380 H   0  0  0  0  0  0  0  0  0  0  0  0
  147.5403  132.4974  159.8232 H   0  0  0  0  0  0  0  0  0  0  0  0
  146.6421  134.7247  159.2777 H   0  0  0  0  0  0  0  0  0  0  0  0
  147.2325  134.8752  156.8967 H   0  0  0  0  0  0  0  0  0  0  0  0
  147.0305  133.1967  157.3857 H   0  0  0  0  0  0  0  0  0  0  0  0
  148.6467  133.8559  157.1573 H   0  0  0  0  0  0  0  0  0  0  0  0
  151.7166  138.0687  160.0793 H   0  0  0  0  0  0  0  0  0  0  0  0
  152.0042  137.2609  158.5542 H   0  0  0  0  0  0  0  0  0  0  0  0
  151.3456  139.1203  157.2904 H   0  0  0  0  0  0  0  0  0  0  0  0
  150.0703  139.5475  158.4080 H   0  0  0  0  0  0  0  0  0  0  0  0
  152.8259  140.0097  159.3194 H   0  0  0  0  0  0  0  0  0  0  0  0
  153.5527  140.8184  160.6396 H   0  0  0  0  0  0  0  0  0  0  0  0
  154.4274  142.3107  160.5237 H   0  0  0  0  0  0  0  0  0  0  0  0
  151.8283  141.8702  162.0919 H   0  0  0  0  0  0  0  0  0  0  0  0
  153.4186  142.0434  162.7938 H   0  0  0  0  0  0  0  0  0  0  0  0
  152.0474  144.1814  162.8756 H   0  0  0  0  0  0  0  0  0  0  0  0
  153.5856  144.3614  162.0699 H   0  0  0  0  0  0  0  0  0  0  0  0
  150.8558  144.1078  160.7295 H   0  0  0  0  0  0  0  0  0  0  0  0
  151.9193  145.4947  160.7108 H   0  0  0  0  0  0  0  0  0  0  0  0
  153.6381  144.1606  159.4774 H   0  0  0  0  0  0  0  0  0  0  0  0
  152.2666  145.5304  158.1019 H   0  0  0  0  0  0  0  0  0  0  0  0
  150.9394  144.3931  158.0941 H   0  0  0  0  0  0  0  0  0  0  0  0
  152.4515  143.9945  157.2701 H   0  0  0  0  0  0  0  0  0  0  0  0
  1  2  1  0  0  0  0
  1 21  1  0  0  0  0
  1 22  1  0  0  0  0
  1 23  1  0  0  0  0
  2  3  1  0  0  0  0
  2  4  1  0  0  0  0
  2 24  1  0  0  0  0
  3 25  1  0  0  0  0
  3 26  1  0  0  0  0
  3 27  1  0  0  0  0
  4 20  1  0  0  0  0
  4  5  2  0  0  0  0
  5  6  1  0  0  0  0
  6  7  1  0  0  0  0
  7  8  1  0  0  0  0
  7 20  2  0  0  0  0
  8  9  1  0  0  0  0
  8 28  1  0  0  0  0
  8 29  1  0  0  0  0
  9 10  1  0  0  0  0
  9 30  1  0  0  0  0
  9 31  1  0  0  0  0
 10 11  1  0  0  0  0
 10 32  1  0  0  0  0
 11 12  2  0  0  0  0
 11 13  1  0  0  0  0
 13 18  1  0  0  0  0
 13 14  1  0  0  0  0
 14 15  1  0  0  0  0
 14 33  1  0  0  0  0
 14 34  1  0  0  0  0
 15 16  1  0  0  0  0
 15 35  1  0  0  0  0
 15 36  1  0  0  0  0
 16 17  1  0  0  0  0
 16 37  1  0  0  0  0
 16 38  1  0  0  0  0
 17 18  1  0  0  0  0
 17 39  1  0  0  0  0
 17 40  1  0  0  0  0
 18 19  1  0  0  0  0
 18 41  1  0  0  0  0
 19 42  1  0  0  0  0
 19 43  1  0  0  0  0
 19 44  1  0  0  0  0
M  END
> <s_m_source_file>
AV-unprocessed.smi

> <i_m_source_file_index>
776

> <i_lp_mmshare_version>
43012

> <i_f3d_flags>
0

> <s_epik_input>
W0NIM11bQ0hdKFtDSDNdKWMxbm9jKG4xKVtDSDJdW0NIMl1bTkhdQyg9TylOMltDSDJdW0NIMl1bQ0gyXVtDSDJdW0NASF0yW0NIM10=

> <s_epik_cmdline>
J2VwaWtfcHl0aG9uJywgJy1waCcsICc3LjAnLCAnLXRuJywgJzgnLCAnLW1hJywgJzIwMCcsICctbWV0YWxfYmluZGluZycsICctaW1hZScsICc8aW5maWxlLm1hZT4nLCAnLW9tYWUnLCAnPG91dGZpbGUubWFlPic=

> <r_lp_tautomer_probability>
1

> <r_epik_Ionization_Penalty>
6.23032e-05

> <r_epik_Ionization_Penalty_Charging>
0

> <r_epik_Ionization_Penalty_Neutral>
6.23032e-05

> <r_epik_State_Penalty>
-0

> <r_epik_Charging_Adjusted_Penalty>
0

> <i_epik_Tot_Q>
0

> <i_epik_Tot_abs_Q>
0

> <r_epik_Metal_State_Penalty>
-0

> <b_epik_Metal_Only>
0

> <s_lp_Force_Field>
OPLS_2005

> <r_lp_Energy>
25.3462

> <b_lp_Chiralities_Consistent>
1

> <s_lp_Variant>
AV-unprocessed.smi:776-2

> <Gold.Version>
5.8.1

> <Gold.Id.Protein>
6NUR|6NUR_protein|mol2

> <Gold.PLP.Fitness>
44.2668

> <Gold.PLP.PLP>
-42.4488

> <Gold.PLP.part.hbond>
-3.0000

> <Gold.PLP.part.metal>
0.0000

> <Gold.PLP.part.buried>
-4.9737

> <Gold.PLP.part.nonpolar>
-34.3409

> <Gold.PLP.part.repulsive>
0.1779

> <Gold.PLP.ligand.clash>
0.0000

> <Gold.PLP.ligand.torsion>
0.8563

> <Gold.PLP.Chemscore.Hbond>
1.0125

> <Gold.PLP.Chemscore.CHOScore>
0.0000

> <Gold.PLP.Chemscore.Metal>
0.0000

> <Gold.Chemscore.Hbonds>
donor molecule, donor type, donor heavy atom, donor atom, acceptor molecule, acceptor atom, score
      P1  H  6896  6907       L1    20  1.00
      P1  H  6931  6943       L1     6  0.09

> <Gold.PLP.Chemscore.Internal.Correction>
0.4932

> <Gold.Rescore>
     Score         DG    S(hbond)    S(metal)    S(lipo)     H(rot)  DE(clash)    DE(int)     intcor
     13.23     -15.79       0.99        0.00      95.84       1.65       0.15       2.40       ----

> <Gold.Chemscore.Fitness>
13.2308

> <Gold.Chemscore.DG>
-15.7867

> <Gold.Chemscore.ZeroCoef>
-5.4800

> <Gold.Chemscore.Hbond>
0.9909

> <Gold.Chemscore.Metal>
0.0000

> <Gold.Chemscore.Lipo>
95.8437

> <Gold.Chemscore.Internal_Hbond>
0.0000

> <Gold.Chemscore.DEClash>
0.1537

> <Gold.Chemscore.DEInternal>
2.4022

> <Gold.Chemscore.Rot>
1.6470

> <Gold.Chemscore.Internal.Correction>
   9.000000E+99

> <Gold.Chemscore.Hbonds>
donor molecule, donor type, donor heavy atom, donor atom, acceptor molecule, acceptor atom, score
      P1  H  6896  6907       L1    20  0.84
      P1  H  6931  6943       L1     6  0.03

> <Gold.Chemscore.Hbond.Weighted>
-3.3094

> <Gold.Chemscore.Metal.Weighted>
-0.0000

> <Gold.Chemscore.Lipo.Weighted>
-11.2137

> <Gold.Chemscore.Internal_Hbond.Weighted>
0.0000

> <Gold.Chemscore.DEClash.Weighted>
0.1537

> <Gold.Chemscore.DEInternal.Weighted>
2.4022

> <Gold.Chemscore.Rot.Weighted>
4.2164

> <Gold.Chemscore.Internal.Correction.Weighted>
   9.000000E+99

> <Gold.Protein.RotatedTorsions>
[ 6907 6896 6895 6894 ] final  -63.53 input  -60.11 | X-H torsion
[ 7974 7965 7964 7962 ] final -136.78 input  175.53 | X-H torsion
[ 8008 7997 7996 7995 ] final   23.98 input   59.86 | X-H torsion
[ 10167 10162 10161 10158 ] final -169.60 input  -65.29 | X-H torsion
[ 10718 10713 10712 10709 ] final -151.11 input   66.30 | X-H torsion
[ 10763 10752 10751 10750 ] final  179.34 input  -60.55 | X-H torsion
[ 11005 11000 10999 10996 ] final  155.54 input  -57.11 | X-H torsion

> <Gold.Protein.ActiveResidues>
 VAL166  LYS551  ARG553  GLY616  TRP617  ASP618  TYR619  PRO620  LYS621  CYS622 
 ASP623  PHE694  ASN695  SER759  ASP760  ASP761  ALA762  ILE779  LEU786  VAL792 
 PHE793  MET794  SER795  GLU796  ALA797  LYS798  CYS799  TRP800  GLU811  SER814 

> <Gold.Protein.RotatedAtoms>
  150.7643  134.6422  159.6242 H   0  0  0  0  0  0  0  0  0  0  0  0  # atno 6907 bound_to 6896
  152.3667  134.6791  160.0198 H   0  0  0  0  0  0  0  0  0  0  0  0  # atno 6908 bound_to 6896
  151.7164  133.3277  159.3340 H   0  0  0  0  0  0  0  0  0  0  0  0  # atno 6909 bound_to 6896
  144.8897  140.6625  143.5153 H   0  0  0  0  0  0  0  0  0  0  0  0  # atno 7974 bound_to 7965
  154.9893  140.3112  155.4913 H   0  0  0  0  0  0  0  0  0  0  0  0  # atno 8008 bound_to 7997
  156.2942  140.2252  156.4937 H   0  0  0  0  0  0  0  0  0  0  0  0  # atno 8009 bound_to 7997
  154.7718  140.0452  157.1045 H   0  0  0  0  0  0  0  0  0  0  0  0  # atno 8010 bound_to 7997
  139.5913  144.1208  152.1637 H   0  0  0  0  0  0  0  0  0  0  0  0  # atno 10167 bound_to 10162
  156.4550  130.8186  151.2417 H   0  0  0  0  0  0  0  0  0  0  0  0  # atno 10718 bound_to 10713
  154.5194  135.2793  155.1275 H   0  0  0  0  0  0  0  0  0  0  0  0  # atno 10763 bound_to 10752
  154.2839  135.6280  153.5362 H   0  0  0  0  0  0  0  0  0  0  0  0  # atno 10764 bound_to 10752
  152.9934  135.5658  154.5679 H   0  0  0  0  0  0  0  0  0  0  0  0  # atno 10765 bound_to 10752
  140.1591  134.8622  157.2552 H   0  0  0  0  0  0  0  0  0  0  0  0  # atno 11005 bound_to 11000
  145.3804  139.1638  143.4283 LP  0  0  0  0  0  0  0  0  0  0  0  0  # atno 17320 bound_to 7965
  146.3046  140.3885  142.8691 LP  0  0  0  0  0  0  0  0  0  0  0  0  # atno 17321 bound_to 7965
  140.0783  144.5722  150.7141 LP  0  0  0  0  0  0  0  0  0  0  0  0  # atno 17342 bound_to 10162
  140.7175  143.2558  151.4387 LP  0  0  0  0  0  0  0  0  0  0  0  0  # atno 17343 bound_to 10162
  157.7501  131.0125  150.3389 LP  0  0  0  0  0  0  0  0  0  0  0  0  # atno 17370 bound_to 10713
  156.3776  130.3874  149.7126 LP  0  0  0  0  0  0  0  0  0  0  0  0  # atno 17371 bound_to 10713
  140.2511  134.3682  155.7442 LP  0  0  0  0  0  0  0  0  0  0  0  0  # atno 17394 bound_to 11000
  141.2207  133.7317  156.8937 LP  0  0  0  0  0  0  0  0  0  0  0  0  # atno 17395 bound_to 11000

$$$$
