AV-unprocessed.smi:2062|AV-procd|sdf|8405|dock5
  -GOLD-   2272011 93D 1   1.00000     0.00000
 Structure written by MMmdl.
 42 43  0  0  0  0  0  0  0  0  3 V2000
  146.7805  133.3310  151.0972 C   0  0  0  0  0  0  0  0  0  0  0  0
  145.3392  133.8679  151.0916 C   0  0  0  0  0  0  0  0  0  0  0  0
  144.4835  133.0945  150.0776 C   0  0  0  0  0  0  0  0  0  0  0  0
  145.2903  135.3834  150.7989 C   0  0  0  0  0  0  0  0  0  0  0  0
  146.0096  136.1955  151.8134 N   0  3  2  0  0  0  0  0  0  0  0  0
  145.5953  135.9115  153.2097 C   0  0  0  0  0  0  0  0  0  0  0  0
  146.4179  136.7587  154.1939 C   0  0  0  0  0  0  0  0  0  0  0  0
  146.2717  138.1348  153.8708 O   0  0  0  0  0  0  0  0  0  0  0  0
  146.7599  138.4397  152.5680 C   0  0  2  0  0  0  0  0  0  0  0  0
  146.6547  139.9557  152.3550 C   0  0  0  0  0  0  0  0  0  0  0  0
  147.8682  140.6152  152.8233 N   0  0  0  0  0  0  0  0  0  0  0  0
  148.0857  141.0958  154.0543 C   0  0  0  0  0  0  0  0  0  0  0  0
  147.2031  141.0249  154.9126 O   0  0  0  0  0  0  0  0  0  0  0  0
  149.3184  141.6279  154.2126 N   0  5  0  0  0  0  0  0  0  0  0  0
  150.0952  141.2337  155.2348 C   0  0  0  0  0  0  0  0  0  0  0  0
  151.1399  140.4123  155.0814 N   0  0  0  0  0  0  0  0  0  0  0  0
  151.8030  140.1283  156.2767 C   0  0  0  0  0  0  0  0  0  0  0  0
  151.2449  140.7412  157.3669 C   0  0  0  0  0  0  0  0  0  0  0  0
  149.8608  141.6985  156.9224 S   0  0  0  0  0  0  0  0  0  0  0  0
  145.9297  137.6498  151.5380 C   0  0  0  0  0  0  0  0  0  0  0  0
  147.2701  133.4986  150.1373 H   0  0  0  0  0  0  0  0  0  0  0  0
  146.7983  132.2588  151.2952 H   0  0  0  0  0  0  0  0  0  0  0  0
  147.3837  133.8118  151.8677 H   0  0  0  0  0  0  0  0  0  0  0  0
  144.9068  133.6788  152.0737 H   0  0  0  0  0  0  0  0  0  0  0  0
  144.8583  133.2223  149.0616 H   0  0  0  0  0  0  0  0  0  0  0  0
  143.4477  133.4346  150.0959 H   0  0  0  0  0  0  0  0  0  0  0  0
  144.4805  132.0265  150.2980 H   0  0  0  0  0  0  0  0  0  0  0  0
  145.7345  135.5551  149.8171 H   0  0  0  0  0  0  0  0  0  0  0  0
  144.2577  135.7292  150.7288 H   0  0  0  0  0  0  0  0  0  0  0  0
  144.5332  136.1316  153.3293 H   0  0  0  0  0  0  0  0  0  0  0  0
  145.7316  134.8567  153.4449 H   0  0  0  0  0  0  0  0  0  0  0  0
  146.0678  136.5967  155.2135 H   0  0  0  0  0  0  0  0  0  0  0  0
  147.4714  136.4749  154.1695 H   0  0  0  0  0  0  0  0  0  0  0  0
  147.8084  138.1438  152.4925 H   0  0  0  0  0  0  0  0  0  0  0  0
  146.5392  140.1796  151.2942 H   0  0  0  0  0  0  0  0  0  0  0  0
  145.7642  140.3365  152.8578 H   0  0  0  0  0  0  0  0  0  0  0  0
  148.6233  140.7034  152.1594 H   0  0  0  0  0  0  0  0  0  0  0  0
  152.6640  139.4771  156.2586 H   0  0  0  0  0  0  0  0  0  0  0  0
  151.5595  140.6879  158.3980 H   0  0  0  0  0  0  0  0  0  0  0  0
  146.3040  137.8536  150.5340 H   0  0  0  0  0  0  0  0  0  0  0  0
  144.8867  137.9704  151.5638 H   0  0  0  0  0  0  0  0  0  0  0  0
  146.9863  135.9495  151.7379 H   0  0  0  0  0  0  0  0  0  0  0  0
  1  2  1  0  0  0  0
  1 21  1  0  0  0  0
  1 22  1  0  0  0  0
  1 23  1  0  0  0  0
  2  3  1  0  0  0  0
  2  4  1  0  0  0  0
  2 24  1  0  0  0  0
  3 25  1  0  0  0  0
  3 26  1  0  0  0  0
  3 27  1  0  0  0  0
  4  5  1  0  0  0  0
  4 28  1  0  0  0  0
  4 29  1  0  0  0  0
  5 20  1  0  0  0  0
  5  6  1  0  0  0  0
  5 42  1  0  0  0  0
  6  7  1  0  0  0  0
  6 30  1  0  0  0  0
  6 31  1  0  0  0  0
  7  8  1  0  0  0  0
  7 32  1  0  0  0  0
  7 33  1  0  0  0  0
  8  9  1  0  0  0  0
  9 10  1  0  0  0  0
  9 20  1  0  0  0  0
  9 34  1  0  0  0  0
 10 11  1  0  0  0  0
 10 35  1  0  0  0  0
 10 36  1  0  0  0  0
 11 12  1  0  0  0  0
 11 37  1  0  0  0  0
 12 13  2  0  0  0  0
 12 14  1  0  0  0  0
 14 15  1  0  0  0  0
 15 19  1  0  0  0  0
 15 16  2  0  0  0  0
 16 17  1  0  0  0  0
 17 18  2  0  0  0  0
 17 38  1  0  0  0  0
 18 19  1  0  0  0  0
 18 39  1  0  0  0  0
 20 40  1  0  0  0  0
 20 41  1  0  0  0  0
M  CHG  1   5   1
M  CHG  1  14  -1
M  END
> <s_m_source_file>
AV-unprocessed.smi

> <i_m_source_file_index>
2062

> <i_lp_mmshare_version>
43012

> <i_f3d_flags>
0

> <s_epik_input>
W0NIM11bQ0hdKFtDSDNdKVtDSDJdTjFbQ0gyXVtDSDJdT1tDQEhdKFtDSDJdMSlbQ0gyXVtOSF1DKD1PKVtOSF1jMm5bY0hdW2NIXXMy

> <s_epik_cmdline>
J2VwaWtfcHl0aG9uJywgJy1waCcsICc3LjAnLCAnLXRuJywgJzgnLCAnLW1hJywgJzIwMCcsICctbWV0YWxfYmluZGluZycsICctaW1hZScsICc8aW5maWxlLm1hZT4nLCAnLW9tYWUnLCAnPG91dGZpbGUubWFlPic=

> <r_lp_tautomer_probability>
0.999

> <r_epik_Ionization_Penalty>
6.35835

> <r_epik_Ionization_Penalty_Charging>
5.49938

> <r_epik_Ionization_Penalty_Neutral>
0.858963

> <r_epik_State_Penalty>
5.49328

> <r_epik_Charging_Adjusted_Penalty>
10.9927

> <i_epik_Tot_Q>
0

> <i_epik_Tot_abs_Q>
2

> <r_epik_Metal_State_Penalty>
1.51523

> <b_epik_Metal_Only>
1

> <s_lp_Force_Field>
OPLS_2005

> <r_lp_Energy>
7.82162

> <b_lp_Chiralities_Consistent>
1

> <s_lp_Variant>
AV-unprocessed.smi:2062-10

> <Gold.Version>
5.8.1

> <Gold.Id.Protein>
6NUR|6NUR_protein|mol2

> <Gold.PLP.Fitness>
43.3616

> <Gold.PLP.PLP>
-33.1164

> <Gold.PLP.part.hbond>
-4.7704

> <Gold.PLP.part.metal>
0.0000

> <Gold.PLP.part.buried>
2.1063

> <Gold.PLP.part.nonpolar>
-30.5557

> <Gold.PLP.part.repulsive>
0.6625

> <Gold.PLP.ligand.clash>
0.0000

> <Gold.PLP.ligand.torsion>
1.7165

> <Gold.PLP.Chemscore.Hbond>
4.4961

> <Gold.PLP.Chemscore.CHOScore>
0.0000

> <Gold.PLP.Chemscore.Metal>
0.0000

> <Gold.Chemscore.Hbonds>
donor molecule, donor type, donor heavy atom, donor atom, acceptor molecule, acceptor atom, score
      L1  H     5    42       P1  7948  2.00
      L1  H    11    37       P1  7957  1.00
      P1  H  7989  7998       L1    16  1.00
      P1  H  8011  8017       L1    14  0.50

> <Gold.PLP.Chemscore.Internal.Correction>
0.1899

> <Gold.Rescore>
     Score         DG    S(hbond)    S(metal)    S(lipo)     H(rot)  DE(clash)    DE(int)     intcor
     16.62     -20.06       3.09        0.00      74.13       1.72       1.77       1.66       ----

> <Gold.Chemscore.Fitness>
16.6205

> <Gold.Chemscore.DG>
-20.0557

> <Gold.Chemscore.ZeroCoef>
-5.4800

> <Gold.Chemscore.Hbond>
3.0850

> <Gold.Chemscore.Metal>
0.0000

> <Gold.Chemscore.Lipo>
74.1313

> <Gold.Chemscore.Internal_Hbond>
0.0000

> <Gold.Chemscore.DEClash>
1.7726

> <Gold.Chemscore.DEInternal>
1.6626

> <Gold.Chemscore.Rot>
1.7194

> <Gold.Chemscore.Internal.Correction>
   9.000000E+99

> <Gold.Chemscore.Hbonds>
donor molecule, donor type, donor heavy atom, donor atom, acceptor molecule, acceptor atom, score
      L1  H     5    42       P1  7948  0.98
      L1  H    11    37       P1  7957  0.88
      P1  H  7989  7998       L1    16  0.25
      P1  H  8011  8017       L1    14  0.23

> <Gold.Chemscore.Hbond.Weighted>
-10.3040

> <Gold.Chemscore.Metal.Weighted>
-0.0000

> <Gold.Chemscore.Lipo.Weighted>
-8.6734

> <Gold.Chemscore.Internal_Hbond.Weighted>
0.0000

> <Gold.Chemscore.DEClash.Weighted>
1.7726

> <Gold.Chemscore.DEInternal.Weighted>
1.6626

> <Gold.Chemscore.Rot.Weighted>
4.4017

> <Gold.Chemscore.Internal.Correction.Weighted>
   9.000000E+99

> <Gold.Protein.RotatedTorsions>
[ 6907 6896 6895 6894 ] final  -20.26 input  -60.11 | X-H torsion
[ 7974 7965 7964 7962 ] final  102.19 input  175.53 | X-H torsion
[ 8008 7997 7996 7995 ] final -133.42 input   59.86 | X-H torsion
[ 10167 10162 10161 10158 ] final  102.32 input  -65.29 | X-H torsion
[ 10718 10713 10712 10709 ] final  120.38 input   66.30 | X-H torsion
[ 10763 10752 10751 10750 ] final  -87.48 input  -60.55 | X-H torsion
[ 11005 11000 10999 10996 ] final  -64.27 input  -57.11 | X-H torsion

> <Gold.Protein.ActiveResidues>
 VAL166  LYS551  ARG553  GLY616  TRP617  ASP618  TYR619  PRO620  LYS621  CYS622 
 ASP623  PHE694  ASN695  SER759  ASP760  ASP761  ALA762  ILE779  LEU786  VAL792 
 PHE793  MET794  SER795  GLU796  ALA797  LYS798  CYS799  TRP800  GLU811  SER814 

> <Gold.Protein.RotatedAtoms>
  151.2508  135.0621  159.9060 H   0  0  0  0  0  0  0  0  0  0  0  0  # atno 6907 bound_to 6896
  152.5380  134.0334  159.8045 H   0  0  0  0  0  0  0  0  0  0  0  0  # atno 6908 bound_to 6896
  151.0542  133.5549  159.2671 H   0  0  0  0  0  0  0  0  0  0  0  0  # atno 6909 bound_to 6896
  145.3624  139.2415  143.3499 H   0  0  0  0  0  0  0  0  0  0  0  0  # atno 7974 bound_to 7965
  155.3451  140.0474  157.3045 H   0  0  0  0  0  0  0  0  0  0  0  0  # atno 8008 bound_to 7997
  154.5256  140.2240  155.8860 H   0  0  0  0  0  0  0  0  0  0  0  0  # atno 8009 bound_to 7997
  156.1736  140.3090  155.9025 H   0  0  0  0  0  0  0  0  0  0  0  0  # atno 8010 bound_to 7997
  139.7360  144.7024  151.0648 H   0  0  0  0  0  0  0  0  0  0  0  0  # atno 10167 bound_to 10162
  157.5895  131.1066  150.8027 H   0  0  0  0  0  0  0  0  0  0  0  0  # atno 10718 bound_to 10713
  154.6341  135.5411  153.7714 H   0  0  0  0  0  0  0  0  0  0  0  0  # atno 10763 bound_to 10752
  153.0299  135.6443  154.1257 H   0  0  0  0  0  0  0  0  0  0  0  0  # atno 10764 bound_to 10752
  154.1185  135.2922  155.3194 H   0  0  0  0  0  0  0  0  0  0  0  0  # atno 10765 bound_to 10752
  141.1419  133.6663  156.5807 H   0  0  0  0  0  0  0  0  0  0  0  0  # atno 11005 bound_to 11000
  146.2921  140.4260  142.8735 LP  0  0  0  0  0  0  0  0  0  0  0  0  # atno 17320 bound_to 7965
  144.8637  140.7175  143.6091 LP  0  0  0  0  0  0  0  0  0  0  0  0  # atno 17321 bound_to 7965
  140.7779  143.4983  150.9804 LP  0  0  0  0  0  0  0  0  0  0  0  0  # atno 17342 bound_to 10162
  139.8672  143.7239  152.3169 LP  0  0  0  0  0  0  0  0  0  0  0  0  # atno 17343 bound_to 10162
  156.8453  130.5062  149.5317 LP  0  0  0  0  0  0  0  0  0  0  0  0  # atno 17370 bound_to 10713
  156.0948  130.5923  150.9794 LP  0  0  0  0  0  0  0  0  0  0  0  0  # atno 17371 bound_to 10713
  140.3840  134.7499  157.4679 LP  0  0  0  0  0  0  0  0  0  0  0  0  # atno 17394 bound_to 11000
  140.0616  134.5987  155.8742 LP  0  0  0  0  0  0  0  0  0  0  0  0  # atno 17395 bound_to 11000

$$$$
