AV-unprocessed.smi:1997|AV-procd|sdf|8086|dock6
  -GOLD-   2272010303D 1   1.00000     0.00000
 Structure written by MMmdl.
 37 39  0  0  0  0  0  0  0  0  1 V2000
  144.7206  136.4495  153.6123 O   0  0  0  0  0  0  0  0  0  0  0  0
  145.8794  136.4308  153.1959 C   0  0  0  0  0  0  0  0  0  0  0  0
  146.7931  137.3971  153.3933 N   0  0  0  0  0  0  0  0  0  0  0  0
  146.6430  138.6193  154.1007 C   0  0  0  0  0  0  0  0  0  0  0  0
  146.1906  138.7013  155.3595 N   0  0  0  0  0  0  0  0  0  0  0  0
  146.1447  140.0138  155.8085 N   0  0  0  0  0  0  0  0  0  0  0  0
  146.5636  140.8834  154.8815 C   0  0  0  0  0  0  0  0  0  0  0  0
  146.6062  142.3544  155.1304 C   0  0  0  0  0  0  0  0  0  0  0  0
  145.5611  143.0452  155.9793 C   0  0  0  0  0  0  0  0  0  0  0  0
  145.5942  143.2769  154.4903 C   0  0  0  0  0  0  0  0  0  0  0  0
  147.0550  140.1542  153.3560 S   0  0  0  0  0  0  0  0  0  0  0  0
  146.3888  135.4227  152.4713 N   0  0  0  0  0  0  0  0  0  0  0  0
  145.6531  134.2312  152.0416 C   0  0  2  0  0  0  0  0  0  0  0  0
  146.6237  133.3527  151.2192 C   0  0  0  0  0  0  0  0  0  0  0  0
  146.2130  131.8714  151.1525 C   0  0  0  0  0  0  0  0  0  0  0  0
  144.8949  131.5949  150.4129 C   0  0  0  0  0  0  0  0  0  0  0  0
  143.6668  132.2465  151.0714 C   0  0  0  0  0  0  0  0  0  0  0  0
  143.5804  133.6716  150.7806 N   0  0  0  0  0  0  0  0  0  0  0  0
  144.4483  134.6238  151.1548 C   0  0  0  0  0  0  0  0  0  0  0  0
  144.2877  135.7890  150.7912 O   0  0  0  0  0  0  0  0  0  0  0  0
  147.7023  137.2438  152.9827 H   0  0  0  0  0  0  0  0  0  0  0  0
  147.6347  142.7014  155.2078 H   0  0  0  0  0  0  0  0  0  0  0  0
  144.7382  142.4504  156.3706 H   0  0  0  0  0  0  0  0  0  0  0  0
  145.8939  143.8581  156.6216 H   0  0  0  0  0  0  0  0  0  0  0  0
  145.9495  144.2433  154.1386 H   0  0  0  0  0  0  0  0  0  0  0  0
  144.8034  142.8251  153.8946 H   0  0  0  0  0  0  0  0  0  0  0  0
  147.3487  135.4935  152.1676 H   0  0  0  0  0  0  0  0  0  0  0  0
  145.3090  133.6876  152.9236 H   0  0  0  0  0  0  0  0  0  0  0  0
  146.7577  133.7531  150.2127 H   0  0  0  0  0  0  0  0  0  0  0  0
  147.6121  133.3884  151.6801 H   0  0  0  0  0  0  0  0  0  0  0  0
  147.0086  131.3129  150.6585 H   0  0  0  0  0  0  0  0  0  0  0  0
  146.1525  131.4674  152.1638 H   0  0  0  0  0  0  0  0  0  0  0  0
  144.9738  131.9075  149.3707 H   0  0  0  0  0  0  0  0  0  0  0  0
  144.7412  130.5156  150.3896 H   0  0  0  0  0  0  0  0  0  0  0  0
  142.7621  131.7833  150.6771 H   0  0  0  0  0  0  0  0  0  0  0  0
  143.6556  132.0734  152.1485 H   0  0  0  0  0  0  0  0  0  0  0  0
  142.7979  133.9634  150.2130 H   0  0  0  0  0  0  0  0  0  0  0  0
  1  2  2  0  0  0  0
  2  3  1  0  0  0  0
  2 12  1  0  0  0  0
  3  4  1  0  0  0  0
  3 21  1  0  0  0  0
  4 11  1  0  0  0  0
  4  5  2  0  0  0  0
  5  6  1  0  0  0  0
  6  7  2  0  0  0  0
  7  8  1  0  0  0  0
  7 11  1  0  0  0  0
  8 10  1  0  0  0  0
  8  9  1  0  0  0  0
  8 22  1  0  0  0  0
  9 10  1  0  0  0  0
  9 23  1  0  0  0  0
  9 24  1  0  0  0  0
 10 25  1  0  0  0  0
 10 26  1  0  0  0  0
 12 13  1  0  0  0  0
 12 27  1  0  0  0  0
 13 19  1  0  0  0  0
 13 14  1  0  0  0  0
 13 28  1  0  0  0  0
 14 15  1  0  0  0  0
 14 29  1  0  0  0  0
 14 30  1  0  0  0  0
 15 16  1  0  0  0  0
 15 31  1  0  0  0  0
 15 32  1  0  0  0  0
 16 17  1  0  0  0  0
 16 33  1  0  0  0  0
 16 34  1  0  0  0  0
 17 18  1  0  0  0  0
 17 35  1  0  0  0  0
 17 36  1  0  0  0  0
 18 19  1  0  0  0  0
 18 37  1  0  0  0  0
 19 20  2  0  0  0  0
M  END
> <s_m_source_file>
AV-unprocessed.smi

> <i_m_source_file_index>
1997

> <i_lp_mmshare_version>
43012

> <i_f3d_flags>
0

> <s_epik_input>
W0NIMl0xW0NIMl1bQ0hdMWMoczIpbm5jMltOSF1DKD1PKVtOSF1bQ0BASF0zW0NIMl1bQ0gyXVtDSDJdW0NIMl1bTkhdQzM9Tw==

> <s_epik_cmdline>
J2VwaWtfcHl0aG9uJywgJy1waCcsICc3LjAnLCAnLXRuJywgJzgnLCAnLW1hJywgJzIwMCcsICctbWV0YWxfYmluZGluZycsICctaW1hZScsICc8aW5maWxlLm1hZT4nLCAnLW9tYWUnLCAnPG91dGZpbGUubWFlPic=

> <r_lp_tautomer_probability>
1

> <r_epik_Ionization_Penalty>
0.000421558

> <r_epik_Ionization_Penalty_Charging>
0

> <r_epik_Ionization_Penalty_Neutral>
0.000421558

> <r_epik_State_Penalty>
-0

> <r_epik_Charging_Adjusted_Penalty>
0

> <i_epik_Tot_Q>
0

> <i_epik_Tot_abs_Q>
0

> <r_epik_Metal_State_Penalty>
0.200761

> <b_epik_Metal_Only>
0

> <s_lp_Force_Field>
OPLS_2005

> <r_lp_Energy>
8.57521

> <b_lp_Chiralities_Consistent>
1

> <s_lp_Variant>
AV-unprocessed.smi:1997-1

> <Gold.Version>
5.8.1

> <Gold.Id.Protein>
6NUR|6NUR_protein|mol2

> <Gold.PLP.Fitness>
40.4981

> <Gold.PLP.PLP>
-33.3265

> <Gold.PLP.part.hbond>
-3.0000

> <Gold.PLP.part.metal>
0.0000

> <Gold.PLP.part.buried>
-5.0510

> <Gold.PLP.part.nonpolar>
-27.6428

> <Gold.PLP.part.repulsive>
1.9142

> <Gold.PLP.ligand.clash>
0.0000

> <Gold.PLP.ligand.torsion>
0.9774

> <Gold.PLP.Chemscore.Hbond>
3.0000

> <Gold.PLP.Chemscore.CHOScore>
0.0000

> <Gold.PLP.Chemscore.Metal>
0.0000

> <Gold.Chemscore.Hbonds>
donor molecule, donor type, donor heavy atom, donor atom, acceptor molecule, acceptor atom, score
      L1  H     3    21       P1  7948  1.00
      L1  H    12    27       P1  7948  1.00
      L1  H    18    37       P1 10186  1.00

> <Gold.PLP.Chemscore.Internal.Correction>
0.1265

> <Gold.Rescore>
     Score         DG    S(hbond)    S(metal)    S(lipo)     H(rot)  DE(clash)    DE(int)     intcor
     17.36     -19.56       2.89        0.00      65.99       1.29       0.36       1.84       ----

> <Gold.Chemscore.Fitness>
17.3550

> <Gold.Chemscore.DG>
-19.5577

> <Gold.Chemscore.ZeroCoef>
-5.4800

> <Gold.Chemscore.Hbond>
2.8890

> <Gold.Chemscore.Metal>
0.0000

> <Gold.Chemscore.Lipo>
65.9902

> <Gold.Chemscore.Internal_Hbond>
0.0000

> <Gold.Chemscore.DEClash>
0.3624

> <Gold.Chemscore.DEInternal>
1.8403

> <Gold.Chemscore.Rot>
1.2860

> <Gold.Chemscore.Internal.Correction>
   9.000000E+99

> <Gold.Chemscore.Hbonds>
donor molecule, donor type, donor heavy atom, donor atom, acceptor molecule, acceptor atom, score
      L1  H     3    21       P1  7948  0.96
      L1  H    12    27       P1  7948  1.00
      L1  H    18    37       P1 10186  0.97

> <Gold.Chemscore.Hbond.Weighted>
-9.6492

> <Gold.Chemscore.Metal.Weighted>
-0.0000

> <Gold.Chemscore.Lipo.Weighted>
-7.7209

> <Gold.Chemscore.Internal_Hbond.Weighted>
0.0000

> <Gold.Chemscore.DEClash.Weighted>
0.3624

> <Gold.Chemscore.DEInternal.Weighted>
1.8403

> <Gold.Chemscore.Rot.Weighted>
3.2923

> <Gold.Chemscore.Internal.Correction.Weighted>
   9.000000E+99

> <Gold.Protein.RotatedTorsions>
[ 6907 6896 6895 6894 ] final  -59.47 input  -60.11 | X-H torsion
[ 7974 7965 7964 7962 ] final   33.87 input  175.53 | X-H torsion
[ 8008 7997 7996 7995 ] final  -13.65 input   59.86 | X-H torsion
[ 10167 10162 10161 10158 ] final  147.52 input  -65.29 | X-H torsion
[ 10718 10713 10712 10709 ] final   64.03 input   66.30 | X-H torsion
[ 10763 10752 10751 10750 ] final   15.58 input  -60.55 | X-H torsion
[ 11005 11000 10999 10996 ] final  -11.22 input  -57.11 | X-H torsion

> <Gold.Protein.ActiveResidues>
 VAL166  LYS551  ARG553  GLY616  TRP617  ASP618  TYR619  PRO620  LYS621  CYS622 
 ASP623  PHE694  ASN695  SER759  ASP760  ASP761  ALA762  ILE779  LEU786  VAL792 
 PHE793  MET794  SER795  GLU796  ALA797  LYS798  CYS799  TRP800  GLU811  SER814 

> <Gold.Protein.RotatedAtoms>
  150.7928  134.6964  159.6525 H   0  0  0  0  0  0  0  0  0  0  0  0  # atno 6907 bound_to 6896
  152.4036  134.6242  160.0068 H   0  0  0  0  0  0  0  0  0  0  0  0  # atno 6908 bound_to 6896
  151.6506  133.3284  159.3187 H   0  0  0  0  0  0  0  0  0  0  0  0  # atno 6909 bound_to 6896
  146.1391  139.6341  142.9175 H   0  0  0  0  0  0  0  0  0  0  0  0  # atno 7974 bound_to 7965
  154.5274  140.2244  155.8865 H   0  0  0  0  0  0  0  0  0  0  0  0  # atno 8008 bound_to 7997
  156.1728  140.3118  155.8969 H   0  0  0  0  0  0  0  0  0  0  0  0  # atno 8009 bound_to 7997
  155.3522  140.0456  157.3037 H   0  0  0  0  0  0  0  0  0  0  0  0  # atno 8010 bound_to 7997
  139.4889  144.5749  151.6985 H   0  0  0  0  0  0  0  0  0  0  0  0  # atno 10167 bound_to 10162
  157.6012  130.9137  149.9792 H   0  0  0  0  0  0  0  0  0  0  0  0  # atno 10718 bound_to 10713
  153.1511  135.6778  153.8880 H   0  0  0  0  0  0  0  0  0  0  0  0  # atno 10763 bound_to 10752
  153.8306  135.3118  155.3419 H   0  0  0  0  0  0  0  0  0  0  0  0  # atno 10764 bound_to 10752
  154.7863  135.4860  154.0040 H   0  0  0  0  0  0  0  0  0  0  0  0  # atno 10765 bound_to 10752
  140.7530  133.8577  155.9061 H   0  0  0  0  0  0  0  0  0  0  0  0  # atno 11005 bound_to 11000
  145.5088  141.0436  143.2499 LP  0  0  0  0  0  0  0  0  0  0  0  0  # atno 17320 bound_to 7965
  144.7772  139.6603  143.7169 LP  0  0  0  0  0  0  0  0  0  0  0  0  # atno 17321 bound_to 7965
  140.5343  144.0681  150.6065 LP  0  0  0  0  0  0  0  0  0  0  0  0  # atno 17342 bound_to 10162
  140.3681  143.2870  152.0309 LP  0  0  0  0  0  0  0  0  0  0  0  0  # atno 17343 bound_to 10162
  156.1085  130.3651  150.0090 LP  0  0  0  0  0  0  0  0  0  0  0  0  # atno 17370 bound_to 10713
  156.8193  130.9353  151.3642 LP  0  0  0  0  0  0  0  0  0  0  0  0  # atno 17371 bound_to 10713
  140.9733  134.1502  157.4557 LP  0  0  0  0  0  0  0  0  0  0  0  0  # atno 17394 bound_to 11000
  139.8784  134.9986  156.5909 LP  0  0  0  0  0  0  0  0  0  0  0  0  # atno 17395 bound_to 11000

$$$$
