AV-unprocessed.smi:79|AV-procd|sdf|780|dock8
  -GOLD-   2262017143D 1   1.00000     0.00000
 Structure written by MMmdl.
 56 59  0  0  0  0  0  0  0  0  2 V2000
  145.7543  132.2699  149.7490 C   0  0  0  0  0  0  0  0  0  0  0  0
  144.6498  133.2615  150.1434 C   0  0  1  0  0  0  0  0  0  0  0  0
  143.8988  133.5668  148.9875 O   0  0  0  0  0  0  0  0  0  0  0  0
  143.6904  132.7037  151.2139 C   0  0  0  0  0  0  0  0  0  0  0  0
  143.8005  133.4127  152.5144 N   0  3  1  0  0  0  0  0  0  0  0  0
  145.1985  133.5161  153.0151 C   0  0  0  0  0  0  0  0  0  0  0  0
  145.2519  134.2106  154.3891 C   0  0  0  0  0  0  0  0  0  0  0  0
  144.5890  135.5093  154.3410 N   0  0  0  0  0  0  0  0  0  0  0  0
  145.4166  136.5074  153.9376 C   0  0  0  0  0  0  0  0  0  0  0  0
  145.1381  137.2334  152.8232 N   0  0  0  0  0  0  0  0  0  0  0  0
  145.9721  138.1975  152.4218 C   0  0  0  0  0  0  0  0  0  0  0  0
  147.1218  138.5886  152.9745 N   0  0  0  0  0  0  0  0  0  0  0  0
  147.4101  137.8570  154.0889 C   0  0  0  0  0  0  0  0  0  0  0  0
  146.6213  136.8041  154.6304 C   0  0  0  0  0  0  0  0  0  0  0  0
  147.2333  136.2846  155.7635 N   0  0  0  0  0  0  0  0  0  0  0  0
  148.3209  136.9956  155.8896 C   0  0  0  0  0  0  0  0  0  0  0  0
  148.5006  137.9713  154.9342 N   0  0  0  0  0  0  0  0  0  0  0  0
  149.6129  138.9037  154.8338 C   0  0  0  0  0  0  0  0  0  0  0  0
  149.3310  140.3150  155.3945 C   0  0  0  0  0  0  0  0  0  0  0  0
  148.4593  141.1236  154.4156 C   0  0  0  0  0  0  0  0  0  0  0  0
  149.1221  141.3746  153.1921 O   0  0  0  0  0  0  0  0  0  0  0  0
  148.9421  140.3978  156.8790 C   0  0  0  0  0  0  0  0  0  0  0  0
  150.2697  140.8072  157.2684 O   0  0  0  0  0  0  0  0  0  0  0  0
  150.5956  141.0383  155.8822 C   0  0  0  0  0  0  0  0  0  0  0  0
  143.2025  135.4350  153.8652 C   0  0  1  0  0  0  0  0  0  0  0  0
  142.4479  136.7773  153.9175 C   0  0  0  0  0  0  0  0  0  0  0  0
  143.1094  134.7291  152.4943 C   0  0  0  0  0  0  0  0  0  0  0  0
  146.3924  132.0294  150.5994 H   0  0  0  0  0  0  0  0  0  0  0  0
  146.3943  132.6857  148.9698 H   0  0  0  0  0  0  0  0  0  0  0  0
  145.3358  131.3361  149.3718 H   0  0  0  0  0  0  0  0  0  0  0  0
  145.1018  134.1938  150.4803 H   0  0  0  0  0  0  0  0  0  0  0  0
  144.4131  134.1291  148.4282 H   0  0  0  0  0  0  0  0  0  0  0  0
  142.6563  132.7531  150.8678 H   0  0  0  0  0  0  0  0  0  0  0  0
  143.9122  131.6447  151.3556 H   0  0  0  0  0  0  0  0  0  0  0  0
  145.6463  132.5274  153.1035 H   0  0  0  0  0  0  0  0  0  0  0  0
  145.8013  134.0703  152.2938 H   0  0  0  0  0  0  0  0  0  0  0  0
  144.7510  133.5945  155.1365 H   0  0  0  0  0  0  0  0  0  0  0  0
  146.2870  134.3087  154.7199 H   0  0  0  0  0  0  0  0  0  0  0  0
  145.6759  138.7314  151.5308 H   0  0  0  0  0  0  0  0  0  0  0  0
  149.0255  136.8237  156.6897 H   0  0  0  0  0  0  0  0  0  0  0  0
  150.4621  138.4550  155.3509 H   0  0  0  0  0  0  0  0  0  0  0  0
  149.9117  138.9673  153.7869 H   0  0  0  0  0  0  0  0  0  0  0  0
  147.5422  140.5846  154.1760 H   0  0  0  0  0  0  0  0  0  0  0  0
  148.1495  142.0725  154.8542 H   0  0  0  0  0  0  0  0  0  0  0  0
  148.7973  140.7670  152.5452 H   0  0  0  0  0  0  0  0  0  0  0  0
  148.2022  141.1680  157.1020 H   0  0  0  0  0  0  0  0  0  0  0  0
  148.6547  139.4463  157.3246 H   0  0  0  0  0  0  0  0  0  0  0  0
  151.5273  140.5541  155.5869 H   0  0  0  0  0  0  0  0  0  0  0  0
  150.6252  142.1035  155.6478 H   0  0  0  0  0  0  0  0  0  0  0  0
  142.6960  134.7882  154.5828 H   0  0  0  0  0  0  0  0  0  0  0  0
  141.3875  136.6293  153.7121 H   0  0  0  0  0  0  0  0  0  0  0  0
  142.8175  137.4954  153.1864 H   0  0  0  0  0  0  0  0  0  0  0  0
  142.5284  137.2331  154.9050 H   0  0  0  0  0  0  0  0  0  0  0  0
  143.5335  135.3487  151.7037 H   0  0  0  0  0  0  0  0  0  0  0  0
  142.0596  134.5786  152.2394 H   0  0  0  0  0  0  0  0  0  0  0  0
  143.2965  132.8524  153.1865 H   0  0  0  0  0  0  0  0  0  0  0  0
  1  2  1  0  0  0  0
  1 28  1  0  0  0  0
  1 29  1  0  0  0  0
  1 30  1  0  0  0  0
  2  3  1  0  0  0  0
  2  4  1  0  0  0  0
  2 31  1  0  0  0  0
  3 32  1  0  0  0  0
  4  5  1  0  0  0  0
  4 33  1  0  0  0  0
  4 34  1  0  0  0  0
  5 27  1  0  0  0  0
  5  6  1  0  0  0  0
  5 56  1  0  0  0  0
  6  7  1  0  0  0  0
  6 35  1  0  0  0  0
  6 36  1  0  0  0  0
  7  8  1  0  0  0  0
  7 37  1  0  0  0  0
  7 38  1  0  0  0  0
  8  9  1  0  0  0  0
  8 25  1  0  0  0  0
  9 14  1  0  0  0  0
  9 10  2  0  0  0  0
 10 11  1  0  0  0  0
 11 12  2  0  0  0  0
 11 39  1  0  0  0  0
 12 13  1  0  0  0  0
 13 17  1  0  0  0  0
 13 14  2  0  0  0  0
 14 15  1  0  0  0  0
 15 16  2  0  0  0  0
 16 17  1  0  0  0  0
 16 40  1  0  0  0  0
 17 18  1  0  0  0  0
 18 19  1  0  0  0  0
 18 41  1  0  0  0  0
 18 42  1  0  0  0  0
 19 24  1  0  0  0  0
 19 20  1  0  0  0  0
 19 22  1  0  0  0  0
 20 21  1  0  0  0  0
 20 43  1  0  0  0  0
 20 44  1  0  0  0  0
 21 45  1  0  0  0  0
 22 23  1  0  0  0  0
 22 46  1  0  0  0  0
 22 47  1  0  0  0  0
 23 24  1  0  0  0  0
 24 48  1  0  0  0  0
 24 49  1  0  0  0  0
 25 26  1  0  0  0  0
 25 27  1  0  0  0  0
 25 50  1  0  0  0  0
 26 51  1  0  0  0  0
 26 52  1  0  0  0  0
 26 53  1  0  0  0  0
 27 54  1  0  0  0  0
 27 55  1  0  0  0  0
M  CHG  1   5   1
M  END
> <s_m_source_file>
AV-unprocessed.smi

> <i_m_source_file_index>
79

> <i_lp_mmshare_version>
43012

> <i_f3d_flags>
0

> <s_epik_input>
W0NIM11bQ0BIXShbT0hdKVtDSDJdTjFbQ0gyXVtDSDJdTihbQ0BASF0oW0NIM10pW0NIMl0xKWMobltjSF1uMiljKGMyMyluW2NIXW4zW0NIMl1DNChbQ0gyXVtPSF0pW0NIMl1PW0NIMl00

> <s_epik_cmdline>
J2VwaWtfcHl0aG9uJywgJy1waCcsICc3LjAnLCAnLXRuJywgJzgnLCAnLW1hJywgJzIwMCcsICctbWV0YWxfYmluZGluZycsICctaW1hZScsICc8aW5maWxlLm1hZT4nLCAnLW9tYWUnLCAnPG91dGZpbGUubWFlPic=

> <r_lp_tautomer_probability>
1

> <r_epik_Ionization_Penalty>
0.00515943

> <r_epik_Ionization_Penalty_Charging>
0.00509693

> <r_epik_Ionization_Penalty_Neutral>
6.25007e-05

> <r_epik_State_Penalty>
-0

> <r_epik_Charging_Adjusted_Penalty>
0.00509693

> <i_epik_Tot_Q>
1

> <i_epik_Tot_abs_Q>
1

> <r_epik_Metal_State_Penalty>
-0

> <b_epik_Metal_Only>
0

> <s_lp_Force_Field>
OPLS_2005

> <r_lp_Energy>
48.5729

> <b_lp_Chiralities_Consistent>
1

> <s_lp_Variant>
AV-unprocessed.smi:79-4

> <Gold.Version>
5.8.1

> <Gold.Id.Protein>
6NUR|6NUR_protein|mol2

> <Gold.PLP.Fitness>
49.1247

> <Gold.PLP.PLP>
-34.3095

> <Gold.PLP.part.hbond>
-5.5533

> <Gold.PLP.part.metal>
0.0000

> <Gold.PLP.part.buried>
-5.9898

> <Gold.PLP.part.nonpolar>
-24.4618

> <Gold.PLP.part.repulsive>
0.5583

> <Gold.PLP.ligand.clash>
0.0000

> <Gold.PLP.ligand.torsion>
1.6891

> <Gold.PLP.Chemscore.Hbond>
4.6240

> <Gold.PLP.Chemscore.CHOScore>
1.1632

> <Gold.PLP.Chemscore.Metal>
0.0000

> <Gold.Chemscore.Hbonds>
donor molecule, donor type, donor heavy atom, donor atom, acceptor molecule, acceptor atom, score
      L1  H     3    32       P1  7921  1.00
      L1  H     5    56       P1 10957  2.00
      L1  H    21    45       P1  7957  0.61
      P1  H  8011  8017       L1    21  0.94
      L1  C    11    39       P1 10171  1.00
      L1  C    11    39       P1 10175  0.17

> <Gold.PLP.Chemscore.Internal.Correction>
0.8318

> <Gold.Rescore>
     Score         DG    S(hbond)    S(metal)    S(lipo)     H(rot)  DE(clash)    DE(int)     intcor
     11.17     -14.19       2.91        0.00      72.92       3.72       0.24       2.77       ----

> <Gold.Chemscore.Fitness>
11.1693

> <Gold.Chemscore.DG>
-14.1862

> <Gold.Chemscore.ZeroCoef>
-5.4800

> <Gold.Chemscore.Hbond>
2.9053

> <Gold.Chemscore.Metal>
0.0000

> <Gold.Chemscore.Lipo>
72.9242

> <Gold.Chemscore.Internal_Hbond>
0.0000

> <Gold.Chemscore.DEClash>
0.2426

> <Gold.Chemscore.DEInternal>
2.7743

> <Gold.Chemscore.Rot>
3.7226

> <Gold.Chemscore.Internal.Correction>
   9.000000E+99

> <Gold.Chemscore.Hbonds>
donor molecule, donor type, donor heavy atom, donor atom, acceptor molecule, acceptor atom, score
      L1  H     3    32       P1  7921  0.94
      L1  H     5    56       P1 10957  0.47
      L1  H    21    45       P1  7957  0.60
      P1  H  8011  8017       L1    21  0.30

> <Gold.Chemscore.Hbond.Weighted>
-9.7038

> <Gold.Chemscore.Metal.Weighted>
-0.0000

> <Gold.Chemscore.Lipo.Weighted>
-8.5321

> <Gold.Chemscore.Internal_Hbond.Weighted>
0.0000

> <Gold.Chemscore.DEClash.Weighted>
0.2426

> <Gold.Chemscore.DEInternal.Weighted>
2.7743

> <Gold.Chemscore.Rot.Weighted>
9.5298

> <Gold.Chemscore.Internal.Correction.Weighted>
   9.000000E+99

> <Gold.Protein.RotatedTorsions>
[ 6907 6896 6895 6894 ] final  -83.41 input  -60.11 | X-H torsion
[ 7974 7965 7964 7962 ] final   75.55 input  175.53 | X-H torsion
[ 8008 7997 7996 7995 ] final   20.29 input   59.86 | X-H torsion
[ 10167 10162 10161 10158 ] final  176.36 input  -65.29 | X-H torsion
[ 10718 10713 10712 10709 ] final  108.28 input   66.30 | X-H torsion
[ 10763 10752 10751 10750 ] final  -96.35 input  -60.55 | X-H torsion
[ 11005 11000 10999 10996 ] final   11.25 input  -57.11 | X-H torsion

> <Gold.Protein.ActiveResidues>
 VAL166  LYS551  ARG553  GLY616  TRP617  ASP618  TYR619  PRO620  LYS621  CYS622 
 ASP623  PHE694  ASN695  SER759  ASP760  ASP761  ALA762  ILE779  LEU786  VAL792 
 PHE793  MET794  SER795  GLU796  ALA797  LYS798  CYS799  TRP800  GLU811  SER814 

> <Gold.Protein.RotatedAtoms>
  150.6886  134.3516  159.4911 H   0  0  0  0  0  0  0  0  0  0  0  0  # atno 6907 bound_to 6896
  152.1356  134.9099  160.0565 H   0  0  0  0  0  0  0  0  0  0  0  0  # atno 6908 bound_to 6896
  152.0252  133.3880  159.4311 H   0  0  0  0  0  0  0  0  0  0  0  0  # atno 6909 bound_to 6896
  145.7142  139.2625  143.1633 H   0  0  0  0  0  0  0  0  0  0  0  0  # atno 7974 bound_to 7965
  154.9335  140.3043  155.5156 H   0  0  0  0  0  0  0  0  0  0  0  0  # atno 8008 bound_to 7997
  156.3001  140.2349  156.4334 H   0  0  0  0  0  0  0  0  0  0  0  0  # atno 8009 bound_to 7997
  154.8214  140.0423  157.1402 H   0  0  0  0  0  0  0  0  0  0  0  0  # atno 8010 bound_to 7997
  139.5211  144.2924  152.0451 H   0  0  0  0  0  0  0  0  0  0  0  0  # atno 10167 bound_to 10162
  157.6593  131.0890  150.6282 H   0  0  0  0  0  0  0  0  0  0  0  0  # atno 10718 bound_to 10713
  154.7232  135.5086  153.8844 H   0  0  0  0  0  0  0  0  0  0  0  0  # atno 10763 bound_to 10752
  153.0881  135.6651  153.9917 H   0  0  0  0  0  0  0  0  0  0  0  0  # atno 10764 bound_to 10752
  153.9736  135.3036  155.3405 H   0  0  0  0  0  0  0  0  0  0  0  0  # atno 10765 bound_to 10752
  140.5053  134.0705  155.7804 H   0  0  0  0  0  0  0  0  0  0  0  0  # atno 11005 bound_to 11000
  146.0685  140.7895  142.9700 LP  0  0  0  0  0  0  0  0  0  0  0  0  # atno 17320 bound_to 7965
  144.6934  140.3305  143.7217 LP  0  0  0  0  0  0  0  0  0  0  0  0  # atno 17321 bound_to 7965
  140.2375  144.4304  150.6274 LP  0  0  0  0  0  0  0  0  0  0  0  0  # atno 17342 bound_to 10162
  140.6313  143.2188  151.6489 LP  0  0  0  0  0  0  0  0  0  0  0  0  # atno 17343 bound_to 10162
  156.6586  130.4506  149.5695 LP  0  0  0  0  0  0  0  0  0  0  0  0  # atno 17370 bound_to 10713
  156.2084  130.6663  151.1243 LP  0  0  0  0  0  0  0  0  0  0  0  0  # atno 17371 bound_to 10713
  141.1414  133.9132  157.2317 LP  0  0  0  0  0  0  0  0  0  0  0  0  # atno 17394 bound_to 11000
  139.9689  135.0134  156.9461 LP  0  0  0  0  0  0  0  0  0  0  0  0  # atno 17395 bound_to 11000

$$$$
