#       Name:                AV-unprocessed.smi:44
#       Creating user name   scv26
#       Creation time:       Thu Mar 26 16:25:31 2020


#       File generated by GOLD software.
#

@<TRIPOS>MOLECULE
AV-unprocessed.smi:44
    37    39     1
SMALL
NO_CHARGES


@<TRIPOS>ATOM
      1 ****        -4.2928   3.1650   1.1636 O.2            1 S1                 0.0000
      2 ****        -3.5755   2.8160   0.2284 C.2            1 S1                 0.0000
      3 ****        -3.6738   3.1775  -1.0915 N.pl3          1 S1                -1.0000
      4 ****        -2.7857   2.7003  -2.0494 C.2            1 S1                 0.0000
      5 ****        -1.7966   1.8986  -1.8680 N.2            1 S1                 0.0000
      6 ****        -1.6126   1.4716  -0.5444 C.2            1 S1                 0.0000
      7 ****        -2.4310   1.8795   0.4831 C.2            1 S1                 0.0000
      8 ****        -2.0176   1.3056   1.6554 N.pl3          1 S1                 1.0000
      9 ****        -0.9662   0.5745   1.2852 C.2            1 S1                 0.0000
     10 ****        -0.6567   0.6237  -0.0451 N.pl3          1 S1                 0.0000
     11 ****         0.4572  -0.0833  -0.7428 C.3            1 S1                 0.0000
     12 ****         0.1099  -1.5638  -0.9371 C.3            1 S1                 0.0000
     13 ****         1.4204  -2.2327  -0.5848 C.3            1 S1                 0.0000
     14 ****         1.9309  -1.3228   0.5310 C.3            1 S1                 0.0000
     15 ****         3.4398  -1.4217   0.7946 C.3            1 S1                 0.0000
     16 ****         3.7487  -2.6657   1.3854 O.3            1 S1                 0.0000
     17 ****         1.5981  -0.0196   0.0637 O.3            1 S1                 0.0000
     18 ****        -2.4138   1.4114   2.5805 H              1 S1                 0.0000
     19 ****         0.6139   0.4633  -1.6736 H              1 S1                 0.0000
     20 ****         1.3729  -1.5106   1.4500 H              1 S1                 0.0000
     21 ****        -3.0119   3.0902  -3.0450 H              1 S1                 0.0000
     22 ****        -0.3987  -0.0143   1.9825 H              1 S1                 0.0000
     23 ****        -0.6724  -1.8677  -0.2395 H              1 S1                 0.0000
     24 ****        -0.2244  -1.7602  -1.9561 H              1 S1                 0.0000
     25 ****         1.2986  -3.2688  -0.2681 H              1 S1                 0.0000
     26 ****         2.0962  -2.2118  -1.4412 H              1 S1                 0.0000
     27 ****         4.0084  -1.3020  -0.1280 H              1 S1                 0.0000
     28 ****         3.7551  -0.6299   1.4745 H              1 S1                 0.0000
     29 ****         4.6808  -2.7031   1.5371 H              1 S1                 0.0000
     30 ****        -4.1118   2.8251   2.0865 LP             1 S1                 0.0000
     31 ****        -5.0574   3.7889   1.0015 LP             1 S1                 0.0000
     32 ****        -4.4037   3.8009  -1.3722 LP             1 S1                 0.0000
     33 ****        -1.2024   1.6015  -2.6154 LP             1 S1                 0.0000
     34 ****         3.4769  -3.4071   0.7718 LP             1 S1                 0.0000
     35 ****         3.2618  -2.7565   2.2541 LP             1 S1                 0.0000
     36 ****         1.4193   0.5779   0.8454 LP             1 S1                 0.0000
     37 ****         2.3610   0.3473  -0.4686 LP             1 S1                 0.0000
@<TRIPOS>BOND
    1    1    2 2     
    2    2    7 1     
    3    2    3 1     
    4    3    4 1     
    5    4   21 1     
    6    4    5 2     
    7    5    6 1     
    8    6   10 1     
    9    6    7 2     
   10    7    8 1     
   11    8    9 2     
   12    8   18 1     
   13    9   10 1     
   14    9   22 1     
   15   10   11 1     
   16   11   19 1     
   17   11   17 1     
   18   11   12 1     
   19   12   13 1     
   20   12   23 1     
   21   12   24 1     
   22   13   14 1     
   23   13   25 1     
   24   13   26 1     
   25   14   20 1     
   26   14   15 1     
   27   14   17 1     
   28   15   16 1     
   29   15   27 1     
   30   15   28 1     
   31   16   29 1     
   32    1   30 1     
   33    1   31 1     
   34    3   32 1     
   35    5   33 1     
   36   16   34 1     
   37   16   35 1     
   38   17   36 1     
   39   17   37 1     
@<TRIPOS>SUBSTRUCTURE
      1 S1             1
@<TRIPOS>SET
LONE_PAIRS      STATIC     ATOMS    <user>   **** ""
8 30 31 32 33 34 35 36 37
DONOR_HYDROGENS      STATIC     ATOMS    <user>   **** ""
2 18 29
ATOM$BLUE        STATIC     ATOMS    COLORGROUP SYSTEM
8 30 31 32 33 34 35 36 37
ATOM$RED        STATIC     ATOMS    COLORGROUP SYSTEM
2 18 29
