AV-unprocessed.smi:1634|AV-procd|sdf|6538|dock3
  -GOLD-   22720 7223D 1   1.00000     0.00000
 Structure written by MMmdl.
 37 37  0  0  0  0  0  0  0  0  2 V2000
  142.9323  143.6022  155.2922 C   0  0  0  0  0  0  0  0  0  0  0  0
  144.3147  143.1374  155.7737 C   0  0  0  0  0  0  0  0  0  0  0  0
  144.9340  144.1678  156.7312 C   0  0  0  0  0  0  0  0  0  0  0  0
  145.2425  142.8457  154.5836 C   0  0  0  0  0  0  0  0  0  0  0  0
  146.5079  142.4108  155.0705 O   0  0  0  0  0  0  0  0  0  0  0  0
  147.3710  141.8252  154.0990 C   0  0  2  0  0  0  0  0  0  0  0  0
  146.7308  140.5043  153.6469 C   0  0  0  0  0  0  0  0  0  0  0  0
  148.7683  141.5939  154.6971 C   0  0  0  0  0  0  0  0  0  0  0  0
  149.6840  141.2210  153.9640 O   0  0  0  0  0  0  0  0  0  0  0  0
  148.8635  141.7978  156.0258 N   0  0  0  0  0  0  0  0  0  0  0  0
  149.9689  141.6672  156.8843 C   0  0  0  0  0  0  0  0  0  0  0  0
  150.4970  142.6695  157.6407 C   0  0  0  0  0  0  0  0  0  0  0  0
  151.6450  142.4623  158.5155 C   0  0  0  0  0  0  0  0  0  0  0  0
  152.2890  143.5497  159.3557 C   0  0  0  0  0  0  0  0  0  0  0  0
  152.7139  144.5423  158.5749 F   0  0  0  0  0  0  0  0  0  0  0  0
  151.4050  144.0527  160.2171 F   0  0  0  0  0  0  0  0  0  0  0  0
  153.3298  143.0819  160.0452 F   0  0  0  0  0  0  0  0  0  0  0  0
  152.1036  141.1607  158.4824 C   0  0  0  0  0  0  0  0  0  0  0  0
  151.6323  140.1104  157.7759 N   0  5  0  0  0  0  0  0  0  0  0  0
  150.5620  140.3152  156.9573 C   0  0  0  0  0  0  0  0  0  0  0  0
  150.0835  139.4021  156.2836 O   0  0  0  0  0  0  0  0  0  0  0  0
  143.0024  144.5323  154.7270 H   0  0  0  0  0  0  0  0  0  0  0  0
  142.2591  143.7731  156.1329 H   0  0  0  0  0  0  0  0  0  0  0  0
  142.4683  142.8555  154.6471 H   0  0  0  0  0  0  0  0  0  0  0  0
  144.1743  142.2071  156.3255 H   0  0  0  0  0  0  0  0  0  0  0  0
  145.1037  145.1215  156.2305 H   0  0  0  0  0  0  0  0  0  0  0  0
  145.8925  143.8227  157.1200 H   0  0  0  0  0  0  0  0  0  0  0  0
  144.2826  144.3518  157.5860 H   0  0  0  0  0  0  0  0  0  0  0  0
  144.8113  142.0616  153.9597 H   0  0  0  0  0  0  0  0  0  0  0  0
  145.3377  143.7381  153.9636 H   0  0  0  0  0  0  0  0  0  0  0  0
  147.4404  142.4847  153.2315 H   0  0  0  0  0  0  0  0  0  0  0  0
  147.3563  139.9907  152.9159 H   0  0  0  0  0  0  0  0  0  0  0  0
  145.7620  140.6854  153.1809 H   0  0  0  0  0  0  0  0  0  0  0  0
  146.5701  139.8271  154.4869 H   0  0  0  0  0  0  0  0  0  0  0  0
  148.0068  142.0519  156.4964 H   0  0  0  0  0  0  0  0  0  0  0  0
  150.0709  143.6580  157.6269 H   0  0  0  0  0  0  0  0  0  0  0  0
  152.9843  140.9319  159.1201 H   0  0  0  0  0  0  0  0  0  0  0  0
  1  2  1  0  0  0  0
  1 22  1  0  0  0  0
  1 23  1  0  0  0  0
  1 24  1  0  0  0  0
  2  3  1  0  0  0  0
  2  4  1  0  0  0  0
  2 25  1  0  0  0  0
  3 26  1  0  0  0  0
  3 27  1  0  0  0  0
  3 28  1  0  0  0  0
  4  5  1  0  0  0  0
  4 29  1  0  0  0  0
  4 30  1  0  0  0  0
  5  6  1  0  0  0  0
  6  7  1  0  0  0  0
  6  8  1  0  0  0  0
  6 31  1  0  0  0  0
  7 32  1  0  0  0  0
  7 33  1  0  0  0  0
  7 34  1  0  0  0  0
  8  9  2  0  0  0  0
  8 10  1  0  0  0  0
 10 11  1  0  0  0  0
 10 35  1  0  0  0  0
 11 20  1  0  0  0  0
 11 12  2  0  0  0  0
 12 13  1  0  0  0  0
 12 36  1  0  0  0  0
 13 14  1  0  0  0  0
 13 18  2  0  0  0  0
 14 15  1  0  0  0  0
 14 16  1  0  0  0  0
 14 17  1  0  0  0  0
 18 19  1  0  0  0  0
 18 37  1  0  0  0  0
 19 20  1  0  0  0  0
 20 21  2  0  0  0  0
M  CHG  1  19  -1
M  END
> <s_m_source_file>
AV-unprocessed.smi

> <i_m_source_file_index>
1634

> <i_lp_mmshare_version>
43012

> <i_f3d_flags>
0

> <s_epik_input>
W0NIM11bQ0hdKFtDSDNdKVtDSDJdT1tDQEhdKFtDSDNdKUMoPU8pW05IXWMxW2NIXWMoQyhGKShGKUYpW2NIXVtuSF1jMT1P

> <s_epik_cmdline>
J2VwaWtfcHl0aG9uJywgJy1waCcsICc3LjAnLCAnLXRuJywgJzgnLCAnLW1hJywgJzIwMCcsICctbWV0YWxfYmluZGluZycsICctaW1hZScsICc8aW5maWxlLm1hZT4nLCAnLW9tYWUnLCAnPG91dGZpbGUubWFlPic=

> <r_epik_Ionization_Penalty>
2.55349

> <r_epik_Ionization_Penalty_Charging>
0.0582825

> <r_epik_Ionization_Penalty_Neutral>
2.49521

> <r_epik_State_Penalty>
2.65983

> <r_epik_Charging_Adjusted_Penalty>
2.71812

> <i_epik_Tot_Q>
-1

> <i_epik_Tot_abs_Q>
1

> <r_epik_Metal_State_Penalty>
0.516727

> <b_epik_Metal_Only>
0

> <s_lp_Force_Field>
OPLS_2005

> <r_lp_Energy>
22.0513

> <b_lp_Chiralities_Consistent>
1

> <s_lp_Variant>
AV-unprocessed.smi:1634-3

> <Gold.Version>
5.8.1

> <Gold.Id.Protein>
6NUR|6NUR_protein|mol2

> <Gold.PLP.Fitness>
41.5596

> <Gold.PLP.PLP>
-39.5521

> <Gold.PLP.part.hbond>
-3.0000

> <Gold.PLP.part.metal>
0.0000

> <Gold.PLP.part.buried>
-4.1620

> <Gold.PLP.part.nonpolar>
-34.2614

> <Gold.PLP.part.repulsive>
1.2078

> <Gold.PLP.ligand.clash>
0.0000

> <Gold.PLP.ligand.torsion>
0.7793

> <Gold.PLP.Chemscore.Hbond>
1.1520

> <Gold.PLP.Chemscore.CHOScore>
0.0000

> <Gold.PLP.Chemscore.Metal>
0.0000

> <Gold.Chemscore.Hbonds>
donor molecule, donor type, donor heavy atom, donor atom, acceptor molecule, acceptor atom, score
      P1  H  7989  7998       L1     9  0.34
      P1  H  8011  8017       L1     9  0.78

> <Gold.PLP.Chemscore.Internal.Correction>
0.1102

> <Gold.Rescore>
     Score         DG    S(hbond)    S(metal)    S(lipo)     H(rot)  DE(clash)    DE(int)     intcor
     10.71     -12.43       1.00        0.00      69.28       1.75       0.61       1.10       ----

> <Gold.Chemscore.Fitness>
10.7148

> <Gold.Chemscore.DG>
-12.4257

> <Gold.Chemscore.ZeroCoef>
-5.4800

> <Gold.Chemscore.Hbond>
0.9968

> <Gold.Chemscore.Metal>
0.0000

> <Gold.Chemscore.Lipo>
69.2830

> <Gold.Chemscore.Internal_Hbond>
0.0000

> <Gold.Chemscore.DEClash>
0.6110

> <Gold.Chemscore.DEInternal>
1.0999

> <Gold.Chemscore.Rot>
1.7538

> <Gold.Chemscore.Internal.Correction>
   9.000000E+99

> <Gold.Chemscore.Hbonds>
donor molecule, donor type, donor heavy atom, donor atom, acceptor molecule, acceptor atom, score
      P1  H  7989  7998       L1     9  0.33
      P1  H  8011  8017       L1     9  0.56

> <Gold.Chemscore.Hbond.Weighted>
-3.3294

> <Gold.Chemscore.Metal.Weighted>
-0.0000

> <Gold.Chemscore.Lipo.Weighted>
-8.1061

> <Gold.Chemscore.Internal_Hbond.Weighted>
0.0000

> <Gold.Chemscore.DEClash.Weighted>
0.6110

> <Gold.Chemscore.DEInternal.Weighted>
1.0999

> <Gold.Chemscore.Rot.Weighted>
4.4898

> <Gold.Chemscore.Internal.Correction.Weighted>
   9.000000E+99

> <Gold.Protein.RotatedTorsions>
[ 6907 6896 6895 6894 ] final   37.06 input  -60.11 | X-H torsion
[ 7974 7965 7964 7962 ] final   60.05 input  175.53 | X-H torsion
[ 8008 7997 7996 7995 ] final  -58.71 input   59.86 | X-H torsion
[ 10167 10162 10161 10158 ] final    5.94 input  -65.29 | X-H torsion
[ 10718 10713 10712 10709 ] final  127.26 input   66.30 | X-H torsion
[ 10763 10752 10751 10750 ] final  112.16 input  -60.55 | X-H torsion
[ 11005 11000 10999 10996 ] final    9.17 input  -57.11 | X-H torsion

> <Gold.Protein.ActiveResidues>
 VAL166  LYS551  ARG553  GLY616  TRP617  ASP618  TYR619  PRO620  LYS621  CYS622 
 ASP623  PHE694  ASN695  SER759  ASP760  ASP761  ALA762  ILE779  LEU786  VAL792 
 PHE793  MET794  SER795  GLU796  ALA797  LYS798  CYS799  TRP800  GLU811  SER814 

> <Gold.Protein.RotatedAtoms>
  152.1382  134.9083  160.0555 H   0  0  0  0  0  0  0  0  0  0  0  0  # atno 6907 bound_to 6896
  152.0161  133.3875  159.4247 H   0  0  0  0  0  0  0  0  0  0  0  0  # atno 6908 bound_to 6896
  150.6862  134.3598  159.4989 H   0  0  0  0  0  0  0  0  0  0  0  0  # atno 6909 bound_to 6896
  145.9004  139.3577  143.0596 H   0  0  0  0  0  0  0  0  0  0  0  0  # atno 7974 bound_to 7965
  154.4320  140.1078  156.6001 H   0  0  0  0  0  0  0  0  0  0  0  0  # atno 8008 bound_to 7997
  155.5920  140.3492  155.4550 H   0  0  0  0  0  0  0  0  0  0  0  0  # atno 8009 bound_to 7997
  156.0239  140.1245  157.0318 H   0  0  0  0  0  0  0  0  0  0  0  0  # atno 8010 bound_to 7997
  140.6455  143.7673  150.7492 H   0  0  0  0  0  0  0  0  0  0  0  0  # atno 10167 bound_to 10162
  157.5348  131.1098  150.8953 H   0  0  0  0  0  0  0  0  0  0  0  0  # atno 10718 bound_to 10713
  153.4738  135.3694  155.2405 H   0  0  0  0  0  0  0  0  0  0  0  0  # atno 10763 bound_to 10752
  154.8756  135.3938  154.3780 H   0  0  0  0  0  0  0  0  0  0  0  0  # atno 10764 bound_to 10752
  153.4373  135.7083  153.6257 H   0  0  0  0  0  0  0  0  0  0  0  0  # atno 10765 bound_to 10752
  140.5288  134.0487  155.7867 H   0  0  0  0  0  0  0  0  0  0  0  0  # atno 11005 bound_to 11000
  145.8798  140.9369  143.0607 LP  0  0  0  0  0  0  0  0  0  0  0  0  # atno 17320 bound_to 7965
  144.6735  140.0765  143.7471 LP  0  0  0  0  0  0  0  0  0  0  0  0  # atno 17321 bound_to 7965
  140.1313  143.4523  152.2252 LP  0  0  0  0  0  0  0  0  0  0  0  0  # atno 17342 bound_to 10162
  139.5665  144.7438  151.4008 LP  0  0  0  0  0  0  0  0  0  0  0  0  # atno 17343 bound_to 10162
  156.9523  130.5424  149.5283 LP  0  0  0  0  0  0  0  0  0  0  0  0  # atno 17370 bound_to 10713
  156.0450  130.5527  150.8859 LP  0  0  0  0  0  0  0  0  0  0  0  0  # atno 17371 bound_to 10713
  141.1293  133.9329  157.2569 LP  0  0  0  0  0  0  0  0  0  0  0  0  # atno 17394 bound_to 11000
  139.9565  135.0164  156.9144 LP  0  0  0  0  0  0  0  0  0  0  0  0  # atno 17395 bound_to 11000

$$$$
