#       Name:                AV-unprocessed.smi:2481
#       Creating user name   scv26
#       Creation time:       Fri Mar 27 13:41:43 2020


#       File generated by GOLD software.
#

@<TRIPOS>MOLECULE
AV-unprocessed.smi:2481
    43    44     1
SMALL
NO_CHARGES


@<TRIPOS>ATOM
      1 ****        -4.9902  -0.0315   0.5048 C.3            1 S1                 0.0000
      2 ****        -4.4997   1.3017   0.2135 N.pl3          1 S1                 0.0000
      3 ****        -5.3528   2.3442   0.0789 N.2            1 S1                 0.0000
      4 ****        -4.5322   3.3642  -0.1736 C.2            1 S1                 0.0000
      5 ****        -3.1999   3.0654  -0.2140 N.2            1 S1                 0.0000
      6 ****        -3.2574   1.7613   0.0376 C.2            1 S1                 0.0000
      7 ****        -2.1506   0.8752   0.1258 N.am           1 S1                 0.0000
      8 ****        -0.8466   1.1690  -0.0102 C.2            1 S1                 0.0000
      9 ****        -0.3902   2.2913  -0.2294 O.2            1 S1                 0.0000
     10 ****        -0.0874   0.0723   0.1262 N.am           1 S1                 0.0000
     11 ****         1.3711   0.0318   0.0344 C.3            1 S1                 0.0000
     12 ****         1.9747   0.3097   1.4275 C.3            1 S1                 0.0000
     13 ****         3.5060   0.2124   1.4164 C.3            1 S1                 0.0000
     14 ****         3.9621  -1.1523   0.8865 C.3            1 S1                 0.0000
     15 ****         3.3849  -1.4191  -0.5111 C.3            1 S1                 0.0000
     16 ****         1.8413  -1.3349  -0.5300 C.3            1 S1                 0.0000
     17 ****         1.2889  -1.6005  -1.9487 C.3            1 S1                 0.0000
     18 ****         1.5621  -2.9252  -2.3559 O.3            1 S1                 0.0000
     19 ****        -4.5910  -0.7377  -0.2239 H              1 S1                 0.0000
     20 ****        -6.0799  -0.0576   0.4604 H              1 S1                 0.0000
     21 ****        -4.6685  -0.3286   1.5033 H              1 S1                 0.0000
     22 ****        -4.9087   4.3636  -0.3349 H              1 S1                 0.0000
     23 ****        -2.3792  -0.0900   0.3116 H              1 S1                 0.0000
     24 ****        -0.5515  -0.8058   0.3073 H              1 S1                 0.0000
     25 ****         1.7102   0.8111  -0.6513 H              1 S1                 0.0000
     26 ****         1.6777   1.3002   1.7743 H              1 S1                 0.0000
     27 ****         1.5749  -0.4020   2.1513 H              1 S1                 0.0000
     28 ****         3.9202   1.0063   0.7935 H              1 S1                 0.0000
     29 ****         3.8965   0.3710   2.4221 H              1 S1                 0.0000
     30 ****         5.0512  -1.1927   0.8529 H              1 S1                 0.0000
     31 ****         3.6436  -1.9389   1.5718 H              1 S1                 0.0000
     32 ****         3.8008  -0.6987  -1.2168 H              1 S1                 0.0000
     33 ****         3.7142  -2.4024  -0.8483 H              1 S1                 0.0000
     34 ****         1.4564  -2.1146   0.1300 H              1 S1                 0.0000
     35 ****         0.2080  -1.4664  -1.9852 H              1 S1                 0.0000
     36 ****         1.7204  -0.9045  -2.6689 H              1 S1                 0.0000
     37 ****         1.2189  -3.0486  -3.2278 H              1 S1                 0.0000
     38 ****        -6.3501   2.3483   0.1509 LP             1 S1                 0.0000
     39 ****        -2.4108   3.6559  -0.3835 LP             1 S1                 0.0000
     40 ****        -1.0071   3.0731  -0.3200 LP             1 S1                 0.0000
     41 ****         0.5975   2.4211  -0.3168 LP             1 S1                 0.0000
     42 ****         1.1246  -3.5681  -1.7273 LP             1 S1                 0.0000
     43 ****         2.5500  -3.0804  -2.3574 LP             1 S1                 0.0000
@<TRIPOS>BOND
    1    1    2 1     
    2    1   19 1     
    3    1   20 1     
    4    1   21 1     
    5    2    6 1     
    6    2    3 1     
    7    3    4 2     
    8    4    5 1     
    9    4   22 1     
   10    5    6 2     
   11    6    7 1     
   12    7    8 am    
   13    7   23 1     
   14    8    9 2     
   15    8   10 am    
   16   10   11 1     
   17   10   24 1     
   18   11   16 1     
   19   11   12 1     
   20   11   25 1     
   21   12   13 1     
   22   12   26 1     
   23   12   27 1     
   24   13   14 1     
   25   13   28 1     
   26   13   29 1     
   27   14   15 1     
   28   14   30 1     
   29   14   31 1     
   30   15   16 1     
   31   15   32 1     
   32   15   33 1     
   33   16   17 1     
   34   16   34 1     
   35   17   18 1     
   36   17   35 1     
   37   17   36 1     
   38   18   37 1     
   39    3   38 1     
   40    5   39 1     
   41    9   40 1     
   42    9   41 1     
   43   18   42 1     
   44   18   43 1     
@<TRIPOS>SUBSTRUCTURE
      1 S1             1
@<TRIPOS>SET
LONE_PAIRS      STATIC     ATOMS    <user>   **** ""
6 38 39 40 41 42 43
DONOR_HYDROGENS      STATIC     ATOMS    <user>   **** ""
3 23 24 37
ATOM$BLUE        STATIC     ATOMS    COLORGROUP SYSTEM
6 38 39 40 41 42 43
ATOM$RED        STATIC     ATOMS    COLORGROUP SYSTEM
3 23 24 37
