#       Name:                AV-unprocessed.smi:1976
#       Creating user name   scv26
#       Creation time:       Fri Mar 27 10:17:02 2020


#       File generated by GOLD software.
#

@<TRIPOS>MOLECULE
AV-unprocessed.smi:1976
    49    51     1
SMALL
NO_CHARGES


@<TRIPOS>ATOM
      1 ****         0.1118   1.1492  -0.3278 O.2            1 S1                 0.0000
      2 ****         0.8230   0.2148  -0.6998 C.2            1 S1                 0.0000
      3 ****         2.3475   0.3719  -0.7951 C.3            1 S1                 0.0000
      4 ****         2.8690   1.5105  -0.0199 N.am           1 S1                 0.0000
      5 ****         3.1692   2.6879  -0.7326 C.2            1 S1                 0.0000
      6 ****         3.6617   3.7952  -0.1449 C.2            1 S1                 0.0000
      7 ****         3.9223   5.0700  -0.9322 C.3            1 S1                 0.0000
      8 ****         3.7863   6.1479  -0.1595 F              1 S1                 0.0000
      9 ****         5.1647   5.0583  -1.4133 F              1 S1                 0.0000
     10 ****         3.0802   5.1826  -1.9601 F              1 S1                 0.0000
     11 ****         3.8430   3.7364   1.2922 C.2            1 S1                 0.0000
     12 ****         3.5499   2.6221   1.9908 C.2            1 S1                 0.0000
     13 ****         3.0348   1.4187   1.3339 C.2            1 S1                 0.0000
     14 ****         2.7649   0.3931   1.9600 O.2            1 S1                 0.0000
     15 ****         0.3354  -0.9858  -1.0467 N.am           1 S1                 0.0000
     16 ****        -1.0725  -1.3692  -0.9978 C.3            1 S1                 0.0000
     17 ****        -1.4705  -2.3401  -2.1180 C.3            1 S1                 0.0000
     18 ****        -2.4726  -3.3190  -1.4738 C.3            1 S1                 0.0000
     19 ****        -2.6688  -2.8719  -0.0751 N.4            1 S1                 1.0000
     20 ****        -3.9106  -2.0658   0.0849 C.3            1 S1                 0.0000
     21 ****        -3.9986  -1.4055   1.4667 C.3            1 S1                 0.0000
     22 ****        -2.7758  -0.5164   1.7054 C.3            1 S1                 0.0000
     23 ****        -1.5041  -1.3632   1.5963 C.3            1 S1                 0.0000
     24 ****        -1.4165  -2.1575   0.2728 C.3            1 S1                 0.0000
     25 ****         2.8262  -0.5509  -0.4613 H              1 S1                 0.0000
     26 ****         2.6150   0.4665  -1.8485 H              1 S1                 0.0000
     27 ****         2.9650   2.6364  -1.7922 H              1 S1                 0.0000
     28 ****         4.2224   4.6001   1.8180 H              1 S1                 0.0000
     29 ****         3.6980   2.6140   3.0607 H              1 S1                 0.0000
     30 ****         0.9912  -1.6915  -1.3500 H              1 S1                 0.0000
     31 ****        -1.7123  -0.4878  -1.0703 H              1 S1                 0.0000
     32 ****        -1.9104  -1.8064  -2.9613 H              1 S1                 0.0000
     33 ****        -0.6073  -2.8916  -2.4941 H              1 S1                 0.0000
     34 ****        -3.4101  -3.3786  -2.0288 H              1 S1                 0.0000
     35 ****        -2.0450  -4.3222  -1.4576 H              1 S1                 0.0000
     36 ****        -3.9558  -1.2945  -0.6857 H              1 S1                 0.0000
     37 ****        -4.7753  -2.7119  -0.0712 H              1 S1                 0.0000
     38 ****        -4.9101  -0.8113   1.5377 H              1 S1                 0.0000
     39 ****        -4.0635  -2.1697   2.2427 H              1 S1                 0.0000
     40 ****        -2.7520   0.2966   0.9789 H              1 S1                 0.0000
     41 ****        -2.8336  -0.0533   2.6907 H              1 S1                 0.0000
     42 ****        -0.6216  -0.7368   1.7277 H              1 S1                 0.0000
     43 ****        -1.4901  -2.0700   2.4271 H              1 S1                 0.0000
     44 ****        -0.6491  -2.9231   0.4054 H              1 S1                 0.0000
     45 ****        -2.7574  -3.6797   0.5248 H              1 S1                 0.0000
     46 ****         0.5259   2.0259  -0.0826 LP             1 S1                 0.0000
     47 ****        -0.8795   1.0312  -0.2710 LP             1 S1                 0.0000
     48 ****         2.4117  -0.4086   1.4779 LP             1 S1                 0.0000
     49 ****         2.8990   0.3621   2.9505 LP             1 S1                 0.0000
@<TRIPOS>BOND
    1    1    2 2     
    2    2    3 1     
    3    2   15 am    
    4    3    4 1     
    5    3   25 1     
    6    3   26 1     
    7    4   13 am    
    8    4    5 1     
    9    5    6 2     
   10    5   27 1     
   11    6    7 1     
   12    6   11 1     
   13    7    8 1     
   14    7    9 1     
   15    7   10 1     
   16   11   12 2     
   17   11   28 1     
   18   12   13 1     
   19   12   29 1     
   20   13   14 2     
   21   15   16 1     
   22   15   30 1     
   23   16   24 1     
   24   16   17 1     
   25   16   31 1     
   26   17   18 1     
   27   17   32 1     
   28   17   33 1     
   29   18   19 1     
   30   18   34 1     
   31   18   35 1     
   32   19   24 1     
   33   19   20 1     
   34   19   45 1     
   35   20   21 1     
   36   20   36 1     
   37   20   37 1     
   38   21   22 1     
   39   21   38 1     
   40   21   39 1     
   41   22   23 1     
   42   22   40 1     
   43   22   41 1     
   44   23   24 1     
   45   23   42 1     
   46   23   43 1     
   47   24   44 1     
   48    1   46 1     
   49    1   47 1     
   50   14   48 1     
   51   14   49 1     
@<TRIPOS>SUBSTRUCTURE
      1 S1             1
@<TRIPOS>SET
LONE_PAIRS      STATIC     ATOMS    <user>   **** ""
4 46 47 48 49
DONOR_HYDROGENS      STATIC     ATOMS    <user>   **** ""
2 30 45
ATOM$BLUE        STATIC     ATOMS    COLORGROUP SYSTEM
4 46 47 48 49
ATOM$RED        STATIC     ATOMS    COLORGROUP SYSTEM
2 30 45
