#       Name:                AV-unprocessed.smi:623
#       Creating user name   scv26
#       Creation time:       Fri Mar 27 00:01:40 2020


#       File generated by GOLD software.
#

@<TRIPOS>MOLECULE
AV-unprocessed.smi:623
    51    53     1
SMALL
NO_CHARGES


@<TRIPOS>ATOM
      1 ****        -3.7134   0.6744  -0.5628 C.3            1 S1                 0.0000
      2 ****        -2.9938  -0.7014  -0.6388 C.3            1 S1                 0.0000
      3 ****        -4.0624  -1.7503  -0.2197 C.3            1 S1                 0.0000
      4 ****        -2.3245  -0.9937  -1.9966 C.3            1 S1                 0.0000
      5 ****        -1.5843  -2.3290  -1.7592 C.3            1 S1                 0.0000
      6 ****        -1.1331  -2.2060  -0.2903 C.3            1 S1                 0.0000
      7 ****        -1.6315  -0.7875   0.1028 C.3            1 S1                 0.0000
      8 ****        -1.6879  -0.5691   1.6247 C.3            1 S1                 0.0000
      9 ****        -0.7594   0.2659  -0.6538 C.3            1 S1                 0.0000
     10 ****         0.6834   0.0445  -0.5558 N.am           1 S1                 0.0000
     11 ****         1.4949   0.5885   0.3629 C.2            1 S1                 0.0000
     12 ****         1.0996   1.3418   1.2537 O.2            1 S1                 0.0000
     13 ****         2.9735   0.1883   0.2737 C.3            1 S1                 0.0000
     14 ****         3.8832   1.2426   0.7497 N.am           1 S1                 0.0000
     15 ****         4.3602   1.1487   2.0690 C.2            1 S1                 0.0000
     16 ****         5.1924   2.0700   2.5907 C.2            1 S1                 0.0000
     17 ****         5.5990   3.1883   1.7489 C.2            1 S1                 0.0000
     18 ****         6.3625   4.0361   2.2071 O.2            1 S1                 0.0000
     19 ****         5.1051   3.2378   0.4771 N.pl3          1 S1                -1.0000
     20 ****         4.2570   2.2948  -0.0394 C.2            1 S1                 0.0000
     21 ****         3.8204   2.3598  -1.1893 O.2            1 S1                 0.0000
     22 ****        -1.2444   0.1040  -2.1128 C.3            1 S1                 0.0000
     23 ****        -4.5797   0.6899  -1.2248 H              1 S1                 0.0000
     24 ****        -3.1042   1.5328  -0.8373 H              1 S1                 0.0000
     25 ****        -4.0787   0.8644   0.4468 H              1 S1                 0.0000
     26 ****        -3.7255  -2.7843  -0.2275 H              1 S1                 0.0000
     27 ****        -4.9240  -1.7051  -0.8866 H              1 S1                 0.0000
     28 ****        -4.4285  -1.5500   0.7875 H              1 S1                 0.0000
     29 ****        -3.0039  -1.0226  -2.8491 H              1 S1                 0.0000
     30 ****        -2.2443  -3.1854  -1.9001 H              1 S1                 0.0000
     31 ****        -0.7407  -2.4600  -2.4377 H              1 S1                 0.0000
     32 ****        -1.5983  -2.9766   0.3247 H              1 S1                 0.0000
     33 ****        -0.0587  -2.3455  -0.1742 H              1 S1                 0.0000
     34 ****        -0.7032  -0.6926   2.0753 H              1 S1                 0.0000
     35 ****        -2.3569  -1.2830   2.1049 H              1 S1                 0.0000
     36 ****        -2.0389   0.4334   1.8696 H              1 S1                 0.0000
     37 ****        -0.9856   1.2759  -0.3083 H              1 S1                 0.0000
     38 ****         1.0970  -0.5657  -1.2455 H              1 S1                 0.0000
     39 ****         3.1118  -0.7247   0.8543 H              1 S1                 0.0000
     40 ****         3.2224  -0.0857  -0.7534 H              1 S1                 0.0000
     41 ****         4.0058   0.2942   2.6266 H              1 S1                 0.0000
     42 ****         5.5473   1.9855   3.6071 H              1 S1                 0.0000
     43 ****        -0.4468  -0.1819  -2.8004 H              1 S1                 0.0000
     44 ****        -1.6623   1.0364  -2.4929 H              1 S1                 0.0000
     45 ****         0.1293   1.5754   1.3170 LP             1 S1                 0.0000
     46 ****         1.7490   1.7199   1.9135 LP             1 S1                 0.0000
     47 ****         6.6963   3.9532   3.1461 LP             1 S1                 0.0000
     48 ****         6.6497   4.8087   1.6408 LP             1 S1                 0.0000
     49 ****         5.3767   4.0023  -0.1076 LP             1 S1                 0.0000
     50 ****         3.2038   1.6505  -1.5309 LP             1 S1                 0.0000
     51 ****         4.0826   3.1219  -1.7814 LP             1 S1                 0.0000
@<TRIPOS>BOND
    1    1    2 1     
    2    1   23 1     
    3    1   24 1     
    4    1   25 1     
    5    2    7 1     
    6    2    3 1     
    7    2    4 1     
    8    3   26 1     
    9    3   27 1     
   10    3   28 1     
   11    4   22 1     
   12    4    5 1     
   13    4   29 1     
   14    5    6 1     
   15    5   30 1     
   16    5   31 1     
   17    6    7 1     
   18    6   32 1     
   19    6   33 1     
   20    7    8 1     
   21    7    9 1     
   22    8   34 1     
   23    8   35 1     
   24    8   36 1     
   25    9   10 1     
   26    9   22 1     
   27    9   37 1     
   28   10   11 am    
   29   10   38 1     
   30   11   12 2     
   31   11   13 1     
   32   13   14 1     
   33   13   39 1     
   34   13   40 1     
   35   14   20 am    
   36   14   15 1     
   37   15   16 2     
   38   15   41 1     
   39   16   17 1     
   40   16   42 1     
   41   17   18 2     
   42   17   19 1     
   43   19   20 1     
   44   20   21 2     
   45   22   43 1     
   46   22   44 1     
   47   12   45 1     
   48   12   46 1     
   49   18   47 1     
   50   18   48 1     
   51   19   49 1     
   52   21   50 1     
   53   21   51 1     
@<TRIPOS>SUBSTRUCTURE
      1 S1             1
@<TRIPOS>SET
LONE_PAIRS      STATIC     ATOMS    <user>   **** ""
7 45 46 47 48 49 50 51
DONOR_HYDROGENS      STATIC     ATOMS    <user>   **** ""
1 38
ATOM$BLUE        STATIC     ATOMS    COLORGROUP SYSTEM
7 45 46 47 48 49 50 51
ATOM$RED        STATIC     ATOMS    COLORGROUP SYSTEM
1 38
