AV-unprocessed.smi:372|AV-procd|sdf|2444|dock9
  -GOLD-   2262022383D 1   1.00000     0.00000
 Structure written by MMmdl.
 23 24  0  0  0  0  0  0  0  0  1 V2000
  150.3919  139.6686  158.6691 C   0  0  0  0  0  0  0  0  0  0  0  0
  151.1446  140.4395  157.5676 C   0  0  2  0  0  0  0  0  0  0  0  0
  151.5793  141.8372  158.0425 C   0  0  0  0  0  0  0  0  0  0  0  0
  152.4712  142.0135  159.1295 C   0  0  0  0  0  0  0  0  0  0  0  0
  152.8347  143.3204  159.5074 C   0  0  0  0  0  0  0  0  0  0  0  0
  152.3030  144.4084  158.7915 C   0  0  0  0  0  0  0  0  0  0  0  0
  151.4293  144.1390  157.7214 C   0  0  0  0  0  0  0  0  0  0  0  0
  151.0770  142.8899  157.3511 N   0  0  0  0  0  0  0  0  0  0  0  0
  150.3400  140.4711  156.3519 N   0  0  0  0  0  0  0  0  0  0  0  0
  150.9447  139.9003  155.3024 C   0  0  0  0  0  0  0  0  0  0  0  0
  150.4956  139.8275  154.1611 O   0  0  0  0  0  0  0  0  0  0  0  0
  152.1153  139.4129  155.7205 N   0  0  0  0  0  0  0  0  0  0  0  0
  152.3254  139.6374  157.0164 C   0  0  0  0  0  0  0  0  0  0  0  0
  153.2920  139.2537  157.6739 O   0  0  0  0  0  0  0  0  0  0  0  0
  150.9981  139.5623  159.5696 H   0  0  0  0  0  0  0  0  0  0  0  0
  150.1152  138.6654  158.3417 H   0  0  0  0  0  0  0  0  0  0  0  0
  149.4746  140.1867  158.9504 H   0  0  0  0  0  0  0  0  0  0  0  0
  152.8797  141.1756  159.6739 H   0  0  0  0  0  0  0  0  0  0  0  0
  153.5120  143.4849  160.3325 H   0  0  0  0  0  0  0  0  0  0  0  0
  152.5602  145.4238  159.0545 H   0  0  0  0  0  0  0  0  0  0  0  0
  151.0032  144.9474  157.1462 H   0  0  0  0  0  0  0  0  0  0  0  0
  149.4363  140.9193  156.3105 H   0  0  0  0  0  0  0  0  0  0  0  0
  152.7592  138.9116  155.1261 H   0  0  0  0  0  0  0  0  0  0  0  0
  1  2  1  0  0  0  0
  1 15  1  0  0  0  0
  1 16  1  0  0  0  0
  1 17  1  0  0  0  0
  2 13  1  0  0  0  0
  2  3  1  0  0  0  0
  2  9  1  0  0  0  0
  3  8  1  0  0  0  0
  3  4  2  0  0  0  0
  4  5  1  0  0  0  0
  4 18  1  0  0  0  0
  5  6  2  0  0  0  0
  5 19  1  0  0  0  0
  6  7  1  0  0  0  0
  6 20  1  0  0  0  0
  7  8  2  0  0  0  0
  7 21  1  0  0  0  0
  9 10  1  0  0  0  0
  9 22  1  0  0  0  0
 10 11  2  0  0  0  0
 10 12  1  0  0  0  0
 12 13  1  0  0  0  0
 12 23  1  0  0  0  0
 13 14  2  0  0  0  0
M  END
> <s_m_source_file>
AV-unprocessed.smi

> <i_m_source_file_index>
372

> <i_lp_mmshare_version>
43012

> <i_f3d_flags>
0

> <s_epik_input>
Tz1DMVtOSF1DKD1PKVtOSF1bQ0BAXTEoW0NIM10pYzJbY0hdW2NIXVtjSF1bY0hdbjI=

> <s_epik_cmdline>
J2VwaWtfcHl0aG9uJywgJy1waCcsICc3LjAnLCAnLXRuJywgJzgnLCAnLW1hJywgJzIwMCcsICctbWV0YWxfYmluZGluZycsICctaW1hZScsICc8aW5maWxlLm1hZT4nLCAnLW9tYWUnLCAnPG91dGZpbGUubWFlPic=

> <r_lp_tautomer_probability>
1

> <r_epik_Ionization_Penalty>
0.0293563

> <r_epik_Ionization_Penalty_Charging>
0

> <r_epik_Ionization_Penalty_Neutral>
0.0293563

> <r_epik_State_Penalty>
0.034944

> <r_epik_Charging_Adjusted_Penalty>
0.034944

> <i_epik_Tot_Q>
0

> <i_epik_Tot_abs_Q>
0

> <r_epik_Metal_State_Penalty>
0.534399

> <b_epik_Metal_Only>
0

> <s_lp_Force_Field>
OPLS_2005

> <r_lp_Energy>
17.2904

> <b_lp_Chiralities_Consistent>
1

> <s_lp_Variant>
AV-unprocessed.smi:372-2

> <Gold.Version>
5.8.1

> <Gold.Id.Protein>
6NUR|6NUR_protein|mol2

> <Gold.PLP.Fitness>
34.2655

> <Gold.PLP.PLP>
-26.6003

> <Gold.PLP.part.hbond>
-2.0000

> <Gold.PLP.part.metal>
0.0000

> <Gold.PLP.part.buried>
-1.7454

> <Gold.PLP.part.nonpolar>
-23.4083

> <Gold.PLP.part.repulsive>
1.0093

> <Gold.PLP.ligand.clash>
0.0000

> <Gold.PLP.ligand.torsion>
0.0597

> <Gold.PLP.Chemscore.Hbond>
1.6500

> <Gold.PLP.Chemscore.CHOScore>
0.9058

> <Gold.PLP.Chemscore.Metal>
0.0000

> <Gold.Chemscore.Hbonds>
donor molecule, donor type, donor heavy atom, donor atom, acceptor molecule, acceptor atom, score
      P1  H  7989  7998       L1    11  0.80
      P1  H  7997  8009       L1    14  0.80
      L1  C     7    21       P1  8028  0.86

> <Gold.PLP.Chemscore.Internal.Correction>
0.1171

> <Gold.Rescore>
     Score         DG    S(hbond)    S(metal)    S(lipo)     H(rot)  DE(clash)    DE(int)     intcor
     14.20     -14.28       1.00        0.00      68.54       1.00       0.01       0.06       ----

> <Gold.Chemscore.Fitness>
14.2018

> <Gold.Chemscore.DG>
-14.2763

> <Gold.Chemscore.ZeroCoef>
-5.4800

> <Gold.Chemscore.Hbond>
0.9991

> <Gold.Chemscore.Metal>
0.0000

> <Gold.Chemscore.Lipo>
68.5422

> <Gold.Chemscore.Internal_Hbond>
0.0000

> <Gold.Chemscore.DEClash>
0.0107

> <Gold.Chemscore.DEInternal>
0.0637

> <Gold.Chemscore.Rot>
1.0000

> <Gold.Chemscore.Internal.Correction>
   9.000000E+99

> <Gold.Chemscore.Hbonds>
donor molecule, donor type, donor heavy atom, donor atom, acceptor molecule, acceptor atom, score
      P1  H  7989  7998       L1    11  0.12
      P1  H  7997  8009       L1    14  0.12

> <Gold.Chemscore.Hbond.Weighted>
-3.3368

> <Gold.Chemscore.Metal.Weighted>
-0.0000

> <Gold.Chemscore.Lipo.Weighted>
-8.0194

> <Gold.Chemscore.Internal_Hbond.Weighted>
0.0000

> <Gold.Chemscore.DEClash.Weighted>
0.0107

> <Gold.Chemscore.DEInternal.Weighted>
0.0637

> <Gold.Chemscore.Rot.Weighted>
2.5600

> <Gold.Chemscore.Internal.Correction.Weighted>
   9.000000E+99

> <Gold.Protein.RotatedTorsions>
[ 6907 6896 6895 6894 ] final   72.32 input  -60.11 | X-H torsion
[ 7974 7965 7964 7962 ] final  178.97 input  175.53 | X-H torsion
[ 8008 7997 7996 7995 ] final  171.62 input   59.86 | X-H torsion
[ 10167 10162 10161 10158 ] final    3.02 input  -65.29 | X-H torsion
[ 10718 10713 10712 10709 ] final  -62.67 input   66.30 | X-H torsion
[ 10763 10752 10751 10750 ] final -118.65 input  -60.55 | X-H torsion
[ 11005 11000 10999 10996 ] final  122.58 input  -57.11 | X-H torsion

> <Gold.Protein.ActiveResidues>
 VAL166  LYS551  ARG553  GLY616  TRP617  ASP618  TYR619  PRO620  LYS621  CYS622 
 ASP623  PHE694  ASN695  SER759  ASP760  ASP761  ALA762  ILE779  LEU786  VAL792 
 PHE793  MET794  SER795  GLU796  ALA797  LYS798  CYS799  TRP800  GLU811  SER814 

> <Gold.Protein.RotatedAtoms>
  152.4861  134.4589  159.9598 H   0  0  0  0  0  0  0  0  0  0  0  0  # atno 6907 bound_to 6896
  151.4585  133.3593  159.2813 H   0  0  0  0  0  0  0  0  0  0  0  0  # atno 6908 bound_to 6896
  150.8972  134.8407  159.7395 H   0  0  0  0  0  0  0  0  0  0  0  0  # atno 6909 bound_to 6896
  144.7150  140.0478  143.6436 H   0  0  0  0  0  0  0  0  0  0  0  0  # atno 7974 bound_to 7965
  156.1253  140.1507  156.9145 H   0  0  0  0  0  0  0  0  0  0  0  0  # atno 8008 bound_to 7997
  154.4867  140.0863  156.7543 H   0  0  0  0  0  0  0  0  0  0  0  0  # atno 8009 bound_to 7997
  155.4354  140.3429  155.4286 H   0  0  0  0  0  0  0  0  0  0  0  0  # atno 8010 bound_to 7997
  140.6607  143.7312  150.7733 H   0  0  0  0  0  0  0  0  0  0  0  0  # atno 10167 bound_to 10162
  156.0840  130.4211  150.1167 H   0  0  0  0  0  0  0  0  0  0  0  0  # atno 10718 bound_to 10713
  154.8594  135.4266  154.2172 H   0  0  0  0  0  0  0  0  0  0  0  0  # atno 10763 bound_to 10752
  153.3185  135.6980  153.7057 H   0  0  0  0  0  0  0  0  0  0  0  0  # atno 10764 bound_to 10752
  153.6121  135.3517  155.2956 H   0  0  0  0  0  0  0  0  0  0  0  0  # atno 10765 bound_to 10752
  139.9275  134.9641  156.8131 H   0  0  0  0  0  0  0  0  0  0  0  0  # atno 11005 bound_to 11000
  145.9970  139.3060  143.0951 LP  0  0  0  0  0  0  0  0  0  0  0  0  # atno 17320 bound_to 7965
  145.8838  140.9346  143.0587 LP  0  0  0  0  0  0  0  0  0  0  0  0  # atno 17321 bound_to 7965
  140.0980  143.4814  152.2441 LP  0  0  0  0  0  0  0  0  0  0  0  0  # atno 17342 bound_to 10162
  139.5840  144.7523  151.3568 LP  0  0  0  0  0  0  0  0  0  0  0  0  # atno 17343 bound_to 10162
  156.9192  130.9677  151.3551 LP  0  0  0  0  0  0  0  0  0  0  0  0  # atno 17370 bound_to 10713
  157.5968  130.8483  149.8741 LP  0  0  0  0  0  0  0  0  0  0  0  0  # atno 17371 bound_to 10713
  140.6296  133.9918  155.7655 LP  0  0  0  0  0  0  0  0  0  0  0  0  # atno 17394 bound_to 11000
  141.0842  134.0016  157.3339 LP  0  0  0  0  0  0  0  0  0  0  0  0  # atno 17395 bound_to 11000

$$$$
