AV-unprocessed.smi:1672|AV-procd|sdf|6706|dock7
  -GOLD-   22720 7443D 1   1.00000     0.00000
 Structure written by MMmdl.
 49 51  0  0  0  0  0  0  0  0  3 V2000
  145.5043  131.9282  152.0538 C   0  0  0  0  0  0  0  0  0  0  0  0
  145.1653  133.4178  152.2067 C   0  0  2  0  0  0  0  0  0  0  0  0
  145.7076  134.2486  151.0316 C   0  0  0  0  0  0  0  0  0  0  0  0
  145.3938  135.7436  151.2114 C   0  0  0  0  0  0  0  0  0  0  0  0
  145.9339  136.2536  152.4977 N   0  3  1  0  0  0  0  0  0  0  0  0
  145.7771  137.7249  152.6334 C   0  0  0  0  0  0  0  0  0  0  0  0
  146.8367  138.3512  153.5616 C   0  0  1  0  0  0  0  0  0  0  0  0
  147.7551  137.3453  153.9394 O   0  0  0  0  0  0  0  0  0  0  0  0
  147.5969  139.4984  152.8665 C   0  0  0  0  0  0  0  0  0  0  0  0
  148.1715  140.4680  153.8143 N   0  0  0  0  0  0  0  0  0  0  0  0
  147.7248  141.6942  154.2191 C   0  0  0  0  0  0  0  0  0  0  0  0
  146.4853  142.4003  153.7760 C   0  0  0  0  0  0  0  0  0  0  0  0
  145.3274  141.8952  154.4024 O   0  0  0  0  0  0  0  0  0  0  0  0
  148.6338  142.1797  155.1112 N   0  3  0  0  0  0  0  0  0  0  0  0
  149.6648  141.2567  155.2875 C   0  0  0  0  0  0  0  0  0  0  0  0
  150.8015  141.3021  156.0886 C   0  0  0  0  0  0  0  0  0  0  0  0
  151.6568  140.1818  156.0372 C   0  0  0  0  0  0  0  0  0  0  0  0
  151.3683  139.0749  155.2125 C   0  0  0  0  0  0  0  0  0  0  0  0
  150.2130  139.0411  154.4037 C   0  0  0  0  0  0  0  0  0  0  0  0
  149.3729  140.1531  154.4602 C   0  0  0  0  0  0  0  0  0  0  0  0
  145.3915  135.4927  153.6547 C   0  0  0  0  0  0  0  0  0  0  0  0
  145.7069  133.9929  153.5266 C   0  0  0  0  0  0  0  0  0  0  0  0
  146.5824  131.7647  152.0365 H   0  0  0  0  0  0  0  0  0  0  0  0
  145.0924  131.5254  151.1279 H   0  0  0  0  0  0  0  0  0  0  0  0
  145.0930  131.3446  152.8781 H   0  0  0  0  0  0  0  0  0  0  0  0
  144.0782  133.5113  152.2159 H   0  0  0  0  0  0  0  0  0  0  0  0
  146.7868  134.1115  150.9470 H   0  0  0  0  0  0  0  0  0  0  0  0
  145.2776  133.8945  150.0938 H   0  0  0  0  0  0  0  0  0  0  0  0
  145.8305  136.2997  150.3808 H   0  0  0  0  0  0  0  0  0  0  0  0
  144.3161  135.9115  151.1743 H   0  0  0  0  0  0  0  0  0  0  0  0
  145.8596  138.1967  151.6527 H   0  0  0  0  0  0  0  0  0  0  0  0
  144.7713  137.9480  152.9927 H   0  0  0  0  0  0  0  0  0  0  0  0
  146.3693  138.7382  154.4660 H   0  0  0  0  0  0  0  0  0  0  0  0
  148.2172  137.0523  153.1682 H   0  0  0  0  0  0  0  0  0  0  0  0
  148.4084  139.1004  152.2570 H   0  0  0  0  0  0  0  0  0  0  0  0
  146.9418  140.0386  152.1821 H   0  0  0  0  0  0  0  0  0  0  0  0
  146.5716  143.4669  153.9816 H   0  0  0  0  0  0  0  0  0  0  0  0
  146.3764  142.2936  152.6964 H   0  0  0  0  0  0  0  0  0  0  0  0
  144.9365  141.2473  153.8355 H   0  0  0  0  0  0  0  0  0  0  0  0
  151.0243  142.1482  156.7222 H   0  0  0  0  0  0  0  0  0  0  0  0
  152.5510  140.1709  156.6435 H   0  0  0  0  0  0  0  0  0  0  0  0
  152.0472  138.2343  155.2005 H   0  0  0  0  0  0  0  0  0  0  0  0
  150.0017  138.1876  153.7771 H   0  0  0  0  0  0  0  0  0  0  0  0
  145.8156  135.8621  154.5874 H   0  0  0  0  0  0  0  0  0  0  0  0
  144.3128  135.6444  153.7185 H   0  0  0  0  0  0  0  0  0  0  0  0
  145.2771  133.4547  154.3722 H   0  0  0  0  0  0  0  0  0  0  0  0
  146.7863  133.8428  153.5819 H   0  0  0  0  0  0  0  0  0  0  0  0
  146.9292  136.0811  152.4692 H   0  0  0  0  0  0  0  0  0  0  0  0
  148.5510  143.0802  155.5659 H   0  0  0  0  0  0  0  0  0  0  0  0
  1  2  1  0  0  0  0
  1 23  1  0  0  0  0
  1 24  1  0  0  0  0
  1 25  1  0  0  0  0
  2 22  1  0  0  0  0
  2  3  1  0  0  0  0
  2 26  1  0  0  0  0
  3  4  1  0  0  0  0
  3 27  1  0  0  0  0
  3 28  1  0  0  0  0
  4  5  1  0  0  0  0
  4 29  1  0  0  0  0
  4 30  1  0  0  0  0
  5  6  1  0  0  0  0
  5 21  1  0  0  0  0
  5 48  1  0  0  0  0
  6  7  1  0  0  0  0
  6 31  1  0  0  0  0
  6 32  1  0  0  0  0
  7  8  1  0  0  0  0
  7  9  1  0  0  0  0
  7 33  1  0  0  0  0
  8 34  1  0  0  0  0
  9 10  1  0  0  0  0
  9 35  1  0  0  0  0
  9 36  1  0  0  0  0
 10 20  1  0  0  0  0
 10 11  1  0  0  0  0
 11 12  1  0  0  0  0
 11 14  2  0  0  0  0
 12 13  1  0  0  0  0
 12 37  1  0  0  0  0
 12 38  1  0  0  0  0
 13 39  1  0  0  0  0
 14 15  1  0  0  0  0
 14 49  1  0  0  0  0
 15 20  2  0  0  0  0
 15 16  1  0  0  0  0
 16 17  2  0  0  0  0
 16 40  1  0  0  0  0
 17 18  1  0  0  0  0
 17 41  1  0  0  0  0
 18 19  2  0  0  0  0
 18 42  1  0  0  0  0
 19 20  1  0  0  0  0
 19 43  1  0  0  0  0
 21 22  1  0  0  0  0
 21 44  1  0  0  0  0
 21 45  1  0  0  0  0
 22 46  1  0  0  0  0
 22 47  1  0  0  0  0
M  CHG  1   5   1
M  CHG  1  14   1
M  END
> <s_m_source_file>
AV-unprocessed.smi

> <i_m_source_file_index>
1672

> <i_lp_mmshare_version>
43012

> <i_f3d_flags>
0

> <s_epik_input>
W0NIM11bQ0hdMVtDSDJdW0NIMl1OKFtDSDJdW0NIMl0xKVtDSDJdW0NASF0oW09IXSlbQ0gyXW4oYyhuMilbQ0gyXVtPSF0pYyhjMjMpW2NIXVtjSF1bY0hdW2NIXTM=

> <s_epik_cmdline>
J2VwaWtfcHl0aG9uJywgJy1waCcsICc3LjAnLCAnLXRuJywgJzgnLCAnLW1hJywgJzIwMCcsICctbWV0YWxfYmluZGluZycsICctaW1hZScsICc8aW5maWxlLm1hZT4nLCAnLW9tYWUnLCAnPG91dGZpbGUubWFlPic=

> <r_epik_Ionization_Penalty>
1.51642

> <r_epik_Ionization_Penalty_Charging>
1.51557

> <r_epik_Ionization_Penalty_Neutral>
0.000856474

> <r_epik_State_Penalty>
1.6048

> <r_epik_Charging_Adjusted_Penalty>
3.12037

> <i_epik_Tot_Q>
2

> <i_epik_Tot_abs_Q>
2

> <r_epik_Metal_State_Penalty>
5.65673

> <b_epik_Metal_Only>
0

> <s_lp_Force_Field>
OPLS_2005

> <r_lp_Energy>
28.534

> <b_lp_Chiralities_Consistent>
1

> <s_lp_Variant>
AV-unprocessed.smi:1672-6

> <Gold.Version>
5.8.1

> <Gold.Id.Protein>
6NUR|6NUR_protein|mol2

> <Gold.PLP.Fitness>
58.4077

> <Gold.PLP.PLP>
-43.9433

> <Gold.PLP.part.hbond>
-3.8893

> <Gold.PLP.part.metal>
0.0000

> <Gold.PLP.part.buried>
-0.4065

> <Gold.PLP.part.nonpolar>
-40.0675

> <Gold.PLP.part.repulsive>
0.2014

> <Gold.PLP.ligand.clash>
0.0000

> <Gold.PLP.ligand.torsion>
1.7606

> <Gold.PLP.Chemscore.Hbond>
5.9840

> <Gold.PLP.Chemscore.CHOScore>
0.0000

> <Gold.PLP.Chemscore.Metal>
0.0000

> <Gold.Chemscore.Hbonds>
donor molecule, donor type, donor heavy atom, donor atom, acceptor molecule, acceptor atom, score
      L1  H     5    48       P1  7948  1.62
      L1  H     8    34       P1  7948  1.00
      L1  H    13    39       P1 10175  1.00
      L1  H    14    49       P1  8028  2.00

> <Gold.PLP.Chemscore.Internal.Correction>
0.0336

> <Gold.Rescore>
     Score         DG    S(hbond)    S(metal)    S(lipo)     H(rot)  DE(clash)    DE(int)     intcor
     17.71     -21.32       3.48        0.00     100.63       2.96       1.82       1.79       ----

> <Gold.Chemscore.Fitness>
17.7092

> <Gold.Chemscore.DG>
-21.3204

> <Gold.Chemscore.ZeroCoef>
-5.4800

> <Gold.Chemscore.Hbond>
3.4828

> <Gold.Chemscore.Metal>
0.0000

> <Gold.Chemscore.Lipo>
100.6316

> <Gold.Chemscore.Internal_Hbond>
0.0000

> <Gold.Chemscore.DEClash>
1.8205

> <Gold.Chemscore.DEInternal>
1.7907

> <Gold.Chemscore.Rot>
2.9555

> <Gold.Chemscore.Internal.Correction>
   9.000000E+99

> <Gold.Chemscore.Hbonds>
donor molecule, donor type, donor heavy atom, donor atom, acceptor molecule, acceptor atom, score
      L1  H     5    48       P1  7948  0.80
      L1  H     8    34       P1  7948  1.00
      L1  H    13    39       P1 10175  0.48
      L1  H    14    49       P1  8028  0.96

> <Gold.Chemscore.Hbond.Weighted>
-11.6325

> <Gold.Chemscore.Metal.Weighted>
-0.0000

> <Gold.Chemscore.Lipo.Weighted>
-11.7739

> <Gold.Chemscore.Internal_Hbond.Weighted>
0.0000

> <Gold.Chemscore.DEClash.Weighted>
1.8205

> <Gold.Chemscore.DEInternal.Weighted>
1.7907

> <Gold.Chemscore.Rot.Weighted>
7.5660

> <Gold.Chemscore.Internal.Correction.Weighted>
   9.000000E+99

> <Gold.Protein.RotatedTorsions>
[ 6907 6896 6895 6894 ] final -113.68 input  -60.11 | X-H torsion
[ 7974 7965 7964 7962 ] final  -95.52 input  175.53 | X-H torsion
[ 8008 7997 7996 7995 ] final  146.24 input   59.86 | X-H torsion
[ 10167 10162 10161 10158 ] final -115.62 input  -65.29 | X-H torsion
[ 10718 10713 10712 10709 ] final  169.43 input   66.30 | X-H torsion
[ 10763 10752 10751 10750 ] final  133.99 input  -60.55 | X-H torsion
[ 11005 11000 10999 10996 ] final  -70.15 input  -57.11 | X-H torsion

> <Gold.Protein.ActiveResidues>
 VAL166  LYS551  ARG553  GLY616  TRP617  ASP618  TYR619  PRO620  LYS621  CYS622 
 ASP623  PHE694  ASN695  SER759  ASP760  ASP761  ALA762  ILE779  LEU786  VAL792 
 PHE793  MET794  SER795  GLU796  ALA797  LYS798  CYS799  TRP800  GLU811  SER814 

> <Gold.Protein.RotatedAtoms>
  150.7847  133.8909  159.3312 H   0  0  0  0  0  0  0  0  0  0  0  0  # atno 6907 bound_to 6896
  151.6763  135.0967  160.0217 H   0  0  0  0  0  0  0  0  0  0  0  0  # atno 6908 bound_to 6896
  152.3908  133.6637  159.6271 H   0  0  0  0  0  0  0  0  0  0  0  0  # atno 6909 bound_to 6896
  145.3589  140.9488  143.2512 H   0  0  0  0  0  0  0  0  0  0  0  0  # atno 7974 bound_to 7965
  156.2861  140.2187  156.5345 H   0  0  0  0  0  0  0  0  0  0  0  0  # atno 8008 bound_to 7997
  154.7421  140.0487  157.0842 H   0  0  0  0  0  0  0  0  0  0  0  0  # atno 8009 bound_to 7997
  155.0217  140.3125  155.4794 H   0  0  0  0  0  0  0  0  0  0  0  0  # atno 8010 bound_to 7997
  140.0881  143.4725  152.1886 H   0  0  0  0  0  0  0  0  0  0  0  0  # atno 10167 bound_to 10162
  157.0228  131.0237  151.2769 H   0  0  0  0  0  0  0  0  0  0  0  0  # atno 10718 bound_to 10713
  153.8162  135.3122  155.3406 H   0  0  0  0  0  0  0  0  0  0  0  0  # atno 10763 bound_to 10752
  154.8031  135.4714  154.0328 H   0  0  0  0  0  0  0  0  0  0  0  0  # atno 10764 bound_to 10752
  153.1722  135.6879  153.8681 H   0  0  0  0  0  0  0  0  0  0  0  0  # atno 10765 bound_to 10752
  141.1568  133.6782  156.6709 H   0  0  0  0  0  0  0  0  0  0  0  0  # atno 11005 bound_to 11000
  144.8661  139.5106  143.6789 LP  0  0  0  0  0  0  0  0  0  0  0  0  # atno 17320 bound_to 7965
  146.2936  139.7210  142.9143 LP  0  0  0  0  0  0  0  0  0  0  0  0  # atno 17321 bound_to 7965
  139.5740  144.7478  151.3814 LP  0  0  0  0  0  0  0  0  0  0  0  0  # atno 17342 bound_to 10162
  140.7043  143.7554  150.7455 LP  0  0  0  0  0  0  0  0  0  0  0  0  # atno 17343 bound_to 10162
  157.5237  130.8014  149.7837 LP  0  0  0  0  0  0  0  0  0  0  0  0  # atno 17370 bound_to 10713
  156.0096  130.3839  150.2310 LP  0  0  0  0  0  0  0  0  0  0  0  0  # atno 17371 bound_to 10713
  140.3176  134.8035  157.4226 LP  0  0  0  0  0  0  0  0  0  0  0  0  # atno 17394 bound_to 11000
  140.1125  134.5327  155.8254 LP  0  0  0  0  0  0  0  0  0  0  0  0  # atno 17395 bound_to 11000

$$$$
