AV-unprocessed.smi:2217|AV-procd|sdf|8974|dock3
  -GOLD-   2272012183D 1   1.00000     0.00000
 Structure written by MMmdl.
 45 48  0  0  0  0  0  0  0  0  1 V2000
  145.9107  134.8614  163.3773 C   0  0  0  0  0  0  0  0  0  0  0  0
  146.6366  135.3865  162.1566 C   0  0  0  0  0  0  0  0  0  0  0  0
  146.9546  134.5416  161.0765 C   0  0  0  0  0  0  0  0  0  0  0  0
  147.6330  135.0836  159.9677 C   0  0  0  0  0  0  0  0  0  0  0  0
  147.9770  136.4544  159.9597 C   0  0  0  0  0  0  0  0  0  0  0  0
  148.6697  136.8835  158.7887 N   0  0  0  0  0  0  0  0  0  0  0  0
  148.7602  138.0956  158.2004 C   0  0  0  0  0  0  0  0  0  0  0  0
  148.1873  139.0773  158.6700 O   0  0  0  0  0  0  0  0  0  0  0  0
  149.5073  138.1573  157.0885 N   0  0  0  0  0  0  0  0  0  0  0  0
  149.7179  139.3578  156.2746 C   0  0  2  0  0  0  0  0  0  0  0  0
  150.6520  139.1400  155.0804 C   0  0  2  0  0  0  0  0  0  0  0  0
  151.1157  137.9655  154.2965 C   0  0  0  0  0  0  0  0  0  0  0  0
  152.6068  138.3796  154.1841 C   0  0  0  0  0  0  0  0  0  0  0  0
  152.7735  139.5140  155.0722 O   0  0  0  0  0  0  0  0  0  0  0  0
  151.7866  139.3217  156.0674 C   0  0  1  0  0  0  0  0  0  0  0  0
  150.8558  140.3101  156.8101 C   0  0  0  0  0  0  0  0  0  0  0  0
  150.8625  141.7740  156.3247 C   0  0  0  0  0  0  0  0  0  0  0  0
  150.9072  142.6863  157.5511 C   0  0  0  0  0  0  0  0  0  0  0  0
  151.5451  141.8294  158.6342 C   0  0  0  0  0  0  0  0  0  0  0  0
  151.0329  140.4243  158.3304 C   0  0  0  0  0  0  0  0  0  0  0  0
  147.6681  137.2577  161.0100 N   0  0  0  0  0  0  0  0  0  0  0  0
  147.0180  136.7390  162.0726 C   0  0  0  0  0  0  0  0  0  0  0  0
  145.5182  133.8590  163.2032 H   0  0  0  0  0  0  0  0  0  0  0  0
  145.0748  135.5137  163.6324 H   0  0  0  0  0  0  0  0  0  0  0  0
  146.5882  134.8209  164.2304 H   0  0  0  0  0  0  0  0  0  0  0  0
  146.6863  133.4954  161.0931 H   0  0  0  0  0  0  0  0  0  0  0  0
  147.8847  134.4474  159.1314 H   0  0  0  0  0  0  0  0  0  0  0  0
  149.2188  136.1627  158.3435 H   0  0  0  0  0  0  0  0  0  0  0  0
  149.9464  137.3051  156.7691 H   0  0  0  0  0  0  0  0  0  0  0  0
  148.7971  139.8857  156.0211 H   0  0  0  0  0  0  0  0  0  0  0  0
  150.5479  139.9975  154.4079 H   0  0  0  0  0  0  0  0  0  0  0  0
  150.9928  137.0291  154.8424 H   0  0  0  0  0  0  0  0  0  0  0  0
  150.6270  137.8828  153.3256 H   0  0  0  0  0  0  0  0  0  0  0  0
  153.2598  137.5602  154.4874 H   0  0  0  0  0  0  0  0  0  0  0  0
  152.8750  138.6680  153.1674 H   0  0  0  0  0  0  0  0  0  0  0  0
  152.0154  138.4312  156.6623 H   0  0  0  0  0  0  0  0  0  0  0  0
  151.7446  141.9614  155.7110 H   0  0  0  0  0  0  0  0  0  0  0  0
  149.9968  142.0095  155.7048 H   0  0  0  0  0  0  0  0  0  0  0  0
  151.4524  143.6129  157.3691 H   0  0  0  0  0  0  0  0  0  0  0  0
  149.8907  142.9498  157.8469 H   0  0  0  0  0  0  0  0  0  0  0  0
  152.6308  141.8555  158.5321 H   0  0  0  0  0  0  0  0  0  0  0  0
  151.2939  142.1630  159.6414 H   0  0  0  0  0  0  0  0  0  0  0  0
  150.0728  140.2833  158.8286 H   0  0  0  0  0  0  0  0  0  0  0  0
  151.7072  139.6661  158.7302 H   0  0  0  0  0  0  0  0  0  0  0  0
  146.7980  137.4247  162.8775 H   0  0  0  0  0  0  0  0  0  0  0  0
  1  2  1  0  0  0  0
  1 23  1  0  0  0  0
  1 24  1  0  0  0  0
  1 25  1  0  0  0  0
  2 22  1  0  0  0  0
  2  3  2  0  0  0  0
  3  4  1  0  0  0  0
  3 26  1  0  0  0  0
  4  5  2  0  0  0  0
  4 27  1  0  0  0  0
  5  6  1  0  0  0  0
  5 21  1  0  0  0  0
  6  7  1  0  0  0  0
  6 28  1  0  0  0  0
  7  8  2  0  0  0  0
  7  9  1  0  0  0  0
  9 10  1  0  0  0  0
  9 29  1  0  0  0  0
 10 16  1  0  0  0  0
 10 11  1  0  0  0  0
 10 30  1  0  0  0  0
 11 15  1  0  0  0  0
 11 12  1  0  0  0  0
 11 31  1  0  0  0  0
 12 13  1  0  0  0  0
 12 32  1  0  0  0  0
 12 33  1  0  0  0  0
 13 14  1  0  0  0  0
 13 34  1  0  0  0  0
 13 35  1  0  0  0  0
 14 15  1  0  0  0  0
 15 16  1  0  0  0  0
 15 36  1  0  0  0  0
 16 20  1  0  0  0  0
 16 17  1  0  0  0  0
 17 18  1  0  0  0  0
 17 37  1  0  0  0  0
 17 38  1  0  0  0  0
 18 19  1  0  0  0  0
 18 39  1  0  0  0  0
 18 40  1  0  0  0  0
 19 20  1  0  0  0  0
 19 41  1  0  0  0  0
 19 42  1  0  0  0  0
 20 43  1  0  0  0  0
 20 44  1  0  0  0  0
 21 22  2  0  0  0  0
 22 45  1  0  0  0  0
M  END
> <s_m_source_file>
AV-unprocessed.smi

> <i_m_source_file_index>
2217

> <i_lp_mmshare_version>
43012

> <i_f3d_flags>
0

> <s_epik_input>
W0NIM11jMVtjSF1bY0hdYyhuW2NIXTEpW05IXUMoPU8pW05IXVtDQEBIXTJbQ0BASF0oW0NIMl1bQ0gyXU8zKVtDQEhdM0MyNFtDSDJdW0NIMl1bQ0gyXVtDSDJdNA==

> <s_epik_cmdline>
J2VwaWtfcHl0aG9uJywgJy1waCcsICc3LjAnLCAnLXRuJywgJzgnLCAnLW1hJywgJzIwMCcsICctbWV0YWxfYmluZGluZycsICctaW1hZScsICc8aW5maWxlLm1hZT4nLCAnLW9tYWUnLCAnPG91dGZpbGUubWFlPic=

> <r_lp_tautomer_probability>
1

> <r_epik_Ionization_Penalty>
6.14796e-05

> <r_epik_Ionization_Penalty_Charging>
0

> <r_epik_Ionization_Penalty_Neutral>
6.14796e-05

> <r_epik_State_Penalty>
-0

> <r_epik_Charging_Adjusted_Penalty>
0

> <i_epik_Tot_Q>
0

> <i_epik_Tot_abs_Q>
0

> <r_epik_Metal_State_Penalty>
-0

> <b_epik_Metal_Only>
0

> <s_lp_Force_Field>
OPLS_2005

> <r_lp_Energy>
82.2768

> <b_lp_Chiralities_Consistent>
1

> <s_lp_Variant>
AV-unprocessed.smi:2217-7

> <Gold.Version>
5.8.1

> <Gold.Id.Protein>
6NUR|6NUR_protein|mol2

> <Gold.PLP.Fitness>
44.8458

> <Gold.PLP.PLP>
-36.9309

> <Gold.PLP.part.hbond>
-5.0000

> <Gold.PLP.part.metal>
0.0000

> <Gold.PLP.part.buried>
-4.9240

> <Gold.PLP.part.nonpolar>
-28.7991

> <Gold.PLP.part.repulsive>
0.1443

> <Gold.PLP.ligand.clash>
0.0000

> <Gold.PLP.ligand.torsion>
0.3113

> <Gold.PLP.Chemscore.Hbond>
2.7546

> <Gold.PLP.Chemscore.CHOScore>
0.0000

> <Gold.PLP.Chemscore.Metal>
0.0000

> <Gold.Chemscore.Hbonds>
donor molecule, donor type, donor heavy atom, donor atom, acceptor molecule, acceptor atom, score
      P1  H  6931  6943       L1    21  0.86
      P1  H  6934  6947       L1    21  0.90
      P1  H  7989  7998       L1    14  0.06
      P1  H  7997  8008       L1    14  0.94

> <Gold.PLP.Chemscore.Internal.Correction>
0.2736

> <Gold.Rescore>
     Score         DG    S(hbond)    S(metal)    S(lipo)     H(rot)  DE(clash)    DE(int)     intcor
     18.58     -20.01       1.63        0.00      99.64       1.00       0.04       1.38       ----

> <Gold.Chemscore.Fitness>
18.5833

> <Gold.Chemscore.DG>
-20.0100

> <Gold.Chemscore.ZeroCoef>
-5.4800

> <Gold.Chemscore.Hbond>
1.6264

> <Gold.Chemscore.Metal>
0.0000

> <Gold.Chemscore.Lipo>
99.6409

> <Gold.Chemscore.Internal_Hbond>
0.0000

> <Gold.Chemscore.DEClash>
0.0432

> <Gold.Chemscore.DEInternal>
1.3836

> <Gold.Chemscore.Rot>
1.0000

> <Gold.Chemscore.Internal.Correction>
   9.000000E+99

> <Gold.Chemscore.Hbonds>
donor molecule, donor type, donor heavy atom, donor atom, acceptor molecule, acceptor atom, score
      P1  H  6931  6943       L1    21  0.21
      P1  H  6934  6947       L1    21  0.49
      P1  H  7997  8008       L1    14  0.82

> <Gold.Chemscore.Hbond.Weighted>
-5.4321

> <Gold.Chemscore.Metal.Weighted>
-0.0000

> <Gold.Chemscore.Lipo.Weighted>
-11.6580

> <Gold.Chemscore.Internal_Hbond.Weighted>
0.0000

> <Gold.Chemscore.DEClash.Weighted>
0.0432

> <Gold.Chemscore.DEInternal.Weighted>
1.3836

> <Gold.Chemscore.Rot.Weighted>
2.5600

> <Gold.Chemscore.Internal.Correction.Weighted>
   9.000000E+99

> <Gold.Protein.RotatedTorsions>
[ 6907 6896 6895 6894 ] final -147.72 input  -60.11 | X-H torsion
[ 7974 7965 7964 7962 ] final  -79.42 input  175.53 | X-H torsion
[ 8008 7997 7996 7995 ] final   -0.92 input   59.86 | X-H torsion
[ 10167 10162 10161 10158 ] final   15.29 input  -65.29 | X-H torsion
[ 10718 10713 10712 10709 ] final -141.51 input   66.30 | X-H torsion
[ 10763 10752 10751 10750 ] final  140.05 input  -60.55 | X-H torsion
[ 11005 11000 10999 10996 ] final  143.49 input  -57.11 | X-H torsion

> <Gold.Protein.ActiveResidues>
 VAL166  LYS551  ARG553  GLY616  TRP617  ASP618  TYR619  PRO620  LYS621  CYS622 
 ASP623  PHE694  ASN695  SER759  ASP760  ASP761  ALA762  ILE779  LEU786  VAL792 
 PHE793  MET794  SER795  GLU796  ALA797  LYS798  CYS799  TRP800  GLU811  SER814 

> <Gold.Protein.RotatedAtoms>
  151.1597  133.4853  159.2594 H   0  0  0  0  0  0  0  0  0  0  0  0  # atno 6907 bound_to 6896
  151.1467  135.0206  159.8660 H   0  0  0  0  0  0  0  0  0  0  0  0  # atno 6908 bound_to 6896
  152.5463  134.1485  159.8562 H   0  0  0  0  0  0  0  0  0  0  0  0  # atno 6909 bound_to 6896
  145.5734  140.9462  143.1383 H   0  0  0  0  0  0  0  0  0  0  0  0  # atno 7974 bound_to 7965
  154.6526  140.2572  155.7197 H   0  0  0  0  0  0  0  0  0  0  0  0  # atno 8008 bound_to 7997
  156.2582  140.2865  156.0886 H   0  0  0  0  0  0  0  0  0  0  0  0  # atno 8009 bound_to 7997
  155.1428  140.0380  157.2793 H   0  0  0  0  0  0  0  0  0  0  0  0  # atno 8010 bound_to 7997
  140.5877  143.8857  150.6845 H   0  0  0  0  0  0  0  0  0  0  0  0  # atno 10167 bound_to 10162
  156.3350  130.7606  151.1731 H   0  0  0  0  0  0  0  0  0  0  0  0  # atno 10718 bound_to 10713
  153.9163  135.3005  155.3448 H   0  0  0  0  0  0  0  0  0  0  0  0  # atno 10763 bound_to 10752
  154.7598  135.4939  153.9446 H   0  0  0  0  0  0  0  0  0  0  0  0  # atno 10764 bound_to 10752
  153.1166  135.6772  153.9510 H   0  0  0  0  0  0  0  0  0  0  0  0  # atno 10765 bound_to 10752
  140.0558  134.9231  157.1097 H   0  0  0  0  0  0  0  0  0  0  0  0  # atno 11005 bound_to 11000
  144.7427  139.7404  143.7304 LP  0  0  0  0  0  0  0  0  0  0  0  0  # atno 17320 bound_to 7965
  146.1768  139.4942  142.9892 LP  0  0  0  0  0  0  0  0  0  0  0  0  # atno 17321 bound_to 7965
  140.2372  143.3691  152.1517 LP  0  0  0  0  0  0  0  0  0  0  0  0  # atno 17342 bound_to 10162
  139.5208  144.7037  151.5417 LP  0  0  0  0  0  0  0  0  0  0  0  0  # atno 17343 bound_to 10162
  157.7437  131.0471  150.4925 LP  0  0  0  0  0  0  0  0  0  0  0  0  # atno 17370 bound_to 10713
  156.5097  130.4136  149.6308 LP  0  0  0  0  0  0  0  0  0  0  0  0  # atno 17371 bound_to 10713
  140.3847  134.2249  155.7169 LP  0  0  0  0  0  0  0  0  0  0  0  0  # atno 17394 bound_to 11000
  141.1951  133.8113  157.0729 LP  0  0  0  0  0  0  0  0  0  0  0  0  # atno 17395 bound_to 11000

$$$$
