AV-unprocessed.smi:3212|AV-procd|sdf|12280|dock5
  -GOLD-   2272018113D 1   1.00000     0.00000
 Structure written by MMmdl.
 39 39  0  0  0  0  0  0  0  0  1 V2000
  146.7946  140.1509  153.8103 C   0  0  0  0  0  0  0  0  0  0  0  0
  147.7670  139.0036  153.4899 C   0  0  2  0  0  0  0  0  0  0  0  0
  147.3567  138.3427  152.2369 N   0  0  0  0  0  0  0  0  0  0  0  0
  146.0955  137.6157  152.3318 C   0  0  0  0  0  0  0  0  0  0  0  0
  145.9386  136.7024  151.1080 C   0  0  0  0  0  0  0  0  0  0  0  0
  145.1427  135.5309  151.4187 N   0  0  0  0  0  0  0  0  0  0  0  0
  144.6930  134.5487  150.5615 C   0  0  0  0  0  0  0  0  0  0  0  0
  143.9913  133.6471  151.3094 C   0  0  0  0  0  0  0  0  0  0  0  0
  144.0688  134.1710  152.6303 C   0  0  0  0  0  0  0  0  0  0  0  0
  144.7592  135.2982  152.6925 N   0  0  0  0  0  0  0  0  0  0  0  0
  147.8863  138.0347  154.6795 C   0  0  0  0  0  0  0  0  0  0  0  0
  147.2827  138.2662  155.7271 O   0  0  0  0  0  0  0  0  0  0  0  0
  148.6483  136.9435  154.4801 N   0  0  0  0  0  0  0  0  0  0  0  0
  148.9051  135.8288  155.3990 C   0  0  0  0  0  0  0  0  0  0  0  0
  147.5483  135.1598  155.6805 C   0  0  0  0  0  0  0  0  0  0  0  0
  149.4918  136.3478  156.7289 C   0  0  0  0  0  0  0  0  0  0  0  0
  149.8500  134.7946  154.7518 C   0  0  0  0  0  0  0  0  0  0  0  0
  147.0811  140.6694  154.7263 H   0  0  0  0  0  0  0  0  0  0  0  0
  145.7726  139.7904  153.9366 H   0  0  0  0  0  0  0  0  0  0  0  0
  146.7853  140.8898  153.0084 H   0  0  0  0  0  0  0  0  0  0  0  0
  148.7467  139.4559  153.3241 H   0  0  0  0  0  0  0  0  0  0  0  0
  148.0761  137.7180  151.9023 H   0  0  0  0  0  0  0  0  0  0  0  0
  146.0876  137.0167  153.2437 H   0  0  0  0  0  0  0  0  0  0  0  0
  145.2509  138.3040  152.3816 H   0  0  0  0  0  0  0  0  0  0  0  0
  145.4640  137.2394  150.2851 H   0  0  0  0  0  0  0  0  0  0  0  0
  146.9142  136.3706  150.7499 H   0  0  0  0  0  0  0  0  0  0  0  0
  144.9090  134.5718  149.5035 H   0  0  0  0  0  0  0  0  0  0  0  0
  143.4983  132.7499  150.9657 H   0  0  0  0  0  0  0  0  0  0  0  0
  143.6475  133.7678  153.5396 H   0  0  0  0  0  0  0  0  0  0  0  0
  149.0888  136.8668  153.5749 H   0  0  0  0  0  0  0  0  0  0  0  0
  147.6558  134.3159  156.3629 H   0  0  0  0  0  0  0  0  0  0  0  0
  147.0918  134.7831  154.7643 H   0  0  0  0  0  0  0  0  0  0  0  0
  146.8455  135.8598  156.1344 H   0  0  0  0  0  0  0  0  0  0  0  0
  148.8518  137.1108  157.1738 H   0  0  0  0  0  0  0  0  0  0  0  0
  150.4821  136.7841  156.5986 H   0  0  0  0  0  0  0  0  0  0  0  0
  149.5928  135.5406  157.4552 H   0  0  0  0  0  0  0  0  0  0  0  0
  149.9632  133.9159  155.3875 H   0  0  0  0  0  0  0  0  0  0  0  0
  150.8488  135.1979  154.5855 H   0  0  0  0  0  0  0  0  0  0  0  0
  149.4672  134.4548  153.7890 H   0  0  0  0  0  0  0  0  0  0  0  0
  1  2  1  0  0  0  0
  1 18  1  0  0  0  0
  1 19  1  0  0  0  0
  1 20  1  0  0  0  0
  2  3  1  0  0  0  0
  2 11  1  0  0  0  0
  2 21  1  0  0  0  0
  3  4  1  0  0  0  0
  3 22  1  0  0  0  0
  4  5  1  0  0  0  0
  4 23  1  0  0  0  0
  4 24  1  0  0  0  0
  5  6  1  0  0  0  0
  5 25  1  0  0  0  0
  5 26  1  0  0  0  0
  6 10  1  0  0  0  0
  6  7  1  0  0  0  0
  7  8  2  0  0  0  0
  7 27  1  0  0  0  0
  8  9  1  0  0  0  0
  8 28  1  0  0  0  0
  9 10  2  0  0  0  0
  9 29  1  0  0  0  0
 11 12  2  0  0  0  0
 11 13  1  0  0  0  0
 13 14  1  0  0  0  0
 13 30  1  0  0  0  0
 14 15  1  0  0  0  0
 14 16  1  0  0  0  0
 14 17  1  0  0  0  0
 15 31  1  0  0  0  0
 15 32  1  0  0  0  0
 15 33  1  0  0  0  0
 16 34  1  0  0  0  0
 16 35  1  0  0  0  0
 16 36  1  0  0  0  0
 17 37  1  0  0  0  0
 17 38  1  0  0  0  0
 17 39  1  0  0  0  0
M  END
> <s_m_source_file>
AV-unprocessed.smi

> <i_m_source_file_index>
3212

> <i_lp_mmshare_version>
43012

> <i_f3d_flags>
0

> <s_epik_input>
W0NIM11DKFtDSDNdKShbQ0gzXSlbTkhdQyg9TylbQ0BIXShbQ0gzXSlbTkhdW0NIMl1bQ0gyXW4xW2NIXVtjSF1bY0hdbjE=

> <s_epik_cmdline>
J2VwaWtfcHl0aG9uJywgJy1waCcsICc3LjAnLCAnLXRuJywgJzgnLCAnLW1hJywgJzIwMCcsICctbWV0YWxfYmluZGluZycsICctaW1hZScsICc8aW5maWxlLm1hZT4nLCAnLW9tYWUnLCAnPG91dGZpbGUubWFlPic=

> <r_lp_tautomer_probability>
1

> <r_epik_Ionization_Penalty>
0.745735

> <r_epik_Ionization_Penalty_Charging>
0

> <r_epik_Ionization_Penalty_Neutral>
0.745735

> <r_epik_State_Penalty>
0.771152

> <r_epik_Charging_Adjusted_Penalty>
0.771152

> <i_epik_Tot_Q>
0

> <i_epik_Tot_abs_Q>
0

> <r_epik_Metal_State_Penalty>
0.770403

> <b_epik_Metal_Only>
0

> <s_lp_Force_Field>
OPLS_2005

> <r_lp_Energy>
5.75151

> <b_lp_Chiralities_Consistent>
1

> <s_lp_Variant>
AV-unprocessed.smi:3212-3

> <Gold.Version>
5.8.1

> <Gold.Id.Protein>
6NUR|6NUR_protein|mol2

> <Gold.PLP.Fitness>
34.0909

> <Gold.PLP.PLP>
-23.1028

> <Gold.PLP.part.hbond>
-3.0000

> <Gold.PLP.part.metal>
0.0000

> <Gold.PLP.part.buried>
-0.1277

> <Gold.PLP.part.nonpolar>
-20.6113

> <Gold.PLP.part.repulsive>
0.0939

> <Gold.PLP.ligand.clash>
0.0000

> <Gold.PLP.ligand.torsion>
0.3487

> <Gold.PLP.Chemscore.Hbond>
1.9920

> <Gold.PLP.Chemscore.CHOScore>
1.8851

> <Gold.PLP.Chemscore.Metal>
0.0000

> <Gold.Chemscore.Hbonds>
donor molecule, donor type, donor heavy atom, donor atom, acceptor molecule, acceptor atom, score
      L1  H     3    22       P1  7948  1.00
      L1  H    13    30       P1  7948  0.96
      L1  C     7    27       P1  7921  1.00
      L1  C     9    29       P1 10957  0.94

> <Gold.PLP.Chemscore.Internal.Correction>
0.0542

> <Gold.Rescore>
     Score         DG    S(hbond)    S(metal)    S(lipo)     H(rot)  DE(clash)    DE(int)     intcor
     12.94     -13.42       1.97        0.00      54.98       1.99       0.18       0.30       ----

> <Gold.Chemscore.Fitness>
12.9420

> <Gold.Chemscore.DG>
-13.4153

> <Gold.Chemscore.ZeroCoef>
-5.4800

> <Gold.Chemscore.Hbond>
1.9735

> <Gold.Chemscore.Metal>
0.0000

> <Gold.Chemscore.Lipo>
54.9849

> <Gold.Chemscore.Internal_Hbond>
0.0000

> <Gold.Chemscore.DEClash>
0.1777

> <Gold.Chemscore.DEInternal>
0.2956

> <Gold.Chemscore.Rot>
1.9880

> <Gold.Chemscore.Internal.Correction>
   9.000000E+99

> <Gold.Chemscore.Hbonds>
donor molecule, donor type, donor heavy atom, donor atom, acceptor molecule, acceptor atom, score
      L1  H     3    22       P1  7948  0.98
      L1  H    13    30       P1  7948  0.92

> <Gold.Chemscore.Hbond.Weighted>
-6.5914

> <Gold.Chemscore.Metal.Weighted>
-0.0000

> <Gold.Chemscore.Lipo.Weighted>
-6.4332

> <Gold.Chemscore.Internal_Hbond.Weighted>
0.0000

> <Gold.Chemscore.DEClash.Weighted>
0.1777

> <Gold.Chemscore.DEInternal.Weighted>
0.2956

> <Gold.Chemscore.Rot.Weighted>
5.0893

> <Gold.Chemscore.Internal.Correction.Weighted>
   9.000000E+99

> <Gold.Protein.RotatedTorsions>
[ 6907 6896 6895 6894 ] final  -61.91 input  -60.11 | X-H torsion
[ 7974 7965 7964 7962 ] final   16.22 input  175.53 | X-H torsion
[ 8008 7997 7996 7995 ] final  -56.23 input   59.86 | X-H torsion
[ 10167 10162 10161 10158 ] final -127.89 input  -65.29 | X-H torsion
[ 10718 10713 10712 10709 ] final   37.56 input   66.30 | X-H torsion
[ 10763 10752 10751 10750 ] final  179.40 input  -60.55 | X-H torsion
[ 11005 11000 10999 10996 ] final  -69.68 input  -57.11 | X-H torsion

> <Gold.Protein.ActiveResidues>
 VAL166  LYS551  ARG553  GLY616  TRP617  ASP618  TYR619  PRO620  LYS621  CYS622 
 ASP623  PHE694  ASN695  SER759  ASP760  ASP761  ALA762  ILE779  LEU786  VAL792 
 PHE793  MET794  SER795  GLU796  ALA797  LYS798  CYS799  TRP800  GLU811  SER814 

> <Gold.Protein.RotatedAtoms>
  150.7752  134.6642  159.6355 H   0  0  0  0  0  0  0  0  0  0  0  0  # atno 6907 bound_to 6896
  152.3819  134.6574  160.0148 H   0  0  0  0  0  0  0  0  0  0  0  0  # atno 6908 bound_to 6896
  151.6901  133.3274  159.3277 H   0  0  0  0  0  0  0  0  0  0  0  0  # atno 6909 bound_to 6896
  146.2256  139.8779  142.8576 H   0  0  0  0  0  0  0  0  0  0  0  0  # atno 7974 bound_to 7965
  154.4223  140.1134  156.5605 H   0  0  0  0  0  0  0  0  0  0  0  0  # atno 8008 bound_to 7997
  155.6316  140.3495  155.4666 H   0  0  0  0  0  0  0  0  0  0  0  0  # atno 8009 bound_to 7997
  155.9943  140.1186  157.0598 H   0  0  0  0  0  0  0  0  0  0  0  0  # atno 8010 bound_to 7997
  139.9561  143.6001  152.2460 H   0  0  0  0  0  0  0  0  0  0  0  0  # atno 10167 bound_to 10162
  157.3484  130.7585  149.6961 H   0  0  0  0  0  0  0  0  0  0  0  0  # atno 10718 bound_to 10713
  154.5202  135.2793  155.1269 H   0  0  0  0  0  0  0  0  0  0  0  0  # atno 10763 bound_to 10752
  154.2829  135.6282  153.5358 H   0  0  0  0  0  0  0  0  0  0  0  0  # atno 10764 bound_to 10752
  152.9935  135.5655  154.5689 H   0  0  0  0  0  0  0  0  0  0  0  0  # atno 10765 bound_to 10752
  141.1559  133.6770  156.6637 H   0  0  0  0  0  0  0  0  0  0  0  0  # atno 11005 bound_to 11000
  145.2542  141.0054  143.3864 LP  0  0  0  0  0  0  0  0  0  0  0  0  # atno 17320 bound_to 7965
  144.9350  139.4254  143.6476 LP  0  0  0  0  0  0  0  0  0  0  0  0  # atno 17321 bound_to 7965
  139.6590  144.7662  151.1999 LP  0  0  0  0  0  0  0  0  0  0  0  0  # atno 17342 bound_to 10162
  140.7568  143.6040  150.8671 LP  0  0  0  0  0  0  0  0  0  0  0  0  # atno 17343 bound_to 10162
  155.9718  130.4147  150.4147 LP  0  0  0  0  0  0  0  0  0  0  0  0  # atno 17370 bound_to 10713
  157.2206  131.0481  151.2548 LP  0  0  0  0  0  0  0  0  0  0  0  0  # atno 17371 bound_to 10713
  140.3228  134.7994  157.4266 LP  0  0  0  0  0  0  0  0  0  0  0  0  # atno 17394 bound_to 11000
  140.1082  134.5380  155.8290 LP  0  0  0  0  0  0  0  0  0  0  0  0  # atno 17395 bound_to 11000

$$$$
