AV-unprocessed.smi:512|AV-procd|sdf|2769|dock7
  -GOLD-   2262023233D 1   1.00000     0.00000
 Structure written by MMmdl.
 48 50  0  0  0  0  0  0  0  0  1 V2000
  153.2932  137.9209  159.4162 C   0  0  0  0  0  0  0  0  0  0  0  0
  153.8737  138.4756  158.1135 C   0  0  0  0  0  0  0  0  0  0  0  0
  153.2947  137.7747  157.0280 O   0  0  0  0  0  0  0  0  0  0  0  0
  152.0642  138.3337  156.5988 C   0  0  0  0  0  0  0  0  0  0  0  0
  152.3137  139.7305  156.0133 C   0  0  0  0  0  0  0  0  0  0  0  0
  151.0603  140.4360  155.7513 N   0  0  0  0  0  0  0  0  0  0  0  0
  150.6143  141.6003  156.2973 C   0  0  0  0  0  0  0  0  0  0  0  0
  151.3736  142.3339  157.2089 N   0  0  0  0  0  0  0  0  0  0  0  0
  152.3092  141.8106  158.2014 C   0  0  0  0  0  0  0  0  0  0  0  0
  152.0462  142.4305  159.5877 C   0  0  0  0  0  0  0  0  0  0  0  0
  152.2363  143.8785  159.5101 N   0  0  0  0  0  0  0  0  0  0  0  0
  151.9817  144.4766  160.8123 C   0  0  0  0  0  0  0  0  0  0  0  0
  151.3010  144.4238  158.5259 C   0  0  0  0  0  0  0  0  0  0  0  0
  151.5648  143.7798  157.1499 C   0  0  0  0  0  0  0  0  0  0  0  0
  149.3774  141.9486  155.9331 N   0  0  0  0  0  0  0  0  0  0  0  0
  149.0103  140.9364  155.0603 C   0  0  0  0  0  0  0  0  0  0  0  0
  150.0006  140.0150  154.9436 C   0  0  0  0  0  0  0  0  0  0  0  0
  149.8542  138.8063  154.1188 C   0  0  0  0  0  0  0  0  0  0  0  0
  150.7267  137.9485  154.0049 O   0  0  0  0  0  0  0  0  0  0  0  0
  148.6512  138.7262  153.5002 N   0  0  0  0  0  0  0  0  0  0  0  0
  147.6171  139.6181  153.5733 C   0  0  0  0  0  0  0  0  0  0  0  0
  146.5732  139.4008  152.9583 O   0  0  0  0  0  0  0  0  0  0  0  0
  147.7935  140.7356  154.3482 N   0  0  0  0  0  0  0  0  0  0  0  0
  146.7192  141.7231  154.4687 C   0  0  0  0  0  0  0  0  0  0  0  0
  148.4982  137.9117  152.9236 H   0  0  0  0  0  0  0  0  0  0  0  0
  153.7072  138.4402  160.2805 H   0  0  0  0  0  0  0  0  0  0  0  0
  153.5185  136.8593  159.5230 H   0  0  0  0  0  0  0  0  0  0  0  0
  152.2095  138.0377  159.4421 H   0  0  0  0  0  0  0  0  0  0  0  0
  153.6557  139.5416  158.0325 H   0  0  0  0  0  0  0  0  0  0  0  0
  154.9579  138.3559  158.1055 H   0  0  0  0  0  0  0  0  0  0  0  0
  151.6070  137.6929  155.8434 H   0  0  0  0  0  0  0  0  0  0  0  0
  151.3692  138.3983  157.4369 H   0  0  0  0  0  0  0  0  0  0  0  0
  152.9378  140.3092  156.6875 H   0  0  0  0  0  0  0  0  0  0  0  0
  152.8926  139.6582  155.0953 H   0  0  0  0  0  0  0  0  0  0  0  0
  152.2487  140.7240  158.2453 H   0  0  0  0  0  0  0  0  0  0  0  0
  153.3282  142.0333  157.8817 H   0  0  0  0  0  0  0  0  0  0  0  0
  151.0376  142.1935  159.9300 H   0  0  0  0  0  0  0  0  0  0  0  0
  152.7413  142.0114  160.3162 H   0  0  0  0  0  0  0  0  0  0  0  0
  152.1208  145.5574  160.7699 H   0  0  0  0  0  0  0  0  0  0  0  0
  152.6741  144.0813  161.5562 H   0  0  0  0  0  0  0  0  0  0  0  0
  150.9642  144.2756  161.1514 H   0  0  0  0  0  0  0  0  0  0  0  0
  150.2703  144.2444  158.8369 H   0  0  0  0  0  0  0  0  0  0  0  0
  151.4339  145.5042  158.4576 H   0  0  0  0  0  0  0  0  0  0  0  0
  152.5750  144.0058  156.8053 H   0  0  0  0  0  0  0  0  0  0  0  0
  150.8812  144.2051  156.4141 H   0  0  0  0  0  0  0  0  0  0  0  0
  146.3299  142.0019  153.4882 H   0  0  0  0  0  0  0  0  0  0  0  0
  147.0510  142.6420  154.9522 H   0  0  0  0  0  0  0  0  0  0  0  0
  145.8971  141.3157  155.0583 H   0  0  0  0  0  0  0  0  0  0  0  0
  1  2  1  0  0  0  0
  1 26  1  0  0  0  0
  1 27  1  0  0  0  0
  1 28  1  0  0  0  0
  2  3  1  0  0  0  0
  2 29  1  0  0  0  0
  2 30  1  0  0  0  0
  3  4  1  0  0  0  0
  4  5  1  0  0  0  0
  4 31  1  0  0  0  0
  4 32  1  0  0  0  0
  5  6  1  0  0  0  0
  5 33  1  0  0  0  0
  5 34  1  0  0  0  0
  6 17  1  0  0  0  0
  6  7  1  0  0  0  0
  7  8  1  0  0  0  0
  7 15  2  0  0  0  0
  8 14  1  0  0  0  0
  8  9  1  0  0  0  0
  9 10  1  0  0  0  0
  9 35  1  0  0  0  0
  9 36  1  0  0  0  0
 10 11  1  0  0  0  0
 10 37  1  0  0  0  0
 10 38  1  0  0  0  0
 11 12  1  0  0  0  0
 11 13  1  0  0  0  0
 12 39  1  0  0  0  0
 12 40  1  0  0  0  0
 12 41  1  0  0  0  0
 13 14  1  0  0  0  0
 13 42  1  0  0  0  0
 13 43  1  0  0  0  0
 14 44  1  0  0  0  0
 14 45  1  0  0  0  0
 15 16  1  0  0  0  0
 16 23  1  0  0  0  0
 16 17  2  0  0  0  0
 17 18  1  0  0  0  0
 18 19  2  0  0  0  0
 18 20  1  0  0  0  0
 20 25  1  0  0  0  0
 20 21  1  0  0  0  0
 21 22  2  0  0  0  0
 21 23  1  0  0  0  0
 23 24  1  0  0  0  0
 24 46  1  0  0  0  0
 24 47  1  0  0  0  0
 24 48  1  0  0  0  0
M  END
> <s_m_source_file>
AV-unprocessed.smi

> <i_m_source_file_index>
512

> <i_lp_mmshare_version>
43012

> <i_f3d_flags>
0

> <s_epik_input>
W0NIM11uMWMoPU8pW25IXWMoPU8pYyhjMTIpbihbQ0gyXVtDSDJdT1tDSDJdW0NIM10pYyhuMilOM1tDSDJdW0NIMl1OKFtDSDNdKVtDSDJdW0NIMl0z

> <s_epik_cmdline>
J2VwaWtfcHl0aG9uJywgJy1waCcsICc3LjAnLCAnLXRuJywgJzgnLCAnLW1hJywgJzIwMCcsICctbWV0YWxfYmluZGluZycsICctaW1hZScsICc8aW5maWxlLm1hZT4nLCAnLW9tYWUnLCAnPG91dGZpbGUubWFlPic=

> <r_epik_Ionization_Penalty>
1.34391

> <r_epik_Ionization_Penalty_Charging>
1.55829e-05

> <r_epik_Ionization_Penalty_Neutral>
1.34389

> <r_epik_State_Penalty>
1.4212

> <r_epik_Charging_Adjusted_Penalty>
1.42122

> <i_epik_Tot_Q>
0

> <i_epik_Tot_abs_Q>
0

> <r_epik_Metal_State_Penalty>
1.44738

> <b_epik_Metal_Only>
0

> <s_lp_Force_Field>
OPLS_2005

> <r_lp_Energy>
48.5788

> <b_lp_Chiralities_Consistent>
1

> <s_lp_Variant>
AV-unprocessed.smi:512-2

> <Gold.Version>
5.8.1

> <Gold.Id.Protein>
6NUR|6NUR_protein|mol2

> <Gold.PLP.Fitness>
45.3283

> <Gold.PLP.PLP>
-43.5202

> <Gold.PLP.part.hbond>
-2.0000

> <Gold.PLP.part.metal>
0.0000

> <Gold.PLP.part.buried>
-5.3546

> <Gold.PLP.part.nonpolar>
-39.1718

> <Gold.PLP.part.repulsive>
3.3192

> <Gold.PLP.ligand.clash>
0.0000

> <Gold.PLP.ligand.torsion>
0.8326

> <Gold.PLP.Chemscore.Hbond>
1.0000

> <Gold.PLP.Chemscore.CHOScore>
0.0000

> <Gold.PLP.Chemscore.Metal>
0.0000

> <Gold.Chemscore.Hbonds>
donor molecule, donor type, donor heavy atom, donor atom, acceptor molecule, acceptor atom, score
      L1  H    20    25       P1  7948  1.00

> <Gold.PLP.Chemscore.Internal.Correction>
0.4733

> <Gold.Rescore>
     Score         DG    S(hbond)    S(metal)    S(lipo)     H(rot)  DE(clash)    DE(int)     intcor
     14.22     -16.62       1.71        0.00      82.20       1.63       0.52       1.88       ----

> <Gold.Chemscore.Fitness>
14.2216

> <Gold.Chemscore.DG>
-16.6199

> <Gold.Chemscore.ZeroCoef>
-5.4800

> <Gold.Chemscore.Hbond>
1.7072

> <Gold.Chemscore.Metal>
0.0000

> <Gold.Chemscore.Lipo>
82.2036

> <Gold.Chemscore.Internal_Hbond>
0.0000

> <Gold.Chemscore.DEClash>
0.5227

> <Gold.Chemscore.DEInternal>
1.8756

> <Gold.Chemscore.Rot>
1.6328

> <Gold.Chemscore.Internal.Correction>
   9.000000E+99

> <Gold.Chemscore.Hbonds>
donor molecule, donor type, donor heavy atom, donor atom, acceptor molecule, acceptor atom, score
      L1  H    20    25       P1  7948  0.93

> <Gold.Chemscore.Hbond.Weighted>
-5.7021

> <Gold.Chemscore.Metal.Weighted>
-0.0000

> <Gold.Chemscore.Lipo.Weighted>
-9.6178

> <Gold.Chemscore.Internal_Hbond.Weighted>
0.0000

> <Gold.Chemscore.DEClash.Weighted>
0.5227

> <Gold.Chemscore.DEInternal.Weighted>
1.8756

> <Gold.Chemscore.Rot.Weighted>
4.1800

> <Gold.Chemscore.Internal.Correction.Weighted>
   9.000000E+99

> <Gold.Protein.RotatedTorsions>
[ 6907 6896 6895 6894 ] final   97.88 input  -60.11 | X-H torsion
[ 7974 7965 7964 7962 ] final -139.29 input  175.53 | X-H torsion
[ 8008 7997 7996 7995 ] final   10.36 input   59.86 | X-H torsion
[ 10167 10162 10161 10158 ] final  167.01 input  -65.29 | X-H torsion
[ 10718 10713 10712 10709 ] final    2.33 input   66.30 | X-H torsion
[ 10763 10752 10751 10750 ] final  168.80 input  -60.55 | X-H torsion
[ 11005 11000 10999 10996 ] final  128.05 input  -57.11 | X-H torsion

> <Gold.Protein.ActiveResidues>
 VAL166  LYS551  ARG553  GLY616  TRP617  ASP618  TYR619  PRO620  LYS621  CYS622 
 ASP623  PHE694  ASN695  SER759  ASP760  ASP761  ALA762  ILE779  LEU786  VAL792 
 PHE793  MET794  SER795  GLU796  ALA797  LYS798  CYS799  TRP800  GLU811  SER814 

> <Gold.Protein.RotatedAtoms>
  152.5417  134.0666  159.8175 H   0  0  0  0  0  0  0  0  0  0  0  0  # atno 6907 bound_to 6896
  151.0787  133.5400  159.2629 H   0  0  0  0  0  0  0  0  0  0  0  0  # atno 6908 bound_to 6896
  151.2236  135.0536  159.9013 H   0  0  0  0  0  0  0  0  0  0  0  0  # atno 6909 bound_to 6896
  144.8689  140.6336  143.5280 H   0  0  0  0  0  0  0  0  0  0  0  0  # atno 7974 bound_to 7965
  154.7924  140.2838  155.5982 H   0  0  0  0  0  0  0  0  0  0  0  0  # atno 8008 bound_to 7997
  156.2966  140.2602  156.2703 H   0  0  0  0  0  0  0  0  0  0  0  0  # atno 8009 bound_to 7997
  154.9655  140.0377  157.2199 H   0  0  0  0  0  0  0  0  0  0  0  0  # atno 8010 bound_to 7997
  139.4936  144.3967  151.9456 H   0  0  0  0  0  0  0  0  0  0  0  0  # atno 10167 bound_to 10162
  156.8615  130.5588  149.5662 H   0  0  0  0  0  0  0  0  0  0  0  0  # atno 10718 bound_to 10713
  154.3738  135.2753  155.2251 H   0  0  0  0  0  0  0  0  0  0  0  0  # atno 10763 bound_to 10752
  154.4387  135.5959  153.6119 H   0  0  0  0  0  0  0  0  0  0  0  0  # atno 10764 bound_to 10752
  152.9837  135.6013  154.3972 H   0  0  0  0  0  0  0  0  0  0  0  0  # atno 10765 bound_to 10752
  139.9540  134.9616  156.8945 H   0  0  0  0  0  0  0  0  0  0  0  0  # atno 11005 bound_to 11000
  145.4169  139.1570  143.4095 LP  0  0  0  0  0  0  0  0  0  0  0  0  # atno 17320 bound_to 7965
  146.2916  140.4276  142.8737 LP  0  0  0  0  0  0  0  0  0  0  0  0  # atno 17321 bound_to 7965
  140.3406  144.3208  150.5968 LP  0  0  0  0  0  0  0  0  0  0  0  0  # atno 17342 bound_to 10162
  140.5569  143.2197  151.7831 LP  0  0  0  0  0  0  0  0  0  0  0  0  # atno 17343 bound_to 10162
  156.0774  130.5793  150.9500 LP  0  0  0  0  0  0  0  0  0  0  0  0  # atno 17370 bound_to 10713
  157.6247  131.0926  150.8555 LP  0  0  0  0  0  0  0  0  0  0  0  0  # atno 17371 bound_to 10713
  140.5652  134.0496  155.7412 LP  0  0  0  0  0  0  0  0  0  0  0  0  # atno 17394 bound_to 11000
  141.1208  133.9464  157.2733 LP  0  0  0  0  0  0  0  0  0  0  0  0  # atno 17395 bound_to 11000

$$$$
