AV-unprocessed.smi:2962|AV-procd|sdf|11315|dock1
  -GOLD-   2272016213D 1   1.00000     0.00000
 Structure written by MMmdl.
 36 37  0  0  0  0  0  0  0  0  1 V2000
  154.2716  136.7051  161.6247 C   0  0  0  0  0  0  0  0  0  0  0  0
  153.5016  136.4748  160.4554 O   0  0  0  0  0  0  0  0  0  0  0  0
  152.7430  137.6031  160.0437 C   0  0  0  0  0  0  0  0  0  0  0  0
  153.6272  138.8454  159.8374 C   0  0  0  0  0  0  0  0  0  0  0  0
  152.9075  139.9237  159.1737 N   0  0  0  0  0  0  0  0  0  0  0  0
  152.2729  139.9080  157.9744 C   0  0  0  0  0  0  0  0  0  0  0  0
  152.2047  138.4731  156.9541 S   0  0  0  0  0  0  0  0  0  0  0  0
  151.0558  139.0967  155.6893 C   0  0  2  0  0  0  0  0  0  0  0  0
  149.7092  139.4672  156.3342 C   0  0  0  0  0  0  0  0  0  0  0  0
  150.8941  138.0991  154.5337 C   0  0  0  0  0  0  0  0  0  0  0  0
  150.0665  138.4472  153.5448 N   0  0  0  0  0  0  0  0  0  0  0  0
  151.4979  137.0277  154.5260 O   0  0  0  0  0  0  0  0  0  0  0  0
  151.6961  141.0531  157.6104 N   0  0  0  0  0  0  0  0  0  0  0  0
  151.9800  141.8894  158.6716 C   0  0  0  0  0  0  0  0  0  0  0  0
  151.6400  143.2435  158.8912 C   0  0  0  0  0  0  0  0  0  0  0  0
  152.0478  143.8993  160.0714 C   0  0  0  0  0  0  0  0  0  0  0  0
  152.7991  143.2120  161.0467 C   0  0  0  0  0  0  0  0  0  0  0  0
  153.1475  141.8623  160.8478 C   0  0  0  0  0  0  0  0  0  0  0  0
  152.7375  141.2126  159.6683 C   0  0  0  0  0  0  0  0  0  0  0  0
  154.7929  135.7894  161.9035 H   0  0  0  0  0  0  0  0  0  0  0  0
  153.6515  137.0063  162.4691 H   0  0  0  0  0  0  0  0  0  0  0  0
  155.0216  137.4779  161.4526 H   0  0  0  0  0  0  0  0  0  0  0  0
  152.1667  137.3808  159.1443 H   0  0  0  0  0  0  0  0  0  0  0  0
  152.0132  137.8123  160.8264 H   0  0  0  0  0  0  0  0  0  0  0  0
  154.0363  139.1975  160.7829 H   0  0  0  0  0  0  0  0  0  0  0  0
  154.4874  138.5827  159.2213 H   0  0  0  0  0  0  0  0  0  0  0  0
  151.4718  140.0146  155.2719 H   0  0  0  0  0  0  0  0  0  0  0  0
  149.0018  139.8413  155.5931 H   0  0  0  0  0  0  0  0  0  0  0  0
  149.8397  140.2491  157.0827 H   0  0  0  0  0  0  0  0  0  0  0  0
  149.2532  138.6100  156.8310 H   0  0  0  0  0  0  0  0  0  0  0  0
  149.9086  137.8165  152.7723 H   0  0  0  0  0  0  0  0  0  0  0  0
  149.5839  139.3331  153.5850 H   0  0  0  0  0  0  0  0  0  0  0  0
  151.0653  143.7791  158.1499 H   0  0  0  0  0  0  0  0  0  0  0  0
  151.7835  144.9348  160.2291 H   0  0  0  0  0  0  0  0  0  0  0  0
  153.1082  143.7218  161.9476 H   0  0  0  0  0  0  0  0  0  0  0  0
  153.7237  141.3333  161.5924 H   0  0  0  0  0  0  0  0  0  0  0  0
  1  2  1  0  0  0  0
  1 20  1  0  0  0  0
  1 21  1  0  0  0  0
  1 22  1  0  0  0  0
  2  3  1  0  0  0  0
  3  4  1  0  0  0  0
  3 23  1  0  0  0  0
  3 24  1  0  0  0  0
  4  5  1  0  0  0  0
  4 25  1  0  0  0  0
  4 26  1  0  0  0  0
  5 19  1  0  0  0  0
  5  6  1  0  0  0  0
  6  7  1  0  0  0  0
  6 13  2  0  0  0  0
  7  8  1  0  0  0  0
  8  9  1  0  0  0  0
  8 10  1  0  0  0  0
  8 27  1  0  0  0  0
  9 28  1  0  0  0  0
  9 29  1  0  0  0  0
  9 30  1  0  0  0  0
 10 11  1  0  0  0  0
 10 12  2  0  0  0  0
 11 31  1  0  0  0  0
 11 32  1  0  0  0  0
 13 14  1  0  0  0  0
 14 19  2  0  0  0  0
 14 15  1  0  0  0  0
 15 16  2  0  0  0  0
 15 33  1  0  0  0  0
 16 17  1  0  0  0  0
 16 34  1  0  0  0  0
 17 18  2  0  0  0  0
 17 35  1  0  0  0  0
 18 19  1  0  0  0  0
 18 36  1  0  0  0  0
M  END
> <s_m_source_file>
AV-unprocessed.smi

> <i_m_source_file_index>
2962

> <i_lp_mmshare_version>
43012

> <i_f3d_flags>
0

> <s_epik_input>
W2NIXTFbY0hdW2NIXVtjSF1jKGMxMiluKFtDSDJdW0NIMl1PW0NIM10pYyhuMilTW0NASF0oW0NIM10pQyg9TylbTkgyXQ==

> <s_epik_cmdline>
J2VwaWtfcHl0aG9uJywgJy1waCcsICc3LjAnLCAnLXRuJywgJzgnLCAnLW1hJywgJzIwMCcsICctbWV0YWxfYmluZGluZycsICctaW1hZScsICc8aW5maWxlLm1hZT4nLCAnLW9tYWUnLCAnPG91dGZpbGUubWFlPic=

> <r_epik_Ionization_Penalty>
0.0199986

> <r_epik_Ionization_Penalty_Charging>
0

> <r_epik_Ionization_Penalty_Neutral>
0.0199986

> <r_epik_State_Penalty>
0.0160044

> <r_epik_Charging_Adjusted_Penalty>
0.0160044

> <i_epik_Tot_Q>
0

> <i_epik_Tot_abs_Q>
0

> <r_epik_Metal_State_Penalty>
0.015472

> <b_epik_Metal_Only>
0

> <s_lp_Force_Field>
OPLS_2005

> <r_lp_Energy>
7.16755

> <b_lp_Chiralities_Consistent>
1

> <s_lp_Variant>
AV-unprocessed.smi:2962-1

> <Gold.Version>
5.8.1

> <Gold.Id.Protein>
6NUR|6NUR_protein|mol2

> <Gold.PLP.Fitness>
46.6166

> <Gold.PLP.PLP>
-37.7599

> <Gold.PLP.part.hbond>
-3.9540

> <Gold.PLP.part.metal>
0.0000

> <Gold.PLP.part.buried>
-5.6554

> <Gold.PLP.part.nonpolar>
-29.0394

> <Gold.PLP.part.repulsive>
0.2591

> <Gold.PLP.ligand.clash>
0.0000

> <Gold.PLP.ligand.torsion>
0.1260

> <Gold.PLP.Chemscore.Hbond>
2.9913

> <Gold.PLP.Chemscore.CHOScore>
0.0000

> <Gold.PLP.Chemscore.Metal>
0.0000

> <Gold.Chemscore.Hbonds>
donor molecule, donor type, donor heavy atom, donor atom, acceptor molecule, acceptor atom, score
      L1  H    11    31       P1  7948  1.00
      P1  H  6896  6907       L1     2  0.96
      P1  H 10752 10765       L1    12  1.00

> <Gold.PLP.Chemscore.Internal.Correction>
0.1350

> <Gold.Rescore>
     Score         DG    S(hbond)    S(metal)    S(lipo)     H(rot)  DE(clash)    DE(int)     intcor
     17.94     -19.79       2.91        0.00      94.01       2.50       0.01       1.84       ----

> <Gold.Chemscore.Fitness>
17.9389

> <Gold.Chemscore.DG>
-19.7924

> <Gold.Chemscore.ZeroCoef>
-5.4800

> <Gold.Chemscore.Hbond>
2.9104

> <Gold.Chemscore.Metal>
0.0000

> <Gold.Chemscore.Lipo>
94.0056

> <Gold.Chemscore.Internal_Hbond>
0.0000

> <Gold.Chemscore.DEClash>
0.0126

> <Gold.Chemscore.DEInternal>
1.8409

> <Gold.Chemscore.Rot>
2.5027

> <Gold.Chemscore.Internal.Correction>
   9.000000E+99

> <Gold.Chemscore.Hbonds>
donor molecule, donor type, donor heavy atom, donor atom, acceptor molecule, acceptor atom, score
      L1  H    11    31       P1  7948  0.24
      P1  H  6896  6907       L1     2  0.32
      P1  H 10752 10765       L1    12  0.97

> <Gold.Chemscore.Hbond.Weighted>
-9.7208

> <Gold.Chemscore.Metal.Weighted>
-0.0000

> <Gold.Chemscore.Lipo.Weighted>
-10.9987

> <Gold.Chemscore.Internal_Hbond.Weighted>
0.0000

> <Gold.Chemscore.DEClash.Weighted>
0.0126

> <Gold.Chemscore.DEInternal.Weighted>
1.8409

> <Gold.Chemscore.Rot.Weighted>
6.4070

> <Gold.Chemscore.Internal.Correction.Weighted>
   9.000000E+99

> <Gold.Protein.RotatedTorsions>
[ 6907 6896 6895 6894 ] final   38.63 input  -60.11 | X-H torsion
[ 7974 7965 7964 7962 ] final -135.35 input  175.53 | X-H torsion
[ 8008 7997 7996 7995 ] final   71.81 input   59.86 | X-H torsion
[ 10167 10162 10161 10158 ] final  -50.07 input  -65.29 | X-H torsion
[ 10718 10713 10712 10709 ] final   94.69 input   66.30 | X-H torsion
[ 10763 10752 10751 10750 ] final  170.19 input  -60.55 | X-H torsion
[ 11005 11000 10999 10996 ] final  -59.73 input  -57.11 | X-H torsion

> <Gold.Protein.ActiveResidues>
 VAL166  LYS551  ARG553  GLY616  TRP617  ASP618  TYR619  PRO620  LYS621  CYS622 
 ASP623  PHE694  ASN695  SER759  ASP760  ASP761  ALA762  ILE779  LEU786  VAL792 
 PHE793  MET794  SER795  GLU796  ALA797  LYS798  CYS799  TRP800  GLU811  SER814 

> <Gold.Protein.RotatedAtoms>
  152.1590  134.8927  160.0542 H   0  0  0  0  0  0  0  0  0  0  0  0  # atno 6907 bound_to 6896
  151.9931  133.3793  159.4160 H   0  0  0  0  0  0  0  0  0  0  0  0  # atno 6908 bound_to 6896
  150.6885  134.3838  159.5090 H   0  0  0  0  0  0  0  0  0  0  0  0  # atno 6909 bound_to 6896
  144.9022  140.6786  143.5078 H   0  0  0  0  0  0  0  0  0  0  0  0  # atno 7974 bound_to 7965
  155.7594  140.3487  155.5190 H   0  0  0  0  0  0  0  0  0  0  0  0  # atno 8008 bound_to 7997
  155.8928  140.1021  157.1427 H   0  0  0  0  0  0  0  0  0  0  0  0  # atno 8009 bound_to 7997
  154.4035  140.1301  156.4324 H   0  0  0  0  0  0  0  0  0  0  0  0  # atno 8010 bound_to 7997
  140.6655  143.2672  151.4306 H   0  0  0  0  0  0  0  0  0  0  0  0  # atno 10167 bound_to 10162
  157.6946  131.0521  150.4225 H   0  0  0  0  0  0  0  0  0  0  0  0  # atno 10718 bound_to 10713
  154.3941  135.2754  155.2137 H   0  0  0  0  0  0  0  0  0  0  0  0  # atno 10763 bound_to 10752
  154.4191  135.6004  153.6002 H   0  0  0  0  0  0  0  0  0  0  0  0  # atno 10764 bound_to 10752
  152.9831  135.5968  154.4199 H   0  0  0  0  0  0  0  0  0  0  0  0  # atno 10765 bound_to 10752
  141.1260  133.6618  156.5116 H   0  0  0  0  0  0  0  0  0  0  0  0  # atno 11005 bound_to 11000
  145.3597  139.1685  143.4390 LP  0  0  0  0  0  0  0  0  0  0  0  0  # atno 17320 bound_to 7965
  146.3114  140.3658  142.8669 LP  0  0  0  0  0  0  0  0  0  0  0  0  # atno 17321 bound_to 7965
  139.5902  144.1515  152.2079 LP  0  0  0  0  0  0  0  0  0  0  0  0  # atno 17342 bound_to 10162
  140.0867  144.5655  150.7083 LP  0  0  0  0  0  0  0  0  0  0  0  0  # atno 17343 bound_to 10162
  156.4599  130.4029  149.6583 LP  0  0  0  0  0  0  0  0  0  0  0  0  # atno 17370 bound_to 10713
  156.3702  130.7526  151.2509 LP  0  0  0  0  0  0  0  0  0  0  0  0  # atno 17371 bound_to 10713
  140.4364  134.7055  157.4969 LP  0  0  0  0  0  0  0  0  0  0  0  0  # atno 17394 bound_to 11000
  140.0259  134.6478  155.9174 LP  0  0  0  0  0  0  0  0  0  0  0  0  # atno 17395 bound_to 11000

$$$$
