AV-unprocessed.smi:2471|AV-procd|sdf|9738|dock2
  -GOLD-   2272013373D 1   1.00000     0.00000
 Structure written by MMmdl.
 40 41  0  0  0  0  0  0  0  0  1 V2000
  146.5030  142.7259  154.0420 C   0  0  0  0  0  0  0  0  0  0  0  0
  147.4282  141.5273  154.0589 C   0  0  0  0  0  0  0  0  0  0  0  0
  148.6680  141.5786  154.7255 C   0  0  0  0  0  0  0  0  0  0  0  0
  149.4785  140.4293  154.7066 C   0  0  0  0  0  0  0  0  0  0  0  0
  149.0188  139.2841  154.0278 C   0  0  0  0  0  0  0  0  0  0  0  0
  147.7602  139.3147  153.3860 C   0  0  0  0  0  0  0  0  0  0  0  0
  147.3854  138.1082  152.7362 N   0  0  0  0  0  0  0  0  0  0  0  0
  146.1458  137.6482  152.4900 C   0  0  0  0  0  0  0  0  0  0  0  0
  145.0993  138.2343  152.7695 O   0  0  0  0  0  0  0  0  0  0  0  0
  146.1814  136.4496  151.8900 N   0  0  0  0  0  0  0  0  0  0  0  0
  145.0067  135.6775  151.4955 C   0  0  0  0  0  0  0  0  0  0  0  0
  145.3612  134.2361  151.0643 C   0  0  1  0  0  0  0  0  0  0  0  0
  145.9609  133.3942  152.2135 C   0  0  0  0  0  0  0  0  0  0  0  0
  146.3424  131.9821  151.7415 C   0  0  0  0  0  0  0  0  0  0  0  0
  145.1442  131.2583  151.1099 C   0  0  0  0  0  0  0  0  0  0  0  0
  144.5353  132.0835  149.9634 C   0  0  0  0  0  0  0  0  0  0  0  0
  144.1604  133.5102  150.4100 C   0  0  1  0  0  0  0  0  0  0  0  0
  143.0559  133.4466  151.2934 O   0  0  0  0  0  0  0  0  0  0  0  0
  146.9866  140.4287  153.4093 N   0  0  0  0  0  0  0  0  0  0  0  0
  147.0217  143.6283  154.3669 H   0  0  0  0  0  0  0  0  0  0  0  0
  145.6575  142.5579  154.7093 H   0  0  0  0  0  0  0  0  0  0  0  0
  146.1183  142.9000  153.0365 H   0  0  0  0  0  0  0  0  0  0  0  0
  148.9908  142.4724  155.2389 H   0  0  0  0  0  0  0  0  0  0  0  0
  150.4364  140.4248  155.2055 H   0  0  0  0  0  0  0  0  0  0  0  0
  149.6288  138.3927  154.0055 H   0  0  0  0  0  0  0  0  0  0  0  0
  148.1498  137.5195  152.4406 H   0  0  0  0  0  0  0  0  0  0  0  0
  147.0828  136.0395  151.6934 H   0  0  0  0  0  0  0  0  0  0  0  0
  144.3217  135.6593  152.3434 H   0  0  0  0  0  0  0  0  0  0  0  0
  144.4824  136.1960  150.6908 H   0  0  0  0  0  0  0  0  0  0  0  0
  146.1295  134.3134  150.2930 H   0  0  0  0  0  0  0  0  0  0  0  0
  146.8471  133.8824  152.6196 H   0  0  0  0  0  0  0  0  0  0  0  0
  145.2464  133.3250  153.0349 H   0  0  0  0  0  0  0  0  0  0  0  0
  147.1537  132.0472  151.0155 H   0  0  0  0  0  0  0  0  0  0  0  0
  146.7254  131.4013  152.5811 H   0  0  0  0  0  0  0  0  0  0  0  0
  145.4544  130.2812  150.7390 H   0  0  0  0  0  0  0  0  0  0  0  0
  144.3870  131.0707  151.8722 H   0  0  0  0  0  0  0  0  0  0  0  0
  145.2581  132.1445  149.1487 H   0  0  0  0  0  0  0  0  0  0  0  0
  143.6625  131.5719  149.5557 H   0  0  0  0  0  0  0  0  0  0  0  0
  143.8364  134.0744  149.5347 H   0  0  0  0  0  0  0  0  0  0  0  0
  142.2617  133.4696  150.7820 H   0  0  0  0  0  0  0  0  0  0  0  0
  1  2  1  0  0  0  0
  1 20  1  0  0  0  0
  1 21  1  0  0  0  0
  1 22  1  0  0  0  0
  2 19  1  0  0  0  0
  2  3  2  0  0  0  0
  3  4  1  0  0  0  0
  3 23  1  0  0  0  0
  4  5  2  0  0  0  0
  4 24  1  0  0  0  0
  5  6  1  0  0  0  0
  5 25  1  0  0  0  0
  6  7  1  0  0  0  0
  6 19  2  0  0  0  0
  7  8  1  0  0  0  0
  7 26  1  0  0  0  0
  8  9  2  0  0  0  0
  8 10  1  0  0  0  0
 10 11  1  0  0  0  0
 10 27  1  0  0  0  0
 11 12  1  0  0  0  0
 11 28  1  0  0  0  0
 11 29  1  0  0  0  0
 12 17  1  0  0  0  0
 12 13  1  0  0  0  0
 12 30  1  0  0  0  0
 13 14  1  0  0  0  0
 13 31  1  0  0  0  0
 13 32  1  0  0  0  0
 14 15  1  0  0  0  0
 14 33  1  0  0  0  0
 14 34  1  0  0  0  0
 15 16  1  0  0  0  0
 15 35  1  0  0  0  0
 15 36  1  0  0  0  0
 16 17  1  0  0  0  0
 16 37  1  0  0  0  0
 16 38  1  0  0  0  0
 17 18  1  0  0  0  0
 17 39  1  0  0  0  0
 18 40  1  0  0  0  0
M  END
> <s_m_source_file>
AV-unprocessed.smi

> <i_m_source_file_index>
2471

> <i_lp_mmshare_version>
43012

> <i_f3d_flags>
0

> <s_epik_input>
W0NIM11jMVtjSF1bY0hdW2NIXWMobjEpW05IXUMoPU8pW05IXVtDSDJdW0NAQEhdMltDSDJdW0NIMl1bQ0gyXVtDSDJdW0NASF0yW09IXQ==

> <s_epik_cmdline>
J2VwaWtfcHl0aG9uJywgJy1waCcsICc3LjAnLCAnLXRuJywgJzgnLCAnLW1hJywgJzIwMCcsICctbWV0YWxfYmluZGluZycsICctaW1hZScsICc8aW5maWxlLm1hZT4nLCAnLW9tYWUnLCAnPG91dGZpbGUubWFlPic=

> <r_lp_tautomer_probability>
1

> <r_epik_Ionization_Penalty>
8.52237e-05

> <r_epik_Ionization_Penalty_Charging>
0

> <r_epik_Ionization_Penalty_Neutral>
8.52237e-05

> <r_epik_State_Penalty>
-0

> <r_epik_Charging_Adjusted_Penalty>
0

> <i_epik_Tot_Q>
0

> <i_epik_Tot_abs_Q>
0

> <r_epik_Metal_State_Penalty>
-0

> <b_epik_Metal_Only>
0

> <s_lp_Force_Field>
OPLS_2005

> <r_lp_Energy>
16.6086

> <b_lp_Chiralities_Consistent>
1

> <s_lp_Variant>
AV-unprocessed.smi:2471-2

> <Gold.Version>
5.8.1

> <Gold.Id.Protein>
6NUR|6NUR_protein|mol2

> <Gold.PLP.Fitness>
44.4202

> <Gold.PLP.PLP>
-36.0419

> <Gold.PLP.part.hbond>
-3.0331

> <Gold.PLP.part.metal>
0.0000

> <Gold.PLP.part.buried>
-3.8351

> <Gold.PLP.part.nonpolar>
-33.3972

> <Gold.PLP.part.repulsive>
3.4505

> <Gold.PLP.ligand.clash>
0.0000

> <Gold.PLP.ligand.torsion>
0.2345

> <Gold.PLP.Chemscore.Hbond>
2.9440

> <Gold.PLP.Chemscore.CHOScore>
0.0000

> <Gold.PLP.Chemscore.Metal>
0.0000

> <Gold.Chemscore.Hbonds>
donor molecule, donor type, donor heavy atom, donor atom, acceptor molecule, acceptor atom, score
      L1  H     7    26       P1  7948  1.00
      L1  H    10    27       P1  7948  0.94
      L1  H    18    40       P1 10186  1.00

> <Gold.PLP.Chemscore.Internal.Correction>
0.0154

> <Gold.Rescore>
     Score         DG    S(hbond)    S(metal)    S(lipo)     H(rot)  DE(clash)    DE(int)     intcor
     17.96     -20.80       2.88        0.00      86.53       1.73       1.44       1.40       ----

> <Gold.Chemscore.Fitness>
17.9643

> <Gold.Chemscore.DG>
-20.7964

> <Gold.Chemscore.ZeroCoef>
-5.4800

> <Gold.Chemscore.Hbond>
2.8836

> <Gold.Chemscore.Metal>
0.0000

> <Gold.Chemscore.Lipo>
86.5291

> <Gold.Chemscore.Internal_Hbond>
0.0000

> <Gold.Chemscore.DEClash>
1.4359

> <Gold.Chemscore.DEInternal>
1.3963

> <Gold.Chemscore.Rot>
1.7339

> <Gold.Chemscore.Internal.Correction>
   9.000000E+99

> <Gold.Chemscore.Hbonds>
donor molecule, donor type, donor heavy atom, donor atom, acceptor molecule, acceptor atom, score
      L1  H     7    26       P1  7948  0.99
      L1  H    10    27       P1  7948  0.91
      L1  H    18    40       P1 10186  0.84

> <Gold.Chemscore.Hbond.Weighted>
-9.6311

> <Gold.Chemscore.Metal.Weighted>
-0.0000

> <Gold.Chemscore.Lipo.Weighted>
-10.1239

> <Gold.Chemscore.Internal_Hbond.Weighted>
0.0000

> <Gold.Chemscore.DEClash.Weighted>
1.4359

> <Gold.Chemscore.DEInternal.Weighted>
1.3963

> <Gold.Chemscore.Rot.Weighted>
4.4387

> <Gold.Chemscore.Internal.Correction.Weighted>
   9.000000E+99

> <Gold.Protein.RotatedTorsions>
[ 6907 6896 6895 6894 ] final   24.55 input  -60.11 | X-H torsion
[ 7974 7965 7964 7962 ] final -136.27 input  175.53 | X-H torsion
[ 8008 7997 7996 7995 ] final   89.85 input   59.86 | X-H torsion
[ 10167 10162 10161 10158 ] final  -17.44 input  -65.29 | X-H torsion
[ 10718 10713 10712 10709 ] final  100.18 input   66.30 | X-H torsion
[ 10763 10752 10751 10750 ] final  -88.54 input  -60.55 | X-H torsion
[ 11005 11000 10999 10996 ] final   86.41 input  -57.11 | X-H torsion

> <Gold.Protein.ActiveResidues>
 VAL166  LYS551  ARG553  GLY616  TRP617  ASP618  TYR619  PRO620  LYS621  CYS622 
 ASP623  PHE694  ASN695  SER759  ASP760  ASP761  ALA762  ILE779  LEU786  VAL792 
 PHE793  MET794  SER795  GLU796  ALA797  LYS798  CYS799  TRP800  GLU811  SER814 

> <Gold.Protein.RotatedAtoms>
  151.9592  135.0132  160.0546 H   0  0  0  0  0  0  0  0  0  0  0  0  # atno 6907 bound_to 6896
  152.1884  133.4751  159.5003 H   0  0  0  0  0  0  0  0  0  0  0  0  # atno 6908 bound_to 6896
  150.6930  134.1661  159.4237 H   0  0  0  0  0  0  0  0  0  0  0  0  # atno 6909 bound_to 6896
  144.8942  140.6683  143.5126 H   0  0  0  0  0  0  0  0  0  0  0  0  # atno 7974 bound_to 7965
  156.0049  140.3356  155.6882 H   0  0  0  0  0  0  0  0  0  0  0  0  # atno 8008 bound_to 7997
  155.6239  140.0678  157.2687 H   0  0  0  0  0  0  0  0  0  0  0  0  # atno 8009 bound_to 7997
  154.4261  140.1772  156.1388 H   0  0  0  0  0  0  0  0  0  0  0  0  # atno 8010 bound_to 7997
  140.7247  143.5015  150.9863 H   0  0  0  0  0  0  0  0  0  0  0  0  # atno 10167 bound_to 10162
  157.6860  131.0691  150.5062 H   0  0  0  0  0  0  0  0  0  0  0  0  # atno 10718 bound_to 10713
  154.6457  135.5373  153.7841 H   0  0  0  0  0  0  0  0  0  0  0  0  # atno 10763 bound_to 10752
  153.0358  135.6470  154.1093 H   0  0  0  0  0  0  0  0  0  0  0  0  # atno 10764 bound_to 10752
  154.1014  135.2933  155.3230 H   0  0  0  0  0  0  0  0  0  0  0  0  # atno 10765 bound_to 10752
  139.8945  134.8354  156.2717 H   0  0  0  0  0  0  0  0  0  0  0  0  # atno 11005 bound_to 11000
  145.3730  139.1654  143.4322 LP  0  0  0  0  0  0  0  0  0  0  0  0  # atno 17320 bound_to 7965
  146.3071  140.3803  142.8683 LP  0  0  0  0  0  0  0  0  0  0  0  0  # atno 17321 bound_to 7965
  139.8725  143.7175  152.3165 LP  0  0  0  0  0  0  0  0  0  0  0  0  # atno 17342 bound_to 10162
  139.7428  144.7555  151.0626 LP  0  0  0  0  0  0  0  0  0  0  0  0  # atno 17343 bound_to 10162
  156.5381  130.4201  149.6167 LP  0  0  0  0  0  0  0  0  0  0  0  0  # atno 17370 bound_to 10713
  156.3009  130.7176  151.2048 LP  0  0  0  0  0  0  0  0  0  0  0  0  # atno 17371 bound_to 10713
  141.0096  133.7103  156.1090 LP  0  0  0  0  0  0  0  0  0  0  0  0  # atno 17394 bound_to 11000
  140.7386  134.4176  157.5557 LP  0  0  0  0  0  0  0  0  0  0  0  0  # atno 17395 bound_to 11000

$$$$
