AV-unprocessed.smi:514|AV-procd|sdf|2776|dock1
  -GOLD-   2262023243D 1   1.00000     0.00000
 Structure written by MMmdl.
 46 48  0  0  0  0  0  0  0  0  2 V2000
  151.0272  141.0878  157.5895 C   0  0  0  0  0  0  0  0  0  0  0  0
  150.8889  141.6206  156.1620 C   0  0  0  0  0  0  0  0  0  0  0  0
  150.9948  140.5308  155.2636 O   0  0  0  0  0  0  0  0  0  0  0  0
  149.7883  139.8039  155.1157 C   0  0  0  0  0  0  0  0  0  0  0  0
  150.0560  138.4294  154.4672 C   0  0  0  0  0  0  0  0  0  0  0  0
  149.2282  137.3603  155.0251 N   0  0  0  0  0  0  0  0  0  0  0  0
  147.8659  137.2369  155.0652 C   0  0  0  0  0  0  0  0  0  0  0  0
  146.9628  138.1939  154.5706 N   0  0  0  0  0  0  0  0  0  0  0  0
  145.5826  138.3029  155.0524 C   0  0  0  0  0  0  0  0  0  0  0  0
  145.2578  139.7297  155.5317 C   0  0  0  0  0  0  0  0  0  0  0  0
  145.4990  140.7088  154.4531 N   0  3  0  0  0  0  0  0  0  0  0  0
  146.8460  140.5773  153.8631 C   0  0  0  0  0  0  0  0  0  0  0  0
  147.1083  139.1188  153.4440 C   0  0  0  0  0  0  0  0  0  0  0  0
  147.4413  136.1257  155.6758 N   0  0  0  0  0  0  0  0  0  0  0  0
  148.6087  135.4956  156.0655 C   0  0  0  0  0  0  0  0  0  0  0  0
  149.6912  136.2296  155.7101 C   0  0  0  0  0  0  0  0  0  0  0  0
  151.0610  135.8134  156.0568 C   0  0  0  0  0  0  0  0  0  0  0  0
  152.0611  136.4835  155.8106 O   0  0  0  0  0  0  0  0  0  0  0  0
  151.1118  134.6150  156.6870 N   0  0  0  0  0  0  0  0  0  0  0  0
  150.0601  133.8183  157.0456 C   0  0  0  0  0  0  0  0  0  0  0  0
  150.2688  132.7398  157.6006 O   0  0  0  0  0  0  0  0  0  0  0  0
  148.7962  134.2700  156.7642 N   0  0  0  0  0  0  0  0  0  0  0  0
  147.6186  133.4821  157.1341 C   0  0  0  0  0  0  0  0  0  0  0  0
  152.0317  134.2738  156.9247 H   0  0  0  0  0  0  0  0  0  0  0  0
  150.9532  141.8962  158.3170 H   0  0  0  0  0  0  0  0  0  0  0  0
  151.9898  140.5958  157.7308 H   0  0  0  0  0  0  0  0  0  0  0  0
  150.2449  140.3624  157.8136 H   0  0  0  0  0  0  0  0  0  0  0  0
  149.9256  142.1175  156.0397 H   0  0  0  0  0  0  0  0  0  0  0  0
  151.6704  142.3544  155.9608 H   0  0  0  0  0  0  0  0  0  0  0  0
  149.3204  139.6608  156.0906 H   0  0  0  0  0  0  0  0  0  0  0  0
  149.1015  140.3963  154.5128 H   0  0  0  0  0  0  0  0  0  0  0  0
  149.8747  138.4873  153.3949 H   0  0  0  0  0  0  0  0  0  0  0  0
  151.1062  138.1596  154.5461 H   0  0  0  0  0  0  0  0  0  0  0  0
  144.8992  138.0064  154.2553 H   0  0  0  0  0  0  0  0  0  0  0  0
  145.4084  137.6091  155.8750 H   0  0  0  0  0  0  0  0  0  0  0  0
  144.2183  139.7983  155.8528 H   0  0  0  0  0  0  0  0  0  0  0  0
  145.8771  139.9864  156.3922 H   0  0  0  0  0  0  0  0  0  0  0  0
  144.8189  140.5466  153.7243 H   0  0  0  0  0  0  0  0  0  0  0  0
  146.9266  141.2423  153.0031 H   0  0  0  0  0  0  0  0  0  0  0  0
  147.5878  140.9049  154.5923 H   0  0  0  0  0  0  0  0  0  0  0  0
  148.0818  139.0352  152.9775 H   0  0  0  0  0  0  0  0  0  0  0  0
  146.3985  138.8306  152.6673 H   0  0  0  0  0  0  0  0  0  0  0  0
  147.3882  132.7642  156.3466 H   0  0  0  0  0  0  0  0  0  0  0  0
  146.7427  134.1144  157.2798 H   0  0  0  0  0  0  0  0  0  0  0  0
  147.7646  132.9323  158.0649 H   0  0  0  0  0  0  0  0  0  0  0  0
  145.3774  141.6447  154.8129 H   0  0  0  0  0  0  0  0  0  0  0  0
  1  2  1  0  0  0  0
  1 25  1  0  0  0  0
  1 26  1  0  0  0  0
  1 27  1  0  0  0  0
  2  3  1  0  0  0  0
  2 28  1  0  0  0  0
  2 29  1  0  0  0  0
  3  4  1  0  0  0  0
  4  5  1  0  0  0  0
  4 30  1  0  0  0  0
  4 31  1  0  0  0  0
  5  6  1  0  0  0  0
  5 32  1  0  0  0  0
  5 33  1  0  0  0  0
  6 16  1  0  0  0  0
  6  7  1  0  0  0  0
  7  8  1  0  0  0  0
  7 14  2  0  0  0  0
  8 13  1  0  0  0  0
  8  9  1  0  0  0  0
  9 10  1  0  0  0  0
  9 34  1  0  0  0  0
  9 35  1  0  0  0  0
 10 11  1  0  0  0  0
 10 36  1  0  0  0  0
 10 37  1  0  0  0  0
 11 12  1  0  0  0  0
 11 38  1  0  0  0  0
 11 46  1  0  0  0  0
 12 13  1  0  0  0  0
 12 39  1  0  0  0  0
 12 40  1  0  0  0  0
 13 41  1  0  0  0  0
 13 42  1  0  0  0  0
 14 15  1  0  0  0  0
 15 22  1  0  0  0  0
 15 16  2  0  0  0  0
 16 17  1  0  0  0  0
 17 18  2  0  0  0  0
 17 19  1  0  0  0  0
 19 24  1  0  0  0  0
 19 20  1  0  0  0  0
 20 21  2  0  0  0  0
 20 22  1  0  0  0  0
 22 23  1  0  0  0  0
 23 43  1  0  0  0  0
 23 44  1  0  0  0  0
 23 45  1  0  0  0  0
M  CHG  1  11   1
M  END
> <s_m_source_file>
AV-unprocessed.smi

> <i_m_source_file_index>
514

> <i_lp_mmshare_version>
43012

> <i_f3d_flags>
0

> <s_epik_input>
W0NIM11uMWMoPU8pW25IXWMoPU8pYyhjMTIpbihbQ0gyXVtDSDJdT1tDSDJdW0NIM10pYyhuMilOM1tDSDJdW0NIMl1bTkhdW0NIMl1bQ0gyXTM=

> <s_epik_cmdline>
J2VwaWtfcHl0aG9uJywgJy1waCcsICc3LjAnLCAnLXRuJywgJzgnLCAnLW1hJywgJzIwMCcsICctbWV0YWxfYmluZGluZycsICctaW1hZScsICc8aW5maWxlLm1hZT4nLCAnLW9tYWUnLCAnPG91dGZpbGUubWFlPic=

> <r_epik_Ionization_Penalty>
0.00860326

> <r_epik_Ionization_Penalty_Charging>
0.00860166

> <r_epik_Ionization_Penalty_Neutral>
1.60107e-06

> <r_epik_State_Penalty>
0.00646614

> <r_epik_Charging_Adjusted_Penalty>
0.0150678

> <i_epik_Tot_Q>
1

> <i_epik_Tot_abs_Q>
1

> <r_epik_Metal_State_Penalty>
0.0342529

> <b_epik_Metal_Only>
0

> <s_lp_Force_Field>
OPLS_2005

> <r_lp_Energy>
46.1071

> <b_lp_Chiralities_Consistent>
1

> <s_lp_Variant>
AV-unprocessed.smi:514-1

> <Gold.Version>
5.8.1

> <Gold.Id.Protein>
6NUR|6NUR_protein|mol2

> <Gold.PLP.Fitness>
36.0949

> <Gold.PLP.PLP>
-22.7064

> <Gold.PLP.part.hbond>
-4.0000

> <Gold.PLP.part.metal>
0.0000

> <Gold.PLP.part.buried>
-4.8482

> <Gold.PLP.part.nonpolar>
-16.1878

> <Gold.PLP.part.repulsive>
0.2852

> <Gold.PLP.ligand.clash>
0.0000

> <Gold.PLP.ligand.torsion>
0.7374

> <Gold.PLP.Chemscore.Hbond>
4.9440

> <Gold.PLP.Chemscore.CHOScore>
0.0000

> <Gold.PLP.Chemscore.Metal>
0.0000

> <Gold.Chemscore.Hbonds>
donor molecule, donor type, donor heavy atom, donor atom, acceptor molecule, acceptor atom, score
      L1  H    11    38       P1 10175  2.00
      P1  H  6896  6909       L1    21  1.00
      P1  H  7989  7998       L1     3  0.96
      P1  H 10752 10765       L1    18  1.00

> <Gold.PLP.Chemscore.Internal.Correction>
0.0312

> <Gold.Rescore>
     Score         DG    S(hbond)    S(metal)    S(lipo)     H(rot)  DE(clash)    DE(int)     intcor
     14.53     -15.45       2.85        0.00      42.13       1.75       0.03       0.89       ----

> <Gold.Chemscore.Fitness>
14.5316

> <Gold.Chemscore.DG>
-15.4542

> <Gold.Chemscore.ZeroCoef>
-5.4800

> <Gold.Chemscore.Hbond>
2.8489

> <Gold.Chemscore.Metal>
0.0000

> <Gold.Chemscore.Lipo>
42.1289

> <Gold.Chemscore.Internal_Hbond>
0.0000

> <Gold.Chemscore.DEClash>
0.0344

> <Gold.Chemscore.DEInternal>
0.8882

> <Gold.Chemscore.Rot>
1.7461

> <Gold.Chemscore.Internal.Correction>
   9.000000E+99

> <Gold.Chemscore.Hbonds>
donor molecule, donor type, donor heavy atom, donor atom, acceptor molecule, acceptor atom, score
      L1  H    11    38       P1 10175  1.00
      P1  H  6896  6909       L1    21  0.23
      P1  H  7989  7998       L1     3  0.53
      P1  H 10752 10765       L1    18  0.60

> <Gold.Chemscore.Hbond.Weighted>
-9.5152

> <Gold.Chemscore.Metal.Weighted>
-0.0000

> <Gold.Chemscore.Lipo.Weighted>
-4.9291

> <Gold.Chemscore.Internal_Hbond.Weighted>
0.0000

> <Gold.Chemscore.DEClash.Weighted>
0.0344

> <Gold.Chemscore.DEInternal.Weighted>
0.8882

> <Gold.Chemscore.Rot.Weighted>
4.4701

> <Gold.Chemscore.Internal.Correction.Weighted>
   9.000000E+99

> <Gold.Protein.RotatedTorsions>
[ 6907 6896 6895 6894 ] final  -38.85 input  -60.11 | X-H torsion
[ 7974 7965 7964 7962 ] final  145.20 input  175.53 | X-H torsion
[ 8008 7997 7996 7995 ] final   82.38 input   59.86 | X-H torsion
[ 10167 10162 10161 10158 ] final  -66.92 input  -65.29 | X-H torsion
[ 10718 10713 10712 10709 ] final -127.63 input   66.30 | X-H torsion
[ 10763 10752 10751 10750 ] final -155.33 input  -60.55 | X-H torsion
[ 11005 11000 10999 10996 ] final  -11.93 input  -57.11 | X-H torsion

> <Gold.Protein.ActiveResidues>
 VAL166  LYS551  ARG553  GLY616  TRP617  ASP618  TYR619  PRO620  LYS621  CYS622 
 ASP623  PHE694  ASN695  SER759  ASP760  ASP761  ALA762  ILE779  LEU786  VAL792 
 PHE793  MET794  SER795  GLU796  ALA797  LYS798  CYS799  TRP800  GLU811  SER814 

> <Gold.Protein.RotatedAtoms>
  150.9974  134.9294  159.7934 H   0  0  0  0  0  0  0  0  0  0  0  0  # atno 6907 bound_to 6896
  152.5268  134.3200  159.9155 H   0  0  0  0  0  0  0  0  0  0  0  0  # atno 6908 bound_to 6896
  151.3205  133.4000  159.2688 H   0  0  0  0  0  0  0  0  0  0  0  0  # atno 6909 bound_to 6896
  144.8772  139.5754  143.5859 H   0  0  0  0  0  0  0  0  0  0  0  0  # atno 7974 bound_to 7965
  155.9099  140.3428  155.6090 H   0  0  0  0  0  0  0  0  0  0  0  0  # atno 8008 bound_to 7997
  155.7400  140.0806  157.2269 H   0  0  0  0  0  0  0  0  0  0  0  0  # atno 8009 bound_to 7997
  154.4054  140.1572  156.2593 H   0  0  0  0  0  0  0  0  0  0  0  0  # atno 8010 bound_to 7997
  140.5621  143.2313  151.6706 H   0  0  0  0  0  0  0  0  0  0  0  0  # atno 10167 bound_to 10162
  156.1875  130.6773  151.0382 H   0  0  0  0  0  0  0  0  0  0  0  0  # atno 10718 bound_to 10713
  154.7795  135.3170  154.8020 H   0  0  0  0  0  0  0  0  0  0  0  0  # atno 10763 bound_to 10752
  153.8736  135.6842  153.4776 H   0  0  0  0  0  0  0  0  0  0  0  0  # atno 10764 bound_to 10752
  153.1427  135.4732  154.9457 H   0  0  0  0  0  0  0  0  0  0  0  0  # atno 10765 bound_to 10752
  140.7604  133.8519  155.9120 H   0  0  0  0  0  0  0  0  0  0  0  0  # atno 11005 bound_to 11000
  146.2971  139.7310  142.9119 LP  0  0  0  0  0  0  0  0  0  0  0  0  # atno 17320 bound_to 7965
  145.4020  141.0386  143.3065 LP  0  0  0  0  0  0  0  0  0  0  0  0  # atno 17321 bound_to 7965
  139.5075  144.3643  152.0532 LP  0  0  0  0  0  0  0  0  0  0  0  0  # atno 17342 bound_to 10162
  140.2771  144.3900  150.6131 LP  0  0  0  0  0  0  0  0  0  0  0  0  # atno 17343 bound_to 10162
  157.6908  131.0810  150.7113 LP  0  0  0  0  0  0  0  0  0  0  0  0  # atno 17370 bound_to 10713
  156.7170  130.4669  149.5532 LP  0  0  0  0  0  0  0  0  0  0  0  0  # atno 17371 bound_to 10713
  140.9668  134.1583  157.4609 LP  0  0  0  0  0  0  0  0  0  0  0  0  # atno 17394 bound_to 11000
  139.8772  134.9964  156.5795 LP  0  0  0  0  0  0  0  0  0  0  0  0  # atno 17395 bound_to 11000

$$$$
