#       Name:                AV-unprocessed.smi:1762
#       Creating user name   scv26
#       Creation time:       Fri Mar 27 08:32:09 2020


#       File generated by GOLD software.
#

@<TRIPOS>MOLECULE
AV-unprocessed.smi:1762
    58    59     1
SMALL
NO_CHARGES


@<TRIPOS>ATOM
      1 ****        -1.4996   0.4024   4.6983 C.3            1 S1                 0.0000
      2 ****        -2.0333  -0.3492   3.4736 C.3            1 S1                 0.0000
      3 ****        -1.4443   0.1906   2.1576 C.3            1 S1                 0.0000
      4 ****        -2.0158  -0.4654   0.9698 N.3            1 S1                 0.0000
      5 ****        -1.4334  -0.0161  -0.3260 C.3            1 S1                 0.0000
      6 ****         0.1133   0.0260  -0.3243 C.2            1 S1                 0.0000
      7 ****         0.7644  -0.9786  -0.0345 O.2            1 S1                 0.0000
      8 ****         0.6833   1.1999  -0.6394 N.am           1 S1                 0.0000
      9 ****         2.1192   1.4418  -0.7085 C.3            1 S1                 0.0000
     10 ****         2.7195   0.9054  -2.0190 C.3            1 S1                 0.0000
     11 ****         4.2093   1.1725  -2.1189 C.ar           1 S1                 0.0000
     12 ****         5.1440   0.1683  -1.7888 C.ar           1 S1                 0.0000
     13 ****         6.5161   0.4692  -1.8897 C.ar           1 S1                 0.0000
     14 ****         6.8987   1.7564  -2.3136 C.ar           1 S1                 0.0000
     15 ****         5.8877   2.6897  -2.6179 C.ar           1 S1                 0.0000
     16 ****         4.5693   2.4117  -2.5233 N.ar           1 S1                 0.0000
     17 ****        -1.9596  -0.7838  -1.5859 C.3            1 S1                 0.0000
     18 ****        -1.7868  -2.3130  -1.4976 C.3            1 S1                 0.0000
     19 ****        -1.3850  -0.2569  -2.9172 C.3            1 S1                 0.0000
     20 ****        -3.4765  -0.3230   1.0206 C.3            1 S1                 0.0000
     21 ****        -4.0968  -0.8216   2.3413 C.3            1 S1                 0.0000
     22 ****        -4.1245  -2.3558   2.4607 C.3            1 S1                 0.0000
     23 ****        -3.4500  -0.2118   3.4561 O.3            1 S1                 0.0000
     24 ****        -0.4151   0.3166   4.7693 H              1 S1                 0.0000
     25 ****        -1.9249  -0.0000   5.6180 H              1 S1                 0.0000
     26 ****        -1.7497   1.4626   4.6517 H              1 S1                 0.0000
     27 ****        -1.7718  -1.4021   3.5825 H              1 S1                 0.0000
     28 ****        -1.6060   1.2682   2.0955 H              1 S1                 0.0000
     29 ****        -0.3671   0.0417   2.2183 H              1 S1                 0.0000
     30 ****        -1.7494   1.0205  -0.4624 H              1 S1                 0.0000
     31 ****         0.0780   1.9778  -0.8586 H              1 S1                 0.0000
     32 ****         2.2836   2.5172  -0.6358 H              1 S1                 0.0000
     33 ****         2.6158   0.9922   0.1531 H              1 S1                 0.0000
     34 ****         2.5459  -0.1683  -2.1035 H              1 S1                 0.0000
     35 ****         2.2187   1.3627  -2.8737 H              1 S1                 0.0000
     36 ****         4.8185  -0.8090  -1.4634 H              1 S1                 0.0000
     37 ****         7.2613  -0.2731  -1.6448 H              1 S1                 0.0000
     38 ****         7.9415   2.0226  -2.4031 H              1 S1                 0.0000
     39 ****         6.1449   3.6863  -2.9446 H              1 S1                 0.0000
     40 ****        -3.0277  -0.5902  -1.6696 H              1 S1                 0.0000
     41 ****        -0.7368  -2.6045  -1.4915 H              1 S1                 0.0000
     42 ****        -2.2550  -2.8059  -2.3499 H              1 S1                 0.0000
     43 ****        -2.2496  -2.7180  -0.5975 H              1 S1                 0.0000
     44 ****        -0.3267  -0.4941  -3.0307 H              1 S1                 0.0000
     45 ****        -1.4968   0.8247  -2.9944 H              1 S1                 0.0000
     46 ****        -1.9057  -0.6996  -3.7667 H              1 S1                 0.0000
     47 ****        -3.7449   0.7253   0.8784 H              1 S1                 0.0000
     48 ****        -3.9551  -0.8744   0.2141 H              1 S1                 0.0000
     49 ****        -5.1332  -0.4845   2.3716 H              1 S1                 0.0000
     50 ****        -4.7324  -2.7946   1.6692 H              1 S1                 0.0000
     51 ****        -4.5525  -2.6644   3.4145 H              1 S1                 0.0000
     52 ****        -3.1288  -2.7920   2.3828 H              1 S1                 0.0000
     53 ****        -1.7683  -1.4338   1.0023 LP             1 S1                 0.0000
     54 ****         0.2936  -1.8287   0.2017 LP             1 S1                 0.0000
     55 ****         1.7638  -0.9442  -0.0355 LP             1 S1                 0.0000
     56 ****         3.8802   3.1014  -2.7456 LP             1 S1                 0.0000
     57 ****        -3.6676   0.7641   3.4462 LP             1 S1                 0.0000
     58 ****        -3.8129  -0.6259   4.2908 LP             1 S1                 0.0000
@<TRIPOS>BOND
    1    1    2 1     
    2    1   24 1     
    3    1   25 1     
    4    1   26 1     
    5    2   23 1     
    6    2    3 1     
    7    2   27 1     
    8    3    4 1     
    9    3   28 1     
   10    3   29 1     
   11    4    5 1     
   12    4   20 1     
   13    5    6 1     
   14    5   17 1     
   15    5   30 1     
   16    6    7 2     
   17    6    8 am    
   18    8    9 1     
   19    8   31 1     
   20    9   10 1     
   21    9   32 1     
   22    9   33 1     
   23   10   11 1     
   24   10   34 1     
   25   10   35 1     
   26   11   16 ar    
   27   11   12 ar    
   28   12   13 ar    
   29   12   36 1     
   30   13   14 ar    
   31   13   37 1     
   32   14   15 ar    
   33   14   38 1     
   34   15   16 ar    
   35   15   39 1     
   36   17   18 1     
   37   17   19 1     
   38   17   40 1     
   39   18   41 1     
   40   18   42 1     
   41   18   43 1     
   42   19   44 1     
   43   19   45 1     
   44   19   46 1     
   45   20   21 1     
   46   20   47 1     
   47   20   48 1     
   48   21   22 1     
   49   21   23 1     
   50   21   49 1     
   51   22   50 1     
   52   22   51 1     
   53   22   52 1     
   54    4   53 1     
   55    7   54 1     
   56    7   55 1     
   57   16   56 1     
   58   23   57 1     
   59   23   58 1     
@<TRIPOS>SUBSTRUCTURE
      1 S1             1
@<TRIPOS>SET
LONE_PAIRS      STATIC     ATOMS    <user>   **** ""
6 53 54 55 56 57 58
DONOR_HYDROGENS      STATIC     ATOMS    <user>   **** ""
1 31
ATOM$BLUE        STATIC     ATOMS    COLORGROUP SYSTEM
6 53 54 55 56 57 58
ATOM$RED        STATIC     ATOMS    COLORGROUP SYSTEM
1 31
