AV-unprocessed.smi:3323|AV-procd|sdf|12777|dock1
  -GOLD-   2272019123D 1   1.00000     0.00000
 Structure written by MMmdl.
 37 38  0  0  0  0  0  0  0  0  1 V2000
  149.1916  141.3157  155.2664 C   0  0  0  0  0  0  0  0  0  0  0  0
  149.9758  140.0222  155.5113 C   0  0  2  0  0  0  0  0  0  0  0  0
  150.5048  139.9334  156.9561 C   0  0  0  0  0  0  0  0  0  0  0  0
  151.3547  138.6653  157.1739 C   0  0  1  0  0  0  0  0  0  0  0  0
  150.5381  137.3535  157.2465 C   0  0  0  0  0  0  0  0  0  0  0  0
  149.7531  137.2574  158.4746 N   0  0  0  0  0  0  0  0  0  0  0  0
  149.1538  136.1483  158.9323 C   0  0  0  0  0  0  0  0  0  0  0  0
  149.2161  135.0592  158.3630 O   0  0  0  0  0  0  0  0  0  0  0  0
  148.4946  136.3950  160.0778 N   0  0  0  0  0  0  0  0  0  0  0  0
  147.7098  135.5148  160.8729 C   0  0  0  0  0  0  0  0  0  0  0  0
  147.0928  135.8646  162.0994 C   0  0  0  0  0  0  0  0  0  0  0  0
  146.3529  134.8863  162.7919 C   0  0  0  0  0  0  0  0  0  0  0  0
  146.2608  133.5946  162.2389 C   0  0  0  0  0  0  0  0  0  0  0  0
  146.8499  133.2444  161.0767 N   0  0  0  0  0  0  0  0  0  0  0  0
  147.5569  134.1874  160.4184 C   0  0  0  0  0  0  0  0  0  0  0  0
  152.4350  138.6144  156.0787 C   0  0  0  0  0  0  0  0  0  0  0  0
  151.8289  138.7848  154.6740 C   0  0  0  0  0  0  0  0  0  0  0  0
  151.0764  139.9916  154.6073 O   0  0  0  0  0  0  0  0  0  0  0  0
  148.3249  141.3781  155.9250 H   0  0  0  0  0  0  0  0  0  0  0  0
  148.8314  141.3645  154.2387 H   0  0  0  0  0  0  0  0  0  0  0  0
  149.8123  142.1943  155.4444 H   0  0  0  0  0  0  0  0  0  0  0  0
  149.3162  139.1792  155.3007 H   0  0  0  0  0  0  0  0  0  0  0  0
  151.1231  140.8090  157.1586 H   0  0  0  0  0  0  0  0  0  0  0  0
  149.6817  139.9841  157.6683 H   0  0  0  0  0  0  0  0  0  0  0  0
  151.8645  138.7704  158.1327 H   0  0  0  0  0  0  0  0  0  0  0  0
  149.9030  137.2343  156.3682 H   0  0  0  0  0  0  0  0  0  0  0  0
  151.2201  136.5030  157.2344 H   0  0  0  0  0  0  0  0  0  0  0  0
  149.6511  138.1059  159.0120 H   0  0  0  0  0  0  0  0  0  0  0  0
  148.5843  137.3323  160.4418 H   0  0  0  0  0  0  0  0  0  0  0  0
  147.1752  136.8490  162.5313 H   0  0  0  0  0  0  0  0  0  0  0  0
  145.8694  135.1206  163.7286 H   0  0  0  0  0  0  0  0  0  0  0  0
  145.7028  132.8212  162.7457 H   0  0  0  0  0  0  0  0  0  0  0  0
  148.0166  133.8694  159.4940 H   0  0  0  0  0  0  0  0  0  0  0  0
  153.1537  139.4173  156.2486 H   0  0  0  0  0  0  0  0  0  0  0  0
  153.0000  137.6837  156.1378 H   0  0  0  0  0  0  0  0  0  0  0  0
  152.6240  138.8292  153.9295 H   0  0  0  0  0  0  0  0  0  0  0  0
  151.1989  137.9353  154.4079 H   0  0  0  0  0  0  0  0  0  0  0  0
  1  2  1  0  0  0  0
  1 19  1  0  0  0  0
  1 20  1  0  0  0  0
  1 21  1  0  0  0  0
  2 18  1  0  0  0  0
  2  3  1  0  0  0  0
  2 22  1  0  0  0  0
  3  4  1  0  0  0  0
  3 23  1  0  0  0  0
  3 24  1  0  0  0  0
  4  5  1  0  0  0  0
  4 16  1  0  0  0  0
  4 25  1  0  0  0  0
  5  6  1  0  0  0  0
  5 26  1  0  0  0  0
  5 27  1  0  0  0  0
  6  7  1  0  0  0  0
  6 28  1  0  0  0  0
  7  8  2  0  0  0  0
  7  9  1  0  0  0  0
  9 10  1  0  0  0  0
  9 29  1  0  0  0  0
 10 15  1  0  0  0  0
 10 11  2  0  0  0  0
 11 12  1  0  0  0  0
 11 30  1  0  0  0  0
 12 13  2  0  0  0  0
 12 31  1  0  0  0  0
 13 14  1  0  0  0  0
 13 32  1  0  0  0  0
 14 15  2  0  0  0  0
 15 33  1  0  0  0  0
 16 17  1  0  0  0  0
 16 34  1  0  0  0  0
 16 35  1  0  0  0  0
 17 18  1  0  0  0  0
 17 36  1  0  0  0  0
 17 37  1  0  0  0  0
M  END
> <s_m_source_file>
AV-unprocessed.smi

> <i_m_source_file_index>
3323

> <i_lp_mmshare_version>
43012

> <i_f3d_flags>
0

> <s_epik_input>
W0NIM11bQ0BASF0xW0NIMl1bQ0BIXShbQ0gyXVtDSDJdTzEpW0NIMl1bTkhdQyg9TylbTkhdYzJbY0hdW2NIXVtjSF1uW2NIXTI=

> <s_epik_cmdline>
J2VwaWtfcHl0aG9uJywgJy1waCcsICc3LjAnLCAnLXRuJywgJzgnLCAnLW1hJywgJzIwMCcsICctbWV0YWxfYmluZGluZycsICctaW1hZScsICc8aW5maWxlLm1hZT4nLCAnLW9tYWUnLCAnPG91dGZpbGUubWFlPic=

> <r_epik_Ionization_Penalty>
0.00485293

> <r_epik_Ionization_Penalty_Charging>
0

> <r_epik_Ionization_Penalty_Neutral>
0.00485293

> <r_epik_State_Penalty>
0.00349083

> <r_epik_Charging_Adjusted_Penalty>
0.00349083

> <i_epik_Tot_Q>
0

> <i_epik_Tot_abs_Q>
0

> <r_epik_Metal_State_Penalty>
-0

> <b_epik_Metal_Only>
0

> <s_lp_Force_Field>
OPLS_2005

> <r_lp_Energy>
13.5955

> <b_lp_Chiralities_Consistent>
1

> <s_lp_Variant>
AV-unprocessed.smi:3323-1

> <Gold.Version>
5.8.1

> <Gold.Id.Protein>
6NUR|6NUR_protein|mol2

> <Gold.PLP.Fitness>
35.0023

> <Gold.PLP.PLP>
-29.5278

> <Gold.PLP.part.hbond>
-1.8550

> <Gold.PLP.part.metal>
0.0000

> <Gold.PLP.part.buried>
-3.8691

> <Gold.PLP.part.nonpolar>
-24.2807

> <Gold.PLP.part.repulsive>
0.4548

> <Gold.PLP.ligand.clash>
0.0000

> <Gold.PLP.ligand.torsion>
0.1543

> <Gold.PLP.Chemscore.Hbond>
1.9263

> <Gold.PLP.Chemscore.CHOScore>
0.0000

> <Gold.PLP.Chemscore.Metal>
0.0000

> <Gold.Chemscore.Hbonds>
donor molecule, donor type, donor heavy atom, donor atom, acceptor molecule, acceptor atom, score
      P1  H  6896  6909       L1     8  0.85
      P1  H  7989  7998       L1    18  0.98

> <Gold.PLP.Chemscore.Internal.Correction>
0.0045

> <Gold.Rescore>
     Score         DG    S(hbond)    S(metal)    S(lipo)     H(rot)  DE(clash)    DE(int)     intcor
     16.52     -18.24       1.93        0.00      80.88       1.23       0.12       1.61       ----

> <Gold.Chemscore.Fitness>
16.5212

> <Gold.Chemscore.DG>
-18.2425

> <Gold.Chemscore.ZeroCoef>
-5.4800

> <Gold.Chemscore.Hbond>
1.9286

> <Gold.Chemscore.Metal>
0.0000

> <Gold.Chemscore.Lipo>
80.8783

> <Gold.Chemscore.Internal_Hbond>
0.0000

> <Gold.Chemscore.DEClash>
0.1154

> <Gold.Chemscore.DEInternal>
1.6059

> <Gold.Chemscore.Rot>
1.2273

> <Gold.Chemscore.Internal.Correction>
   9.000000E+99

> <Gold.Chemscore.Hbonds>
donor molecule, donor type, donor heavy atom, donor atom, acceptor molecule, acceptor atom, score
      P1  H  6896  6909       L1     8  0.15
      P1  H  7989  7998       L1    18  0.64

> <Gold.Chemscore.Hbond.Weighted>
-6.4416

> <Gold.Chemscore.Metal.Weighted>
-0.0000

> <Gold.Chemscore.Lipo.Weighted>
-9.4628

> <Gold.Chemscore.Internal_Hbond.Weighted>
0.0000

> <Gold.Chemscore.DEClash.Weighted>
0.1154

> <Gold.Chemscore.DEInternal.Weighted>
1.6059

> <Gold.Chemscore.Rot.Weighted>
3.1418

> <Gold.Chemscore.Internal.Correction.Weighted>
   9.000000E+99

> <Gold.Protein.RotatedTorsions>
[ 6907 6896 6895 6894 ] final   32.40 input  -60.11 | X-H torsion
[ 7974 7965 7964 7962 ] final  -10.04 input  175.53 | X-H torsion
[ 8008 7997 7996 7995 ] final  -16.53 input   59.86 | X-H torsion
[ 10167 10162 10161 10158 ] final  173.55 input  -65.29 | X-H torsion
[ 10718 10713 10712 10709 ] final  -17.29 input   66.30 | X-H torsion
[ 10763 10752 10751 10750 ] final -126.92 input  -60.55 | X-H torsion
[ 11005 11000 10999 10996 ] final   15.92 input  -57.11 | X-H torsion

> <Gold.Protein.ActiveResidues>
 VAL166  LYS551  ARG553  GLY616  TRP617  ASP618  TYR619  PRO620  LYS621  CYS622 
 ASP623  PHE694  ASN695  SER759  ASP760  ASP761  ALA762  ILE779  LEU786  VAL792 
 PHE793  MET794  SER795  GLU796  ALA797  LYS798  CYS799  TRP800  GLU811  SER814 

> <Gold.Protein.RotatedAtoms>
  152.0740  134.9515  160.0574 H   0  0  0  0  0  0  0  0  0  0  0  0  # atno 6907 bound_to 6896
  152.0830  133.4157  159.4518 H   0  0  0  0  0  0  0  0  0  0  0  0  # atno 6908 bound_to 6896
  150.6836  134.2880  159.4698 H   0  0  0  0  0  0  0  0  0  0  0  0  # atno 6909 bound_to 6896
  146.2233  140.2705  142.8356 H   0  0  0  0  0  0  0  0  0  0  0  0  # atno 7974 bound_to 7965
  154.5046  140.2167  155.9277 H   0  0  0  0  0  0  0  0  0  0  0  0  # atno 8008 bound_to 7997
  156.1478  140.3167  155.8565 H   0  0  0  0  0  0  0  0  0  0  0  0  # atno 8009 bound_to 7997
  155.3998  140.0483  157.3028 H   0  0  0  0  0  0  0  0  0  0  0  0  # atno 8010 bound_to 7997
  139.5112  144.3247  152.0169 H   0  0  0  0  0  0  0  0  0  0  0  0  # atno 10167 bound_to 10162
  156.5756  130.4761  149.6343 H   0  0  0  0  0  0  0  0  0  0  0  0  # atno 10718 bound_to 10713
  154.8749  135.3979  154.3509 H   0  0  0  0  0  0  0  0  0  0  0  0  # atno 10763 bound_to 10752
  153.4295  135.7025  153.6246 H   0  0  0  0  0  0  0  0  0  0  0  0  # atno 10764 bound_to 10752
  153.4873  135.3756  155.2443 H   0  0  0  0  0  0  0  0  0  0  0  0  # atno 10765 bound_to 10752
  140.4529  134.1206  155.7705 H   0  0  0  0  0  0  0  0  0  0  0  0  # atno 11005 bound_to 11000
  144.9271  140.7934  143.5712 LP  0  0  0  0  0  0  0  0  0  0  0  0  # atno 17320 bound_to 7965
  145.2646  139.1978  143.4874 LP  0  0  0  0  0  0  0  0  0  0  0  0  # atno 17321 bound_to 7965
  140.2688  144.3986  150.6158 LP  0  0  0  0  0  0  0  0  0  0  0  0  # atno 17342 bound_to 10162
  140.6103  143.2169  151.6899 LP  0  0  0  0  0  0  0  0  0  0  0  0  # atno 17343 bound_to 10162
  156.2676  130.6998  151.1786 LP  0  0  0  0  0  0  0  0  0  0  0  0  # atno 17370 bound_to 10713
  157.7338  131.0587  150.5556 LP  0  0  0  0  0  0  0  0  0  0  0  0  # atno 17371 bound_to 10713
  141.1656  133.8709  157.1724 LP  0  0  0  0  0  0  0  0  0  0  0  0  # atno 17394 bound_to 11000
  139.9995  135.0033  157.0158 LP  0  0  0  0  0  0  0  0  0  0  0  0  # atno 17395 bound_to 11000

$$$$
