AV-unprocessed.smi:543|AV-procd|sdf|2875|dock7
  -GOLD-   2262023363D 1   1.00000     0.00000
 Structure written by MMmdl.
 46 48  0  0  0  0  0  0  0  0  1 V2000
  146.4316  141.3777  153.2361 C   0  0  0  0  0  0  0  0  0  0  0  0
  147.0253  140.8061  154.3874 O   0  0  0  0  0  0  0  0  0  0  0  0
  146.9092  141.6370  155.5312 C   0  0  0  0  0  0  0  0  0  0  0  0
  147.9193  141.1901  156.5969 C   0  0  0  0  0  0  0  0  0  0  0  0
  148.0683  142.1868  157.6564 N   0  0  0  0  0  0  0  0  0  0  0  0
  149.1497  142.9541  157.9782 C   0  0  0  0  0  0  0  0  0  0  0  0
  150.3734  142.8583  157.3034 N   0  0  0  0  0  0  0  0  0  0  0  0
  150.6653  141.9568  156.1955 C   0  0  0  0  0  0  0  0  0  0  0  0
  151.6017  143.5263  157.7352 C   0  0  0  0  0  0  0  0  0  0  0  0
  152.0837  143.1688  159.1325 C   0  0  0  0  0  0  0  0  0  0  0  0
  152.8198  141.9832  159.3404 C   0  0  0  0  0  0  0  0  0  0  0  0
  153.2798  141.6510  160.6294 C   0  0  0  0  0  0  0  0  0  0  0  0
  153.0034  142.5013  161.7172 C   0  0  0  0  0  0  0  0  0  0  0  0
  152.2658  143.6837  161.5156 C   0  0  0  0  0  0  0  0  0  0  0  0
  151.8053  144.0160  160.2268 C   0  0  0  0  0  0  0  0  0  0  0  0
  148.9240  143.8323  158.9603 N   0  0  0  0  0  0  0  0  0  0  0  0
  147.6062  143.5961  159.3098 C   0  0  0  0  0  0  0  0  0  0  0  0
  147.0711  142.6215  158.5332 C   0  0  0  0  0  0  0  0  0  0  0  0
  145.6685  142.2005  158.6585 C   0  0  0  0  0  0  0  0  0  0  0  0
  145.1527  141.3368  157.9524 O   0  0  0  0  0  0  0  0  0  0  0  0
  144.9968  142.8677  159.6284 N   0  0  0  0  0  0  0  0  0  0  0  0
  145.4798  143.8491  160.4499 C   0  0  0  0  0  0  0  0  0  0  0  0
  144.7442  144.3650  161.2912 O   0  0  0  0  0  0  0  0  0  0  0  0
  146.7901  144.2220  160.2943 N   0  0  0  0  0  0  0  0  0  0  0  0
  147.3617  145.2665  161.1468 C   0  0  0  0  0  0  0  0  0  0  0  0
  144.0283  142.6143  159.7575 H   0  0  0  0  0  0  0  0  0  0  0  0
  146.5377  140.6947  152.3934 H   0  0  0  0  0  0  0  0  0  0  0  0
  146.9153  142.3183  152.9703 H   0  0  0  0  0  0  0  0  0  0  0  0
  145.3675  141.5612  153.3901 H   0  0  0  0  0  0  0  0  0  0  0  0
  147.0909  142.6777  155.2582 H   0  0  0  0  0  0  0  0  0  0  0  0
  145.8968  141.5776  155.9328 H   0  0  0  0  0  0  0  0  0  0  0  0
  147.6124  140.2427  157.0371 H   0  0  0  0  0  0  0  0  0  0  0  0
  148.8757  140.9794  156.1298 H   0  0  0  0  0  0  0  0  0  0  0  0
  149.8751  141.2141  156.0839 H   0  0  0  0  0  0  0  0  0  0  0  0
  151.5958  141.4118  156.3597 H   0  0  0  0  0  0  0  0  0  0  0  0
  150.7549  142.5145  155.2629 H   0  0  0  0  0  0  0  0  0  0  0  0
  152.4196  143.3455  157.0359 H   0  0  0  0  0  0  0  0  0  0  0  0
  151.4160  144.6002  157.6929 H   0  0  0  0  0  0  0  0  0  0  0  0
  153.0407  141.3275  158.5110 H   0  0  0  0  0  0  0  0  0  0  0  0
  153.8460  140.7442  160.7830 H   0  0  0  0  0  0  0  0  0  0  0  0
  153.3572  142.2473  162.7054 H   0  0  0  0  0  0  0  0  0  0  0  0
  152.0541  144.3367  162.3492 H   0  0  0  0  0  0  0  0  0  0  0  0
  151.2436  144.9265  160.0808 H   0  0  0  0  0  0  0  0  0  0  0  0
  146.8114  146.2009  161.0301 H   0  0  0  0  0  0  0  0  0  0  0  0
  148.4061  145.4736  160.9144 H   0  0  0  0  0  0  0  0  0  0  0  0
  147.3141  144.9719  162.1958 H   0  0  0  0  0  0  0  0  0  0  0  0
  1  2  1  0  0  0  0
  1 27  1  0  0  0  0
  1 28  1  0  0  0  0
  1 29  1  0  0  0  0
  2  3  1  0  0  0  0
  3  4  1  0  0  0  0
  3 30  1  0  0  0  0
  3 31  1  0  0  0  0
  4  5  1  0  0  0  0
  4 32  1  0  0  0  0
  4 33  1  0  0  0  0
  5 18  1  0  0  0  0
  5  6  1  0  0  0  0
  6  7  1  0  0  0  0
  6 16  2  0  0  0  0
  7  8  1  0  0  0  0
  7  9  1  0  0  0  0
  8 34  1  0  0  0  0
  8 35  1  0  0  0  0
  8 36  1  0  0  0  0
  9 10  1  0  0  0  0
  9 37  1  0  0  0  0
  9 38  1  0  0  0  0
 10 15  1  0  0  0  0
 10 11  2  0  0  0  0
 11 12  1  0  0  0  0
 11 39  1  0  0  0  0
 12 13  2  0  0  0  0
 12 40  1  0  0  0  0
 13 14  1  0  0  0  0
 13 41  1  0  0  0  0
 14 15  2  0  0  0  0
 14 42  1  0  0  0  0
 15 43  1  0  0  0  0
 16 17  1  0  0  0  0
 17 24  1  0  0  0  0
 17 18  2  0  0  0  0
 18 19  1  0  0  0  0
 19 20  2  0  0  0  0
 19 21  1  0  0  0  0
 21 26  1  0  0  0  0
 21 22  1  0  0  0  0
 22 23  2  0  0  0  0
 22 24  1  0  0  0  0
 24 25  1  0  0  0  0
 25 44  1  0  0  0  0
 25 45  1  0  0  0  0
 25 46  1  0  0  0  0
M  END
> <s_m_source_file>
AV-unprocessed.smi

> <i_m_source_file_index>
543

> <i_lp_mmshare_version>
43012

> <i_f3d_flags>
0

> <s_epik_input>
W0NIM11uMWMoPU8pW25IXWMoPU8pYyhjMTIpbihbQ0gyXVtDSDJdT1tDSDNdKWMobjIpTihbQ0gzXSlbQ0gyXWMzW2NIXVtjSF1bY0hdW2NIXVtjSF0z

> <s_epik_cmdline>
J2VwaWtfcHl0aG9uJywgJy1waCcsICc3LjAnLCAnLXRuJywgJzgnLCAnLW1hJywgJzIwMCcsICctbWV0YWxfYmluZGluZycsICctaW1hZScsICc8aW5maWxlLm1hZT4nLCAnLW9tYWUnLCAnPG91dGZpbGUubWFlPic=

> <r_lp_tautomer_probability>
1

> <r_epik_Ionization_Penalty>
3.94324e-05

> <r_epik_Ionization_Penalty_Charging>
1.70393e-05

> <r_epik_Ionization_Penalty_Neutral>
2.23931e-05

> <r_epik_State_Penalty>
-0

> <r_epik_Charging_Adjusted_Penalty>
1.70393e-05

> <i_epik_Tot_Q>
0

> <i_epik_Tot_abs_Q>
0

> <r_epik_Metal_State_Penalty>
0.0163311

> <b_epik_Metal_Only>
0

> <s_lp_Force_Field>
OPLS_2005

> <r_lp_Energy>
32.7304

> <b_lp_Chiralities_Consistent>
1

> <s_lp_Variant>
AV-unprocessed.smi:543-1

> <Gold.Version>
5.8.1

> <Gold.Id.Protein>
6NUR|6NUR_protein|mol2

> <Gold.PLP.Fitness>
48.0715

> <Gold.PLP.PLP>
-48.8976

> <Gold.PLP.part.hbond>
0.0000

> <Gold.PLP.part.metal>
0.0000

> <Gold.PLP.part.buried>
-7.0281

> <Gold.PLP.part.nonpolar>
-42.6317

> <Gold.PLP.part.repulsive>
0.8005

> <Gold.PLP.ligand.clash>
3.9488

> <Gold.PLP.ligand.torsion>
0.4875

> <Gold.PLP.Chemscore.Hbond>
0.0000

> <Gold.PLP.Chemscore.CHOScore>
0.0000

> <Gold.PLP.Chemscore.Metal>
0.0000

> <Gold.PLP.Chemscore.Internal.Correction>
4.0978

> <Gold.Rescore>
     Score         DG    S(hbond)    S(metal)    S(lipo)     H(rot)  DE(clash)    DE(int)     intcor
     11.97     -13.93       0.00        0.00     112.88       1.86       0.04       1.92       ----

> <Gold.Chemscore.Fitness>
11.9651

> <Gold.Chemscore.DG>
-13.9303

> <Gold.Chemscore.ZeroCoef>
-5.4800

> <Gold.Chemscore.Hbond>
0.0000

> <Gold.Chemscore.Metal>
0.0000

> <Gold.Chemscore.Lipo>
112.8777

> <Gold.Chemscore.Internal_Hbond>
0.0000

> <Gold.Chemscore.DEClash>
0.0429

> <Gold.Chemscore.DEInternal>
1.9223

> <Gold.Chemscore.Rot>
1.8580

> <Gold.Chemscore.Internal.Correction>
   9.000000E+99

> <Gold.Chemscore.Hbond.Weighted>
-0.0000

> <Gold.Chemscore.Metal.Weighted>
-0.0000

> <Gold.Chemscore.Lipo.Weighted>
-13.2067

> <Gold.Chemscore.Internal_Hbond.Weighted>
0.0000

> <Gold.Chemscore.DEClash.Weighted>
0.0429

> <Gold.Chemscore.DEInternal.Weighted>
1.9223

> <Gold.Chemscore.Rot.Weighted>
4.7564

> <Gold.Chemscore.Internal.Correction.Weighted>
   9.000000E+99

> <Gold.Protein.RotatedTorsions>
[ 6907 6896 6895 6894 ] final -146.12 input  -60.11 | X-H torsion
[ 7974 7965 7964 7962 ] final  135.05 input  175.53 | X-H torsion
[ 8008 7997 7996 7995 ] final  -57.46 input   59.86 | X-H torsion
[ 10167 10162 10161 10158 ] final  -39.22 input  -65.29 | X-H torsion
[ 10718 10713 10712 10709 ] final  -59.70 input   66.30 | X-H torsion
[ 10763 10752 10751 10750 ] final  -33.52 input  -60.55 | X-H torsion
[ 11005 11000 10999 10996 ] final  -46.97 input  -57.11 | X-H torsion

> <Gold.Protein.ActiveResidues>
 VAL166  LYS551  ARG553  GLY616  TRP617  ASP618  TYR619  PRO620  LYS621  CYS622 
 ASP623  PHE694  ASN695  SER759  ASP760  ASP761  ALA762  ILE779  LEU786  VAL792 
 PHE793  MET794  SER795  GLU796  ALA797  LYS798  CYS799  TRP800  GLU811  SER814 

> <Gold.Protein.RotatedAtoms>
  151.1372  133.4996  159.2597 H   0  0  0  0  0  0  0  0  0  0  0  0  # atno 6907 bound_to 6896
  151.1694  135.0310  159.8755 H   0  0  0  0  0  0  0  0  0  0  0  0  # atno 6908 bound_to 6896
  152.5461  134.1237  159.8463 H   0  0  0  0  0  0  0  0  0  0  0  0  # atno 6909 bound_to 6896
  144.9702  139.4614  143.5437 H   0  0  0  0  0  0  0  0  0  0  0  0  # atno 7974 bound_to 7965
  154.4269  140.1106  156.5802 H   0  0  0  0  0  0  0  0  0  0  0  0  # atno 8008 bound_to 7997
  155.6121  140.3494  155.4606 H   0  0  0  0  0  0  0  0  0  0  0  0  # atno 8009 bound_to 7997
  156.0091  140.1215  157.0461 H   0  0  0  0  0  0  0  0  0  0  0  0  # atno 8010 bound_to 7997
  140.7070  143.3228  151.2752 H   0  0  0  0  0  0  0  0  0  0  0  0  # atno 10167 bound_to 10162
  156.1043  130.4182  150.0751 H   0  0  0  0  0  0  0  0  0  0  0  0  # atno 10718 bound_to 10713
  153.8315  135.6865  153.4814 H   0  0  0  0  0  0  0  0  0  0  0  0  # atno 10763 bound_to 10752
  153.1508  135.4619  154.9632 H   0  0  0  0  0  0  0  0  0  0  0  0  # atno 10764 bound_to 10752
  154.7884  135.3293  154.7778 H   0  0  0  0  0  0  0  0  0  0  0  0  # atno 10765 bound_to 10752
  141.0612  133.6708  156.3230 H   0  0  0  0  0  0  0  0  0  0  0  0  # atno 11005 bound_to 11000
  146.3379  139.8908  142.8809 LP  0  0  0  0  0  0  0  0  0  0  0  0  # atno 17320 bound_to 7965
  145.2571  141.0064  143.3848 LP  0  0  0  0  0  0  0  0  0  0  0  0  # atno 17321 bound_to 7965
  139.6687  144.0059  152.2739 LP  0  0  0  0  0  0  0  0  0  0  0  0  # atno 17342 bound_to 10162
  139.9651  144.6532  150.8042 LP  0  0  0  0  0  0  0  0  0  0  0  0  # atno 17343 bound_to 10162
  156.8730  130.9531  151.3607 LP  0  0  0  0  0  0  0  0  0  0  0  0  # atno 17370 bound_to 10713
  157.6218  130.8661  149.9121 LP  0  0  0  0  0  0  0  0  0  0  0  0  # atno 17371 bound_to 10713
  140.5865  134.5693  157.5491 LP  0  0  0  0  0  0  0  0  0  0  0  0  # atno 17394 bound_to 11000
  139.9434  134.7746  156.0622 LP  0  0  0  0  0  0  0  0  0  0  0  0  # atno 17395 bound_to 11000

$$$$
