AV-unprocessed.smi:35|AV-procd|sdf|278|dock5
  -GOLD-   2262016 53D 1   1.00000     0.00000
 Structure written by MMmdl.
 28 29  0  0  0  0  0  0  0  0  2 V2000
  152.7098  142.2020  159.7050 O   0  0  0  0  0  0  0  0  0  0  0  0
  151.9249  141.7168  158.8925 C   0  0  0  0  0  0  0  0  0  0  0  0
  151.4773  140.4307  158.9712 N   0  5  0  0  0  0  0  0  0  0  0  0
  150.6161  139.8926  158.0585 C   0  0  0  0  0  0  0  0  0  0  0  0
  150.1965  138.7373  158.1320 O   0  0  0  0  0  0  0  0  0  0  0  0
  150.1761  140.6927  156.9669 N   0  0  0  0  0  0  0  0  0  0  0  0
  149.2175  140.0829  155.9581 C   0  0  1  0  0  0  0  0  0  0  0  0
  147.9554  140.6700  156.0979 O   0  0  0  0  0  0  0  0  0  0  0  0
  147.8000  141.7078  155.1345 C   0  0  2  0  0  0  0  0  0  0  0  0
  146.3214  142.0968  154.9666 C   0  0  0  0  0  0  0  0  0  0  0  0
  145.5490  140.9438  154.7094 O   0  0  0  0  0  0  0  0  0  0  0  0
  148.4736  141.0957  153.9027 C   0  0  2  0  0  0  0  0  0  0  0  0
  147.5867  140.2075  153.2412 O   0  0  0  0  0  0  0  0  0  0  0  0
  149.6781  140.3797  154.5134 C   0  0  2  0  0  0  0  0  0  0  0  0
  150.0458  139.2196  153.7910 O   0  0  0  0  0  0  0  0  0  0  0  0
  150.5913  142.0130  156.8803 C   0  0  0  0  0  0  0  0  0  0  0  0
  151.4374  142.5388  157.7889 C   0  0  0  0  0  0  0  0  0  0  0  0
  151.9495  144.4361  157.5339 Br  0  0  0  0  0  0  0  0  0  0  0  0
  149.1630  139.0231  156.2133 H   0  0  0  0  0  0  0  0  0  0  0  0
  148.3816  142.5800  155.4393 H   0  0  0  0  0  0  0  0  0  0  0  0
  145.9446  142.5458  155.8859 H   0  0  0  0  0  0  0  0  0  0  0  0
  146.1879  142.8267  154.1674 H   0  0  0  0  0  0  0  0  0  0  0  0
  144.9734  141.1283  153.9827 H   0  0  0  0  0  0  0  0  0  0  0  0
  148.7822  141.8600  153.1888 H   0  0  0  0  0  0  0  0  0  0  0  0
  147.9417  140.0211  152.3851 H   0  0  0  0  0  0  0  0  0  0  0  0
  150.5257  141.0665  154.5381 H   0  0  0  0  0  0  0  0  0  0  0  0
  150.1345  139.4586  152.8801 H   0  0  0  0  0  0  0  0  0  0  0  0
  150.2425  142.6503  156.0827 H   0  0  0  0  0  0  0  0  0  0  0  0
  1  2  2  0  0  0  0
  2 17  1  0  0  0  0
  2  3  1  0  0  0  0
  3  4  1  0  0  0  0
  4  5  2  0  0  0  0
  4  6  1  0  0  0  0
  6  7  1  0  0  0  0
  6 16  1  0  0  0  0
  7 14  1  0  0  0  0
  7  8  1  0  0  0  0
  7 19  1  0  0  0  0
  8  9  1  0  0  0  0
  9 10  1  0  0  0  0
  9 12  1  0  0  0  0
  9 20  1  0  0  0  0
 10 11  1  0  0  0  0
 10 21  1  0  0  0  0
 10 22  1  0  0  0  0
 11 23  1  0  0  0  0
 12 13  1  0  0  0  0
 12 14  1  0  0  0  0
 12 24  1  0  0  0  0
 13 25  1  0  0  0  0
 14 15  1  0  0  0  0
 14 26  1  0  0  0  0
 15 27  1  0  0  0  0
 16 17  2  0  0  0  0
 16 28  1  0  0  0  0
 17 18  1  0  0  0  0
M  CHG  1   3  -1
M  END
> <s_m_source_file>
AV-unprocessed.smi

> <i_m_source_file_index>
35

> <i_lp_mmshare_version>
43012

> <i_f3d_flags>
0

> <s_epik_input>
Tz1jMVtuSF1jKD1PKW4oW2NIXWMxQnIpW0NAQEhdMk9bQ0BASF0oW0NIMl1bT0hdKVtDQEBIXShbT0hdKVtDQEhdMltPSF0=

> <s_epik_cmdline>
J2VwaWtfcHl0aG9uJywgJy1waCcsICc3LjAnLCAnLXRuJywgJzgnLCAnLW1hJywgJzIwMCcsICctbWV0YWxfYmluZGluZycsICctaW1hZScsICc8aW5maWxlLm1hZT4nLCAnLW9tYWUnLCAnPG91dGZpbGUubWFlPic=

> <r_epik_Ionization_Penalty>
1.06112

> <r_epik_Ionization_Penalty_Charging>
2.1796e-09

> <r_epik_Ionization_Penalty_Neutral>
1.06112

> <r_epik_State_Penalty>
1.11484

> <r_epik_Charging_Adjusted_Penalty>
1.11484

> <i_epik_Tot_Q>
-1

> <i_epik_Tot_abs_Q>
1

> <r_epik_Metal_State_Penalty>
0.0032876

> <b_epik_Metal_Only>
0

> <s_epik_Chemistry_Notes>
This compound contains an acetal/aminal-like group ( X-CH(R)-Y where X, Y are N, S, or O) that may be acid/base labile, releasing an aldehyde.

> <s_lp_Force_Field>
OPLS_2005

> <r_lp_Energy>
41.3474

> <b_lp_Chiralities_Consistent>
1

> <s_lp_Variant>
AV-unprocessed.smi:35-32

> <Gold.Version>
5.8.1

> <Gold.Id.Protein>
6NUR|6NUR_protein|mol2

> <Gold.PLP.Fitness>
41.2557

> <Gold.PLP.PLP>
-29.7138

> <Gold.PLP.part.hbond>
-3.6775

> <Gold.PLP.part.metal>
0.0000

> <Gold.PLP.part.buried>
-2.7121

> <Gold.PLP.part.nonpolar>
-22.8715

> <Gold.PLP.part.repulsive>
0.0414

> <Gold.PLP.ligand.clash>
0.0000

> <Gold.PLP.ligand.torsion>
0.2269

> <Gold.PLP.Chemscore.Hbond>
2.9920

> <Gold.PLP.Chemscore.CHOScore>
1.0000

> <Gold.PLP.Chemscore.Metal>
0.0000

> <Gold.Chemscore.Hbonds>
donor molecule, donor type, donor heavy atom, donor atom, acceptor molecule, acceptor atom, score
      L1  H    11    23       P1 10175  0.89
      L1  H    13    25       P1  7957  0.90
      L1  H    15    27       P1  7957  1.00
      L1  C    16    28       P1  8028  1.00

> <Gold.PLP.Chemscore.Internal.Correction>
0.0197

> <Gold.Rescore>
     Score         DG    S(hbond)    S(metal)    S(lipo)     H(rot)  DE(clash)    DE(int)     intcor
     11.46     -12.00       2.83        0.00      54.22       3.63       0.44       0.10       ----

> <Gold.Chemscore.Fitness>
11.4583

> <Gold.Chemscore.DG>
-11.9998

> <Gold.Chemscore.ZeroCoef>
-5.4800

> <Gold.Chemscore.Hbond>
2.8320

> <Gold.Chemscore.Metal>
0.0000

> <Gold.Chemscore.Lipo>
54.2190

> <Gold.Chemscore.Internal_Hbond>
0.0000

> <Gold.Chemscore.DEClash>
0.4425

> <Gold.Chemscore.DEInternal>
0.0990

> <Gold.Chemscore.Rot>
3.6261

> <Gold.Chemscore.Internal.Correction>
   9.000000E+99

> <Gold.Chemscore.Hbonds>
donor molecule, donor type, donor heavy atom, donor atom, acceptor molecule, acceptor atom, score
      L1  H    11    23       P1 10175  0.62
      L1  H    13    25       P1  7957  0.83
      L1  H    15    27       P1  7957  0.95

> <Gold.Chemscore.Hbond.Weighted>
-9.4589

> <Gold.Chemscore.Metal.Weighted>
-0.0000

> <Gold.Chemscore.Lipo.Weighted>
-6.3436

> <Gold.Chemscore.Internal_Hbond.Weighted>
0.0000

> <Gold.Chemscore.DEClash.Weighted>
0.4425

> <Gold.Chemscore.DEInternal.Weighted>
0.0990

> <Gold.Chemscore.Rot.Weighted>
9.2828

> <Gold.Chemscore.Internal.Correction.Weighted>
   9.000000E+99

> <Gold.Protein.RotatedTorsions>
[ 6907 6896 6895 6894 ] final    6.79 input  -60.11 | X-H torsion
[ 7974 7965 7964 7962 ] final  119.97 input  175.53 | X-H torsion
[ 8008 7997 7996 7995 ] final  -86.71 input   59.86 | X-H torsion
[ 10167 10162 10161 10158 ] final  168.23 input  -65.29 | X-H torsion
[ 10718 10713 10712 10709 ] final   57.07 input   66.30 | X-H torsion
[ 10763 10752 10751 10750 ] final   26.97 input  -60.55 | X-H torsion
[ 11005 11000 10999 10996 ] final  160.26 input  -57.11 | X-H torsion

> <Gold.Protein.ActiveResidues>
 VAL166  LYS551  ARG553  GLY616  TRP617  ASP618  TYR619  PRO620  LYS621  CYS622 
 ASP623  PHE694  ASN695  SER759  ASP760  ASP761  ALA762  ILE779  LEU786  VAL792 
 PHE793  MET794  SER795  GLU796  ALA797  LYS798  CYS799  TRP800  GLU811  SER814 

> <Gold.Protein.RotatedAtoms>
  151.6794  135.0964  160.0212 H   0  0  0  0  0  0  0  0  0  0  0  0  # atno 6907 bound_to 6896
  152.3844  133.6587  159.6195 H   0  0  0  0  0  0  0  0  0  0  0  0  # atno 6908 bound_to 6896
  150.7773  133.8976  159.3373 H   0  0  0  0  0  0  0  0  0  0  0  0  # atno 6909 bound_to 6896
  145.1368  139.3293  143.4636 H   0  0  0  0  0  0  0  0  0  0  0  0  # atno 7974 bound_to 7965
  154.6550  140.0575  156.9998 H   0  0  0  0  0  0  0  0  0  0  0  0  # atno 8008 bound_to 7997
  155.1314  140.3257  155.4454 H   0  0  0  0  0  0  0  0  0  0  0  0  # atno 8009 bound_to 7997
  156.2593  140.1980  156.6433 H   0  0  0  0  0  0  0  0  0  0  0  0  # atno 8010 bound_to 7997
  139.4963  144.3837  151.9594 H   0  0  0  0  0  0  0  0  0  0  0  0  # atno 10167 bound_to 10162
  157.5484  130.8747  149.8925 H   0  0  0  0  0  0  0  0  0  0  0  0  # atno 10718 bound_to 10713
  153.0586  135.6548  154.0516 H   0  0  0  0  0  0  0  0  0  0  0  0  # atno 10763 bound_to 10752
  154.0189  135.2921  155.3385 H   0  0  0  0  0  0  0  0  0  0  0  0  # atno 10764 bound_to 10752
  154.6914  135.5281  153.8465 H   0  0  0  0  0  0  0  0  0  0  0  0  # atno 10765 bound_to 10752
  140.2042  134.8315  157.3051 H   0  0  0  0  0  0  0  0  0  0  0  0  # atno 11005 bound_to 11000
  146.3509  140.1389  142.8595 LP  0  0  0  0  0  0  0  0  0  0  0  0  # atno 17320 bound_to 7965
  145.0575  140.9063  143.4958 LP  0  0  0  0  0  0  0  0  0  0  0  0  # atno 17321 bound_to 7965
  140.3274  144.3357  150.5995 LP  0  0  0  0  0  0  0  0  0  0  0  0  # atno 17342 bound_to 10162
  140.5673  143.2185  151.7661 LP  0  0  0  0  0  0  0  0  0  0  0  0  # atno 17343 bound_to 10162
  156.0555  130.3709  150.1101 LP  0  0  0  0  0  0  0  0  0  0  0  0  # atno 17370 bound_to 10713
  156.9276  130.9703  151.3538 LP  0  0  0  0  0  0  0  0  0  0  0  0  # atno 17371 bound_to 10713
  140.2021  134.4242  155.7657 LP  0  0  0  0  0  0  0  0  0  0  0  0  # atno 17394 bound_to 11000
  141.2227  133.7077  156.8201 LP  0  0  0  0  0  0  0  0  0  0  0  0  # atno 17395 bound_to 11000

$$$$
