#       Name:                AV-unprocessed.smi:1701
#       Creating user name   scv26
#       Creation time:       Fri Mar 27 07:59:59 2020


#       File generated by GOLD software.
#

@<TRIPOS>MOLECULE
AV-unprocessed.smi:1701
    57    59     1
SMALL
NO_CHARGES


@<TRIPOS>ATOM
      1 ****        -5.6650  -1.2153   2.0921 C.3            1 S1                 0.0000
      2 ****        -5.7050  -1.8138   0.6781 C.3            1 S1                 0.0000
      3 ****        -5.0996  -0.9478  -0.3338 N.pl3          1 S1                 0.0000
      4 ****        -5.9326   0.0364  -1.0294 C.3            1 S1                 0.0000
      5 ****        -5.9068   1.4247  -0.3721 C.3            1 S1                 0.0000
      6 ****        -3.6939  -0.9298  -0.5071 C.ar           1 S1                 0.0000
      7 ****        -2.7981  -1.7187   0.2579 C.ar           1 S1                 0.0000
      8 ****        -1.4105  -1.6404   0.0215 C.ar           1 S1                 0.0000
      9 ****        -0.9156  -0.7844  -0.9835 C.ar           1 S1                 0.0000
     10 ****         0.4919  -0.7268  -1.1729 N.am           1 S1                 0.0000
     11 ****         1.1808  -0.2445  -2.2262 C.2            1 S1                 0.0000
     12 ****         0.6712   0.1797  -3.2603 O.2            1 S1                 0.0000
     13 ****         2.5172  -0.2793  -2.0753 N.am           1 S1                 0.0000
     14 ****         3.5489   0.1620  -3.0173 C.3            1 S1                 0.0000
     15 ****         4.9288   0.2694  -2.3798 C.3            1 S1                 0.0000
     16 ****         5.8721   0.2589  -3.5866 C.3            1 S1                 0.0000
     17 ****         5.1751  -0.4779  -4.6692 N.4            1 S1                 1.0000
     18 ****         5.9437  -1.6325  -5.2067 C.3            1 S1                 0.0000
     19 ****         5.0353  -2.5638  -6.0226 C.3            1 S1                 0.0000
     20 ****         3.9144  -3.1627  -5.1521 C.3            1 S1                 0.0000
     21 ****         3.6006  -2.2972  -3.9164 C.3            1 S1                 0.0000
     22 ****         3.7915  -0.7885  -4.2076 C.3            1 S1                 0.0000
     23 ****        -1.8453  -0.0102  -1.7160 C.ar           1 S1                 0.0000
     24 ****        -3.1657  -0.1156  -1.4540 N.pl3          1 S1                 1.0000
     25 ****        -6.0834  -1.9157   2.8149 H              1 S1                 0.0000
     26 ****        -6.2487  -0.2981   2.1563 H              1 S1                 0.0000
     27 ****        -4.6466  -0.9875   2.4064 H              1 S1                 0.0000
     28 ****        -5.2309  -2.7950   0.6645 H              1 S1                 0.0000
     29 ****        -6.7440  -1.9982   0.4039 H              1 S1                 0.0000
     30 ****        -5.6310   0.1101  -2.0747 H              1 S1                 0.0000
     31 ****        -6.9613  -0.3245  -1.0521 H              1 S1                 0.0000
     32 ****        -6.5210   2.1260  -0.9373 H              1 S1                 0.0000
     33 ****        -4.8968   1.8327  -0.3314 H              1 S1                 0.0000
     34 ****        -6.2976   1.3977   0.6440 H              1 S1                 0.0000
     35 ****        -3.1466  -2.3835   1.0331 H              1 S1                 0.0000
     36 ****        -0.7328  -2.2409   0.6109 H              1 S1                 0.0000
     37 ****         1.0449  -1.1277  -0.4301 H              1 S1                 0.0000
     38 ****         2.8564  -0.6793  -1.2120 H              1 S1                 0.0000
     39 ****         3.2898   1.1515  -3.3992 H              1 S1                 0.0000
     40 ****         5.0452   1.1610  -1.7629 H              1 S1                 0.0000
     41 ****         5.1251  -0.6011  -1.7517 H              1 S1                 0.0000
     42 ****         6.0454   1.2780  -3.9341 H              1 S1                 0.0000
     43 ****         6.8441  -0.1663  -3.3327 H              1 S1                 0.0000
     44 ****         6.7626  -1.2583  -5.8222 H              1 S1                 0.0000
     45 ****         6.3956  -2.1983  -4.3901 H              1 S1                 0.0000
     46 ****         4.5957  -1.9981  -6.8453 H              1 S1                 0.0000
     47 ****         5.6185  -3.3631  -6.4809 H              1 S1                 0.0000
     48 ****         3.0184  -3.2833  -5.7618 H              1 S1                 0.0000
     49 ****         4.1914  -4.1643  -4.8209 H              1 S1                 0.0000
     50 ****         2.5844  -2.5109  -3.5851 H              1 S1                 0.0000
     51 ****         4.2548  -2.5912  -3.0943 H              1 S1                 0.0000
     52 ****         3.1054  -0.5234  -5.0131 H              1 S1                 0.0000
     53 ****        -1.5951   0.6975  -2.4916 H              1 S1                 0.0000
     54 ****         5.0706   0.1757  -5.4325 H              1 S1                 0.0000
     55 ****        -3.8062   0.4579  -2.0030 H              1 S1                 0.0000
     56 ****        -0.3236   0.1825  -3.3629 LP             1 S1                 0.0000
     57 ****         1.2510   0.5222  -3.9995 LP             1 S1                 0.0000
@<TRIPOS>BOND
    1    1    2 1     
    2    1   25 1     
    3    1   26 1     
    4    1   27 1     
    5    2    3 1     
    6    2   28 1     
    7    2   29 1     
    8    3    4 1     
    9    3    6 1     
   10    4    5 1     
   11    4   30 1     
   12    4   31 1     
   13    5   32 1     
   14    5   33 1     
   15    5   34 1     
   16    6   24 ar    
   17    6    7 ar    
   18    7    8 ar    
   19    7   35 1     
   20    8    9 ar    
   21    8   36 1     
   22    9   10 1     
   23    9   23 ar    
   24   10   11 am    
   25   10   37 1     
   26   11   12 2     
   27   11   13 am    
   28   13   14 1     
   29   13   38 1     
   30   14   22 1     
   31   14   15 1     
   32   14   39 1     
   33   15   16 1     
   34   15   40 1     
   35   15   41 1     
   36   16   17 1     
   37   16   42 1     
   38   16   43 1     
   39   17   22 1     
   40   17   18 1     
   41   17   54 1     
   42   18   19 1     
   43   18   44 1     
   44   18   45 1     
   45   19   20 1     
   46   19   46 1     
   47   19   47 1     
   48   20   21 1     
   49   20   48 1     
   50   20   49 1     
   51   21   22 1     
   52   21   50 1     
   53   21   51 1     
   54   22   52 1     
   55   23   24 ar    
   56   23   53 1     
   57   24   55 1     
   58   12   56 1     
   59   12   57 1     
@<TRIPOS>SUBSTRUCTURE
      1 S1             1
@<TRIPOS>SET
LONE_PAIRS      STATIC     ATOMS    <user>   **** ""
2 56 57
DONOR_HYDROGENS      STATIC     ATOMS    <user>   **** ""
4 37 38 54 55
ATOM$BLUE        STATIC     ATOMS    COLORGROUP SYSTEM
2 56 57
ATOM$RED        STATIC     ATOMS    COLORGROUP SYSTEM
4 37 38 54 55
