AV-unprocessed.smi:1151|AV-procd|sdf|4896|dock9
  -GOLD-   22720 3473D 1   1.00000     0.00000
 Structure written by MMmdl.
 35 36  0  0  0  0  0  0  0  0  1 V2000
  154.5089  141.9047  161.4721 C   0  0  0  0  0  0  0  0  0  0  0  0
  153.4632  142.7773  160.8669 C   0  0  0  0  0  0  0  0  0  0  0  0
  152.8813  142.5250  159.6915 N   0  0  0  0  0  0  0  0  0  0  0  0
  151.9330  143.4915  159.3424 C   0  0  0  0  0  0  0  0  0  0  0  0
  151.1863  143.3782  158.0446 C   0  0  0  0  0  0  0  0  0  0  0  0
  151.5753  142.1361  157.2168 C   0  0  0  0  0  0  0  0  0  0  0  0
  150.4411  141.5444  156.5130 N   0  0  0  0  0  0  0  0  0  0  0  0
  150.5306  140.6956  155.4779 C   0  0  0  0  0  0  0  0  0  0  0  0
  151.6019  140.3584  154.9730 O   0  0  0  0  0  0  0  0  0  0  0  0
  149.2080  140.1294  154.9450 C   0  0  1  0  0  0  0  0  0  0  0  0
  148.4242  141.1874  154.1505 C   0  0  0  0  0  0  0  0  0  0  0  0
  147.0779  140.6269  153.6647 C   0  0  0  0  0  0  0  0  0  0  0  0
  147.1886  139.2295  153.0367 C   0  0  0  0  0  0  0  0  0  0  0  0
  146.2731  138.8089  152.3332 O   0  0  0  0  0  0  0  0  0  0  0  0
  148.2727  138.4791  153.3007 N   0  0  0  0  0  0  0  0  0  0  0  0
  149.4581  138.8985  154.0486 C   0  0  0  0  0  0  0  0  0  0  0  0
  151.8054  144.4875  160.2786 C   0  0  0  0  0  0  0  0  0  0  0  0
  152.8779  144.2506  161.6301 S   0  0  0  0  0  0  0  0  0  0  0  0
  154.4533  140.8975  161.0578 H   0  0  0  0  0  0  0  0  0  0  0  0
  154.3682  141.8449  162.5514 H   0  0  0  0  0  0  0  0  0  0  0  0
  155.4985  142.3141  161.2691 H   0  0  0  0  0  0  0  0  0  0  0  0
  150.1124  143.3592  158.2324 H   0  0  0  0  0  0  0  0  0  0  0  0
  151.3586  144.2737  157.4463 H   0  0  0  0  0  0  0  0  0  0  0  0
  152.3088  142.4212  156.4620 H   0  0  0  0  0  0  0  0  0  0  0  0
  152.0581  141.3902  157.8501 H   0  0  0  0  0  0  0  0  0  0  0  0
  149.5214  141.7686  156.8644 H   0  0  0  0  0  0  0  0  0  0  0  0
  148.5944  139.8199  155.7933 H   0  0  0  0  0  0  0  0  0  0  0  0
  148.2487  142.0708  154.7662 H   0  0  0  0  0  0  0  0  0  0  0  0
  149.0060  141.5225  153.2898 H   0  0  0  0  0  0  0  0  0  0  0  0
  146.3884  140.5557  154.5065 H   0  0  0  0  0  0  0  0  0  0  0  0
  146.6248  141.3132  152.9483 H   0  0  0  0  0  0  0  0  0  0  0  0
  148.3004  137.5522  152.9013 H   0  0  0  0  0  0  0  0  0  0  0  0
  150.2464  139.1030  153.3223 H   0  0  0  0  0  0  0  0  0  0  0  0
  149.8025  138.0586  154.6530 H   0  0  0  0  0  0  0  0  0  0  0  0
  151.1530  145.3478  160.2495 H   0  0  0  0  0  0  0  0  0  0  0  0
  1  2  1  0  0  0  0
  1 19  1  0  0  0  0
  1 20  1  0  0  0  0
  1 21  1  0  0  0  0
  2 18  1  0  0  0  0
  2  3  2  0  0  0  0
  3  4  1  0  0  0  0
  4  5  1  0  0  0  0
  4 17  2  0  0  0  0
  5  6  1  0  0  0  0
  5 22  1  0  0  0  0
  5 23  1  0  0  0  0
  6  7  1  0  0  0  0
  6 24  1  0  0  0  0
  6 25  1  0  0  0  0
  7  8  1  0  0  0  0
  7 26  1  0  0  0  0
  8  9  2  0  0  0  0
  8 10  1  0  0  0  0
 10 16  1  0  0  0  0
 10 11  1  0  0  0  0
 10 27  1  0  0  0  0
 11 12  1  0  0  0  0
 11 28  1  0  0  0  0
 11 29  1  0  0  0  0
 12 13  1  0  0  0  0
 12 30  1  0  0  0  0
 12 31  1  0  0  0  0
 13 14  2  0  0  0  0
 13 15  1  0  0  0  0
 15 16  1  0  0  0  0
 15 32  1  0  0  0  0
 16 33  1  0  0  0  0
 16 34  1  0  0  0  0
 17 18  1  0  0  0  0
 17 35  1  0  0  0  0
M  END
> <s_m_source_file>
AV-unprocessed.smi

> <i_m_source_file_index>
1151

> <i_lp_mmshare_version>
43012

> <i_f3d_flags>
0

> <s_epik_input>
W0NIM11jMW5jKFtjSF1zMSlbQ0gyXVtDSDJdW05IXUMoPU8pW0NAQEhdMltDSDJdW0NIMl1DKD1PKVtOSF1bQ0gyXTI=

> <s_epik_cmdline>
J2VwaWtfcHl0aG9uJywgJy1waCcsICc3LjAnLCAnLXRuJywgJzgnLCAnLW1hJywgJzIwMCcsICctbWV0YWxfYmluZGluZycsICctaW1hZScsICc8aW5maWxlLm1hZT4nLCAnLW9tYWUnLCAnPG91dGZpbGUubWFlPic=

> <r_epik_Ionization_Penalty>
0.00105008

> <r_epik_Ionization_Penalty_Charging>
0

> <r_epik_Ionization_Penalty_Neutral>
0.00105008

> <r_epik_State_Penalty>
0.000686749

> <r_epik_Charging_Adjusted_Penalty>
0.000686749

> <i_epik_Tot_Q>
0

> <i_epik_Tot_abs_Q>
0

> <r_epik_Metal_State_Penalty>
-0

> <b_epik_Metal_Only>
0

> <s_lp_Force_Field>
OPLS_2005

> <r_lp_Energy>
7.51238

> <b_lp_Chiralities_Consistent>
1

> <s_lp_Variant>
AV-unprocessed.smi:1151-2

> <Gold.Version>
5.8.1

> <Gold.Id.Protein>
6NUR|6NUR_protein|mol2

> <Gold.PLP.Fitness>
44.9429

> <Gold.PLP.PLP>
-40.4463

> <Gold.PLP.part.hbond>
-3.0000

> <Gold.PLP.part.metal>
0.0000

> <Gold.PLP.part.buried>
-4.1311

> <Gold.PLP.part.nonpolar>
-33.2715

> <Gold.PLP.part.repulsive>
0.4508

> <Gold.PLP.ligand.clash>
0.0000

> <Gold.PLP.ligand.torsion>
0.7197

> <Gold.PLP.Chemscore.Hbond>
1.9760

> <Gold.PLP.Chemscore.CHOScore>
0.0000

> <Gold.PLP.Chemscore.Metal>
0.0000

> <Gold.Chemscore.Hbonds>
donor molecule, donor type, donor heavy atom, donor atom, acceptor molecule, acceptor atom, score
      L1  H    15    32       P1  7948  1.00
      P1  H  7989  7998       L1     9  0.93

> <Gold.PLP.Chemscore.Internal.Correction>
0.0081

> <Gold.Rescore>
     Score         DG    S(hbond)    S(metal)    S(lipo)     H(rot)  DE(clash)    DE(int)     intcor
     17.44     -18.45       1.66        0.00     100.57       1.70       0.14       0.87       ----

> <Gold.Chemscore.Fitness>
17.4378

> <Gold.Chemscore.DG>
-18.4504

> <Gold.Chemscore.ZeroCoef>
-5.4800

> <Gold.Chemscore.Hbond>
1.6617

> <Gold.Chemscore.Metal>
0.0000

> <Gold.Chemscore.Lipo>
100.5714

> <Gold.Chemscore.Internal_Hbond>
0.0000

> <Gold.Chemscore.DEClash>
0.1418

> <Gold.Chemscore.DEInternal>
0.8709

> <Gold.Chemscore.Rot>
1.6978

> <Gold.Chemscore.Internal.Correction>
   9.000000E+99

> <Gold.Chemscore.Hbonds>
donor molecule, donor type, donor heavy atom, donor atom, acceptor molecule, acceptor atom, score
      L1  H    15    32       P1  7948  0.98
      P1  H  7989  7998       L1     9  0.60

> <Gold.Chemscore.Hbond.Weighted>
-5.5499

> <Gold.Chemscore.Metal.Weighted>
-0.0000

> <Gold.Chemscore.Lipo.Weighted>
-11.7669

> <Gold.Chemscore.Internal_Hbond.Weighted>
0.0000

> <Gold.Chemscore.DEClash.Weighted>
0.1418

> <Gold.Chemscore.DEInternal.Weighted>
0.8709

> <Gold.Chemscore.Rot.Weighted>
4.3463

> <Gold.Chemscore.Internal.Correction.Weighted>
   9.000000E+99

> <Gold.Protein.RotatedTorsions>
[ 6907 6896 6895 6894 ] final  -40.61 input  -60.11 | X-H torsion
[ 7974 7965 7964 7962 ] final  171.44 input  175.53 | X-H torsion
[ 8008 7997 7996 7995 ] final -117.50 input   59.86 | X-H torsion
[ 10167 10162 10161 10158 ] final  -67.30 input  -65.29 | X-H torsion
[ 10718 10713 10712 10709 ] final   98.39 input   66.30 | X-H torsion
[ 10763 10752 10751 10750 ] final  -48.33 input  -60.55 | X-H torsion
[ 11005 11000 10999 10996 ] final   69.81 input  -57.11 | X-H torsion

> <Gold.Protein.ActiveResidues>
 VAL166  LYS551  ARG553  GLY616  TRP617  ASP618  TYR619  PRO620  LYS621  CYS622 
 ASP623  PHE694  ASN695  SER759  ASP760  ASP761  ALA762  ILE779  LEU786  VAL792 
 PHE793  MET794  SER795  GLU796  ALA797  LYS798  CYS799  TRP800  GLU811  SER814 

> <Gold.Protein.RotatedAtoms>
  150.9764  134.9127  159.7817 H   0  0  0  0  0  0  0  0  0  0  0  0  # atno 6907 bound_to 6896
  152.5207  134.3471  159.9248 H   0  0  0  0  0  0  0  0  0  0  0  0  # atno 6908 bound_to 6896
  151.3479  133.3896  159.2712 H   0  0  0  0  0  0  0  0  0  0  0  0  # atno 6909 bound_to 6896
  144.7295  139.9351  143.6426 H   0  0  0  0  0  0  0  0  0  0  0  0  # atno 7974 bound_to 7965
  155.0848  140.0394  157.2650 H   0  0  0  0  0  0  0  0  0  0  0  0  # atno 8008 bound_to 7997
  154.6878  140.2647  155.6818 H   0  0  0  0  0  0  0  0  0  0  0  0  # atno 8009 bound_to 7997
  156.2718  140.2765  156.1446 H   0  0  0  0  0  0  0  0  0  0  0  0  # atno 8010 bound_to 7997
  140.5593  143.2312  151.6759 H   0  0  0  0  0  0  0  0  0  0  0  0  # atno 10167 bound_to 10162
  157.6896  131.0638  150.4789 H   0  0  0  0  0  0  0  0  0  0  0  0  # atno 10718 bound_to 10713
  154.0761  135.6598  153.4831 H   0  0  0  0  0  0  0  0  0  0  0  0  # atno 10763 bound_to 10752
  153.0373  135.5169  154.7520 H   0  0  0  0  0  0  0  0  0  0  0  0  # atno 10764 bound_to 10752
  154.6600  135.3013  154.9846 H   0  0  0  0  0  0  0  0  0  0  0  0  # atno 10765 bound_to 10752
  139.9632  134.7025  156.0600 H   0  0  0  0  0  0  0  0  0  0  0  0  # atno 11005 bound_to 11000
  146.0828  139.3816  143.0454 LP  0  0  0  0  0  0  0  0  0  0  0  0  # atno 17320 bound_to 7965
  145.7818  140.9853  143.1095 LP  0  0  0  0  0  0  0  0  0  0  0  0  # atno 17321 bound_to 7965
  139.5062  144.3688  152.0490 LP  0  0  0  0  0  0  0  0  0  0  0  0  # atno 17342 bound_to 10162
  140.2813  144.3856  150.6118 LP  0  0  0  0  0  0  0  0  0  0  0  0  # atno 17343 bound_to 10162
  156.5122  130.4142  149.6295 LP  0  0  0  0  0  0  0  0  0  0  0  0  # atno 17370 bound_to 10713
  156.3230  130.7291  151.2206 LP  0  0  0  0  0  0  0  0  0  0  0  0  # atno 17371 bound_to 10713
  141.1311  133.6586  156.3467 LP  0  0  0  0  0  0  0  0  0  0  0  0  # atno 17394 bound_to 11000
  140.5453  134.6080  157.5392 LP  0  0  0  0  0  0  0  0  0  0  0  0  # atno 17395 bound_to 11000

$$$$
