AV-unprocessed.smi:1509|AV-procd|sdf|6092|dock3
  -GOLD-   22720 6223D 1   1.00000     0.00000
 Structure written by MMmdl.
 42 43  0  0  0  0  0  0  0  0  2 V2000
  147.2791  133.2785  152.1187 C   0  0  0  0  0  0  0  0  0  0  0  0
  145.8718  133.7216  152.5561 C   0  0  2  0  0  0  0  0  0  0  0  0
  144.8925  133.8522  151.3750 C   0  0  0  0  0  0  0  0  0  0  0  0
  145.1885  135.1077  150.5431 C   0  0  0  0  0  0  0  0  0  0  0  0
  145.2255  136.3618  151.4308 C   0  0  0  0  0  0  0  0  0  0  0  0
  146.2089  136.2100  152.5343 N   0  3  1  0  0  0  0  0  0  0  0  0
  146.3727  137.4623  153.3154 C   0  0  0  0  0  0  0  0  0  0  0  0
  146.6899  138.6756  152.4244 C   0  0  0  0  0  0  0  0  0  0  0  0
  147.0721  139.9174  153.2475 C   0  0  0  0  0  0  0  0  0  0  0  0
  148.5052  139.9717  153.5125 N   0  0  0  0  0  0  0  0  0  0  0  0
  149.0624  139.9503  154.7337 C   0  0  0  0  0  0  0  0  0  0  0  0
  148.4086  139.9023  155.7753 O   0  0  0  0  0  0  0  0  0  0  0  0
  150.5898  139.9854  154.7911 C   0  0  0  0  0  0  0  0  0  0  0  0
  151.1242  138.6916  155.1711 N   0  0  0  0  0  0  0  0  0  0  0  0
  150.8757  137.4673  154.7014 C   0  0  0  0  0  0  0  0  0  0  0  0
  151.5811  136.5459  155.3394 N   0  0  0  0  0  0  0  0  0  0  0  0
  152.3038  137.2854  156.2608 N   0  0  0  0  0  0  0  0  0  0  0  0
  152.0370  138.5592  156.1656 N   0  0  0  0  0  0  0  0  0  0  0  0
  145.9013  135.0251  153.3812 C   0  0  0  0  0  0  0  0  0  0  0  0
  147.7613  134.0197  151.4815 H   0  0  0  0  0  0  0  0  0  0  0  0
  147.2393  132.3403  151.5646 H   0  0  0  0  0  0  0  0  0  0  0  0
  147.9245  133.1193  152.9831 H   0  0  0  0  0  0  0  0  0  0  0  0
  145.4910  132.9325  153.2059 H   0  0  0  0  0  0  0  0  0  0  0  0
  144.9290  132.9624  150.7456 H   0  0  0  0  0  0  0  0  0  0  0  0
  143.8732  133.9125  151.7590 H   0  0  0  0  0  0  0  0  0  0  0  0
  146.1408  134.9957  150.0237 H   0  0  0  0  0  0  0  0  0  0  0  0
  144.4307  135.2249  149.7680 H   0  0  0  0  0  0  0  0  0  0  0  0
  145.4886  137.2230  150.8152 H   0  0  0  0  0  0  0  0  0  0  0  0
  144.2365  136.5596  151.8473 H   0  0  0  0  0  0  0  0  0  0  0  0
  145.4437  137.6737  153.8471 H   0  0  0  0  0  0  0  0  0  0  0  0
  147.1403  137.3280  154.0791 H   0  0  0  0  0  0  0  0  0  0  0  0
  147.5052  138.4440  151.7395 H   0  0  0  0  0  0  0  0  0  0  0  0
  145.8204  138.9000  151.8051 H   0  0  0  0  0  0  0  0  0  0  0  0
  146.7551  140.8288  152.7375 H   0  0  0  0  0  0  0  0  0  0  0  0
  146.5522  139.9022  154.2057 H   0  0  0  0  0  0  0  0  0  0  0  0
  149.1173  140.0123  152.7102 H   0  0  0  0  0  0  0  0  0  0  0  0
  151.0023  140.2663  153.8212 H   0  0  0  0  0  0  0  0  0  0  0  0
  150.9180  140.7376  155.5102 H   0  0  0  0  0  0  0  0  0  0  0  0
  150.1827  137.2528  153.9009 H   0  0  0  0  0  0  0  0  0  0  0  0
  144.9345  135.1761  153.8644 H   0  0  0  0  0  0  0  0  0  0  0  0
  146.6325  134.9239  154.1825 H   0  0  0  0  0  0  0  0  0  0  0  0
  147.0991  136.0321  152.0914 H   0  0  0  0  0  0  0  0  0  0  0  0
  1  2  1  0  0  0  0
  1 20  1  0  0  0  0
  1 21  1  0  0  0  0
  1 22  1  0  0  0  0
  2 19  1  0  0  0  0
  2  3  1  0  0  0  0
  2 23  1  0  0  0  0
  3  4  1  0  0  0  0
  3 24  1  0  0  0  0
  3 25  1  0  0  0  0
  4  5  1  0  0  0  0
  4 26  1  0  0  0  0
  4 27  1  0  0  0  0
  5  6  1  0  0  0  0
  5 28  1  0  0  0  0
  5 29  1  0  0  0  0
  6  7  1  0  0  0  0
  6 19  1  0  0  0  0
  6 42  1  0  0  0  0
  7  8  1  0  0  0  0
  7 30  1  0  0  0  0
  7 31  1  0  0  0  0
  8  9  1  0  0  0  0
  8 32  1  0  0  0  0
  8 33  1  0  0  0  0
  9 10  1  0  0  0  0
  9 34  1  0  0  0  0
  9 35  1  0  0  0  0
 10 11  1  0  0  0  0
 10 36  1  0  0  0  0
 11 12  2  0  0  0  0
 11 13  1  0  0  0  0
 13 14  1  0  0  0  0
 13 37  1  0  0  0  0
 13 38  1  0  0  0  0
 14 18  1  0  0  0  0
 14 15  1  0  0  0  0
 15 16  2  0  0  0  0
 15 39  1  0  0  0  0
 16 17  1  0  0  0  0
 17 18  2  0  0  0  0
 19 40  1  0  0  0  0
 19 41  1  0  0  0  0
M  CHG  1   6   1
M  END
> <s_m_source_file>
AV-unprocessed.smi

> <i_m_source_file_index>
1509

> <i_lp_mmshare_version>
43012

> <i_f3d_flags>
0

> <s_epik_input>
W0NIM11bQ0BASF0xW0NIMl1bQ0gyXVtDSDJdTihbQ0gyXTEpW0NIMl1bQ0gyXVtDSDJdW05IXUMoPU8pW0NIMl1uMltjSF1ubm4y

> <s_epik_cmdline>
J2VwaWtfcHl0aG9uJywgJy1waCcsICc3LjAnLCAnLXRuJywgJzgnLCAnLW1hJywgJzIwMCcsICctbWV0YWxfYmluZGluZycsICctaW1hZScsICc8aW5maWxlLm1hZT4nLCAnLW9tYWUnLCAnPG91dGZpbGUubWFlPic=

> <r_lp_tautomer_probability>
1

> <r_epik_Ionization_Penalty>
0.00044216

> <r_epik_Ionization_Penalty_Charging>
0.000440775

> <r_epik_Ionization_Penalty_Neutral>
1.38512e-06

> <r_epik_State_Penalty>
0.000271914

> <r_epik_Charging_Adjusted_Penalty>
0.000712689

> <i_epik_Tot_Q>
1

> <i_epik_Tot_abs_Q>
1

> <r_epik_Metal_State_Penalty>
-0

> <b_epik_Metal_Only>
0

> <s_lp_Force_Field>
OPLS_2005

> <r_lp_Energy>
22.816

> <b_lp_Chiralities_Consistent>
1

> <s_lp_Variant>
AV-unprocessed.smi:1509-3

> <Gold.Version>
5.8.1

> <Gold.Id.Protein>
6NUR|6NUR_protein|mol2

> <Gold.PLP.Fitness>
45.7944

> <Gold.PLP.PLP>
-31.4695

> <Gold.PLP.part.hbond>
-3.9148

> <Gold.PLP.part.metal>
0.0000

> <Gold.PLP.part.buried>
0.3386

> <Gold.PLP.part.nonpolar>
-28.1767

> <Gold.PLP.part.repulsive>
0.2791

> <Gold.PLP.ligand.clash>
0.0000

> <Gold.PLP.ligand.torsion>
0.4536

> <Gold.PLP.Chemscore.Hbond>
4.0000

> <Gold.PLP.Chemscore.CHOScore>
1.0493

> <Gold.PLP.Chemscore.Metal>
0.0000

> <Gold.Chemscore.Hbonds>
donor molecule, donor type, donor heavy atom, donor atom, acceptor molecule, acceptor atom, score
      L1  H     6    42       P1  7948  2.00
      L1  H    10    36       P1  7957  1.00
      P1  H 10752 10764       L1    16  0.90
      L1  C    15    39       P1  7948  0.95
      L1  C    15    39       P1  7949  0.02

> <Gold.PLP.Chemscore.Internal.Correction>
0.0842

> <Gold.Rescore>
     Score         DG    S(hbond)    S(metal)    S(lipo)     H(rot)  DE(clash)    DE(int)     intcor
     12.89     -13.39       2.79        0.00      52.88       2.97       0.14       0.36       ----

> <Gold.Chemscore.Fitness>
12.8893

> <Gold.Chemscore.DG>
-13.3890

> <Gold.Chemscore.ZeroCoef>
-5.4800

> <Gold.Chemscore.Hbond>
2.7904

> <Gold.Chemscore.Metal>
0.0000

> <Gold.Chemscore.Lipo>
52.8813

> <Gold.Chemscore.Internal_Hbond>
0.0000

> <Gold.Chemscore.DEClash>
0.1363

> <Gold.Chemscore.DEInternal>
0.3635

> <Gold.Chemscore.Rot>
2.9680

> <Gold.Chemscore.Internal.Correction>
   9.000000E+99

> <Gold.Chemscore.Hbonds>
donor molecule, donor type, donor heavy atom, donor atom, acceptor molecule, acceptor atom, score
      L1  H     6    42       P1  7948  0.98
      L1  H    10    36       P1  7957  0.99
      P1  H 10752 10764       L1    16  0.33

> <Gold.Chemscore.Hbond.Weighted>
-9.3199

> <Gold.Chemscore.Metal.Weighted>
-0.0000

> <Gold.Chemscore.Lipo.Weighted>
-6.1871

> <Gold.Chemscore.Internal_Hbond.Weighted>
0.0000

> <Gold.Chemscore.DEClash.Weighted>
0.1363

> <Gold.Chemscore.DEInternal.Weighted>
0.3635

> <Gold.Chemscore.Rot.Weighted>
7.5980

> <Gold.Chemscore.Internal.Correction.Weighted>
   9.000000E+99

> <Gold.Protein.RotatedTorsions>
[ 6907 6896 6895 6894 ] final -138.05 input  -60.11 | X-H torsion
[ 7974 7965 7964 7962 ] final  117.45 input  175.53 | X-H torsion
[ 8008 7997 7996 7995 ] final   16.60 input   59.86 | X-H torsion
[ 10167 10162 10161 10158 ] final  -32.42 input  -65.29 | X-H torsion
[ 10718 10713 10712 10709 ] final -118.84 input   66.30 | X-H torsion
[ 10763 10752 10751 10750 ] final  -76.60 input  -60.55 | X-H torsion
[ 11005 11000 10999 10996 ] final   76.16 input  -57.11 | X-H torsion

> <Gold.Protein.ActiveResidues>
 VAL166  LYS551  ARG553  GLY616  TRP617  ASP618  TYR619  PRO620  LYS621  CYS622 
 ASP623  PHE694  ASN695  SER759  ASP760  ASP761  ALA762  ILE779  LEU786  VAL792 
 PHE793  MET794  SER795  GLU796  ALA797  LYS798  CYS799  TRP800  GLU811  SER814 

> <Gold.Protein.RotatedAtoms>
  151.0302  133.5797  159.2661 H   0  0  0  0  0  0  0  0  0  0  0  0  # atno 6907 bound_to 6896
  151.2882  135.0733  159.9204 H   0  0  0  0  0  0  0  0  0  0  0  0  # atno 6908 bound_to 6896
  152.5343  134.0004  159.7946 H   0  0  0  0  0  0  0  0  0  0  0  0  # atno 6909 bound_to 6896
  145.1673  139.3121  143.4486 H   0  0  0  0  0  0  0  0  0  0  0  0  # atno 7974 bound_to 7965
  154.8793  140.2970  155.5435 H   0  0  0  0  0  0  0  0  0  0  0  0  # atno 8008 bound_to 7997
  156.3022  140.2445  156.3727 H   0  0  0  0  0  0  0  0  0  0  0  0  # atno 8009 bound_to 7997
  154.8734  140.0400  157.1727 H   0  0  0  0  0  0  0  0  0  0  0  0  # atno 8010 bound_to 7997
  140.7221  143.3696  151.1804 H   0  0  0  0  0  0  0  0  0  0  0  0  # atno 10167 bound_to 10162
  156.1136  130.6268  150.9342 H   0  0  0  0  0  0  0  0  0  0  0  0  # atno 10718 bound_to 10713
  154.5020  135.5792  153.6538 H   0  0  0  0  0  0  0  0  0  0  0  0  # atno 10763 bound_to 10752
  152.9880  135.6138  154.2991 H   0  0  0  0  0  0  0  0  0  0  0  0  # atno 10764 bound_to 10752
  154.2899  135.2849  155.2639 H   0  0  0  0  0  0  0  0  0  0  0  0  # atno 10765 bound_to 10752
  139.9311  134.7577  156.1360 H   0  0  0  0  0  0  0  0  0  0  0  0  # atno 11005 bound_to 11000
  146.3474  140.1805  142.8589 LP  0  0  0  0  0  0  0  0  0  0  0  0  # atno 17320 bound_to 7965
  145.0269  140.8839  143.5133 LP  0  0  0  0  0  0  0  0  0  0  0  0  # atno 17321 bound_to 7965
  139.7265  143.9141  152.3004 LP  0  0  0  0  0  0  0  0  0  0  0  0  # atno 17342 bound_to 10162
  139.8915  144.6963  150.8765 LP  0  0  0  0  0  0  0  0  0  0  0  0  # atno 17343 bound_to 10162
  157.6319  131.0920  150.8425 LP  0  0  0  0  0  0  0  0  0  0  0  0  # atno 17370 bound_to 10713
  156.8532  130.5087  149.5310 LP  0  0  0  0  0  0  0  0  0  0  0  0  # atno 17371 bound_to 10713
  141.0900  133.6718  156.2519 LP  0  0  0  0  0  0  0  0  0  0  0  0  # atno 17394 bound_to 11000
  140.6200  134.5371  157.5546 LP  0  0  0  0  0  0  0  0  0  0  0  0  # atno 17395 bound_to 11000

$$$$
