AV-unprocessed.smi:2164|AV-procd|sdf|8810|dock9
  -GOLD-   2272012 03D 1   1.00000     0.00000
 Structure written by MMmdl.
 38 40  0  0  0  0  0  0  0  0  2 V2000
  150.2445  138.6629  153.9454 O   0  0  0  0  0  0  0  0  0  0  0  0
  150.4267  139.2650  155.0114 C   0  0  0  0  0  0  0  0  0  0  0  0
  150.8475  140.5618  155.1189 N   0  5  0  0  0  0  0  0  0  0  0  0
  150.6608  141.4175  156.2905 C   0  0  0  0  0  0  0  0  0  0  0  0
  151.8941  141.3125  157.2098 C   0  0  0  0  0  0  0  0  0  0  0  0
  152.0158  142.4571  158.2065 C   0  0  0  0  0  0  0  0  0  0  0  0
  151.9408  143.8019  157.7825 C   0  0  0  0  0  0  0  0  0  0  0  0
  152.0716  144.8259  158.7401 C   0  0  0  0  0  0  0  0  0  0  0  0
  152.2763  144.4627  160.0858 C   0  0  0  0  0  0  0  0  0  0  0  0
  152.3566  143.1818  160.5050 N   0  0  0  0  0  0  0  0  0  0  0  0
  152.2298  142.2054  159.5804 C   0  0  0  0  0  0  0  0  0  0  0  0
  150.1755  138.5430  156.2677 C   0  0  0  0  0  0  0  0  0  0  0  0
  148.9361  138.3054  156.7503 C   0  0  0  0  0  0  0  0  0  0  0  0
  148.6883  137.6214  157.9434 N   0  0  0  0  0  0  0  0  0  0  0  0
  147.3071  137.5186  158.4002 C   0  0  0  0  0  0  0  0  0  0  0  0
  147.0390  136.1341  158.9686 C   0  0  0  0  0  0  0  0  0  0  0  0
  148.1368  135.9533  160.4258 S   0  0  0  0  0  0  0  0  0  0  0  0
  147.7852  137.0038  161.3941 O   0  0  0  0  0  0  0  0  0  0  0  0
  148.1073  134.5449  160.8487 O   0  0  0  0  0  0  0  0  0  0  0  0
  149.6241  136.3110  159.7406 N   0  0  0  0  0  0  0  0  0  0  0  0
  149.7569  137.0646  158.6913 C   0  0  0  0  0  0  0  0  0  0  0  0
  151.0931  137.3531  158.1971 C   0  0  0  0  0  0  0  0  0  0  0  0
  151.2912  138.0464  157.0575 C   0  0  0  0  0  0  0  0  0  0  0  0
  150.5187  142.4611  156.0067 H   0  0  0  0  0  0  0  0  0  0  0  0
  149.7721  141.1361  156.8569 H   0  0  0  0  0  0  0  0  0  0  0  0
  151.8642  140.3731  157.7643 H   0  0  0  0  0  0  0  0  0  0  0  0
  152.8032  141.2802  156.6074 H   0  0  0  0  0  0  0  0  0  0  0  0
  151.7835  144.0446  156.7418 H   0  0  0  0  0  0  0  0  0  0  0  0
  152.0164  145.8644  158.4496 H   0  0  0  0  0  0  0  0  0  0  0  0
  152.3812  145.2223  160.8463 H   0  0  0  0  0  0  0  0  0  0  0  0
  152.3012  141.1922  159.9479 H   0  0  0  0  0  0  0  0  0  0  0  0
  148.0390  138.6318  156.2441 H   0  0  0  0  0  0  0  0  0  0  0  0
  147.1173  138.2889  159.1484 H   0  0  0  0  0  0  0  0  0  0  0  0
  146.6155  137.7039  157.5776 H   0  0  0  0  0  0  0  0  0  0  0  0
  146.0046  136.0237  159.2928 H   0  0  0  0  0  0  0  0  0  0  0  0
  147.2616  135.3469  158.2474 H   0  0  0  0  0  0  0  0  0  0  0  0
  151.9697  137.0096  158.7270 H   0  0  0  0  0  0  0  0  0  0  0  0
  152.3083  138.2267  156.7408 H   0  0  0  0  0  0  0  0  0  0  0  0
  1  2  2  0  0  0  0
  2  3  1  0  0  0  0
  2 12  1  0  0  0  0
  3  4  1  0  0  0  0
  4  5  1  0  0  0  0
  4 24  1  0  0  0  0
  4 25  1  0  0  0  0
  5  6  1  0  0  0  0
  5 26  1  0  0  0  0
  5 27  1  0  0  0  0
  6 11  1  0  0  0  0
  6  7  2  0  0  0  0
  7  8  1  0  0  0  0
  7 28  1  0  0  0  0
  8  9  2  0  0  0  0
  8 29  1  0  0  0  0
  9 10  1  0  0  0  0
  9 30  1  0  0  0  0
 10 11  2  0  0  0  0
 11 31  1  0  0  0  0
 12 23  1  0  0  0  0
 12 13  2  0  0  0  0
 13 14  1  0  0  0  0
 13 32  1  0  0  0  0
 14 21  1  0  0  0  0
 14 15  1  0  0  0  0
 15 16  1  0  0  0  0
 15 33  1  0  0  0  0
 15 34  1  0  0  0  0
 16 17  1  0  0  0  0
 16 35  1  0  0  0  0
 16 36  1  0  0  0  0
 17 18  2  0  0  0  0
 17 19  2  0  0  0  0
 17 20  1  0  0  0  0
 20 21  2  0  0  0  0
 21 22  1  0  0  0  0
 22 23  2  0  0  0  0
 22 37  1  0  0  0  0
 23 38  1  0  0  0  0
M  CHG  1   3  -1
M  END
> <s_m_source_file>
AV-unprocessed.smi

> <i_m_source_file_index>
2164

> <i_lp_mmshare_version>
43012

> <i_f3d_flags>
0

> <s_epik_input>
W0NIMl0xW0NIMl1TKD1PKSg9TylOPUMoTjEyKVtDSF09W0NIXUMoPVtDSF0yKUMoPU8pW05IXVtDSDJdW0NIMl1jM1tjSF1bY0hdW2NIXW5bY0hdMw==

> <s_epik_cmdline>
J2VwaWtfcHl0aG9uJywgJy1waCcsICc3LjAnLCAnLXRuJywgJzgnLCAnLW1hJywgJzIwMCcsICctbWV0YWxfYmluZGluZycsICctaW1hZScsICc8aW5maWxlLm1hZT4nLCAnLW9tYWUnLCAnPG91dGZpbGUubWFlPic=

> <r_epik_Ionization_Penalty>
5.17728

> <r_epik_Ionization_Penalty_Charging>
5.15676

> <r_epik_Ionization_Penalty_Neutral>
0.0205175

> <r_epik_State_Penalty>
5.1638

> <r_epik_Charging_Adjusted_Penalty>
10.3206

> <i_epik_Tot_Q>
-1

> <i_epik_Tot_abs_Q>
1

> <r_epik_Metal_State_Penalty>
1.2481

> <b_epik_Metal_Only>
1

> <s_lp_Force_Field>
OPLS_2005

> <r_lp_Energy>
26.7817

> <b_lp_Chiralities_Consistent>
1

> <s_lp_Variant>
AV-unprocessed.smi:2164-3

> <Gold.Version>
5.8.1

> <Gold.Id.Protein>
6NUR|6NUR_protein|mol2

> <Gold.PLP.Fitness>
43.9050

> <Gold.PLP.PLP>
-36.1522

> <Gold.PLP.part.hbond>
-4.0000

> <Gold.PLP.part.metal>
0.0000

> <Gold.PLP.part.buried>
-7.0025

> <Gold.PLP.part.nonpolar>
-25.7489

> <Gold.PLP.part.repulsive>
0.3623

> <Gold.PLP.ligand.clash>
0.0000

> <Gold.PLP.ligand.torsion>
1.8659

> <Gold.PLP.Chemscore.Hbond>
3.8233

> <Gold.PLP.Chemscore.CHOScore>
0.0000

> <Gold.PLP.Chemscore.Metal>
0.0000

> <Gold.Chemscore.Hbonds>
donor molecule, donor type, donor heavy atom, donor atom, acceptor molecule, acceptor atom, score
      P1  H  6896  6909       L1    20  1.00
      P1  H  6931  6943       L1    18  1.00
      P1  H  6934  6947       L1    18  0.56
      P1  H  7989  7998       L1     3  0.98

> <Gold.PLP.Chemscore.Internal.Correction>
0.0148

> <Gold.Rescore>
     Score         DG    S(hbond)    S(metal)    S(lipo)     H(rot)  DE(clash)    DE(int)     intcor
     19.99     -22.72       3.28        0.00      85.42       1.44       0.91       1.82       ----

> <Gold.Chemscore.Fitness>
19.9890

> <Gold.Chemscore.DG>
-22.7180

> <Gold.Chemscore.ZeroCoef>
-5.4800

> <Gold.Chemscore.Hbond>
3.2750

> <Gold.Chemscore.Metal>
0.0000

> <Gold.Chemscore.Lipo>
85.4211

> <Gold.Chemscore.Internal_Hbond>
0.0000

> <Gold.Chemscore.DEClash>
0.9065

> <Gold.Chemscore.DEInternal>
1.8225

> <Gold.Chemscore.Rot>
1.4433

> <Gold.Chemscore.Internal.Correction>
   9.000000E+99

> <Gold.Chemscore.Hbonds>
donor molecule, donor type, donor heavy atom, donor atom, acceptor molecule, acceptor atom, score
      P1  H  6896  6909       L1    20  0.74
      P1  H  6931  6943       L1    18  0.97
      P1  H  6934  6947       L1    18  0.55
      P1  H  7989  7998       L1     3  0.42

> <Gold.Chemscore.Hbond.Weighted>
-10.9387

> <Gold.Chemscore.Metal.Weighted>
-0.0000

> <Gold.Chemscore.Lipo.Weighted>
-9.9943

> <Gold.Chemscore.Internal_Hbond.Weighted>
0.0000

> <Gold.Chemscore.DEClash.Weighted>
0.9065

> <Gold.Chemscore.DEInternal.Weighted>
1.8225

> <Gold.Chemscore.Rot.Weighted>
3.6949

> <Gold.Chemscore.Internal.Correction.Weighted>
   9.000000E+99

> <Gold.Protein.RotatedTorsions>
[ 6907 6896 6895 6894 ] final   73.82 input  -60.11 | X-H torsion
[ 7974 7965 7964 7962 ] final   -1.04 input  175.53 | X-H torsion
[ 8008 7997 7996 7995 ] final -150.42 input   59.86 | X-H torsion
[ 10167 10162 10161 10158 ] final -140.52 input  -65.29 | X-H torsion
[ 10718 10713 10712 10709 ] final  130.04 input   66.30 | X-H torsion
[ 10763 10752 10751 10750 ] final  117.53 input  -60.55 | X-H torsion
[ 11005 11000 10999 10996 ] final    8.43 input  -57.11 | X-H torsion

> <Gold.Protein.ActiveResidues>
 VAL166  LYS551  ARG553  GLY616  TRP617  ASP618  TYR619  PRO620  LYS621  CYS622 
 ASP623  PHE694  ASN695  SER759  ASP760  ASP761  ALA762  ILE779  LEU786  VAL792 
 PHE793  MET794  SER795  GLU796  ALA797  LYS798  CYS799  TRP800  GLU811  SER814 

> <Gold.Protein.RotatedAtoms>
  152.4943  134.4364  159.9528 H   0  0  0  0  0  0  0  0  0  0  0  0  # atno 6907 bound_to 6896
  151.4346  133.3654  159.2781 H   0  0  0  0  0  0  0  0  0  0  0  0  # atno 6908 bound_to 6896
  150.9130  134.8571  159.7498 H   0  0  0  0  0  0  0  0  0  0  0  0  # atno 6909 bound_to 6896
  146.2421  140.1360  142.8336 H   0  0  0  0  0  0  0  0  0  0  0  0  # atno 7974 bound_to 7965
  155.6232  140.0683  157.2672 H   0  0  0  0  0  0  0  0  0  0  0  0  # atno 8008 bound_to 7997
  154.4224  140.1781  156.1442 H   0  0  0  0  0  0  0  0  0  0  0  0  # atno 8009 bound_to 7997
  155.9993  140.3337  155.6833 H   0  0  0  0  0  0  0  0  0  0  0  0  # atno 8010 bound_to 7997
  139.8274  143.7493  152.2666 H   0  0  0  0  0  0  0  0  0  0  0  0  # atno 10167 bound_to 10162
  157.5099  131.1096  150.9307 H   0  0  0  0  0  0  0  0  0  0  0  0  # atno 10718 bound_to 10713
  153.5537  135.3534  155.2770 H   0  0  0  0  0  0  0  0  0  0  0  0  # atno 10763 bound_to 10752
  154.8703  135.4120  154.2908 H   0  0  0  0  0  0  0  0  0  0  0  0  # atno 10764 bound_to 10752
  153.3639  135.7061  153.6759 H   0  0  0  0  0  0  0  0  0  0  0  0  # atno 10765 bound_to 10752
  140.5371  134.0410  155.7892 H   0  0  0  0  0  0  0  0  0  0  0  0  # atno 11005 bound_to 11000
  145.0286  140.8853  143.5123 LP  0  0  0  0  0  0  0  0  0  0  0  0  # atno 17320 bound_to 7965
  145.1420  139.2566  143.5485 LP  0  0  0  0  0  0  0  0  0  0  0  0  # atno 17321 bound_to 7965
  139.7689  144.7483  151.0253 LP  0  0  0  0  0  0  0  0  0  0  0  0  # atno 17342 bound_to 10162
  140.7809  143.4666  151.0203 LP  0  0  0  0  0  0  0  0  0  0  0  0  # atno 17343 bound_to 10162
  156.9951  130.5578  149.5306 LP  0  0  0  0  0  0  0  0  0  0  0  0  # atno 17370 bound_to 10713
  156.0282  130.5375  150.8464 LP  0  0  0  0  0  0  0  0  0  0  0  0  # atno 17371 bound_to 10713
  141.1248  133.9400  157.2656 LP  0  0  0  0  0  0  0  0  0  0  0  0  # atno 17394 bound_to 11000
  139.9523  135.0173  156.9030 LP  0  0  0  0  0  0  0  0  0  0  0  0  # atno 17395 bound_to 11000

$$$$
