AV-unprocessed.smi:94|AV-procd|sdf|854|dock7
  -GOLD-   2262017303D 1   1.00000     0.00000
 Structure written by MMmdl.
 53 55  0  0  0  0  0  0  0  0  1 V2000
  149.0104  141.0168  155.4306 C   0  0  0  0  0  0  0  0  0  0  0  0
  149.7415  140.1826  156.3172 O   0  0  0  0  0  0  0  0  0  0  0  0
  150.5612  140.7766  157.2560 C   0  0  0  0  0  0  0  0  0  0  0  0
  150.6406  142.1812  157.4386 C   0  0  0  0  0  0  0  0  0  0  0  0
  151.5049  142.7344  158.4007 C   0  0  0  0  0  0  0  0  0  0  0  0
  152.3093  141.8953  159.1926 C   0  0  0  0  0  0  0  0  0  0  0  0
  153.2491  142.4855  160.2237 C   0  0  0  0  0  0  0  0  0  0  0  0
  152.2350  140.5000  159.0233 C   0  0  0  0  0  0  0  0  0  0  0  0
  151.3603  139.9310  158.0676 C   0  0  0  0  0  0  0  0  0  0  0  0
  151.3017  138.4130  157.8867 C   0  0  1  0  0  0  0  0  0  0  0  0
  152.4143  137.7238  158.6941 C   0  0  0  0  0  0  0  0  0  0  0  0
  149.9965  137.8580  158.2454 N   0  0  0  0  0  0  0  0  0  0  0  0
  149.5517  136.6309  157.9333 C   0  0  0  0  0  0  0  0  0  0  0  0
  150.2198  135.8097  157.3033 O   0  0  0  0  0  0  0  0  0  0  0  0
  148.1264  136.2992  158.4005 C   0  0  0  0  0  0  0  0  0  0  0  0
  148.0673  135.1740  159.3590 N   0  0  0  0  0  0  0  0  0  0  0  0
  148.0670  135.4679  160.7454 C   0  0  0  0  0  0  0  0  0  0  0  0
  148.1070  136.6302  161.1517 O   0  0  0  0  0  0  0  0  0  0  0  0
  148.0249  134.3126  161.6348 C   0  0  0  0  0  0  0  0  0  0  0  0
  148.0275  134.4966  162.9659 F   0  0  0  0  0  0  0  0  0  0  0  0
  147.9875  133.0580  161.1417 C   0  0  0  0  0  0  0  0  0  0  0  0
  147.9855  132.7860  159.7862 N   0  0  0  0  0  0  0  0  0  0  0  0
  147.9635  131.3627  159.2774 C   0  0  1  0  0  0  0  0  0  0  0  0
  148.1530  130.3808  160.4399 C   0  0  0  0  0  0  0  0  0  0  0  0
  146.7266  129.9798  160.7512 C   0  0  0  0  0  0  0  0  0  0  0  0
  146.0906  130.0135  159.3670 C   0  0  0  0  0  0  0  0  0  0  0  0
  146.7144  131.1074  158.7014 O   0  0  0  0  0  0  0  0  0  0  0  0
  148.0424  133.8497  158.8593 C   0  0  0  0  0  0  0  0  0  0  0  0
  148.0812  133.6284  157.6470 O   0  0  0  0  0  0  0  0  0  0  0  0
  148.4206  140.3951  154.7572 H   0  0  0  0  0  0  0  0  0  0  0  0
  149.6743  141.6274  154.8172 H   0  0  0  0  0  0  0  0  0  0  0  0
  148.3181  141.6637  155.9712 H   0  0  0  0  0  0  0  0  0  0  0  0
  150.0479  142.8629  156.8480 H   0  0  0  0  0  0  0  0  0  0  0  0
  151.5509  143.8068  158.5236 H   0  0  0  0  0  0  0  0  0  0  0  0
  154.1930  141.9400  160.2397 H   0  0  0  0  0  0  0  0  0  0  0  0
  152.8017  142.4283  161.2161 H   0  0  0  0  0  0  0  0  0  0  0  0
  153.4678  143.5311  160.0046 H   0  0  0  0  0  0  0  0  0  0  0  0
  152.8647  139.8683  159.6324 H   0  0  0  0  0  0  0  0  0  0  0  0
  151.4603  138.1974  156.8288 H   0  0  0  0  0  0  0  0  0  0  0  0
  153.3974  138.0897  158.3961 H   0  0  0  0  0  0  0  0  0  0  0  0
  152.4088  136.6443  158.5413 H   0  0  0  0  0  0  0  0  0  0  0  0
  152.3007  137.9093  159.7626 H   0  0  0  0  0  0  0  0  0  0  0  0
  149.3767  138.4643  158.7626 H   0  0  0  0  0  0  0  0  0  0  0  0
  147.6760  137.1946  158.8329 H   0  0  0  0  0  0  0  0  0  0  0  0
  147.5182  136.0996  157.5171 H   0  0  0  0  0  0  0  0  0  0  0  0
  147.9634  132.2393  161.8455 H   0  0  0  0  0  0  0  0  0  0  0  0
  148.7364  131.2920  158.5107 H   0  0  0  0  0  0  0  0  0  0  0  0
  148.7208  129.5220  160.0800 H   0  0  0  0  0  0  0  0  0  0  0  0
  148.6840  130.8288  161.2810 H   0  0  0  0  0  0  0  0  0  0  0  0
  146.6502  129.0042  161.2318 H   0  0  0  0  0  0  0  0  0  0  0  0
  146.2589  130.7195  161.4021 H   0  0  0  0  0  0  0  0  0  0  0  0
  146.3167  129.0956  158.8226 H   0  0  0  0  0  0  0  0  0  0  0  0
  145.0075  130.1309  159.4029 H   0  0  0  0  0  0  0  0  0  0  0  0
  1  2  1  0  0  0  0
  1 30  1  0  0  0  0
  1 31  1  0  0  0  0
  1 32  1  0  0  0  0
  2  3  1  0  0  0  0
  3  9  1  0  0  0  0
  3  4  2  0  0  0  0
  4  5  1  0  0  0  0
  4 33  1  0  0  0  0
  5  6  2  0  0  0  0
  5 34  1  0  0  0  0
  6  7  1  0  0  0  0
  6  8  1  0  0  0  0
  7 35  1  0  0  0  0
  7 36  1  0  0  0  0
  7 37  1  0  0  0  0
  8  9  2  0  0  0  0
  8 38  1  0  0  0  0
  9 10  1  0  0  0  0
 10 11  1  0  0  0  0
 10 12  1  0  0  0  0
 10 39  1  0  0  0  0
 11 40  1  0  0  0  0
 11 41  1  0  0  0  0
 11 42  1  0  0  0  0
 12 13  1  0  0  0  0
 12 43  1  0  0  0  0
 13 14  2  0  0  0  0
 13 15  1  0  0  0  0
 15 16  1  0  0  0  0
 15 44  1  0  0  0  0
 15 45  1  0  0  0  0
 16 28  1  0  0  0  0
 16 17  1  0  0  0  0
 17 18  2  0  0  0  0
 17 19  1  0  0  0  0
 19 20  1  0  0  0  0
 19 21  2  0  0  0  0
 21 22  1  0  0  0  0
 21 46  1  0  0  0  0
 22 23  1  0  0  0  0
 22 28  1  0  0  0  0
 23 27  1  0  0  0  0
 23 24  1  0  0  0  0
 23 47  1  0  0  0  0
 24 25  1  0  0  0  0
 24 48  1  0  0  0  0
 24 49  1  0  0  0  0
 25 26  1  0  0  0  0
 25 50  1  0  0  0  0
 25 51  1  0  0  0  0
 26 27  1  0  0  0  0
 26 52  1  0  0  0  0
 26 53  1  0  0  0  0
 28 29  2  0  0  0  0
M  END
> <s_m_source_file>
AV-unprocessed.smi

> <i_m_source_file_index>
94

> <i_lp_mmshare_version>
43012

> <i_f3d_flags>
0

> <s_epik_input>
W0NIM11PYzFbY0hdW2NIXWMoW0NIM10pW2NIXWMxW0NASF0oW0NIM10pW05IXUMoPU8pW0NIMl1uMmMoPU8pYyhGKVtjSF1uKGMyPU8pW0NAQEhdM1tDSDJdW0NIMl1bQ0gyXU8z

> <s_epik_cmdline>
J2VwaWtfcHl0aG9uJywgJy1waCcsICc3LjAnLCAnLXRuJywgJzgnLCAnLW1hJywgJzIwMCcsICctbWV0YWxfYmluZGluZycsICctaW1hZScsICc8aW5maWxlLm1hZT4nLCAnLW9tYWUnLCAnPG91dGZpbGUubWFlPic=

> <r_lp_tautomer_probability>
1

> <r_epik_Ionization_Penalty>
3.37009e-08

> <r_epik_Ionization_Penalty_Charging>
3.59856e-09

> <r_epik_Ionization_Penalty_Neutral>
3.01024e-08

> <r_epik_State_Penalty>
-0

> <r_epik_Charging_Adjusted_Penalty>
3.59856e-09

> <i_epik_Tot_Q>
0

> <i_epik_Tot_abs_Q>
0

> <r_epik_Metal_State_Penalty>
-0

> <b_epik_Metal_Only>
0

> <s_epik_Chemistry_Notes>
This compound contains an acetal/aminal-like group ( X-CH(R)-Y where X, Y are N, S, or O) that may be acid/base labile, releasing an aldehyde.

> <s_lp_Force_Field>
OPLS_2005

> <r_lp_Energy>
32.8189

> <b_lp_Chiralities_Consistent>
1

> <s_lp_Variant>
AV-unprocessed.smi:94-4

> <Gold.Version>
5.8.1

> <Gold.Id.Protein>
6NUR|6NUR_protein|mol2

> <Gold.PLP.Fitness>
54.5040

> <Gold.PLP.PLP>
-48.9712

> <Gold.PLP.part.hbond>
-3.0000

> <Gold.PLP.part.metal>
0.0000

> <Gold.PLP.part.buried>
-5.4286

> <Gold.PLP.part.nonpolar>
-40.7305

> <Gold.PLP.part.repulsive>
0.1491

> <Gold.PLP.ligand.clash>
0.0000

> <Gold.PLP.ligand.torsion>
0.8179

> <Gold.PLP.Chemscore.Hbond>
2.3680

> <Gold.PLP.Chemscore.CHOScore>
0.0000

> <Gold.PLP.Chemscore.Metal>
0.0000

> <Gold.Chemscore.Hbonds>
donor molecule, donor type, donor heavy atom, donor atom, acceptor molecule, acceptor atom, score
      P1  H  6931  6943       L1    18  1.00

> <Gold.PLP.Chemscore.Internal.Correction>
0.0646

> <Gold.Rescore>
     Score         DG    S(hbond)    S(metal)    S(lipo)     H(rot)  DE(clash)    DE(int)     intcor
     17.83     -18.76       2.16        0.00     103.01       2.34       0.07       0.86       ----

> <Gold.Chemscore.Fitness>
17.8323

> <Gold.Chemscore.DG>
-18.7595

> <Gold.Chemscore.ZeroCoef>
-5.4800

> <Gold.Chemscore.Hbond>
2.1585

> <Gold.Chemscore.Metal>
0.0000

> <Gold.Chemscore.Lipo>
103.0140

> <Gold.Chemscore.Internal_Hbond>
0.0000

> <Gold.Chemscore.DEClash>
0.0655

> <Gold.Chemscore.DEInternal>
0.8617

> <Gold.Chemscore.Rot>
2.3370

> <Gold.Chemscore.Internal.Correction>
   9.000000E+99

> <Gold.Chemscore.Hbonds>
donor molecule, donor type, donor heavy atom, donor atom, acceptor molecule, acceptor atom, score
      P1  H  6931  6943       L1    18  0.95

> <Gold.Chemscore.Hbond.Weighted>
-7.2095

> <Gold.Chemscore.Metal.Weighted>
-0.0000

> <Gold.Chemscore.Lipo.Weighted>
-12.0526

> <Gold.Chemscore.Internal_Hbond.Weighted>
0.0000

> <Gold.Chemscore.DEClash.Weighted>
0.0655

> <Gold.Chemscore.DEInternal.Weighted>
0.8617

> <Gold.Chemscore.Rot.Weighted>
5.9827

> <Gold.Chemscore.Internal.Correction.Weighted>
   9.000000E+99

> <Gold.Protein.RotatedTorsions>
[ 6907 6896 6895 6894 ] final -176.79 input  -60.11 | X-H torsion
[ 7974 7965 7964 7962 ] final -109.58 input  175.53 | X-H torsion
[ 8008 7997 7996 7995 ] final -131.90 input   59.86 | X-H torsion
[ 10167 10162 10161 10158 ] final   -3.30 input  -65.29 | X-H torsion
[ 10718 10713 10712 10709 ] final   61.12 input   66.30 | X-H torsion
[ 10763 10752 10751 10750 ] final  -44.95 input  -60.55 | X-H torsion
[ 11005 11000 10999 10996 ] final  175.55 input  -57.11 | X-H torsion

> <Gold.Protein.ActiveResidues>
 VAL166  LYS551  ARG553  GLY616  TRP617  ASP618  TYR619  PRO620  LYS621  CYS622 
 ASP623  PHE694  ASN695  SER759  ASP760  ASP761  ALA762  ILE779  LEU786  VAL792 
 PHE793  MET794  SER795  GLU796  ALA797  LYS798  CYS799  TRP800  GLU811  SER814 

> <Gold.Protein.RotatedAtoms>
  151.6105  133.3347  159.3066 H   0  0  0  0  0  0  0  0  0  0  0  0  # atno 6907 bound_to 6896
  150.8159  134.7344  159.6741 H   0  0  0  0  0  0  0  0  0  0  0  0  # atno 6908 bound_to 6896
  152.4255  134.5882  160.0018 H   0  0  0  0  0  0  0  0  0  0  0  0  # atno 6909 bound_to 6896
  145.1788  140.8961  143.3492 H   0  0  0  0  0  0  0  0  0  0  0  0  # atno 7974 bound_to 7965
  155.3200  140.0461  157.3039 H   0  0  0  0  0  0  0  0  0  0  0  0  # atno 8008 bound_to 7997
  154.5385  140.2280  155.8647 H   0  0  0  0  0  0  0  0  0  0  0  0  # atno 8009 bound_to 7997
  156.1858  140.3063  155.9242 H   0  0  0  0  0  0  0  0  0  0  0  0  # atno 8010 bound_to 7997
  140.6885  143.6556  150.8312 H   0  0  0  0  0  0  0  0  0  0  0  0  # atno 10167 bound_to 10162
  157.5804  130.8977  149.9421 H   0  0  0  0  0  0  0  0  0  0  0  0  # atno 10718 bound_to 10713
  154.0205  135.6670  153.4772 H   0  0  0  0  0  0  0  0  0  0  0  0  # atno 10763 bound_to 10752
  153.0582  135.5043  154.8028 H   0  0  0  0  0  0  0  0  0  0  0  0  # atno 10764 bound_to 10752
  154.6940  135.3066  154.9402 H   0  0  0  0  0  0  0  0  0  0  0  0  # atno 10765 bound_to 10752
  140.3634  134.7092  157.4346 H   0  0  0  0  0  0  0  0  0  0  0  0  # atno 11005 bound_to 11000
  145.0157  139.3469  143.6097 LP  0  0  0  0  0  0  0  0  0  0  0  0  # atno 17320 bound_to 7965
  146.3456  139.9438  142.8737 LP  0  0  0  0  0  0  0  0  0  0  0  0  # atno 17321 bound_to 7965
  140.0266  143.5487  152.2778 LP  0  0  0  0  0  0  0  0  0  0  0  0  # atno 17342 bound_to 10162
  139.6265  144.7638  151.2628 LP  0  0  0  0  0  0  0  0  0  0  0  0  # atno 17343 bound_to 10162
  156.0850  130.3669  150.0505 LP  0  0  0  0  0  0  0  0  0  0  0  0  # atno 17370 bound_to 10713
  156.8645  130.9503  151.3615 LP  0  0  0  0  0  0  0  0  0  0  0  0  # atno 17371 bound_to 10713
  140.0608  134.5998  155.8751 LP  0  0  0  0  0  0  0  0  0  0  0  0  # atno 17394 bound_to 11000
  141.1977  133.6597  156.5754 LP  0  0  0  0  0  0  0  0  0  0  0  0  # atno 17395 bound_to 11000

$$$$
