#       Name:                AV-unprocessed.smi:812
#       Creating user name   scv26
#       Creation time:       Fri Mar 27 01:25:28 2020


#       File generated by GOLD software.
#

@<TRIPOS>MOLECULE
AV-unprocessed.smi:812
    45    47     1
SMALL
NO_CHARGES


@<TRIPOS>ATOM
      1 ****        -2.1292   3.7368   0.4977 C.3            1 S1                 0.0000
      2 ****        -2.3361   2.2775   0.5533 N.am           1 S1                 0.0000
      3 ****        -1.2315   1.4664   0.5571 C.2            1 S1                 0.0000
      4 ****        -0.0650   1.8603   0.5188 O.2            1 S1                 0.0000
      5 ****        -1.5476   0.0367   0.6093 C.2            1 S1                 0.0000
      6 ****        -2.8152  -0.4388   0.6530 C.2            1 S1                 0.0000
      7 ****        -2.8338  -1.8284   0.6958 N.2            1 S1                 0.0000
      8 ****        -1.5333  -2.1242   0.6733 C.2            1 S1                 0.0000
      9 ****        -0.6974  -1.0669   0.6200 N.pl3          1 S1                 0.0000
     10 ****         0.7561  -1.1133   0.5843 C.3            1 S1                 0.0000
     11 ****         1.3247  -0.9076  -0.8339 C.3            1 S1                 0.0000
     12 ****         0.8079  -1.8926  -1.7084 O.3            1 S1                 0.0000
     13 ****         2.8453  -0.8895  -0.8188 C.ar           1 S1                 0.0000
     14 ****         3.5339   0.3421  -0.8492 C.ar           1 S1                 0.0000
     15 ****         4.9421   0.3689  -0.8251 C.ar           1 S1                 0.0000
     16 ****         5.6693  -0.8357  -0.7675 C.ar           1 S1                 0.0000
     17 ****         7.0229  -0.8097  -0.7437 F              1 S1                 0.0000
     18 ****         4.9879  -2.0673  -0.7327 C.ar           1 S1                 0.0000
     19 ****         3.5799  -2.0946  -0.7570 C.ar           1 S1                 0.0000
     20 ****        -3.8880   0.4868   0.6465 N.am           1 S1                 0.0000
     21 ****        -5.2457  -0.0637   0.6947 C.3            1 S1                 0.0000
     22 ****        -3.6496   1.8392   0.5937 C.2            1 S1                 0.0000
     23 ****        -4.5854   2.6436   0.5821 O.2            1 S1                 0.0000
     24 ****        -1.0857   4.0533   0.4941 H              1 S1                 0.0000
     25 ****        -2.5945   4.2214   1.3577 H              1 S1                 0.0000
     26 ****        -2.5829   4.1494  -0.4050 H              1 S1                 0.0000
     27 ****        -1.1761  -3.1435   0.6920 H              1 S1                 0.0000
     28 ****         1.1429  -0.3557   1.2664 H              1 S1                 0.0000
     29 ****         1.0808  -2.0752   0.9841 H              1 S1                 0.0000
     30 ****         0.9798   0.0527  -1.2185 H              1 S1                 0.0000
     31 ****         1.0842  -1.6860  -2.5884 H              1 S1                 0.0000
     32 ****         2.9846   1.2715  -0.8891 H              1 S1                 0.0000
     33 ****         5.4642   1.3141  -0.8494 H              1 S1                 0.0000
     34 ****         5.5448  -2.9915  -0.6859 H              1 S1                 0.0000
     35 ****         3.0665  -3.0445  -0.7251 H              1 S1                 0.0000
     36 ****        -6.0373   0.6857   0.6832 H              1 S1                 0.0000
     37 ****        -5.3739  -0.6562   1.6012 H              1 S1                 0.0000
     38 ****        -5.4101  -0.7212  -0.1596 H              1 S1                 0.0000
     39 ****         0.1309   2.8402   0.4814 LP             1 S1                 0.0000
     40 ****         0.6861   1.2001   0.5250 LP             1 S1                 0.0000
     41 ****        -3.6192  -2.4463   0.7336 LP             1 S1                 0.0000
     42 ****        -0.1910  -1.8960  -1.6603 LP             1 S1                 0.0000
     43 ****         1.1572  -2.7925  -1.4475 LP             1 S1                 0.0000
     44 ****        -4.4002   3.6255   0.5431 LP             1 S1                 0.0000
     45 ****        -5.5288   2.3135   0.6116 LP             1 S1                 0.0000
@<TRIPOS>BOND
    1    1    2 1     
    2    1   24 1     
    3    1   25 1     
    4    1   26 1     
    5    2   22 am    
    6    2    3 am    
    7    3    4 2     
    8    3    5 1     
    9    5    9 1     
   10    5    6 2     
   11    6    7 1     
   12    6   20 1     
   13    7    8 2     
   14    8    9 1     
   15    8   27 1     
   16    9   10 1     
   17   10   11 1     
   18   10   28 1     
   19   10   29 1     
   20   11   12 1     
   21   11   13 1     
   22   11   30 1     
   23   12   31 1     
   24   13   19 ar    
   25   13   14 ar    
   26   14   15 ar    
   27   14   32 1     
   28   15   16 ar    
   29   15   33 1     
   30   16   17 1     
   31   16   18 ar    
   32   18   19 ar    
   33   18   34 1     
   34   19   35 1     
   35   20   21 1     
   36   20   22 am    
   37   21   36 1     
   38   21   37 1     
   39   21   38 1     
   40   22   23 2     
   41    4   39 1     
   42    4   40 1     
   43    7   41 1     
   44   12   42 1     
   45   12   43 1     
   46   23   44 1     
   47   23   45 1     
@<TRIPOS>SUBSTRUCTURE
      1 S1             1
@<TRIPOS>SET
LONE_PAIRS      STATIC     ATOMS    <user>   **** ""
7 39 40 41 42 43 44 45
DONOR_HYDROGENS      STATIC     ATOMS    <user>   **** ""
1 31
ATOM$BLUE        STATIC     ATOMS    COLORGROUP SYSTEM
7 39 40 41 42 43 44 45
ATOM$RED        STATIC     ATOMS    COLORGROUP SYSTEM
1 31
