AV-unprocessed.smi:564|AV-procd|sdf|2949|dock9
  -GOLD-   2262023453D 1   1.00000     0.00000
 Structure written by MMmdl.
 50 51  0  0  0  0  0  0  0  0  2 V2000
  146.5090  129.9748  152.5873 C   0  0  0  0  0  0  0  0  0  0  0  0
  146.0238  131.1807  151.8344 C   0  0  0  0  0  0  0  0  0  0  0  0
  145.0521  131.0300  150.9503 N   0  0  0  0  0  0  0  0  0  0  0  0
  144.8364  132.2663  150.4589 N   0  0  0  0  0  0  0  0  0  0  0  0
  143.8109  132.4595  149.4520 C   0  0  0  0  0  0  0  0  0  0  0  0
  145.6717  133.2022  151.0370 C   0  0  0  0  0  0  0  0  0  0  0  0
  145.6252  134.6508  150.6719 C   0  0  0  0  0  0  0  0  0  0  0  0
  146.4634  132.5349  151.9335 C   0  0  0  0  0  0  0  0  0  0  0  0
  147.5447  133.0958  152.8269 C   0  0  0  0  0  0  0  0  0  0  0  0
  146.9666  134.0094  153.9152 C   0  0  0  0  0  0  0  0  0  0  0  0
  146.4032  133.5466  154.9086 O   0  0  0  0  0  0  0  0  0  0  0  0
  147.1136  135.3271  153.7106 N   0  0  0  0  0  0  0  0  0  0  0  0
  146.6372  136.3691  154.6125 C   0  0  0  0  0  0  0  0  0  0  0  0
  147.3422  137.7132  154.3408 C   0  0  0  0  0  0  0  0  0  0  0  0
  148.8275  137.6232  154.3719 N   0  3  2  0  0  0  0  0  0  0  0  0
  149.3181  137.0061  155.6343 C   0  0  0  0  0  0  0  0  0  0  0  0
  150.8264  136.7177  155.5725 C   0  0  0  0  0  0  0  0  0  0  0  0
  151.6163  137.9888  155.2444 C   0  0  0  0  0  0  0  0  0  0  0  0
  151.0827  138.6119  153.9474 C   0  0  0  0  0  0  0  0  0  0  0  0
  149.5627  138.8761  154.0085 C   0  0  2  0  0  0  0  0  0  0  0  0
  149.2169  140.0808  154.9101 C   0  0  0  0  0  0  0  0  0  0  0  0
  147.3478  130.2164  153.2391 H   0  0  0  0  0  0  0  0  0  0  0  0
  146.8380  129.1920  151.9036 H   0  0  0  0  0  0  0  0  0  0  0  0
  145.7172  129.5607  153.2116 H   0  0  0  0  0  0  0  0  0  0  0  0
  144.1800  133.1221  148.6691 H   0  0  0  0  0  0  0  0  0  0  0  0
  142.9287  132.9057  149.9114 H   0  0  0  0  0  0  0  0  0  0  0  0
  143.5329  131.5062  149.0003 H   0  0  0  0  0  0  0  0  0  0  0  0
  146.1336  135.2611  151.4182 H   0  0  0  0  0  0  0  0  0  0  0  0
  144.5966  135.0048  150.6019 H   0  0  0  0  0  0  0  0  0  0  0  0
  146.1093  134.8218  149.7103 H   0  0  0  0  0  0  0  0  0  0  0  0
  148.1104  132.2993  153.3103 H   0  0  0  0  0  0  0  0  0  0  0  0
  148.2710  133.6648  152.2455 H   0  0  0  0  0  0  0  0  0  0  0  0
  147.5927  135.6273  152.8736 H   0  0  0  0  0  0  0  0  0  0  0  0
  145.5545  136.4765  154.5247 H   0  0  0  0  0  0  0  0  0  0  0  0
  146.8383  136.0234  155.6257 H   0  0  0  0  0  0  0  0  0  0  0  0
  147.0078  138.1380  153.3941 H   0  0  0  0  0  0  0  0  0  0  0  0
  147.0345  138.4225  155.1102 H   0  0  0  0  0  0  0  0  0  0  0  0
  149.0894  137.6541  156.4810 H   0  0  0  0  0  0  0  0  0  0  0  0
  148.7904  136.0682  155.8121 H   0  0  0  0  0  0  0  0  0  0  0  0
  151.1657  136.3028  156.5223 H   0  0  0  0  0  0  0  0  0  0  0  0
  151.0238  135.9579  154.8151 H   0  0  0  0  0  0  0  0  0  0  0  0
  151.5345  138.7005  156.0665 H   0  0  0  0  0  0  0  0  0  0  0  0
  152.6766  137.7559  155.1412 H   0  0  0  0  0  0  0  0  0  0  0  0
  151.6200  139.5353  153.7282 H   0  0  0  0  0  0  0  0  0  0  0  0
  151.2951  137.9363  153.1175 H   0  0  0  0  0  0  0  0  0  0  0  0
  149.2742  139.1475  152.9936 H   0  0  0  0  0  0  0  0  0  0  0  0
  149.7947  140.9579  154.6174 H   0  0  0  0  0  0  0  0  0  0  0  0
  149.4319  139.8887  155.9607 H   0  0  0  0  0  0  0  0  0  0  0  0
  148.1663  140.3586  154.8298 H   0  0  0  0  0  0  0  0  0  0  0  0
  149.0649  136.9587  153.6488 H   0  0  0  0  0  0  0  0  0  0  0  0
  1  2  1  0  0  0  0
  1 22  1  0  0  0  0
  1 23  1  0  0  0  0
  1 24  1  0  0  0  0
  2  8  1  0  0  0  0
  2  3  2  0  0  0  0
  3  4  1  0  0  0  0
  4  5  1  0  0  0  0
  4  6  1  0  0  0  0
  5 25  1  0  0  0  0
  5 26  1  0  0  0  0
  5 27  1  0  0  0  0
  6  7  1  0  0  0  0
  6  8  2  0  0  0  0
  7 28  1  0  0  0  0
  7 29  1  0  0  0  0
  7 30  1  0  0  0  0
  8  9  1  0  0  0  0
  9 10  1  0  0  0  0
  9 31  1  0  0  0  0
  9 32  1  0  0  0  0
 10 11  2  0  0  0  0
 10 12  1  0  0  0  0
 12 13  1  0  0  0  0
 12 33  1  0  0  0  0
 13 14  1  0  0  0  0
 13 34  1  0  0  0  0
 13 35  1  0  0  0  0
 14 15  1  0  0  0  0
 14 36  1  0  0  0  0
 14 37  1  0  0  0  0
 15 20  1  0  0  0  0
 15 16  1  0  0  0  0
 15 50  1  0  0  0  0
 16 17  1  0  0  0  0
 16 38  1  0  0  0  0
 16 39  1  0  0  0  0
 17 18  1  0  0  0  0
 17 40  1  0  0  0  0
 17 41  1  0  0  0  0
 18 19  1  0  0  0  0
 18 42  1  0  0  0  0
 18 43  1  0  0  0  0
 19 20  1  0  0  0  0
 19 44  1  0  0  0  0
 19 45  1  0  0  0  0
 20 21  1  0  0  0  0
 20 46  1  0  0  0  0
 21 47  1  0  0  0  0
 21 48  1  0  0  0  0
 21 49  1  0  0  0  0
M  CHG  1  15   1
M  END
> <s_m_source_file>
AV-unprocessed.smi

> <i_m_source_file_index>
564

> <i_lp_mmshare_version>
43012

> <i_f3d_flags>
0

> <s_epik_input>
W0NIM11jMW5uKFtDSDNdKWMoW0NIM10pYzFbQ0gyXUMoPU8pW05IXVtDSDJdW0NIMl1OMltDSDJdW0NIMl1bQ0gyXVtDSDJdW0NASF0yW0NIM10=

> <s_epik_cmdline>
J2VwaWtfcHl0aG9uJywgJy1waCcsICc3LjAnLCAnLXRuJywgJzgnLCAnLW1hJywgJzIwMCcsICctbWV0YWxfYmluZGluZycsICctaW1hZScsICc8aW5maWxlLm1hZT4nLCAnLW9tYWUnLCAnPG91dGZpbGUubWFlPic=

> <r_lp_tautomer_probability>
1

> <r_epik_Ionization_Penalty>
0.00456826

> <r_epik_Ionization_Penalty_Charging>
0.00240401

> <r_epik_Ionization_Penalty_Neutral>
0.00216425

> <r_epik_State_Penalty>
-0

> <r_epik_Charging_Adjusted_Penalty>
0.00240401

> <i_epik_Tot_Q>
1

> <i_epik_Tot_abs_Q>
1

> <r_epik_Metal_State_Penalty>
-0

> <b_epik_Metal_Only>
0

> <s_lp_Force_Field>
OPLS_2005

> <r_lp_Energy>
15.7718

> <b_lp_Chiralities_Consistent>
1

> <s_lp_Variant>
AV-unprocessed.smi:564-3

> <Gold.Version>
5.8.1

> <Gold.Id.Protein>
6NUR|6NUR_protein|mol2

> <Gold.PLP.Fitness>
42.6931

> <Gold.PLP.PLP>
-34.5143

> <Gold.PLP.part.hbond>
-2.0000

> <Gold.PLP.part.metal>
0.0000

> <Gold.PLP.part.buried>
-5.1514

> <Gold.PLP.part.nonpolar>
-27.7869

> <Gold.PLP.part.repulsive>
0.1743

> <Gold.PLP.ligand.clash>
0.0000

> <Gold.PLP.ligand.torsion>
0.4402

> <Gold.PLP.Chemscore.Hbond>
3.0000

> <Gold.PLP.Chemscore.CHOScore>
0.0000

> <Gold.PLP.Chemscore.Metal>
0.0000

> <Gold.Chemscore.Hbonds>
donor molecule, donor type, donor heavy atom, donor atom, acceptor molecule, acceptor atom, score
      L1  H    12    33       P1  7948  1.00
      L1  H    15    50       P1  7948  2.00

> <Gold.PLP.Chemscore.Internal.Correction>
0.0593

> <Gold.Rescore>
     Score         DG    S(hbond)    S(metal)    S(lipo)     H(rot)  DE(clash)    DE(int)     intcor
     18.20     -18.81       1.98        0.00      92.61       1.61       0.18       0.42       ----

> <Gold.Chemscore.Fitness>
18.2032

> <Gold.Chemscore.DG>
-18.8061

> <Gold.Chemscore.ZeroCoef>
-5.4800

> <Gold.Chemscore.Hbond>
1.9830

> <Gold.Chemscore.Metal>
0.0000

> <Gold.Chemscore.Lipo>
92.6110

> <Gold.Chemscore.Internal_Hbond>
0.0000

> <Gold.Chemscore.DEClash>
0.1826

> <Gold.Chemscore.DEInternal>
0.4203

> <Gold.Chemscore.Rot>
1.6142

> <Gold.Chemscore.Internal.Correction>
   9.000000E+99

> <Gold.Chemscore.Hbonds>
donor molecule, donor type, donor heavy atom, donor atom, acceptor molecule, acceptor atom, score
      L1  H    12    33       P1  7948  0.99
      L1  H    15    50       P1  7948  0.97

> <Gold.Chemscore.Hbond.Weighted>
-6.6231

> <Gold.Chemscore.Metal.Weighted>
-0.0000

> <Gold.Chemscore.Lipo.Weighted>
-10.8355

> <Gold.Chemscore.Internal_Hbond.Weighted>
0.0000

> <Gold.Chemscore.DEClash.Weighted>
0.1826

> <Gold.Chemscore.DEInternal.Weighted>
0.4203

> <Gold.Chemscore.Rot.Weighted>
4.1324

> <Gold.Chemscore.Internal.Correction.Weighted>
   9.000000E+99

> <Gold.Protein.RotatedTorsions>
[ 6907 6896 6895 6894 ] final  -55.88 input  -60.11 | X-H torsion
[ 7974 7965 7964 7962 ] final -144.33 input  175.53 | X-H torsion
[ 8008 7997 7996 7995 ] final   62.28 input   59.86 | X-H torsion
[ 10167 10162 10161 10158 ] final -179.98 input  -65.29 | X-H torsion
[ 10718 10713 10712 10709 ] final   72.28 input   66.30 | X-H torsion
[ 10763 10752 10751 10750 ] final -131.27 input  -60.55 | X-H torsion
[ 11005 11000 10999 10996 ] final  -92.92 input  -57.11 | X-H torsion

> <Gold.Protein.ActiveResidues>
 VAL166  LYS551  ARG553  GLY616  TRP617  ASP618  TYR619  PRO620  LYS621  CYS622 
 ASP623  PHE694  ASN695  SER759  ASP760  ASP761  ALA762  ILE779  LEU786  VAL792 
 PHE793  MET794  SER795  GLU796  ALA797  LYS798  CYS799  TRP800  GLU811  SER814 

> <Gold.Protein.RotatedAtoms>
  150.8214  134.7423  159.6774 H   0  0  0  0  0  0  0  0  0  0  0  0  # atno 6907 bound_to 6896
  152.4329  134.5740  159.9939 H   0  0  0  0  0  0  0  0  0  0  0  0  # atno 6908 bound_to 6896
  151.5923  133.3328  159.3066 H   0  0  0  0  0  0  0  0  0  0  0  0  # atno 6909 bound_to 6896
  144.8305  140.5724  143.5518 H   0  0  0  0  0  0  0  0  0  0  0  0  # atno 7974 bound_to 7965
  155.6117  140.3495  155.4624 H   0  0  0  0  0  0  0  0  0  0  0  0  # atno 8008 bound_to 7997
  156.0149  140.1241  157.0441 H   0  0  0  0  0  0  0  0  0  0  0  0  # atno 8009 bound_to 7997
  154.4294  140.1074  156.5867 H   0  0  0  0  0  0  0  0  0  0  0  0  # atno 8010 bound_to 7997
  139.5362  144.2491  152.0799 H   0  0  0  0  0  0  0  0  0  0  0  0  # atno 10167 bound_to 10162
  157.6493  130.9571  150.0906 H   0  0  0  0  0  0  0  0  0  0  0  0  # atno 10718 bound_to 10713
  154.8751  135.3835  154.4218 H   0  0  0  0  0  0  0  0  0  0  0  0  # atno 10763 bound_to 10752
  153.4921  135.7030  153.5883 H   0  0  0  0  0  0  0  0  0  0  0  0  # atno 10764 bound_to 10752
  153.4252  135.3892  155.2103 H   0  0  0  0  0  0  0  0  0  0  0  0  # atno 10765 bound_to 10752
  141.1510  133.7853  157.0087 H   0  0  0  0  0  0  0  0  0  0  0  0  # atno 11005 bound_to 11000
  145.4905  139.1489  143.3712 LP  0  0  0  0  0  0  0  0  0  0  0  0  # atno 17320 bound_to 7965
  146.2608  140.5043  142.8854 LP  0  0  0  0  0  0  0  0  0  0  0  0  # atno 17321 bound_to 7965
  140.1962  144.4703  150.6454 LP  0  0  0  0  0  0  0  0  0  0  0  0  # atno 17342 bound_to 10162
  140.6569  143.2240  151.5947 LP  0  0  0  0  0  0  0  0  0  0  0  0  # atno 17343 bound_to 10162
  156.1856  130.3652  149.8977 LP  0  0  0  0  0  0  0  0  0  0  0  0  # atno 17370 bound_to 10713
  156.6918  130.8898  151.3589 LP  0  0  0  0  0  0  0  0  0  0  0  0  # atno 17371 bound_to 10713
  140.0892  134.9603  157.1748 LP  0  0  0  0  0  0  0  0  0  0  0  0  # atno 17394 bound_to 11000
  140.3470  134.2641  155.7204 LP  0  0  0  0  0  0  0  0  0  0  0  0  # atno 17395 bound_to 11000

$$$$
