AV-unprocessed.smi:498|AV-procd|sdf|2731|dock7
  -GOLD-   2262023183D 1   1.00000     0.00000
 Structure written by MMmdl.
 42 44  0  0  0  0  0  0  0  0  3 V2000
  154.0828  137.0135  162.4715 C   0  0  0  0  0  0  0  0  0  0  0  0
  154.4753  138.4928  162.4796 C   0  0  0  0  0  0  0  0  0  0  0  0
  154.4542  138.9817  161.1491 O   0  0  0  0  0  0  0  0  0  0  0  0
  154.8742  140.3318  161.0547 C   0  0  0  0  0  0  0  0  0  0  0  0
  153.6575  141.2424  161.2620 C   0  0  0  0  0  0  0  0  0  0  0  0
  152.8843  141.4197  160.0167 N   0  0  0  0  0  0  0  0  0  0  0  0
  152.4284  140.5191  159.0854 C   0  0  0  0  0  0  0  0  0  0  0  0
  152.5853  139.0215  159.0714 C   0  0  0  0  0  0  0  0  0  0  0  0
  153.5129  138.5685  158.0361 N   0  5  0  0  0  0  0  0  0  0  0  0
  153.2247  137.5841  157.1396 C   0  0  0  0  0  0  0  0  0  0  0  0
  153.6869  136.4420  157.0442 O   0  0  0  0  0  0  0  0  0  0  0  0
  152.1664  137.9931  156.1873 C   0  0  0  0  0  0  0  0  0  0  0  0
  151.5739  139.2054  155.9380 C   0  0  0  0  0  0  0  0  0  0  0  0
  150.6348  138.9971  154.8906 C   0  0  0  0  0  0  0  0  0  0  0  0
  150.7258  137.6750  154.5640 C   0  0  0  0  0  0  0  0  0  0  0  0
  151.6558  137.0530  155.3381 O   0  0  0  0  0  0  0  0  0  0  0  0
  151.7576  141.2377  158.1387 N   0  3  0  0  0  0  0  0  0  0  0  0
  151.7768  142.5937  158.4567 C   0  0  0  0  0  0  0  0  0  0  0  0
  151.2316  143.6907  157.7975 C   0  0  0  0  0  0  0  0  0  0  0  0
  151.4255  144.9508  158.4001 C   0  0  0  0  0  0  0  0  0  0  0  0
  152.1368  145.0828  159.6103 C   0  0  0  0  0  0  0  0  0  0  0  0
  152.6862  143.9621  160.2674 C   0  0  0  0  0  0  0  0  0  0  0  0
  152.4930  142.7190  159.6636 C   0  0  0  0  0  0  0  0  0  0  0  0
  154.0837  136.6040  163.4819 H   0  0  0  0  0  0  0  0  0  0  0  0
  154.7798  136.4269  161.8726 H   0  0  0  0  0  0  0  0  0  0  0  0
  153.0843  136.8759  162.0557 H   0  0  0  0  0  0  0  0  0  0  0  0
  153.7787  139.0588  163.0997 H   0  0  0  0  0  0  0  0  0  0  0  0
  155.4714  138.6100  162.9088 H   0  0  0  0  0  0  0  0  0  0  0  0
  155.6325  140.5436  161.8102 H   0  0  0  0  0  0  0  0  0  0  0  0
  155.3216  140.5141  160.0764 H   0  0  0  0  0  0  0  0  0  0  0  0
  152.9994  140.8456  162.0353 H   0  0  0  0  0  0  0  0  0  0  0  0
  153.9754  142.2218  161.6195 H   0  0  0  0  0  0  0  0  0  0  0  0
  152.9149  138.7056  160.0610 H   0  0  0  0  0  0  0  0  0  0  0  0
  151.5910  138.5931  158.9407 H   0  0  0  0  0  0  0  0  0  0  0  0
  151.7907  140.1322  156.4487 H   0  0  0  0  0  0  0  0  0  0  0  0
  149.9798  139.7231  154.4322 H   0  0  0  0  0  0  0  0  0  0  0  0
  150.2309  137.0439  153.8409 H   0  0  0  0  0  0  0  0  0  0  0  0
  150.6845  143.5882  156.8719 H   0  0  0  0  0  0  0  0  0  0  0  0
  151.0192  145.8324  157.9258 H   0  0  0  0  0  0  0  0  0  0  0  0
  152.2634  146.0641  160.0441 H   0  0  0  0  0  0  0  0  0  0  0  0
  153.2264  144.0764  161.1954 H   0  0  0  0  0  0  0  0  0  0  0  0
  151.3249  140.8089  157.3302 H   0  0  0  0  0  0  0  0  0  0  0  0
  1  2  1  0  0  0  0
  1 24  1  0  0  0  0
  1 25  1  0  0  0  0
  1 26  1  0  0  0  0
  2  3  1  0  0  0  0
  2 27  1  0  0  0  0
  2 28  1  0  0  0  0
  3  4  1  0  0  0  0
  4  5  1  0  0  0  0
  4 29  1  0  0  0  0
  4 30  1  0  0  0  0
  5  6  1  0  0  0  0
  5 31  1  0  0  0  0
  5 32  1  0  0  0  0
  6 23  1  0  0  0  0
  6  7  1  0  0  0  0
  7  8  1  0  0  0  0
  7 17  2  0  0  0  0
  8  9  1  0  0  0  0
  8 33  1  0  0  0  0
  8 34  1  0  0  0  0
  9 10  1  0  0  0  0
 10 11  2  0  0  0  0
 10 12  1  0  0  0  0
 12 16  1  0  0  0  0
 12 13  2  0  0  0  0
 13 14  1  0  0  0  0
 13 35  1  0  0  0  0
 14 15  2  0  0  0  0
 14 36  1  0  0  0  0
 15 16  1  0  0  0  0
 15 37  1  0  0  0  0
 17 18  1  0  0  0  0
 17 42  1  0  0  0  0
 18 23  2  0  0  0  0
 18 19  1  0  0  0  0
 19 20  2  0  0  0  0
 19 38  1  0  0  0  0
 20 21  1  0  0  0  0
 20 39  1  0  0  0  0
 21 22  2  0  0  0  0
 21 40  1  0  0  0  0
 22 23  1  0  0  0  0
 22 41  1  0  0  0  0
M  CHG  1   9  -1
M  CHG  1  17   1
M  END
> <s_m_source_file>
AV-unprocessed.smi

> <i_m_source_file_index>
498

> <i_lp_mmshare_version>
43012

> <i_f3d_flags>
0

> <s_epik_input>
W0NIM11bQ0gyXU9bQ0gyXVtDSDJdbihjKGMxMilbY0hdW2NIXVtjSF1bY0hdMiljKG4xKVtDSDJdW05IXUMoPU8pYzNbY0hdW2NIXVtjSF1vMw==

> <s_epik_cmdline>
J2VwaWtfcHl0aG9uJywgJy1waCcsICc3LjAnLCAnLXRuJywgJzgnLCAnLW1hJywgJzIwMCcsICctbWV0YWxfYmluZGluZycsICctaW1hZScsICc8aW5maWxlLm1hZT4nLCAnLW9tYWUnLCAnPG91dGZpbGUubWFlPic=

> <r_epik_Ionization_Penalty>
6.05973

> <r_epik_Ionization_Penalty_Charging>
6.05973

> <r_epik_Ionization_Penalty_Neutral>
2.61143e-12

> <r_epik_State_Penalty>
7.27867

> <r_epik_Charging_Adjusted_Penalty>
13.3384

> <i_epik_Tot_Q>
0

> <i_epik_Tot_abs_Q>
2

> <r_epik_Metal_State_Penalty>
3.28829

> <b_epik_Metal_Only>
1

> <s_lp_Force_Field>
OPLS_2005

> <r_lp_Energy>
13.3144

> <b_lp_Chiralities_Consistent>
1

> <s_lp_Variant>
AV-unprocessed.smi:498-4

> <Gold.Version>
5.8.1

> <Gold.Id.Protein>
6NUR|6NUR_protein|mol2

> <Gold.PLP.Fitness>
63.4337

> <Gold.PLP.PLP>
-51.9313

> <Gold.PLP.part.hbond>
-3.0000

> <Gold.PLP.part.metal>
0.0000

> <Gold.PLP.part.buried>
-5.3052

> <Gold.PLP.part.nonpolar>
-44.3058

> <Gold.PLP.part.repulsive>
0.1643

> <Gold.PLP.ligand.clash>
0.0000

> <Gold.PLP.ligand.torsion>
1.2796

> <Gold.PLP.Chemscore.Hbond>
3.5040

> <Gold.PLP.Chemscore.CHOScore>
1.1326

> <Gold.PLP.Chemscore.Metal>
0.0000

> <Gold.Chemscore.Hbonds>
donor molecule, donor type, donor heavy atom, donor atom, acceptor molecule, acceptor atom, score
      P1  H  7997  8009       L1     9  1.79
      P1  H 10752 10764       L1    16  0.38
      P1  H 10752 10765       L1    11  0.76
      L1  C    15    37       P1  7948  0.96
      L1  C    15    37       P1  7949  0.13

> <Gold.PLP.Chemscore.Internal.Correction>
0.1519

> <Gold.Rescore>
     Score         DG    S(hbond)    S(metal)    S(lipo)     H(rot)  DE(clash)    DE(int)     intcor
     22.89     -24.39       2.37        0.00     136.97       1.96       0.05       1.45       ----

> <Gold.Chemscore.Fitness>
22.8905

> <Gold.Chemscore.DG>
-24.3859

> <Gold.Chemscore.ZeroCoef>
-5.4800

> <Gold.Chemscore.Hbond>
2.3676

> <Gold.Chemscore.Metal>
0.0000

> <Gold.Chemscore.Lipo>
136.9673

> <Gold.Chemscore.Internal_Hbond>
0.0000

> <Gold.Chemscore.DEClash>
0.0487

> <Gold.Chemscore.DEInternal>
1.4467

> <Gold.Chemscore.Rot>
1.9637

> <Gold.Chemscore.Internal.Correction>
   9.000000E+99

> <Gold.Chemscore.Hbonds>
donor molecule, donor type, donor heavy atom, donor atom, acceptor molecule, acceptor atom, score
      P1  H  7997  8009       L1     9  0.50
      P1  H 10752 10764       L1    16  0.33
      P1  H 10752 10765       L1    11  0.72

> <Gold.Chemscore.Hbond.Weighted>
-7.9077

> <Gold.Chemscore.Metal.Weighted>
-0.0000

> <Gold.Chemscore.Lipo.Weighted>
-16.0252

> <Gold.Chemscore.Internal_Hbond.Weighted>
0.0000

> <Gold.Chemscore.DEClash.Weighted>
0.0487

> <Gold.Chemscore.DEInternal.Weighted>
1.4467

> <Gold.Chemscore.Rot.Weighted>
5.0270

> <Gold.Chemscore.Internal.Correction.Weighted>
   9.000000E+99

> <Gold.Protein.RotatedTorsions>
[ 6907 6896 6895 6894 ] final  163.42 input  -60.11 | X-H torsion
[ 7974 7965 7964 7962 ] final  168.84 input  175.53 | X-H torsion
[ 8008 7997 7996 7995 ] final  154.20 input   59.86 | X-H torsion
[ 10167 10162 10161 10158 ] final   22.51 input  -65.29 | X-H torsion
[ 10718 10713 10712 10709 ] final  105.00 input   66.30 | X-H torsion
[ 10763 10752 10751 10750 ] final  -84.98 input  -60.55 | X-H torsion
[ 11005 11000 10999 10996 ] final -151.00 input  -57.11 | X-H torsion

> <Gold.Protein.ActiveResidues>
 VAL166  LYS551  ARG553  GLY616  TRP617  ASP618  TYR619  PRO620  LYS621  CYS622 
 ASP623  PHE694  ASN695  SER759  ASP760  ASP761  ALA762  ILE779  LEU786  VAL792 
 PHE793  MET794  SER795  GLU796  ALA797  LYS798  CYS799  TRP800  GLU811  SER814 

> <Gold.Protein.RotatedAtoms>
  151.9255  133.3597  159.3911 H   0  0  0  0  0  0  0  0  0  0  0  0  # atno 6907 bound_to 6896
  150.7028  134.4592  159.5382 H   0  0  0  0  0  0  0  0  0  0  0  0  # atno 6908 bound_to 6896
  152.2223  134.8401  160.0535 H   0  0  0  0  0  0  0  0  0  0  0  0  # atno 6909 bound_to 6896
  144.7375  139.8966  143.6406 H   0  0  0  0  0  0  0  0  0  0  0  0  # atno 7974 bound_to 7965
  156.2543  140.1973  156.6609 H   0  0  0  0  0  0  0  0  0  0  0  0  # atno 8008 bound_to 7997
  154.6465  140.0577  156.9932 H   0  0  0  0  0  0  0  0  0  0  0  0  # atno 8009 bound_to 7997
  155.1483  140.3249  155.4439 H   0  0  0  0  0  0  0  0  0  0  0  0  # atno 8010 bound_to 7997
  140.5342  143.9789  150.6482 H   0  0  0  0  0  0  0  0  0  0  0  0  # atno 10167 bound_to 10162
  157.6721  131.0817  150.5791 H   0  0  0  0  0  0  0  0  0  0  0  0  # atno 10718 bound_to 10713
  154.6058  135.5501  153.7421 H   0  0  0  0  0  0  0  0  0  0  0  0  # atno 10763 bound_to 10752
  153.0174  135.6377  154.1649 H   0  0  0  0  0  0  0  0  0  0  0  0  # atno 10764 bound_to 10752
  154.1588  135.2898  155.3094 H   0  0  0  0  0  0  0  0  0  0  0  0  # atno 10765 bound_to 10752
  140.7342  134.3586  157.5160 H   0  0  0  0  0  0  0  0  0  0  0  0  # atno 11005 bound_to 11000
  146.1102  139.4106  143.0292 LP  0  0  0  0  0  0  0  0  0  0  0  0  # atno 17320 bound_to 7965
  145.7453  140.9993  143.1279 LP  0  0  0  0  0  0  0  0  0  0  0  0  # atno 17321 bound_to 7965
  140.3172  143.3160  152.0820 LP  0  0  0  0  0  0  0  0  0  0  0  0  # atno 17342 bound_to 10162
  139.4965  144.6598  151.6491 LP  0  0  0  0  0  0  0  0  0  0  0  0  # atno 17343 bound_to 10162
  156.6092  130.4375  149.5866 LP  0  0  0  0  0  0  0  0  0  0  0  0  # atno 17370 bound_to 10713
  156.2444  130.6870  151.1586 LP  0  0  0  0  0  0  0  0  0  0  0  0  # atno 17371 bound_to 10713
  139.8819  134.9038  156.2864 LP  0  0  0  0  0  0  0  0  0  0  0  0  # atno 17394 bound_to 11000
  140.9894  133.7218  156.0790 LP  0  0  0  0  0  0  0  0  0  0  0  0  # atno 17395 bound_to 11000

$$$$
