#       Name:                AV-unprocessed.smi:1050
#       Creating user name   scv26
#       Creation time:       Fri Mar 27 03:11:16 2020


#       File generated by GOLD software.
#

@<TRIPOS>MOLECULE
AV-unprocessed.smi:1050
    58    59     1
SMALL
NO_CHARGES


@<TRIPOS>ATOM
      1 ****        -5.2282  -0.5970  -0.3495 C.3            1 S1                 0.0000
      2 ****        -4.5836  -1.8259  -0.0320 O.3            1 S1                 0.0000
      3 ****        -3.2079  -1.8341   0.0716 C.ar           1 S1                 0.0000
      4 ****        -2.5605  -3.0417   0.3889 C.ar           1 S1                 0.0000
      5 ****        -1.1581  -3.0508   0.4937 C.ar           1 S1                 0.0000
      6 ****        -0.4403  -1.8475   0.2895 C.ar           1 S1                 0.0000
      7 ****         0.9819  -1.7765   0.3350 N.am           1 S1                 0.0000
      8 ****         1.8504  -2.5679   0.9903 C.2            1 S1                 0.0000
      9 ****         1.5320  -3.5370   1.6791 O.2            1 S1                 0.0000
     10 ****         3.3334  -2.1858   0.8451 C.3            1 S1                 0.0000
     11 ****         4.0551  -2.1968   2.2011 C.3            1 S1                 0.0000
     12 ****         4.0046  -3.1077  -0.0098 O.3            1 S1                 0.0000
     13 ****         3.6757  -3.0062  -1.3895 C.3            1 S1                 0.0000
     14 ****        -1.1786  -0.6800  -0.0396 C.ar           1 S1                 0.0000
     15 ****        -0.5193   0.5456  -0.2573 N.3            1 S1                 0.0000
     16 ****        -0.1024   1.2145   0.9753 C.3            1 S1                 0.0000
     17 ****         0.8152   2.4124   0.6622 C.3            1 S1                 0.0000
     18 ****         0.1371   3.2980  -0.2937 N.am           1 S1                 0.0000
     19 ****        -0.2827   4.5446   0.0279 C.2            1 S1                 0.0000
     20 ****        -1.0557   5.3637  -1.0079 C.3            1 S1                 0.0000
     21 ****        -0.0710   5.0546   1.1282 O.2            1 S1                 0.0000
     22 ****        -0.1342   2.6055  -1.5609 C.3            1 S1                 0.0000
     23 ****        -1.0816   1.4235  -1.2853 C.3            1 S1                 0.0000
     24 ****        -2.5290  -0.6817  -0.1408 N.ar           1 S1                 0.0000
     25 ****        -6.3054  -0.7560  -0.3945 H              1 S1                 0.0000
     26 ****        -4.9089  -0.2177  -1.3214 H              1 S1                 0.0000
     27 ****        -5.0375   0.1617   0.4110 H              1 S1                 0.0000
     28 ****        -3.1286  -3.9475   0.5419 H              1 S1                 0.0000
     29 ****        -0.6625  -3.9842   0.7096 H              1 S1                 0.0000
     30 ****         1.3842  -0.9729  -0.1257 H              1 S1                 0.0000
     31 ****         3.4150  -1.1799   0.4282 H              1 S1                 0.0000
     32 ****         3.5750  -1.5217   2.9105 H              1 S1                 0.0000
     33 ****         5.0903  -1.8741   2.0894 H              1 S1                 0.0000
     34 ****         4.0687  -3.1941   2.6424 H              1 S1                 0.0000
     35 ****         4.2949  -3.6981  -1.9601 H              1 S1                 0.0000
     36 ****         3.8656  -2.0004  -1.7663 H              1 S1                 0.0000
     37 ****         2.6339  -3.2618  -1.5840 H              1 S1                 0.0000
     38 ****        -0.9904   1.5550   1.5100 H              1 S1                 0.0000
     39 ****         0.4150   0.5182   1.6357 H              1 S1                 0.0000
     40 ****         1.0905   2.9175   1.5887 H              1 S1                 0.0000
     41 ****         1.7510   2.0624   0.2242 H              1 S1                 0.0000
     42 ****        -1.9592   4.8397  -1.3217 H              1 S1                 0.0000
     43 ****        -0.4364   5.5606  -1.8834 H              1 S1                 0.0000
     44 ****        -1.3579   6.3250  -0.5905 H              1 S1                 0.0000
     45 ****        -0.5600   3.2467  -2.3309 H              1 S1                 0.0000
     46 ****         0.8071   2.2395  -1.9736 H              1 S1                 0.0000
     47 ****        -1.2453   0.8561  -2.2023 H              1 S1                 0.0000
     48 ****        -2.0523   1.7995  -0.9587 H              1 S1                 0.0000
     49 ****        -4.8310  -2.4828  -0.7442 LP             1 S1                 0.0000
     50 ****        -4.9487  -2.1336   0.8466 LP             1 S1                 0.0000
     51 ****         0.5681  -3.7828   1.7812 LP             1 S1                 0.0000
     52 ****         2.2373  -4.0785   2.1366 LP             1 S1                 0.0000
     53 ****         3.7780  -4.0328   0.2947 LP             1 S1                 0.0000
     54 ****         4.9886  -2.9572   0.0852 LP             1 S1                 0.0000
     55 ****         0.3324   0.2652  -0.7001 LP             1 S1                 0.0000
     56 ****         0.4297   4.5447   1.8277 LP             1 S1                 0.0000
     57 ****        -0.3997   5.9788   1.3225 LP             1 S1                 0.0000
     58 ****        -3.0196   0.1590  -0.3699 LP             1 S1                 0.0000
@<TRIPOS>BOND
    1    1    2 1     
    2    1   25 1     
    3    1   26 1     
    4    1   27 1     
    5    2    3 1     
    6    3   24 ar    
    7    3    4 ar    
    8    4    5 ar    
    9    4   28 1     
   10    5    6 ar    
   11    5   29 1     
   12    6    7 1     
   13    6   14 ar    
   14    7    8 am    
   15    7   30 1     
   16    8    9 2     
   17    8   10 1     
   18   10   11 1     
   19   10   12 1     
   20   10   31 1     
   21   11   32 1     
   22   11   33 1     
   23   11   34 1     
   24   12   13 1     
   25   13   35 1     
   26   13   36 1     
   27   13   37 1     
   28   14   15 1     
   29   14   24 ar    
   30   15   23 1     
   31   15   16 1     
   32   16   17 1     
   33   16   38 1     
   34   16   39 1     
   35   17   18 1     
   36   17   40 1     
   37   17   41 1     
   38   18   19 am    
   39   18   22 1     
   40   19   20 1     
   41   19   21 2     
   42   20   42 1     
   43   20   43 1     
   44   20   44 1     
   45   22   23 1     
   46   22   45 1     
   47   22   46 1     
   48   23   47 1     
   49   23   48 1     
   50    2   49 1     
   51    2   50 1     
   52    9   51 1     
   53    9   52 1     
   54   12   53 1     
   55   12   54 1     
   56   15   55 1     
   57   21   56 1     
   58   21   57 1     
   59   24   58 1     
@<TRIPOS>SUBSTRUCTURE
      1 S1             1
@<TRIPOS>SET
LONE_PAIRS      STATIC     ATOMS    <user>   **** ""
10 49 50 51 52 53 54 55 56 57 58
DONOR_HYDROGENS      STATIC     ATOMS    <user>   **** ""
1 30
ATOM$BLUE        STATIC     ATOMS    COLORGROUP SYSTEM
10 49 50 51 52 53 54 55 56 57 58
ATOM$RED        STATIC     ATOMS    COLORGROUP SYSTEM
1 30
