AV-unprocessed.smi:1180|AV-procd|sdf|4964|dock3
  -GOLD-   22720 3553D 1   1.00000     0.00000
 Structure written by MMmdl.
 37 38  0  0  0  0  0  0  0  0  2 V2000
  147.7512  136.2229  160.7685 C   0  0  0  0  0  0  0  0  0  0  0  0
  148.4145  136.8410  159.5562 C   0  0  0  0  0  0  0  0  0  0  0  0
  147.8434  137.8196  158.9640 N   0  0  0  0  0  0  0  0  0  0  0  0
  148.4511  138.3951  157.8352 C   0  0  0  0  0  0  0  0  0  0  0  0
  147.6996  139.5480  157.1934 C   0  0  0  0  0  0  0  0  0  0  0  0
  149.6413  137.9285  157.3599 C   0  0  0  0  0  0  0  0  0  0  0  0
  150.3438  138.5137  156.1342 C   0  0  0  0  0  0  0  0  0  0  0  0
  151.2490  139.7239  156.3798 C   0  0  0  0  0  0  0  0  0  0  0  0
  152.4595  139.6636  156.1611 O   0  0  0  0  0  0  0  0  0  0  0  0
  150.6400  140.8261  156.8420 N   0  0  0  0  0  0  0  0  0  0  0  0
  151.3048  142.0900  157.1395 C   0  0  0  0  0  0  0  0  0  0  0  0
  151.2408  142.4411  158.6385 C   0  0  2  0  0  0  0  0  0  0  0  0
  151.9091  143.7653  158.9920 C   0  0  0  0  0  0  0  0  0  0  0  0
  152.6270  143.4905  160.3176 C   0  0  0  0  0  0  0  0  0  0  0  0
  152.1789  142.2074  160.7301 O   0  0  0  0  0  0  0  0  0  0  0  0
  151.9496  141.4463  159.5571 C   0  0  0  0  0  0  0  0  0  0  0  0
  150.2705  136.8044  158.0755 C   0  0  0  0  0  0  0  0  0  0  0  0
  151.3524  136.3564  157.6974 O   0  0  0  0  0  0  0  0  0  0  0  0
  149.6141  136.2952  159.1571 N   0  5  0  0  0  0  0  0  0  0  0  0
  146.9816  136.8819  161.1725 H   0  0  0  0  0  0  0  0  0  0  0  0
  148.4845  136.0370  161.5541 H   0  0  0  0  0  0  0  0  0  0  0  0
  147.2856  135.2750  160.4980 H   0  0  0  0  0  0  0  0  0  0  0  0
  147.3578  139.2711  156.1960 H   0  0  0  0  0  0  0  0  0  0  0  0
  148.3393  140.4267  157.1108 H   0  0  0  0  0  0  0  0  0  0  0  0
  146.8253  139.8262  157.7829 H   0  0  0  0  0  0  0  0  0  0  0  0
  150.9208  137.7394  155.6267 H   0  0  0  0  0  0  0  0  0  0  0  0
  149.5879  138.8129  155.4083 H   0  0  0  0  0  0  0  0  0  0  0  0
  149.6423  140.7874  156.9918 H   0  0  0  0  0  0  0  0  0  0  0  0
  152.3437  142.0064  156.8194 H   0  0  0  0  0  0  0  0  0  0  0  0
  150.8634  142.8912  156.5444 H   0  0  0  0  0  0  0  0  0  0  0  0
  150.1971  142.5009  158.9518 H   0  0  0  0  0  0  0  0  0  0  0  0
  152.6277  144.0782  158.2336 H   0  0  0  0  0  0  0  0  0  0  0  0
  151.1672  144.5583  159.0922 H   0  0  0  0  0  0  0  0  0  0  0  0
  153.7073  143.4615  160.1682 H   0  0  0  0  0  0  0  0  0  0  0  0
  152.4095  144.2434  161.0754 H   0  0  0  0  0  0  0  0  0  0  0  0
  151.3476  140.5611  159.7648 H   0  0  0  0  0  0  0  0  0  0  0  0
  152.9043  141.1248  159.1369 H   0  0  0  0  0  0  0  0  0  0  0  0
  1  2  1  0  0  0  0
  1 20  1  0  0  0  0
  1 21  1  0  0  0  0
  1 22  1  0  0  0  0
  2 19  1  0  0  0  0
  2  3  2  0  0  0  0
  3  4  1  0  0  0  0
  4  5  1  0  0  0  0
  4  6  2  0  0  0  0
  5 23  1  0  0  0  0
  5 24  1  0  0  0  0
  5 25  1  0  0  0  0
  6  7  1  0  0  0  0
  6 17  1  0  0  0  0
  7  8  1  0  0  0  0
  7 26  1  0  0  0  0
  7 27  1  0  0  0  0
  8  9  2  0  0  0  0
  8 10  1  0  0  0  0
 10 11  1  0  0  0  0
 10 28  1  0  0  0  0
 11 12  1  0  0  0  0
 11 29  1  0  0  0  0
 11 30  1  0  0  0  0
 12 16  1  0  0  0  0
 12 13  1  0  0  0  0
 12 31  1  0  0  0  0
 13 14  1  0  0  0  0
 13 32  1  0  0  0  0
 13 33  1  0  0  0  0
 14 15  1  0  0  0  0
 14 34  1  0  0  0  0
 14 35  1  0  0  0  0
 15 16  1  0  0  0  0
 16 36  1  0  0  0  0
 16 37  1  0  0  0  0
 17 18  2  0  0  0  0
 17 19  1  0  0  0  0
M  CHG  1  19  -1
M  END
> <s_m_source_file>
AV-unprocessed.smi

> <i_m_source_file_index>
1180

> <i_lp_mmshare_version>
43012

> <i_f3d_flags>
0

> <s_epik_input>
W0NIM11jMW5jKFtDSDNdKWMoYyg9TylbbkhdMSlbQ0gyXUMoPU8pW05IXVtDSDJdW0NAQEhdMltDSDJdW0NIMl1PW0NIMl0y

> <s_epik_cmdline>
J2VwaWtfcHl0aG9uJywgJy1waCcsICc3LjAnLCAnLXRuJywgJzgnLCAnLW1hJywgJzIwMCcsICctbWV0YWxfYmluZGluZycsICctaW1hZScsICc8aW5maWxlLm1hZT4nLCAnLW9tYWUnLCAnPG91dGZpbGUubWFlPic=

> <r_lp_tautomer_probability>
0.839158

> <r_epik_Ionization_Penalty>
6.60319

> <r_epik_Ionization_Penalty_Charging>
6.85407e-08

> <r_epik_Ionization_Penalty_Neutral>
6.60319

> <r_epik_State_Penalty>
4.42883

> <r_epik_Charging_Adjusted_Penalty>
4.42883

> <i_epik_Tot_Q>
-1

> <i_epik_Tot_abs_Q>
1

> <r_epik_Metal_State_Penalty>
0.797578

> <b_epik_Metal_Only>
1

> <s_lp_Force_Field>
OPLS_2005

> <r_lp_Energy>
24.7937

> <b_lp_Chiralities_Consistent>
1

> <s_lp_Variant>
AV-unprocessed.smi:1180-5

> <Gold.Version>
5.8.1

> <Gold.Id.Protein>
6NUR|6NUR_protein|mol2

> <Gold.PLP.Fitness>
38.0052

> <Gold.PLP.PLP>
-29.0859

> <Gold.PLP.part.hbond>
-3.7513

> <Gold.PLP.part.metal>
0.0000

> <Gold.PLP.part.buried>
-5.6198

> <Gold.PLP.part.nonpolar>
-19.7655

> <Gold.PLP.part.repulsive>
0.0779

> <Gold.PLP.ligand.clash>
0.0000

> <Gold.PLP.ligand.torsion>
0.3803

> <Gold.PLP.Chemscore.Hbond>
3.2210

> <Gold.PLP.Chemscore.CHOScore>
0.0000

> <Gold.PLP.Chemscore.Metal>
0.0000

> <Gold.Chemscore.Hbonds>
donor molecule, donor type, donor heavy atom, donor atom, acceptor molecule, acceptor atom, score
      P1  H  6896  6909       L1    19  2.00
      P1  H  6934  6947       L1     3  0.06
      P1  H  7997  8009       L1     9  1.00

> <Gold.PLP.Chemscore.Internal.Correction>
0.0170

> <Gold.Rescore>
     Score         DG    S(hbond)    S(metal)    S(lipo)     H(rot)  DE(clash)    DE(int)     intcor
     15.43     -15.88       2.12        0.00      66.94       1.76       0.04       0.42       ----

> <Gold.Chemscore.Fitness>
15.4280

> <Gold.Chemscore.DG>
-15.8839

> <Gold.Chemscore.ZeroCoef>
-5.4800

> <Gold.Chemscore.Hbond>
2.1174

> <Gold.Chemscore.Metal>
0.0000

> <Gold.Chemscore.Lipo>
66.9375

> <Gold.Chemscore.Internal_Hbond>
0.0000

> <Gold.Chemscore.DEClash>
0.0377

> <Gold.Chemscore.DEInternal>
0.4183

> <Gold.Chemscore.Rot>
1.7577

> <Gold.Chemscore.Internal.Correction>
   9.000000E+99

> <Gold.Chemscore.Hbonds>
donor molecule, donor type, donor heavy atom, donor atom, acceptor molecule, acceptor atom, score
      P1  H  6896  6909       L1    19  0.34
      P1  H  6934  6947       L1     3  0.01
      P1  H  7997  8009       L1     9  0.99

> <Gold.Chemscore.Hbond.Weighted>
-7.0720

> <Gold.Chemscore.Metal.Weighted>
-0.0000

> <Gold.Chemscore.Lipo.Weighted>
-7.8317

> <Gold.Chemscore.Internal_Hbond.Weighted>
0.0000

> <Gold.Chemscore.DEClash.Weighted>
0.0377

> <Gold.Chemscore.DEInternal.Weighted>
0.4183

> <Gold.Chemscore.Rot.Weighted>
4.4998

> <Gold.Chemscore.Internal.Correction.Weighted>
   9.000000E+99

> <Gold.Protein.RotatedTorsions>
[ 6907 6896 6895 6894 ] final   64.72 input  -60.11 | X-H torsion
[ 7974 7965 7964 7962 ] final -173.26 input  175.53 | X-H torsion
[ 8008 7997 7996 7995 ] final -158.84 input   59.86 | X-H torsion
[ 10167 10162 10161 10158 ] final  -84.27 input  -65.29 | X-H torsion
[ 10718 10713 10712 10709 ] final   15.75 input   66.30 | X-H torsion
[ 10763 10752 10751 10750 ] final   63.78 input  -60.55 | X-H torsion
[ 11005 11000 10999 10996 ] final  -79.87 input  -57.11 | X-H torsion

> <Gold.Protein.ActiveResidues>
 VAL166  LYS551  ARG553  GLY616  TRP617  ASP618  TYR619  PRO620  LYS621  CYS622 
 ASP623  PHE694  ASN695  SER759  ASP760  ASP761  ALA762  ILE779  LEU786  VAL792 
 PHE793  MET794  SER795  GLU796  ALA797  LYS798  CYS799  TRP800  GLU811  SER814 

> <Gold.Protein.RotatedAtoms>
  152.4353  134.5699  159.9917 H   0  0  0  0  0  0  0  0  0  0  0  0  # atno 6907 bound_to 6896
  151.5811  133.3372  159.3016 H   0  0  0  0  0  0  0  0  0  0  0  0  # atno 6908 bound_to 6896
  150.8250  134.7512  159.6870 H   0  0  0  0  0  0  0  0  0  0  0  0  # atno 6909 bound_to 6896
  144.7139  140.1649  143.6373 H   0  0  0  0  0  0  0  0  0  0  0  0  # atno 7974 bound_to 7965
  155.7536  140.0830  157.2189 H   0  0  0  0  0  0  0  0  0  0  0  0  # atno 8008 bound_to 7997
  154.4010  140.1556  156.2808 H   0  0  0  0  0  0  0  0  0  0  0  0  # atno 8009 bound_to 7997
  155.8907  140.3415  155.5956 H   0  0  0  0  0  0  0  0  0  0  0  0  # atno 8010 bound_to 7997
  140.4148  143.2608  151.8969 H   0  0  0  0  0  0  0  0  0  0  0  0  # atno 10167 bound_to 10162
  157.0580  130.6297  149.5780 H   0  0  0  0  0  0  0  0  0  0  0  0  # atno 10718 bound_to 10713
  153.0030  135.5417  154.6405 H   0  0  0  0  0  0  0  0  0  0  0  0  # atno 10763 bound_to 10752
  154.5661  135.2838  155.0874 H   0  0  0  0  0  0  0  0  0  0  0  0  # atno 10764 bound_to 10752
  154.2058  135.6476  153.5153 H   0  0  0  0  0  0  0  0  0  0  0  0  # atno 10765 bound_to 10752
  141.1668  133.7125  156.8187 H   0  0  0  0  0  0  0  0  0  0  0  0  # atno 11005 bound_to 11000
  145.8997  139.2423  143.1501 LP  0  0  0  0  0  0  0  0  0  0  0  0  # atno 17320 bound_to 7965
  145.9823  140.8672  143.0108 LP  0  0  0  0  0  0  0  0  0  0  0  0  # atno 17321 bound_to 7965
  139.4782  144.5499  151.8401 LP  0  0  0  0  0  0  0  0  0  0  0  0  # atno 17342 bound_to 10162
  140.4598  144.1737  150.5905 LP  0  0  0  0  0  0  0  0  0  0  0  0  # atno 17343 bound_to 10162
  155.9987  130.5062  150.7581 LP  0  0  0  0  0  0  0  0  0  0  0  0  # atno 17370 bound_to 10713
  157.4978  131.0916  151.0351 LP  0  0  0  0  0  0  0  0  0  0  0  0  # atno 17371 bound_to 10713
  140.2135  134.8810  157.3300 LP  0  0  0  0  0  0  0  0  0  0  0  0  # atno 17394 bound_to 11000
  140.2062  134.4194  155.7636 LP  0  0  0  0  0  0  0  0  0  0  0  0  # atno 17395 bound_to 11000

$$$$
