#       Name:                AV-unprocessed.smi:284
#       Creating user name   scv26
#       Creation time:       Thu Mar 26 21:50:49 2020


#       File generated by GOLD software.
#

@<TRIPOS>MOLECULE
AV-unprocessed.smi:284
    72    74     1
SMALL
NO_CHARGES


@<TRIPOS>ATOM
      1 ****        -0.9537   4.7871  -2.7395 C.3            1 S1                 0.0000
      2 ****        -0.2404   3.4738  -2.4593 C.2            1 S1                 0.0000
      3 ****         1.1076   3.3908  -2.3777 C.2            1 S1                 0.0000
      4 ****         1.7856   2.2132  -2.1244 N.am           1 S1                 0.0000
      5 ****         3.2930   2.1747  -2.0419 C.3            1 S1                 0.0000
      6 ****         3.9069   1.9549  -3.4202 C.3            1 S1                 0.0000
      7 ****         5.2349   2.6570  -3.2451 C.3            1 S1                 0.0000
      8 ****         5.8147   2.9901  -4.4905 O.3            1 S1                 0.0000
      9 ****         4.8675   3.8584  -2.3546 C.3            1 S1                 0.0000
     10 ****         4.4096   5.1315  -3.0966 C.3            1 S1                 0.0000
     11 ****         5.5208   5.8712  -3.5586 O.3            1 S1                 0.0000
     12 ****         3.7668   3.4005  -1.5649 O.3            1 S1                 0.0000
     13 ****         1.0662   1.0109  -1.9773 C.2            1 S1                 0.0000
     14 ****         1.6524  -0.0567  -1.7830 O.2            1 S1                 0.0000
     15 ****        -0.3434   1.0620  -2.0598 N.am           1 S1                 0.0000
     16 ****        -1.1045  -0.1945  -1.8788 C.3            1 S1                 0.0000
     17 ****        -1.3820  -0.5384  -0.4070 C.2            1 S1                 0.0000
     18 ****        -1.2178   0.3065   0.4742 O.2            1 S1                 0.0000
     19 ****        -1.8356  -1.7863  -0.1902 N.am           1 S1                 0.0000
     20 ****        -2.1488  -2.4150   1.0450 C.ar           1 S1                 0.0000
     21 ****        -3.0475  -3.4986   1.0113 C.ar           1 S1                 0.0000
     22 ****        -3.3859  -4.1889   2.1910 C.ar           1 S1                 0.0000
     23 ****        -2.8226  -3.8173   3.4366 C.ar           1 S1                 0.0000
     24 ****        -3.1609  -4.5518   4.7480 C.3            1 S1                 0.0000
     25 ****        -1.8784  -5.1801   5.3317 C.3            1 S1                 0.0000
     26 ****        -4.1937  -5.6855   4.5560 C.3            1 S1                 0.0000
     27 ****        -3.7492  -3.5538   5.7674 C.3            1 S1                 0.0000
     28 ****        -1.9088  -2.7372   3.4581 C.ar           1 S1                 0.0000
     29 ****        -1.5696  -2.0447   2.2803 C.ar           1 S1                 0.0000
     30 ****        -1.0532   2.2676  -2.2830 C.2            1 S1                 0.0000
     31 ****        -2.2851   2.2739  -2.3206 O.2            1 S1                 0.0000
     32 ****        -0.2533   5.6177  -2.8330 H              1 S1                 0.0000
     33 ****        -1.6465   5.0257  -1.9316 H              1 S1                 0.0000
     34 ****        -1.5200   4.7221  -3.6692 H              1 S1                 0.0000
     35 ****         1.6774   4.2957  -2.5244 H              1 S1                 0.0000
     36 ****         3.5632   1.4051  -1.3167 H              1 S1                 0.0000
     37 ****         3.9890   0.8934  -3.6558 H              1 S1                 0.0000
     38 ****         3.2969   2.4486  -4.1788 H              1 S1                 0.0000
     39 ****         5.9176   2.0020  -2.7015 H              1 S1                 0.0000
     40 ****         6.6048   3.4842  -4.3314 H              1 S1                 0.0000
     41 ****         5.6924   4.1061  -1.6850 H              1 S1                 0.0000
     42 ****         3.7448   4.8955  -3.9278 H              1 S1                 0.0000
     43 ****         3.8529   5.7761  -2.4157 H              1 S1                 0.0000
     44 ****         5.2041   6.6459  -3.9978 H              1 S1                 0.0000
     45 ****        -2.0586  -0.1657  -2.4069 H              1 S1                 0.0000
     46 ****        -0.5745  -1.0291  -2.3413 H              1 S1                 0.0000
     47 ****        -2.0248  -2.3360  -1.0158 H              1 S1                 0.0000
     48 ****        -3.4884  -3.8059   0.0741 H              1 S1                 0.0000
     49 ****        -4.0835  -5.0073   2.1065 H              1 S1                 0.0000
     50 ****        -2.0869  -5.7229   6.2543 H              1 S1                 0.0000
     51 ****        -1.1240  -4.4293   5.5671 H              1 S1                 0.0000
     52 ****        -1.4311  -5.8860   4.6309 H              1 S1                 0.0000
     53 ****        -3.8296  -6.4532   3.8720 H              1 S1                 0.0000
     54 ****        -5.1403  -5.3066   4.1687 H              1 S1                 0.0000
     55 ****        -4.4133  -6.1830   5.5014 H              1 S1                 0.0000
     56 ****        -4.0198  -4.0517   6.6992 H              1 S1                 0.0000
     57 ****        -4.6499  -3.0778   5.3780 H              1 S1                 0.0000
     58 ****        -3.0447  -2.7626   6.0237 H              1 S1                 0.0000
     59 ****        -1.4483  -2.4307   4.3854 H              1 S1                 0.0000
     60 ****        -0.8501  -1.2433   2.3471 H              1 S1                 0.0000
     61 ****         5.1737   3.5417  -5.0242 LP             1 S1                 0.0000
     62 ****         6.0350   2.1547  -4.9942 LP             1 S1                 0.0000
     63 ****         6.0539   5.3158  -4.1969 LP             1 S1                 0.0000
     64 ****         6.0965   6.1340  -2.7844 LP             1 S1                 0.0000
     65 ****         4.0660   3.2905  -0.6171 LP             1 S1                 0.0000
     66 ****         3.0302   4.0755  -1.6057 LP             1 S1                 0.0000
     67 ****         2.6507  -0.0762  -1.7282 LP             1 S1                 0.0000
     68 ****         1.1294  -0.9029  -1.6804 LP             1 S1                 0.0000
     69 ****        -0.9016   1.2243   0.2341 LP             1 S1                 0.0000
     70 ****        -1.4007   0.0745   1.4295 LP             1 S1                 0.0000
     71 ****        -2.7762   3.1307  -2.4776 LP             1 S1                 0.0000
     72 ****        -2.7936   1.4221  -2.1942 LP             1 S1                 0.0000
@<TRIPOS>BOND
    1    1    2 1     
    2    1   32 1     
    3    1   33 1     
    4    1   34 1     
    5    2   30 1     
    6    2    3 2     
    7    3    4 1     
    8    3   35 1     
    9    4    5 1     
   10    4   13 am    
   11    5   12 1     
   12    5    6 1     
   13    5   36 1     
   14    6    7 1     
   15    6   37 1     
   16    6   38 1     
   17    7    8 1     
   18    7    9 1     
   19    7   39 1     
   20    8   40 1     
   21    9   10 1     
   22    9   12 1     
   23    9   41 1     
   24   10   11 1     
   25   10   42 1     
   26   10   43 1     
   27   11   44 1     
   28   13   14 2     
   29   13   15 am    
   30   15   16 1     
   31   15   30 am    
   32   16   17 1     
   33   16   45 1     
   34   16   46 1     
   35   17   18 2     
   36   17   19 am    
   37   19   20 1     
   38   19   47 1     
   39   20   29 ar    
   40   20   21 ar    
   41   21   22 ar    
   42   21   48 1     
   43   22   23 ar    
   44   22   49 1     
   45   23   24 1     
   46   23   28 ar    
   47   24   25 1     
   48   24   26 1     
   49   24   27 1     
   50   25   50 1     
   51   25   51 1     
   52   25   52 1     
   53   26   53 1     
   54   26   54 1     
   55   26   55 1     
   56   27   56 1     
   57   27   57 1     
   58   27   58 1     
   59   28   29 ar    
   60   28   59 1     
   61   29   60 1     
   62   30   31 2     
   63    8   61 1     
   64    8   62 1     
   65   11   63 1     
   66   11   64 1     
   67   12   65 1     
   68   12   66 1     
   69   14   67 1     
   70   14   68 1     
   71   18   69 1     
   72   18   70 1     
   73   31   71 1     
   74   31   72 1     
@<TRIPOS>SUBSTRUCTURE
      1 S1             1
@<TRIPOS>SET
LONE_PAIRS      STATIC     ATOMS    <user>   **** ""
12 61 62 63 64 65 66 67 68 69 70 71 72
DONOR_HYDROGENS      STATIC     ATOMS    <user>   **** ""
3 40 44 47
ATOM$BLUE        STATIC     ATOMS    COLORGROUP SYSTEM
12 61 62 63 64 65 66 67 68 69 70 71 72
ATOM$RED        STATIC     ATOMS    COLORGROUP SYSTEM
3 40 44 47
