#       Name:                AV-unprocessed.smi:1115
#       Creating user name   scv26
#       Creation time:       Fri Mar 27 03:35:03 2020


#       File generated by GOLD software.
#

@<TRIPOS>MOLECULE
AV-unprocessed.smi:1115
    56    57     1
SMALL
NO_CHARGES


@<TRIPOS>ATOM
      1 ****        -6.6409   3.0024   0.2085 C.3            1 S1                 0.0000
      2 ****        -5.4945   3.4380   0.9996 N.pl3          1 S1                 0.0000
      3 ****        -5.6190   4.5944   1.8783 C.3            1 S1                 0.0000
      4 ****        -4.3147   2.6590   1.0154 C.ar           1 S1                 0.0000
      5 ****        -3.1900   3.0354   1.7914 C.ar           1 S1                 0.0000
      6 ****        -2.0373   2.2269   1.7753 C.ar           1 S1                 0.0000
      7 ****        -2.0285   1.0603   0.9768 C.ar           1 S1                 0.0000
      8 ****        -0.9381   0.1530   0.8937 N.am           1 S1                 0.0000
      9 ****         0.3584   0.3746   1.1693 C.2            1 S1                 0.0000
     10 ****         0.8376   1.4535   1.5179 O.2            1 S1                 0.0000
     11 ****         1.0852  -0.7367   0.9873 N.am           1 S1                 0.0000
     12 ****         2.5351  -0.8488   1.1469 C.3            1 S1                 0.0000
     13 ****         3.2860  -0.9448  -0.2144 C.3            1 S1                 0.0000
     14 ****         3.1608   0.4459  -0.8873 C.3            1 S1                 0.0000
     15 ****         4.7852  -1.1604   0.1053 C.3            1 S1                 0.0000
     16 ****         2.7154  -2.0137  -1.0823 N.3            1 S1                 0.0000
     17 ****         2.7297  -3.3587  -0.4947 C.3            1 S1                 0.0000
     18 ****         2.0154  -4.3878  -1.3870 C.3            1 S1                 0.0000
     19 ****         2.6145  -4.4012  -2.6767 O.3            1 S1                 0.0000
     20 ****         2.5699  -3.1278  -3.3085 C.3            1 S1                 0.0000
     21 ****         3.2872  -2.0868  -2.4318 C.3            1 S1                 0.0000
     22 ****        -3.1963   0.7604   0.2492 C.ar           1 S1                 0.0000
     23 ****        -4.3022   1.5328   0.2607 N.ar           1 S1                 0.0000
     24 ****        -7.0160   2.0463   0.5749 H              1 S1                 0.0000
     25 ****        -6.3643   2.8884  -0.8401 H              1 S1                 0.0000
     26 ****        -7.4564   3.7239   0.2587 H              1 S1                 0.0000
     27 ****        -5.4760   4.3023   2.9192 H              1 S1                 0.0000
     28 ****        -6.6048   5.0520   1.7949 H              1 S1                 0.0000
     29 ****        -4.8779   5.3523   1.6222 H              1 S1                 0.0000
     30 ****        -3.1879   3.9259   2.4015 H              1 S1                 0.0000
     31 ****        -1.1941   2.5108   2.3853 H              1 S1                 0.0000
     32 ****        -1.1640  -0.7615   0.5304 H              1 S1                 0.0000
     33 ****         0.6030  -1.5709   0.6862 H              1 S1                 0.0000
     34 ****         2.9215  -0.0135   1.7339 H              1 S1                 0.0000
     35 ****         2.7332  -1.7244   1.7646 H              1 S1                 0.0000
     36 ****         3.4018   1.2503  -0.1913 H              1 S1                 0.0000
     37 ****         2.1503   0.6268  -1.2552 H              1 S1                 0.0000
     38 ****         3.8425   0.5598  -1.7302 H              1 S1                 0.0000
     39 ****         5.1716  -0.3529   0.7285 H              1 S1                 0.0000
     40 ****         5.3997  -1.1826  -0.7944 H              1 S1                 0.0000
     41 ****         4.9614  -2.0877   0.6499 H              1 S1                 0.0000
     42 ****         3.7561  -3.6884  -0.3333 H              1 S1                 0.0000
     43 ****         2.2385  -3.3657   0.4765 H              1 S1                 0.0000
     44 ****         2.0894  -5.3837  -0.9500 H              1 S1                 0.0000
     45 ****         0.9532  -4.1535  -1.4728 H              1 S1                 0.0000
     46 ****         3.0513  -3.1976  -4.2840 H              1 S1                 0.0000
     47 ****         1.5330  -2.8362  -3.4832 H              1 S1                 0.0000
     48 ****         3.2157  -1.1253  -2.9369 H              1 S1                 0.0000
     49 ****         4.3461  -2.3405  -2.3801 H              1 S1                 0.0000
     50 ****        -3.2468  -0.1261  -0.3666 H              1 S1                 0.0000
     51 ****         0.2472   2.2547   1.6156 LP             1 S1                 0.0000
     52 ****         1.8174   1.5289   1.7033 LP             1 S1                 0.0000
     53 ****         1.7653  -1.7113  -1.1589 LP             1 S1                 0.0000
     54 ****         2.1286  -5.0611  -3.2497 LP             1 S1                 0.0000
     55 ****         3.5703  -4.6803  -2.5840 LP             1 S1                 0.0000
     56 ****        -5.1032   1.2778  -0.2810 LP             1 S1                 0.0000
@<TRIPOS>BOND
    1    1    2 1     
    2    1   24 1     
    3    1   25 1     
    4    1   26 1     
    5    2    3 1     
    6    2    4 1     
    7    3   27 1     
    8    3   28 1     
    9    3   29 1     
   10    4   23 ar    
   11    4    5 ar    
   12    5    6 ar    
   13    5   30 1     
   14    6    7 ar    
   15    6   31 1     
   16    7    8 1     
   17    7   22 ar    
   18    8    9 am    
   19    8   32 1     
   20    9   10 2     
   21    9   11 am    
   22   11   12 1     
   23   11   33 1     
   24   12   13 1     
   25   12   34 1     
   26   12   35 1     
   27   13   14 1     
   28   13   15 1     
   29   13   16 1     
   30   14   36 1     
   31   14   37 1     
   32   14   38 1     
   33   15   39 1     
   34   15   40 1     
   35   15   41 1     
   36   16   21 1     
   37   16   17 1     
   38   17   18 1     
   39   17   42 1     
   40   17   43 1     
   41   18   19 1     
   42   18   44 1     
   43   18   45 1     
   44   19   20 1     
   45   20   21 1     
   46   20   46 1     
   47   20   47 1     
   48   21   48 1     
   49   21   49 1     
   50   22   23 ar    
   51   22   50 1     
   52   10   51 1     
   53   10   52 1     
   54   16   53 1     
   55   19   54 1     
   56   19   55 1     
   57   23   56 1     
@<TRIPOS>SUBSTRUCTURE
      1 S1             1
@<TRIPOS>SET
LONE_PAIRS      STATIC     ATOMS    <user>   **** ""
6 51 52 53 54 55 56
DONOR_HYDROGENS      STATIC     ATOMS    <user>   **** ""
2 32 33
ATOM$BLUE        STATIC     ATOMS    COLORGROUP SYSTEM
6 51 52 53 54 55 56
ATOM$RED        STATIC     ATOMS    COLORGROUP SYSTEM
2 32 33
