#       Name:                AV-unprocessed.smi:2772
#       Creating user name   scv26
#       Creation time:       Fri Mar 27 15:11:39 2020


#       File generated by GOLD software.
#

@<TRIPOS>MOLECULE
AV-unprocessed.smi:2772
    58    60     1
SMALL
NO_CHARGES


@<TRIPOS>ATOM
      1 ****        -8.8524   4.3145  -0.9342 C.3            1 S1                 0.0000
      2 ****        -7.5692   3.5137  -0.8584 C.ar           1 S1                 0.0000
      3 ****        -6.3777   4.0973  -0.3808 C.ar           1 S1                 0.0000
      4 ****        -5.2126   3.3079  -0.3349 C.ar           1 S1                 0.0000
      5 ****        -5.2790   1.9646  -0.7766 C.ar           1 S1                 0.0000
      6 ****        -4.1785   1.0662  -0.7621 N.am           1 S1                 0.0000
      7 ****        -2.8666   1.3564  -0.7888 C.2            1 S1                 0.0000
      8 ****        -2.3893   2.4890  -0.8590 O.2            1 S1                 0.0000
      9 ****        -2.1232   0.2416  -0.7492 N.am           1 S1                 0.0000
     10 ****        -0.6643   0.2022  -0.7837 C.3            1 S1                 0.0000
     11 ****        -0.1875  -1.1847  -1.2208 C.3            1 S1                 0.0000
     12 ****         1.3459  -1.2918  -1.1567 C.3            1 S1                 0.0000
     13 ****         1.8601  -1.0401   0.2011 N.3            1 S1                 0.0000
     14 ****         3.3295  -1.2125   0.2712 C.3            1 S1                 0.0000
     15 ****         3.7636  -2.6372  -0.1710 C.3            1 S1                 0.0000
     16 ****         5.2665  -2.8932   0.0237 C.3            1 S1                 0.0000
     17 ****         5.6677  -2.6673   1.4293 N.4            1 S1                 1.0000
     18 ****         7.0763  -3.0401   1.6817 C.3            1 S1                 0.0000
     19 ****         5.3621  -1.2834   1.8532 C.3            1 S1                 0.0000
     20 ****         3.8616  -0.9806   1.7126 C.3            1 S1                 0.0000
     21 ****         1.4601   0.3232   0.5913 C.3            1 S1                 0.0000
     22 ****        -0.0684   0.4966   0.5981 C.3            1 S1                 0.0000
     23 ****        -6.5274   1.4785  -1.2188 C.ar           1 S1                 0.0000
     24 ****        -7.6487   2.2288  -1.2667 N.ar           1 S1                 0.0000
     25 ****        -8.6927   5.3483  -0.6262 H              1 S1                 0.0000
     26 ****        -9.6103   3.8787  -0.2829 H              1 S1                 0.0000
     27 ****        -9.2370   4.3204  -1.9545 H              1 S1                 0.0000
     28 ****        -6.3535   5.1258  -0.0520 H              1 S1                 0.0000
     29 ****        -4.3018   3.7410   0.0486 H              1 S1                 0.0000
     30 ****        -4.4187   0.0862  -0.7944 H              1 S1                 0.0000
     31 ****        -2.6009  -0.6461  -0.6967 H              1 S1                 0.0000
     32 ****        -0.2989   0.9391  -1.5018 H              1 S1                 0.0000
     33 ****        -0.6299  -1.9524  -0.5837 H              1 S1                 0.0000
     34 ****        -0.5277  -1.3920  -2.2361 H              1 S1                 0.0000
     35 ****         1.5879  -2.2990  -1.4869 H              1 S1                 0.0000
     36 ****         1.8052  -0.6007  -1.8653 H              1 S1                 0.0000
     37 ****         3.7969  -0.4854  -0.3950 H              1 S1                 0.0000
     38 ****         3.1942  -3.3862   0.3818 H              1 S1                 0.0000
     39 ****         3.5613  -2.8043  -1.2276 H              1 S1                 0.0000
     40 ****         5.4984  -3.9203  -0.2614 H              1 S1                 0.0000
     41 ****         5.8470  -2.2431  -0.6331 H              1 S1                 0.0000
     42 ****         7.7572  -2.4188   1.0982 H              1 S1                 0.0000
     43 ****         7.2517  -4.0830   1.4154 H              1 S1                 0.0000
     44 ****         7.3235  -2.9215   2.7370 H              1 S1                 0.0000
     45 ****         5.6631  -1.1455   2.8925 H              1 S1                 0.0000
     46 ****         5.9458  -0.5789   1.2584 H              1 S1                 0.0000
     47 ****         3.7289   0.0533   2.0260 H              1 S1                 0.0000
     48 ****         3.3006  -1.5967   2.4172 H              1 S1                 0.0000
     49 ****         1.7923   0.5578   1.5996 H              1 S1                 0.0000
     50 ****         1.9207   1.0530  -0.0765 H              1 S1                 0.0000
     51 ****        -0.3168   1.5132   0.9052 H              1 S1                 0.0000
     52 ****        -0.5058  -0.1675   1.3455 H              1 S1                 0.0000
     53 ****        -6.6311   0.4558  -1.5507 H              1 S1                 0.0000
     54 ****         5.1002  -3.2798   1.9981 H              1 S1                 0.0000
     55 ****        -2.9937   3.2845  -0.9014 LP             1 S1                 0.0000
     56 ****        -1.3972   2.6134  -0.8736 LP             1 S1                 0.0000
     57 ****         1.4719  -1.7066   0.8376 LP             1 S1                 0.0000
     58 ****        -8.5119   1.8448  -1.5945 LP             1 S1                 0.0000
@<TRIPOS>BOND
    1    1    2 1     
    2    1   25 1     
    3    1   26 1     
    4    1   27 1     
    5    2   24 ar    
    6    2    3 ar    
    7    3    4 ar    
    8    3   28 1     
    9    4    5 ar    
   10    4   29 1     
   11    5    6 1     
   12    5   23 ar    
   13    6    7 am    
   14    6   30 1     
   15    7    8 2     
   16    7    9 am    
   17    9   10 1     
   18    9   31 1     
   19   10   22 1     
   20   10   11 1     
   21   10   32 1     
   22   11   12 1     
   23   11   33 1     
   24   11   34 1     
   25   12   13 1     
   26   12   35 1     
   27   12   36 1     
   28   13   14 1     
   29   13   21 1     
   30   14   20 1     
   31   14   15 1     
   32   14   37 1     
   33   15   16 1     
   34   15   38 1     
   35   15   39 1     
   36   16   17 1     
   37   16   40 1     
   38   16   41 1     
   39   17   18 1     
   40   17   19 1     
   41   17   54 1     
   42   18   42 1     
   43   18   43 1     
   44   18   44 1     
   45   19   20 1     
   46   19   45 1     
   47   19   46 1     
   48   20   47 1     
   49   20   48 1     
   50   21   22 1     
   51   21   49 1     
   52   21   50 1     
   53   22   51 1     
   54   22   52 1     
   55   23   24 ar    
   56   23   53 1     
   57    8   55 1     
   58    8   56 1     
   59   13   57 1     
   60   24   58 1     
@<TRIPOS>SUBSTRUCTURE
      1 S1             1
@<TRIPOS>SET
LONE_PAIRS      STATIC     ATOMS    <user>   **** ""
4 55 56 57 58
DONOR_HYDROGENS      STATIC     ATOMS    <user>   **** ""
3 30 31 54
ATOM$BLUE        STATIC     ATOMS    COLORGROUP SYSTEM
4 55 56 57 58
ATOM$RED        STATIC     ATOMS    COLORGROUP SYSTEM
3 30 31 54
