AV-unprocessed.smi:606|AV-procd|sdf|3041|dock7
  -GOLD-   2262023563D 1   1.00000     0.00000
 Structure written by MMmdl.
 36 37  0  0  0  0  0  0  0  0  1 V2000
  146.6111  139.1731  152.0670 C   0  0  0  0  0  0  0  0  0  0  0  0
  147.5283  139.7101  153.1117 C   0  0  0  0  0  0  0  0  0  0  0  0
  147.7481  140.9671  153.6009 C   0  0  0  0  0  0  0  0  0  0  0  0
  148.7553  140.7575  154.5804 C   0  0  0  0  0  0  0  0  0  0  0  0
  149.2741  141.8404  155.3353 N   0  0  0  0  0  0  0  0  0  0  0  0
  150.2504  141.8011  156.2583 C   0  0  0  0  0  0  0  0  0  0  0  0
  150.8530  140.7859  156.6091 O   0  0  0  0  0  0  0  0  0  0  0  0
  150.4924  143.0196  156.7653 N   0  0  0  0  0  0  0  0  0  0  0  0
  151.4935  143.3295  157.7843 C   0  0  0  0  0  0  0  0  0  0  0  0
  151.4544  142.2583  158.8974 C   0  0  0  0  0  0  0  0  0  0  0  0
  152.6810  142.3048  159.8241 C   0  0  0  0  0  0  0  0  0  0  0  0
  152.5760  143.2668  161.0207 C   0  0  0  0  0  0  0  0  0  0  0  0
  151.9161  144.6311  160.7534 C   0  0  0  0  0  0  0  0  0  0  0  0
  152.2135  145.2515  159.3789 C   0  0  0  0  0  0  0  0  0  0  0  0
  151.2474  144.7655  158.2844 C   0  0  0  0  0  0  0  0  0  0  0  0
  149.1187  139.4878  154.6782 N   0  0  0  0  0  0  0  0  0  0  0  0
  148.3344  138.8102  153.7375 O   0  0  0  0  0  0  0  0  0  0  0  0
  145.8949  139.9313  151.7498 H   0  0  0  0  0  0  0  0  0  0  0  0
  146.0514  138.3176  152.4456 H   0  0  0  0  0  0  0  0  0  0  0  0
  147.1721  138.8499  151.1901 H   0  0  0  0  0  0  0  0  0  0  0  0
  147.2639  141.8855  153.3041 H   0  0  0  0  0  0  0  0  0  0  0  0
  148.8592  142.7416  155.1509 H   0  0  0  0  0  0  0  0  0  0  0  0
  149.9444  143.7941  156.4206 H   0  0  0  0  0  0  0  0  0  0  0  0
  152.4784  143.3091  157.3136 H   0  0  0  0  0  0  0  0  0  0  0  0
  150.5296  142.3204  159.4723 H   0  0  0  0  0  0  0  0  0  0  0  0
  151.4442  141.2741  158.4269 H   0  0  0  0  0  0  0  0  0  0  0  0
  152.8618  141.3041  160.2182 H   0  0  0  0  0  0  0  0  0  0  0  0
  153.5695  142.5434  159.2383 H   0  0  0  0  0  0  0  0  0  0  0  0
  152.0275  142.7771  161.8260 H   0  0  0  0  0  0  0  0  0  0  0  0
  153.5814  143.4286  161.4109 H   0  0  0  0  0  0  0  0  0  0  0  0
  150.8370  144.5458  160.8857 H   0  0  0  0  0  0  0  0  0  0  0  0
  152.2452  145.3198  161.5322 H   0  0  0  0  0  0  0  0  0  0  0  0
  152.0928  146.3317  159.4674 H   0  0  0  0  0  0  0  0  0  0  0  0
  153.2528  145.0919  159.0897 H   0  0  0  0  0  0  0  0  0  0  0  0
  151.3336  145.4425  157.4333 H   0  0  0  0  0  0  0  0  0  0  0  0
  150.2196  144.8672  158.6361 H   0  0  0  0  0  0  0  0  0  0  0  0
  1  2  1  0  0  0  0
  1 18  1  0  0  0  0
  1 19  1  0  0  0  0
  1 20  1  0  0  0  0
  2 17  1  0  0  0  0
  2  3  2  0  0  0  0
  3  4  1  0  0  0  0
  3 21  1  0  0  0  0
  4  5  1  0  0  0  0
  4 16  2  0  0  0  0
  5  6  1  0  0  0  0
  5 22  1  0  0  0  0
  6  7  2  0  0  0  0
  6  8  1  0  0  0  0
  8  9  1  0  0  0  0
  8 23  1  0  0  0  0
  9 15  1  0  0  0  0
  9 10  1  0  0  0  0
  9 24  1  0  0  0  0
 10 11  1  0  0  0  0
 10 25  1  0  0  0  0
 10 26  1  0  0  0  0
 11 12  1  0  0  0  0
 11 27  1  0  0  0  0
 11 28  1  0  0  0  0
 12 13  1  0  0  0  0
 12 29  1  0  0  0  0
 12 30  1  0  0  0  0
 13 14  1  0  0  0  0
 13 31  1  0  0  0  0
 13 32  1  0  0  0  0
 14 15  1  0  0  0  0
 14 33  1  0  0  0  0
 14 34  1  0  0  0  0
 15 35  1  0  0  0  0
 15 36  1  0  0  0  0
 16 17  1  0  0  0  0
M  END
> <s_m_source_file>
AV-unprocessed.smi

> <i_m_source_file_index>
606

> <i_lp_mmshare_version>
43012

> <i_f3d_flags>
0

> <s_epik_input>
W0NIM11jMVtjSF1jKG5vMSlbTkhdQyg9TylbTkhdW0NIXTJbQ0gyXVtDSDJdW0NIMl1bQ0gyXVtDSDJdW0NIMl0y

> <s_epik_cmdline>
J2VwaWtfcHl0aG9uJywgJy1waCcsICc3LjAnLCAnLXRuJywgJzgnLCAnLW1hJywgJzIwMCcsICctbWV0YWxfYmluZGluZycsICctaW1hZScsICc8aW5maWxlLm1hZT4nLCAnLW9tYWUnLCAnPG91dGZpbGUubWFlPic=

> <r_lp_tautomer_probability>
1

> <r_epik_Ionization_Penalty>
2.39396e-05

> <r_epik_Ionization_Penalty_Charging>
0

> <r_epik_Ionization_Penalty_Neutral>
2.39396e-05

> <r_epik_State_Penalty>
-0

> <r_epik_Charging_Adjusted_Penalty>
0

> <i_epik_Tot_Q>
0

> <i_epik_Tot_abs_Q>
0

> <r_epik_Metal_State_Penalty>
-0

> <b_epik_Metal_Only>
0

> <s_lp_Force_Field>
OPLS_2005

> <r_lp_Energy>
12.5841

> <b_lp_Chiralities_Consistent>
1

> <s_lp_Variant>
AV-unprocessed.smi:606-1

> <Gold.Version>
5.8.1

> <Gold.Id.Protein>
6NUR|6NUR_protein|mol2

> <Gold.PLP.Fitness>
44.6468

> <Gold.PLP.PLP>
-39.2374

> <Gold.PLP.part.hbond>
-2.0000

> <Gold.PLP.part.metal>
0.0000

> <Gold.PLP.part.buried>
-2.1014

> <Gold.PLP.part.nonpolar>
-36.6508

> <Gold.PLP.part.repulsive>
1.1496

> <Gold.PLP.ligand.clash>
0.0000

> <Gold.PLP.ligand.torsion>
0.1701

> <Gold.PLP.Chemscore.Hbond>
1.9120

> <Gold.PLP.Chemscore.CHOScore>
0.0000

> <Gold.PLP.Chemscore.Metal>
0.0000

> <Gold.Chemscore.Hbonds>
donor molecule, donor type, donor heavy atom, donor atom, acceptor molecule, acceptor atom, score
      L1  H     5    22       P1  8028  0.90
      L1  H     8    23       P1  8028  1.00

> <Gold.PLP.Chemscore.Internal.Correction>
0.0137

> <Gold.Rescore>
     Score         DG    S(hbond)    S(metal)    S(lipo)     H(rot)  DE(clash)    DE(int)     intcor
     18.62     -21.51       1.94        0.00     103.60       1.00       0.09       2.79       ----

> <Gold.Chemscore.Fitness>
18.6221

> <Gold.Chemscore.DG>
-21.5062

> <Gold.Chemscore.ZeroCoef>
-5.4800

> <Gold.Chemscore.Hbond>
1.9355

> <Gold.Chemscore.Metal>
0.0000

> <Gold.Chemscore.Lipo>
103.6044

> <Gold.Chemscore.Internal_Hbond>
0.0000

> <Gold.Chemscore.DEClash>
0.0928

> <Gold.Chemscore.DEInternal>
2.7913

> <Gold.Chemscore.Rot>
1.0000

> <Gold.Chemscore.Internal.Correction>
   9.000000E+99

> <Gold.Chemscore.Hbonds>
donor molecule, donor type, donor heavy atom, donor atom, acceptor molecule, acceptor atom, score
      L1  H     5    22       P1  8028  0.83
      L1  H     8    23       P1  8028  0.98

> <Gold.Chemscore.Hbond.Weighted>
-6.4645

> <Gold.Chemscore.Metal.Weighted>
-0.0000

> <Gold.Chemscore.Lipo.Weighted>
-12.1217

> <Gold.Chemscore.Internal_Hbond.Weighted>
0.0000

> <Gold.Chemscore.DEClash.Weighted>
0.0928

> <Gold.Chemscore.DEInternal.Weighted>
2.7913

> <Gold.Chemscore.Rot.Weighted>
2.5600

> <Gold.Chemscore.Internal.Correction.Weighted>
   9.000000E+99

> <Gold.Protein.RotatedTorsions>
[ 6907 6896 6895 6894 ] final -164.07 input  -60.11 | X-H torsion
[ 7974 7965 7964 7962 ] final  174.31 input  175.53 | X-H torsion
[ 8008 7997 7996 7995 ] final -143.59 input   59.86 | X-H torsion
[ 10167 10162 10161 10158 ] final   13.11 input  -65.29 | X-H torsion
[ 10718 10713 10712 10709 ] final  -26.51 input   66.30 | X-H torsion
[ 10763 10752 10751 10750 ] final   28.54 input  -60.55 | X-H torsion
[ 11005 11000 10999 10996 ] final   71.88 input  -57.11 | X-H torsion

> <Gold.Protein.ActiveResidues>
 VAL166  LYS551  ARG553  GLY616  TRP617  ASP618  TYR619  PRO620  LYS621  CYS622 
 ASP623  PHE694  ASN695  SER759  ASP760  ASP761  ALA762  ILE779  LEU786  VAL792 
 PHE793  MET794  SER795  GLU796  ALA797  LYS798  CYS799  TRP800  GLU811  SER814 

> <Gold.Protein.RotatedAtoms>
  151.4061  133.3742  159.2737 H   0  0  0  0  0  0  0  0  0  0  0  0  # atno 6907 bound_to 6896
  150.9398  134.8809  159.7615 H   0  0  0  0  0  0  0  0  0  0  0  0  # atno 6908 bound_to 6896
  152.5066  134.4010  159.9469 H   0  0  0  0  0  0  0  0  0  0  0  0  # atno 6909 bound_to 6896
  144.7224  139.9778  143.6438 H   0  0  0  0  0  0  0  0  0  0  0  0  # atno 7974 bound_to 7965
  155.5132  140.0585  157.2920 H   0  0  0  0  0  0  0  0  0  0  0  0  # atno 8008 bound_to 7997
  154.4544  140.1965  156.0370 H   0  0  0  0  0  0  0  0  0  0  0  0  # atno 8009 bound_to 7997
  156.0770  140.3252  155.7650 H   0  0  0  0  0  0  0  0  0  0  0  0  # atno 8010 bound_to 7997
  140.6024  143.8577  150.6979 H   0  0  0  0  0  0  0  0  0  0  0  0  # atno 10167 bound_to 10162
  156.4503  130.4482  149.6994 H   0  0  0  0  0  0  0  0  0  0  0  0  # atno 10718 bound_to 10713
  153.0485  135.6511  154.0753 H   0  0  0  0  0  0  0  0  0  0  0  0  # atno 10763 bound_to 10752
  154.0446  135.2900  155.3351 H   0  0  0  0  0  0  0  0  0  0  0  0  # atno 10764 bound_to 10752
  154.6759  135.5338  153.8265 H   0  0  0  0  0  0  0  0  0  0  0  0  # atno 10765 bound_to 10752
  139.9520  134.7210  156.0840 H   0  0  0  0  0  0  0  0  0  0  0  0  # atno 11005 bound_to 11000
  146.0512  139.3512  143.0638 LP  0  0  0  0  0  0  0  0  0  0  0  0  # atno 17320 bound_to 7965
  145.8213  140.9678  143.0897 LP  0  0  0  0  0  0  0  0  0  0  0  0  # atno 17321 bound_to 7965
  140.2126  143.3871  152.1706 LP  0  0  0  0  0  0  0  0  0  0  0  0  # atno 17342 bound_to 10162
  139.5300  144.7148  151.5089 LP  0  0  0  0  0  0  0  0  0  0  0  0  # atno 17343 bound_to 10162
  156.3823  130.7585  151.2579 LP  0  0  0  0  0  0  0  0  0  0  0  0  # atno 17370 bound_to 10713
  157.7503  131.0292  150.4082 LP  0  0  0  0  0  0  0  0  0  0  0  0  # atno 17371 bound_to 10713
  141.1185  133.6620  156.3154 LP  0  0  0  0  0  0  0  0  0  0  0  0  # atno 17394 bound_to 11000
  140.5696  134.5853  157.5454 LP  0  0  0  0  0  0  0  0  0  0  0  0  # atno 17395 bound_to 11000

$$$$
