AV-unprocessed.smi:1436|AV-procd|sdf|5860|dock2
  -GOLD-   22720 5533D 1   1.00000     0.00000
 Structure written by MMmdl.
 43 44  0  0  0  0  0  0  0  0  1 V2000
  151.7078  140.4390  158.5761 C   0  0  0  0  0  0  0  0  0  0  0  0
  153.0994  140.0678  159.0003 C   0  0  0  0  0  0  0  0  0  0  0  0
  153.7146  139.0589  158.4070 N   0  0  0  0  0  0  0  0  0  0  0  0
  154.9655  138.9578  159.0230 O   0  0  0  0  0  0  0  0  0  0  0  0
  155.0540  139.9205  159.9757 C   0  0  0  0  0  0  0  0  0  0  0  0
  156.3218  139.9762  160.7587 C   0  0  0  0  0  0  0  0  0  0  0  0
  153.9059  140.6625  160.0134 C   0  0  0  0  0  0  0  0  0  0  0  0
  153.5691  141.8269  160.9117 C   0  0  0  0  0  0  0  0  0  0  0  0
  152.7929  142.9009  160.1434 C   0  0  0  0  0  0  0  0  0  0  0  0
  153.0808  143.1649  158.9754 O   0  0  0  0  0  0  0  0  0  0  0  0
  151.8099  143.5173  160.8178 N   0  0  0  0  0  0  0  0  0  0  0  0
  150.9676  144.5936  160.3008 C   0  0  1  0  0  0  0  0  0  0  0  0
  151.8178  145.6381  159.5602 C   0  0  0  0  0  0  0  0  0  0  0  0
  149.7803  144.0500  159.4687 C   0  0  0  0  0  0  0  0  0  0  0  0
  148.4745  143.9937  160.1335 N   0  0  0  0  0  0  0  0  0  0  0  0
  147.4373  143.5634  159.2012 C   0  0  0  0  0  0  0  0  0  0  0  0
  146.0544  143.4853  159.8705 C   0  0  0  0  0  0  0  0  0  0  0  0
  145.7274  144.7508  160.4342 O   0  0  0  0  0  0  0  0  0  0  0  0
  146.6892  145.1885  161.3878 C   0  0  0  0  0  0  0  0  0  0  0  0
  148.0755  145.2688  160.7256 C   0  0  0  0  0  0  0  0  0  0  0  0
  150.9722  140.0355  159.2720 H   0  0  0  0  0  0  0  0  0  0  0  0
  151.4724  140.0545  157.5833 H   0  0  0  0  0  0  0  0  0  0  0  0
  151.5821  141.5215  158.5487 H   0  0  0  0  0  0  0  0  0  0  0  0
  156.1171  139.9044  161.8271 H   0  0  0  0  0  0  0  0  0  0  0  0
  156.8458  140.9146  160.5769 H   0  0  0  0  0  0  0  0  0  0  0  0
  156.9894  139.1579  160.4877 H   0  0  0  0  0  0  0  0  0  0  0  0
  152.9601  141.5117  161.7593 H   0  0  0  0  0  0  0  0  0  0  0  0
  154.4757  142.2610  161.3352 H   0  0  0  0  0  0  0  0  0  0  0  0
  151.6425  143.2316  161.7716 H   0  0  0  0  0  0  0  0  0  0  0  0
  150.5382  145.1064  161.1634 H   0  0  0  0  0  0  0  0  0  0  0  0
  151.1979  146.4577  159.1960 H   0  0  0  0  0  0  0  0  0  0  0  0
  152.3349  145.2057  158.7032 H   0  0  0  0  0  0  0  0  0  0  0  0
  152.5738  146.0653  160.2195 H   0  0  0  0  0  0  0  0  0  0  0  0
  149.6974  144.5996  158.5296 H   0  0  0  0  0  0  0  0  0  0  0  0
  150.0507  143.0332  159.1803 H   0  0  0  0  0  0  0  0  0  0  0  0
  147.3895  144.2534  158.3572 H   0  0  0  0  0  0  0  0  0  0  0  0
  147.6912  142.5856  158.7900 H   0  0  0  0  0  0  0  0  0  0  0  0
  145.2932  143.2129  159.1391 H   0  0  0  0  0  0  0  0  0  0  0  0
  146.0429  142.7187  160.6469 H   0  0  0  0  0  0  0  0  0  0  0  0
  146.3939  146.1662  161.7690 H   0  0  0  0  0  0  0  0  0  0  0  0
  146.7068  144.5044  162.2377 H   0  0  0  0  0  0  0  0  0  0  0  0
  148.7967  145.5800  161.4794 H   0  0  0  0  0  0  0  0  0  0  0  0
  148.0636  146.0438  159.9592 H   0  0  0  0  0  0  0  0  0  0  0  0
  1  2  1  0  0  0  0
  1 21  1  0  0  0  0
  1 22  1  0  0  0  0
  1 23  1  0  0  0  0
  2  7  1  0  0  0  0
  2  3  2  0  0  0  0
  3  4  1  0  0  0  0
  4  5  1  0  0  0  0
  5  6  1  0  0  0  0
  5  7  2  0  0  0  0
  6 24  1  0  0  0  0
  6 25  1  0  0  0  0
  6 26  1  0  0  0  0
  7  8  1  0  0  0  0
  8  9  1  0  0  0  0
  8 27  1  0  0  0  0
  8 28  1  0  0  0  0
  9 10  2  0  0  0  0
  9 11  1  0  0  0  0
 11 12  1  0  0  0  0
 11 29  1  0  0  0  0
 12 13  1  0  0  0  0
 12 14  1  0  0  0  0
 12 30  1  0  0  0  0
 13 31  1  0  0  0  0
 13 32  1  0  0  0  0
 13 33  1  0  0  0  0
 14 15  1  0  0  0  0
 14 34  1  0  0  0  0
 14 35  1  0  0  0  0
 15 20  1  0  0  0  0
 15 16  1  0  0  0  0
 16 17  1  0  0  0  0
 16 36  1  0  0  0  0
 16 37  1  0  0  0  0
 17 18  1  0  0  0  0
 17 38  1  0  0  0  0
 17 39  1  0  0  0  0
 18 19  1  0  0  0  0
 19 20  1  0  0  0  0
 19 40  1  0  0  0  0
 19 41  1  0  0  0  0
 20 42  1  0  0  0  0
 20 43  1  0  0  0  0
M  END
> <s_m_source_file>
AV-unprocessed.smi

> <i_m_source_file_index>
1436

> <i_lp_mmshare_version>
43012

> <i_f3d_flags>
0

> <s_epik_input>
W0NIM11jMW5vYyhbQ0gzXSljMVtDSDJdQyg9TylbTkhdW0NASF0oW0NIM10pW0NIMl1OMltDSDJdW0NIMl1PW0NIMl1bQ0gyXTI=

> <s_epik_cmdline>
J2VwaWtfcHl0aG9uJywgJy1waCcsICc3LjAnLCAnLXRuJywgJzgnLCAnLW1hJywgJzIwMCcsICctbWV0YWxfYmluZGluZycsICctaW1hZScsICc8aW5maWxlLm1hZT4nLCAnLW9tYWUnLCAnPG91dGZpbGUubWFlPic=

> <r_epik_Ionization_Penalty>
0.234179

> <r_epik_Ionization_Penalty_Charging>
0

> <r_epik_Ionization_Penalty_Neutral>
0.234179

> <r_epik_State_Penalty>
0.224936

> <r_epik_Charging_Adjusted_Penalty>
0.224936

> <i_epik_Tot_Q>
0

> <i_epik_Tot_abs_Q>
0

> <r_epik_Metal_State_Penalty>
0.224936

> <b_epik_Metal_Only>
0

> <s_lp_Force_Field>
OPLS_2005

> <r_lp_Energy>
22.5578

> <b_lp_Chiralities_Consistent>
1

> <s_lp_Variant>
AV-unprocessed.smi:1436-2

> <Gold.Version>
5.8.1

> <Gold.Id.Protein>
6NUR|6NUR_protein|mol2

> <Gold.PLP.Fitness>
39.9192

> <Gold.PLP.PLP>
-38.4720

> <Gold.PLP.part.hbond>
-3.0000

> <Gold.PLP.part.metal>
0.0000

> <Gold.PLP.part.buried>
-5.5073

> <Gold.PLP.part.nonpolar>
-30.7939

> <Gold.PLP.part.repulsive>
0.3352

> <Gold.PLP.ligand.clash>
0.0000

> <Gold.PLP.ligand.torsion>
1.5126

> <Gold.PLP.Chemscore.Hbond>
1.4423

> <Gold.PLP.Chemscore.CHOScore>
0.0000

> <Gold.PLP.Chemscore.Metal>
0.0000

> <Gold.Chemscore.Hbonds>
donor molecule, donor type, donor heavy atom, donor atom, acceptor molecule, acceptor atom, score
      P1  H  6933  6944       L1    15  0.77
      P1  H  7997  8010       L1     3  0.50

> <Gold.PLP.Chemscore.Internal.Correction>
0.1455

> <Gold.Rescore>
     Score         DG    S(hbond)    S(metal)    S(lipo)     H(rot)  DE(clash)    DE(int)     intcor
      9.25     -12.06       0.24        0.00      86.79       1.71       0.00       2.81       ----

> <Gold.Chemscore.Fitness>
9.2521

> <Gold.Chemscore.DG>
-12.0600

> <Gold.Chemscore.ZeroCoef>
-5.4800

> <Gold.Chemscore.Hbond>
0.2437

> <Gold.Chemscore.Metal>
0.0000

> <Gold.Chemscore.Lipo>
86.7948

> <Gold.Chemscore.Internal_Hbond>
0.0000

> <Gold.Chemscore.DEClash>
0.0000

> <Gold.Chemscore.DEInternal>
2.8078

> <Gold.Chemscore.Rot>
1.7145

> <Gold.Chemscore.Internal.Correction>
   9.000000E+99

> <Gold.Chemscore.Hbonds>
donor molecule, donor type, donor heavy atom, donor atom, acceptor molecule, acceptor atom, score
      P1  H  6933  6944       L1    15  0.12
      P1  H  7997  8010       L1     3  0.01

> <Gold.Chemscore.Hbond.Weighted>
-0.8140

> <Gold.Chemscore.Metal.Weighted>
-0.0000

> <Gold.Chemscore.Lipo.Weighted>
-10.1550

> <Gold.Chemscore.Internal_Hbond.Weighted>
0.0000

> <Gold.Chemscore.DEClash.Weighted>
0.0000

> <Gold.Chemscore.DEInternal.Weighted>
2.8078

> <Gold.Chemscore.Rot.Weighted>
4.3891

> <Gold.Chemscore.Internal.Correction.Weighted>
   9.000000E+99

> <Gold.Protein.RotatedTorsions>
[ 6907 6896 6895 6894 ] final  165.69 input  -60.11 | X-H torsion
[ 7974 7965 7964 7962 ] final -100.66 input  175.53 | X-H torsion
[ 8008 7997 7996 7995 ] final   52.45 input   59.86 | X-H torsion
[ 10167 10162 10161 10158 ] final -166.38 input  -65.29 | X-H torsion
[ 10718 10713 10712 10709 ] final -157.37 input   66.30 | X-H torsion
[ 10763 10752 10751 10750 ] final  -19.69 input  -60.55 | X-H torsion
[ 11005 11000 10999 10996 ] final -121.99 input  -57.11 | X-H torsion

> <Gold.Protein.ActiveResidues>
 VAL166  LYS551  ARG553  GLY616  TRP617  ASP618  TYR619  PRO620  LYS621  CYS622 
 ASP623  PHE694  ASN695  SER759  ASP760  ASP761  ALA762  ILE779  LEU786  VAL792 
 PHE793  MET794  SER795  GLU796  ALA797  LYS798  CYS799  TRP800  GLU811  SER814 

> <Gold.Protein.RotatedAtoms>
  151.8905  133.3515  159.3796 H   0  0  0  0  0  0  0  0  0  0  0  0  # atno 6907 bound_to 6896
  150.7104  134.4929  159.5533 H   0  0  0  0  0  0  0  0  0  0  0  0  # atno 6908 bound_to 6896
  152.2498  134.8144  160.0498 H   0  0  0  0  0  0  0  0  0  0  0  0  # atno 6909 bound_to 6896
  145.2917  140.9354  143.2874 H   0  0  0  0  0  0  0  0  0  0  0  0  # atno 7974 bound_to 7965
  155.4520  140.3458  155.4302 H   0  0  0  0  0  0  0  0  0  0  0  0  # atno 8008 bound_to 7997
  156.1214  140.1488  156.9229 H   0  0  0  0  0  0  0  0  0  0  0  0  # atno 8009 bound_to 7997
  154.4826  140.0865  156.7392 H   0  0  0  0  0  0  0  0  0  0  0  0  # atno 8010 bound_to 7997
  139.6118  144.0798  152.1850 H   0  0  0  0  0  0  0  0  0  0  0  0  # atno 10167 bound_to 10162
  156.5394  130.8556  151.2743 H   0  0  0  0  0  0  0  0  0  0  0  0  # atno 10718 bound_to 10713
  153.6087  135.6997  153.5355 H   0  0  0  0  0  0  0  0  0  0  0  0  # atno 10763 bound_to 10752
  153.3035  135.4122  155.1273 H   0  0  0  0  0  0  0  0  0  0  0  0  # atno 10764 bound_to 10752
  154.8568  135.3654  154.5625 H   0  0  0  0  0  0  0  0  0  0  0  0  # atno 10765 bound_to 10752
  141.0029  134.0377  157.3515 H   0  0  0  0  0  0  0  0  0  0  0  0  # atno 11005 bound_to 11000
  144.9167  139.4461  143.6560 LP  0  0  0  0  0  0  0  0  0  0  0  0  # atno 17320 bound_to 7965
  146.3183  139.8006  142.8966 LP  0  0  0  0  0  0  0  0  0  0  0  0  # atno 17321 bound_to 7965
  140.0419  144.6001  150.7404 LP  0  0  0  0  0  0  0  0  0  0  0  0  # atno 17342 bound_to 10162
  140.7324  143.2706  151.3902 LP  0  0  0  0  0  0  0  0  0  0  0  0  # atno 17343 bound_to 10162
  157.7408  130.9857  150.2401 LP  0  0  0  0  0  0  0  0  0  0  0  0  # atno 17370 bound_to 10713
  156.2986  130.3755  149.7772 LP  0  0  0  0  0  0  0  0  0  0  0  0  # atno 17371 bound_to 10713
  139.9048  135.0176  156.7435 LP  0  0  0  0  0  0  0  0  0  0  0  0  # atno 17394 bound_to 11000
  140.6860  133.9432  155.7938 LP  0  0  0  0  0  0  0  0  0  0  0  0  # atno 17395 bound_to 11000

$$$$
