AV-unprocessed.smi:714|AV-procd|sdf|3483|dock8
  -GOLD-   22720 0473D 1   1.00000     0.00000
 Structure written by MMmdl.
 38 39  0  0  0  0  0  0  0  0  1 V2000
  145.8706  136.0633  150.4431 C   0  0  0  0  0  0  0  0  0  0  0  0
  145.9337  136.8585  151.3676 C   0  0  0  0  0  0  0  0  0  0  0  0
  146.0061  137.8299  152.4722 C   0  0  0  0  0  0  0  0  0  0  0  0
  147.3375  137.9113  153.0628 N   0  0  0  0  0  0  0  0  0  0  0  0
  147.7212  138.7803  154.0152 C   0  0  0  0  0  0  0  0  0  0  0  0
  146.9425  139.6092  154.4897 O   0  0  0  0  0  0  0  0  0  0  0  0
  149.1242  138.6395  154.4122 C   0  0  0  0  0  0  0  0  0  0  0  0
  149.8696  137.3989  154.2762 C   0  0  0  0  0  0  0  0  0  0  0  0
  151.1447  137.3184  154.7021 C   0  0  0  0  0  0  0  0  0  0  0  0
  151.8347  138.4632  155.3038 C   0  0  0  0  0  0  0  0  0  0  0  0
  152.9881  138.3687  155.7238 O   0  0  0  0  0  0  0  0  0  0  0  0
  151.1230  139.6322  155.3609 N   0  0  0  0  0  0  0  0  0  0  0  0
  151.7323  140.8412  155.9691 C   0  0  1  0  0  0  0  0  0  0  0  0
  150.7747  142.0532  156.0278 C   0  0  0  0  0  0  0  0  0  0  0  0
  150.4746  142.3107  157.5105 C   0  0  0  0  0  0  0  0  0  0  0  0
  151.3939  141.4544  158.2373 N   0  0  0  0  0  0  0  0  0  0  0  0
  151.4566  141.5034  159.6970 C   0  0  0  0  0  0  0  0  0  0  0  0
  152.7201  142.2195  160.2072 C   0  0  0  0  0  0  0  0  0  0  0  0
  153.7851  141.4693  159.9277 F   0  0  0  0  0  0  0  0  0  0  0  0
  152.8734  143.4060  159.6199 F   0  0  0  0  0  0  0  0  0  0  0  0
  152.6550  142.3892  161.5279 F   0  0  0  0  0  0  0  0  0  0  0  0
  152.0584  140.6067  157.4436 C   0  0  0  0  0  0  0  0  0  0  0  0
  152.8480  139.7403  157.8180 O   0  0  0  0  0  0  0  0  0  0  0  0
  149.7724  139.6930  154.9449 C   0  0  0  0  0  0  0  0  0  0  0  0
  145.8132  135.3706  149.6336 H   0  0  0  0  0  0  0  0  0  0  0  0
  145.6719  138.8020  152.1069 H   0  0  0  0  0  0  0  0  0  0  0  0
  145.2994  137.5168  153.2407 H   0  0  0  0  0  0  0  0  0  0  0  0
  148.0261  137.2585  152.7178 H   0  0  0  0  0  0  0  0  0  0  0  0
  149.4236  136.5187  153.8372 H   0  0  0  0  0  0  0  0  0  0  0  0
  151.6775  136.3849  154.5948 H   0  0  0  0  0  0  0  0  0  0  0  0
  152.6476  141.1531  155.4640 H   0  0  0  0  0  0  0  0  0  0  0  0
  151.2791  142.9252  155.6094 H   0  0  0  0  0  0  0  0  0  0  0  0
  149.8630  141.9250  155.4430 H   0  0  0  0  0  0  0  0  0  0  0  0
  150.6179  143.3589  157.7757 H   0  0  0  0  0  0  0  0  0  0  0  0
  149.4484  142.0341  157.7553 H   0  0  0  0  0  0  0  0  0  0  0  0
  150.5697  142.0152  160.0728 H   0  0  0  0  0  0  0  0  0  0  0  0
  151.4132  140.4898  160.0989 H   0  0  0  0  0  0  0  0  0  0  0  0
  149.2942  140.6479  155.1046 H   0  0  0  0  0  0  0  0  0  0  0  0
  1  2  3  0  0  0  0
  1 25  1  0  0  0  0
  2  3  1  0  0  0  0
  3  4  1  0  0  0  0
  3 26  1  0  0  0  0
  3 27  1  0  0  0  0
  4  5  1  0  0  0  0
  4 28  1  0  0  0  0
  5  6  2  0  0  0  0
  5  7  1  0  0  0  0
  7 24  2  0  0  0  0
  7  8  1  0  0  0  0
  8  9  2  0  0  0  0
  8 29  1  0  0  0  0
  9 10  1  0  0  0  0
  9 30  1  0  0  0  0
 10 11  2  0  0  0  0
 10 12  1  0  0  0  0
 12 13  1  0  0  0  0
 12 24  1  0  0  0  0
 13 22  1  0  0  0  0
 13 14  1  0  0  0  0
 13 31  1  0  0  0  0
 14 15  1  0  0  0  0
 14 32  1  0  0  0  0
 14 33  1  0  0  0  0
 15 16  1  0  0  0  0
 15 34  1  0  0  0  0
 15 35  1  0  0  0  0
 16 17  1  0  0  0  0
 16 22  1  0  0  0  0
 17 18  1  0  0  0  0
 17 36  1  0  0  0  0
 17 37  1  0  0  0  0
 18 19  1  0  0  0  0
 18 20  1  0  0  0  0
 18 21  1  0  0  0  0
 22 23  2  0  0  0  0
 24 38  1  0  0  0  0
M  END
> <s_m_source_file>
AV-unprocessed.smi

> <i_m_source_file_index>
714

> <i_lp_mmshare_version>
43012

> <i_f3d_flags>
0

> <s_epik_input>
W0NIXSNDW0NIMl1bTkhdQyg9TyljMVtjSF1bY0hdYyg9TyluKFtjSF0xKVtDQEBIXTJbQ0gyXVtDSDJdTihDMj1PKVtDSDJdQyhGKShGKUY=

> <s_epik_cmdline>
J2VwaWtfcHl0aG9uJywgJy1waCcsICc3LjAnLCAnLXRuJywgJzgnLCAnLW1hJywgJzIwMCcsICctbWV0YWxfYmluZGluZycsICctaW1hZScsICc8aW5maWxlLm1hZT4nLCAnLW9tYWUnLCAnPG91dGZpbGUubWFlPic=

> <r_lp_tautomer_probability>
1

> <r_epik_Ionization_Penalty>
2.95503e-06

> <r_epik_Ionization_Penalty_Charging>
5.74209e-08

> <r_epik_Ionization_Penalty_Neutral>
2.89761e-06

> <r_epik_State_Penalty>
-0

> <r_epik_Charging_Adjusted_Penalty>
5.74209e-08

> <i_epik_Tot_Q>
0

> <i_epik_Tot_abs_Q>
0

> <r_epik_Metal_State_Penalty>
-0

> <b_epik_Metal_Only>
0

> <s_lp_Force_Field>
OPLS_2005

> <r_lp_Energy>
33.0774

> <b_lp_Chiralities_Consistent>
1

> <s_lp_Variant>
AV-unprocessed.smi:714-2

> <Gold.Version>
5.8.1

> <Gold.Id.Protein>
6NUR|6NUR_protein|mol2

> <Gold.PLP.Fitness>
50.6826

> <Gold.PLP.PLP>
-45.6641

> <Gold.PLP.part.hbond>
-2.5997

> <Gold.PLP.part.metal>
0.0000

> <Gold.PLP.part.buried>
-2.5544

> <Gold.PLP.part.nonpolar>
-41.1859

> <Gold.PLP.part.repulsive>
0.0796

> <Gold.PLP.ligand.clash>
0.0000

> <Gold.PLP.ligand.torsion>
0.5833

> <Gold.PLP.Chemscore.Hbond>
2.0000

> <Gold.PLP.Chemscore.CHOScore>
0.0000

> <Gold.PLP.Chemscore.Metal>
0.0000

> <Gold.Chemscore.Hbonds>
donor molecule, donor type, donor heavy atom, donor atom, acceptor molecule, acceptor atom, score
      L1  H     4    28       P1  7948  1.00
      P1  H  7997  8008       L1    23  1.00

> <Gold.PLP.Chemscore.Internal.Correction>
0.1850

> <Gold.Rescore>
     Score         DG    S(hbond)    S(metal)    S(lipo)     H(rot)  DE(clash)    DE(int)     intcor
     11.54     -17.21       1.83        0.00      83.28       1.61       0.90       4.77       ----

> <Gold.Chemscore.Fitness>
11.5402

> <Gold.Chemscore.DG>
-17.2128

> <Gold.Chemscore.ZeroCoef>
-5.4800

> <Gold.Chemscore.Hbond>
1.8323

> <Gold.Chemscore.Metal>
0.0000

> <Gold.Chemscore.Lipo>
83.2792

> <Gold.Chemscore.Internal_Hbond>
0.0000

> <Gold.Chemscore.DEClash>
0.9034

> <Gold.Chemscore.DEInternal>
4.7692

> <Gold.Chemscore.Rot>
1.6136

> <Gold.Chemscore.Internal.Correction>
   9.000000E+99

> <Gold.Chemscore.Hbonds>
donor molecule, donor type, donor heavy atom, donor atom, acceptor molecule, acceptor atom, score
      L1  H     4    28       P1  7948  0.99
      P1  H  7997  8008       L1    23  0.74

> <Gold.Chemscore.Hbond.Weighted>
-6.1199

> <Gold.Chemscore.Metal.Weighted>
-0.0000

> <Gold.Chemscore.Lipo.Weighted>
-9.7437

> <Gold.Chemscore.Internal_Hbond.Weighted>
0.0000

> <Gold.Chemscore.DEClash.Weighted>
0.9034

> <Gold.Chemscore.DEInternal.Weighted>
4.7692

> <Gold.Chemscore.Rot.Weighted>
4.1308

> <Gold.Chemscore.Internal.Correction.Weighted>
   9.000000E+99

> <Gold.Protein.RotatedTorsions>
[ 6907 6896 6895 6894 ] final  -42.08 input  -60.11 | X-H torsion
[ 7974 7965 7964 7962 ] final -158.56 input  175.53 | X-H torsion
[ 8008 7997 7996 7995 ] final  -90.32 input   59.86 | X-H torsion
[ 10167 10162 10161 10158 ] final  135.96 input  -65.29 | X-H torsion
[ 10718 10713 10712 10709 ] final   -6.06 input   66.30 | X-H torsion
[ 10763 10752 10751 10750 ] final   -3.26 input  -60.55 | X-H torsion
[ 11005 11000 10999 10996 ] final  -38.95 input  -57.11 | X-H torsion

> <Gold.Protein.ActiveResidues>
 VAL166  LYS551  ARG553  GLY616  TRP617  ASP618  TYR619  PRO620  LYS621  CYS622 
 ASP623  PHE694  ASN695  SER759  ASP760  ASP761  ALA762  ILE779  LEU786  VAL792 
 PHE793  MET794  SER795  GLU796  ALA797  LYS798  CYS799  TRP800  GLU811  SER814 

> <Gold.Protein.RotatedAtoms>
  150.9593  134.8983  159.7720 H   0  0  0  0  0  0  0  0  0  0  0  0  # atno 6907 bound_to 6896
  152.5150  134.3696  159.9323 H   0  0  0  0  0  0  0  0  0  0  0  0  # atno 6908 bound_to 6896
  151.3708  133.3815  159.2734 H   0  0  0  0  0  0  0  0  0  0  0  0  # atno 6909 bound_to 6896
  144.7501  140.3810  143.6055 H   0  0  0  0  0  0  0  0  0  0  0  0  # atno 7974 bound_to 7965
  154.6971  140.0532  157.0421 H   0  0  0  0  0  0  0  0  0  0  0  0  # atno 8008 bound_to 7997
  155.0736  140.3202  155.4604 H   0  0  0  0  0  0  0  0  0  0  0  0  # atno 8009 bound_to 7997
  156.2748  140.2077  156.5863 H   0  0  0  0  0  0  0  0  0  0  0  0  # atno 8010 bound_to 7997
  139.5197  144.6489  151.5358 H   0  0  0  0  0  0  0  0  0  0  0  0  # atno 10167 bound_to 10162
  156.7374  130.5199  149.5832 H   0  0  0  0  0  0  0  0  0  0  0  0  # atno 10718 bound_to 10713
  153.3689  135.6993  153.6653 H   0  0  0  0  0  0  0  0  0  0  0  0  # atno 10763 bound_to 10752
  153.5311  135.3592  155.2677 H   0  0  0  0  0  0  0  0  0  0  0  0  # atno 10764 bound_to 10752
  154.8678  135.4181  154.2963 H   0  0  0  0  0  0  0  0  0  0  0  0  # atno 10765 bound_to 10752
  141.0065  133.6929  156.2121 H   0  0  0  0  0  0  0  0  0  0  0  0  # atno 11005 bound_to 11000
  145.6977  139.1654  143.2610 LP  0  0  0  0  0  0  0  0  0  0  0  0  # atno 17320 bound_to 7965
  146.1438  140.7021  142.9354 LP  0  0  0  0  0  0  0  0  0  0  0  0  # atno 17321 bound_to 7965
  140.6286  143.9120  150.6586 LP  0  0  0  0  0  0  0  0  0  0  0  0  # atno 17342 bound_to 10162
  140.2417  143.3659  152.1481 LP  0  0  0  0  0  0  0  0  0  0  0  0  # atno 17343 bound_to 10162
  156.1488  130.6295  151.0567 LP  0  0  0  0  0  0  0  0  0  0  0  0  # atno 17370 bound_to 10713
  157.6833  131.0832  150.7311 LP  0  0  0  0  0  0  0  0  0  0  0  0  # atno 17371 bound_to 10713
  140.6803  134.4774  157.5589 LP  0  0  0  0  0  0  0  0  0  0  0  0  # atno 17394 bound_to 11000
  139.9066  134.8435  156.1682 LP  0  0  0  0  0  0  0  0  0  0  0  0  # atno 17395 bound_to 11000

$$$$
