AV-unprocessed.smi:50|AV-procd|sdf|497|dock1
  -GOLD-   2262016363D 1   1.00000     0.00000
 Structure written by MMmdl.
 42 43  0  0  0  0  0  0  0  0  2 V2000
  152.5819  143.3049  160.5347 C   0  0  0  0  0  0  0  0  0  0  0  0
  152.6000  141.8502  160.0335 C   0  0  0  0  0  0  0  0  0  0  0  0
  154.0423  141.3067  160.0211 C   0  0  0  0  0  0  0  0  0  0  0  0
  151.8340  141.6901  158.6904 C   0  0  2  0  0  0  0  0  0  0  0  0
  150.4965  142.2780  158.7809 N   0  0  0  0  0  0  0  0  0  0  0  0
  151.8168  140.2510  158.1392 C   0  0  0  0  0  0  0  0  0  0  0  0
  152.4509  139.8993  157.1441 O   0  0  0  0  0  0  0  0  0  0  0  0
  151.0418  139.4430  158.8879 O   0  0  0  0  0  0  0  0  0  0  0  0
  150.9868  138.0560  158.5998 C   0  0  0  0  0  0  0  0  0  0  0  0
  152.3850  137.4516  158.7490 C   0  0  0  0  0  0  0  0  0  0  0  0
  152.5698  137.0629  160.0996 O   0  0  0  0  0  0  0  0  0  0  0  0
  153.6883  137.6456  160.6799 C   0  0  0  0  0  0  0  0  0  0  0  0
  154.0123  136.8887  161.8725 N   0  0  0  0  0  0  0  0  0  0  0  0
  153.9837  137.3256  163.1464 C   0  0  0  0  0  0  0  0  0  0  0  0
  154.3285  136.4255  164.0665 N   0  0  0  0  0  0  0  0  0  0  0  0
  154.6041  135.3062  163.2888 C   0  0  0  0  0  0  0  0  0  0  0  0
  155.0471  133.9378  163.6500 C   0  0  0  0  0  0  0  0  0  0  0  0
  155.2286  133.6603  164.8341 O   0  0  0  0  0  0  0  0  0  0  0  0
  155.2193  133.0789  162.5993 N   0  5  0  0  0  0  0  0  0  0  0  0
  154.9866  133.5088  161.2851 C   0  0  0  0  0  0  0  0  0  0  0  0
  155.2120  132.5200  160.3525 N   0  0  0  0  0  0  0  0  0  0  0  0
  154.5971  134.6976  160.8939 N   0  0  0  0  0  0  0  0  0  0  0  0
  154.4194  135.5630  161.9572 C   0  0  0  0  0  0  0  0  0  0  0  0
  152.3720  142.2951  157.9598 H   0  0  0  0  0  0  0  0  0  0  0  0
  153.1489  143.9654  159.8780 H   0  0  0  0  0  0  0  0  0  0  0  0
  153.0173  143.3799  161.5314 H   0  0  0  0  0  0  0  0  0  0  0  0
  151.5631  143.6885  160.5936 H   0  0  0  0  0  0  0  0  0  0  0  0
  152.0528  141.2679  160.7767 H   0  0  0  0  0  0  0  0  0  0  0  0
  154.6969  141.9038  159.3861 H   0  0  0  0  0  0  0  0  0  0  0  0
  154.0784  140.2764  159.6665 H   0  0  0  0  0  0  0  0  0  0  0  0
  154.4680  141.3186  161.0247 H   0  0  0  0  0  0  0  0  0  0  0  0
  149.8200  141.7450  158.2535 H   0  0  0  0  0  0  0  0  0  0  0  0
  150.1643  142.2964  159.7346 H   0  0  0  0  0  0  0  0  0  0  0  0
  150.2918  137.5614  159.2797 H   0  0  0  0  0  0  0  0  0  0  0  0
  150.6192  137.9056  157.5838 H   0  0  0  0  0  0  0  0  0  0  0  0
  152.4911  136.5864  158.0924 H   0  0  0  0  0  0  0  0  0  0  0  0
  153.1403  138.1840  158.4593 H   0  0  0  0  0  0  0  0  0  0  0  0
  154.5406  137.6126  159.9991 H   0  0  0  0  0  0  0  0  0  0  0  0
  153.4858  138.6802  160.9615 H   0  0  0  0  0  0  0  0  0  0  0  0
  153.7016  138.3351  163.4068 H   0  0  0  0  0  0  0  0  0  0  0  0
  155.5125  131.5867  160.5911 H   0  0  0  0  0  0  0  0  0  0  0  0
  155.0903  132.6609  159.3604 H   0  0  0  0  0  0  0  0  0  0  0  0
  1  2  1  0  0  0  0
  1 25  1  0  0  0  0
  1 26  1  0  0  0  0
  1 27  1  0  0  0  0
  2  3  1  0  0  0  0
  2  4  1  0  0  0  0
  2 28  1  0  0  0  0
  3 29  1  0  0  0  0
  3 30  1  0  0  0  0
  3 31  1  0  0  0  0
  4 24  1  0  0  0  0
  4  5  1  0  0  0  0
  4  6  1  0  0  0  0
  5 32  1  0  0  0  0
  5 33  1  0  0  0  0
  6  7  2  0  0  0  0
  6  8  1  0  0  0  0
  8  9  1  0  0  0  0
  9 10  1  0  0  0  0
  9 34  1  0  0  0  0
  9 35  1  0  0  0  0
 10 11  1  0  0  0  0
 10 36  1  0  0  0  0
 10 37  1  0  0  0  0
 11 12  1  0  0  0  0
 12 13  1  0  0  0  0
 12 38  1  0  0  0  0
 12 39  1  0  0  0  0
 13 23  1  0  0  0  0
 13 14  1  0  0  0  0
 14 15  2  0  0  0  0
 14 40  1  0  0  0  0
 15 16  1  0  0  0  0
 16 23  2  0  0  0  0
 16 17  1  0  0  0  0
 17 18  2  0  0  0  0
 17 19  1  0  0  0  0
 19 20  1  0  0  0  0
 20 21  1  0  0  0  0
 20 22  2  0  0  0  0
 21 41  1  0  0  0  0
 21 42  1  0  0  0  0
 22 23  1  0  0  0  0
M  CHG  1  19  -1
M  END
> <s_m_source_file>
AV-unprocessed.smi

> <i_m_source_file_index>
50

> <i_lp_mmshare_version>
43012

> <i_f3d_flags>
0

> <s_epik_input>
W0NIM11bQ0hdKFtDSDNdKVtDQEhdKFtOSDJdKUMoPU8pT1tDSDJdW0NIMl1PW0NIMl1uKFtjSF1uMSljKGMxMiluYyhbTkgyXSlbbkhdYzI9Tw==

> <s_epik_cmdline>
J2VwaWtfcHl0aG9uJywgJy1waCcsICc3LjAnLCAnLXRuJywgJzgnLCAnLW1hJywgJzIwMCcsICctbWV0YWxfYmluZGluZycsICctaW1hZScsICc8aW5maWxlLm1hZT4nLCAnLW9tYWUnLCAnPG91dGZpbGUubWFlPic=

> <r_lp_tautomer_probability>
0.99994

> <r_epik_Ionization_Penalty>
4.26118

> <r_epik_Ionization_Penalty_Charging>
1.23364e-10

> <r_epik_Ionization_Penalty_Neutral>
4.26118

> <r_epik_State_Penalty>
4.27372

> <r_epik_Charging_Adjusted_Penalty>
4.27372

> <i_epik_Tot_Q>
-1

> <i_epik_Tot_abs_Q>
1

> <r_epik_Metal_State_Penalty>
1.24306

> <b_epik_Metal_Only>
1

> <s_epik_Chemistry_Notes>
This compound has an ester and may undergo hydrolysis at high or low pH. This compound contains an acetal/aminal-like group ( X-CH(R)-Y where X, Y are N, S, or O) that may be acid/base labile, releasing an aldehyde.

> <s_lp_Force_Field>
OPLS_2005

> <r_lp_Energy>
24.4723

> <b_lp_Chiralities_Consistent>
1

> <s_lp_Variant>
AV-unprocessed.smi:50-7

> <Gold.Version>
5.8.1

> <Gold.Id.Protein>
6NUR|6NUR_protein|mol2

> <Gold.PLP.Fitness>
41.9518

> <Gold.PLP.PLP>
-36.8373

> <Gold.PLP.part.hbond>
-2.8726

> <Gold.PLP.part.metal>
0.0000

> <Gold.PLP.part.buried>
-6.5008

> <Gold.PLP.part.nonpolar>
-27.7847

> <Gold.PLP.part.repulsive>
0.1869

> <Gold.PLP.ligand.clash>
0.0000

> <Gold.PLP.ligand.torsion>
0.7956

> <Gold.PLP.Chemscore.Hbond>
1.9913

> <Gold.PLP.Chemscore.CHOScore>
0.0000

> <Gold.PLP.Chemscore.Metal>
0.0000

> <Gold.Chemscore.Hbonds>
donor molecule, donor type, donor heavy atom, donor atom, acceptor molecule, acceptor atom, score
      P1  H  6896  6908       L1    11  0.91
      P1  H  7997  8008       L1     7  1.00

> <Gold.PLP.Chemscore.Internal.Correction>
0.7319

> <Gold.Rescore>
     Score         DG    S(hbond)    S(metal)    S(lipo)     H(rot)  DE(clash)    DE(int)     intcor
      4.06      -6.11       1.95        0.00      53.19       4.72       0.00       2.05       ----

> <Gold.Chemscore.Fitness>
4.0605

> <Gold.Chemscore.DG>
-6.1074

> <Gold.Chemscore.ZeroCoef>
-5.4800

> <Gold.Chemscore.Hbond>
1.9455

> <Gold.Chemscore.Metal>
0.0000

> <Gold.Chemscore.Lipo>
53.1864

> <Gold.Chemscore.Internal_Hbond>
0.0000

> <Gold.Chemscore.DEClash>
0.0000

> <Gold.Chemscore.DEInternal>
2.0469

> <Gold.Chemscore.Rot>
4.7239

> <Gold.Chemscore.Internal.Correction>
   9.000000E+99

> <Gold.Chemscore.Hbonds>
donor molecule, donor type, donor heavy atom, donor atom, acceptor molecule, acceptor atom, score
      P1  H  6896  6908       L1    11  0.26
      P1  H  7997  8008       L1     7  0.96

> <Gold.Chemscore.Hbond.Weighted>
-6.4979

> <Gold.Chemscore.Metal.Weighted>
-0.0000

> <Gold.Chemscore.Lipo.Weighted>
-6.2228

> <Gold.Chemscore.Internal_Hbond.Weighted>
0.0000

> <Gold.Chemscore.DEClash.Weighted>
0.0000

> <Gold.Chemscore.DEInternal.Weighted>
2.0469

> <Gold.Chemscore.Rot.Weighted>
12.0933

> <Gold.Chemscore.Internal.Correction.Weighted>
   9.000000E+99

> <Gold.Protein.RotatedTorsions>
[ 6907 6896 6895 6894 ] final -105.95 input  -60.11 | X-H torsion
[ 7974 7965 7964 7962 ] final -112.24 input  175.53 | X-H torsion
[ 8008 7997 7996 7995 ] final  -57.64 input   59.86 | X-H torsion
[ 10167 10162 10161 10158 ] final  100.53 input  -65.29 | X-H torsion
[ 10718 10713 10712 10709 ] final  -32.57 input   66.30 | X-H torsion
[ 10763 10752 10751 10750 ] final   -8.89 input  -60.55 | X-H torsion
[ 11005 11000 10999 10996 ] final -133.88 input  -57.11 | X-H torsion

> <Gold.Protein.ActiveResidues>
 VAL166  LYS551  ARG553  GLY616  TRP617  ASP618  TYR619  PRO620  LYS621  CYS622 
 ASP623  PHE694  ASN695  SER759  ASP760  ASP761  ALA762  ILE779  LEU786  VAL792 
 PHE793  MET794  SER795  GLU796  ALA797  LYS798  CYS799  TRP800  GLU811  SER814 

> <Gold.Protein.RotatedAtoms>
  150.7363  134.0049  159.3650 H   0  0  0  0  0  0  0  0  0  0  0  0  # atno 6907 bound_to 6896
  151.8005  135.0708  160.0409 H   0  0  0  0  0  0  0  0  0  0  0  0  # atno 6908 bound_to 6896
  152.3144  133.5750  159.5738 H   0  0  0  0  0  0  0  0  0  0  0  0  # atno 6909 bound_to 6896
  145.1464  140.8805  143.3672 H   0  0  0  0  0  0  0  0  0  0  0  0  # atno 7974 bound_to 7965
  154.4276  140.1102  156.5830 H   0  0  0  0  0  0  0  0  0  0  0  0  # atno 8008 bound_to 7997
  155.6092  140.3494  155.4598 H   0  0  0  0  0  0  0  0  0  0  0  0  # atno 8009 bound_to 7997
  156.0113  140.1219  157.0441 H   0  0  0  0  0  0  0  0  0  0  0  0  # atno 8010 bound_to 7997
  139.7519  144.6981  151.0420 H   0  0  0  0  0  0  0  0  0  0  0  0  # atno 10167 bound_to 10162
  156.3733  130.4343  149.7528 H   0  0  0  0  0  0  0  0  0  0  0  0  # atno 10718 bound_to 10713
  153.4469  135.7014  153.6133 H   0  0  0  0  0  0  0  0  0  0  0  0  # atno 10763 bound_to 10752
  153.4485  135.3763  155.2270 H   0  0  0  0  0  0  0  0  0  0  0  0  # atno 10764 bound_to 10752
  154.8728  135.3991  154.3875 H   0  0  0  0  0  0  0  0  0  0  0  0  # atno 10765 bound_to 10752
  140.9040  134.1653  157.4439 H   0  0  0  0  0  0  0  0  0  0  0  0  # atno 11005 bound_to 11000
  145.0478  139.3207  143.5944 LP  0  0  0  0  0  0  0  0  0  0  0  0  # atno 17320 bound_to 7965
  146.3499  139.9875  142.8689 LP  0  0  0  0  0  0  0  0  0  0  0  0  # atno 17321 bound_to 7965
  140.7798  143.4799  151.0032 LP  0  0  0  0  0  0  0  0  0  0  0  0  # atno 17342 bound_to 10162
  139.8487  143.7467  152.3178 LP  0  0  0  0  0  0  0  0  0  0  0  0  # atno 17343 bound_to 10162
  156.4647  130.7968  151.2988 LP  0  0  0  0  0  0  0  0  0  0  0  0  # atno 17370 bound_to 10713
  157.7486  131.0055  150.3115 LP  0  0  0  0  0  0  0  0  0  0  0  0  # atno 17371 bound_to 10713
  139.8746  134.9909  156.5526 LP  0  0  0  0  0  0  0  0  0  0  0  0  # atno 17394 bound_to 11000
  140.8194  133.8366  155.8881 LP  0  0  0  0  0  0  0  0  0  0  0  0  # atno 17395 bound_to 11000

$$$$
