AV-unprocessed.smi:3117|AV-procd|sdf|11881|dock2
  -GOLD-   2272017263D 1   1.00000     0.00000
 Structure written by MMmdl.
 37 37  0  0  0  0  0  0  0  0  2 V2000
  149.2290  142.2294  158.3895 C   0  0  0  0  0  0  0  0  0  0  0  0
  150.3642  142.0493  157.3683 C   0  0  1  0  0  0  0  0  0  0  0  0
  149.8586  142.3554  156.0108 N   0  3  0  0  0  0  0  0  0  0  0  0
  148.8030  141.4480  155.5138 C   0  0  0  0  0  0  0  0  0  0  0  0
  149.3737  140.3221  154.6255 C   0  0  0  0  0  0  0  0  0  0  0  0
  150.6611  139.7556  155.2472 C   0  0  0  0  0  0  0  0  0  0  0  0
  148.3563  139.1925  154.3822 C   0  0  0  0  0  0  0  0  0  0  0  0
  149.7327  140.8814  153.3767 O   0  0  0  0  0  0  0  0  0  0  0  0
  151.6191  142.8952  157.7077 C   0  0  1  0  0  0  0  0  0  0  0  0
  151.3167  144.4023  157.8120 C   0  0  0  0  0  0  0  0  0  0  0  0
  152.3432  142.4057  158.8772 N   0  0  0  0  0  0  0  0  0  0  0  0
  152.6895  143.1041  160.0163 C   0  0  0  0  0  0  0  0  0  0  0  0
  153.3718  142.2477  160.8317 C   0  0  0  0  0  0  0  0  0  0  0  0
  153.3983  141.0303  160.0969 C   0  0  0  0  0  0  0  0  0  0  0  0
  152.7872  141.1286  158.9275 N   0  0  0  0  0  0  0  0  0  0  0  0
  149.5720  142.0076  159.4003 H   0  0  0  0  0  0  0  0  0  0  0  0
  148.3971  141.5590  158.1713 H   0  0  0  0  0  0  0  0  0  0  0  0
  148.8395  143.2480  158.3862 H   0  0  0  0  0  0  0  0  0  0  0  0
  150.6634  141.0003  157.4039 H   0  0  0  0  0  0  0  0  0  0  0  0
  149.5043  143.3009  156.0034 H   0  0  0  0  0  0  0  0  0  0  0  0
  148.2786  141.0178  156.3688 H   0  0  0  0  0  0  0  0  0  0  0  0
  148.0717  142.0326  154.9535 H   0  0  0  0  0  0  0  0  0  0  0  0
  150.4631  139.3075  156.2215 H   0  0  0  0  0  0  0  0  0  0  0  0
  151.4117  140.5339  155.3902 H   0  0  0  0  0  0  0  0  0  0  0  0
  151.1041  138.9844  154.6158 H   0  0  0  0  0  0  0  0  0  0  0  0
  148.0365  138.7423  155.3227 H   0  0  0  0  0  0  0  0  0  0  0  0
  148.7856  138.3989  153.7694 H   0  0  0  0  0  0  0  0  0  0  0  0
  147.4641  139.5508  153.8678 H   0  0  0  0  0  0  0  0  0  0  0  0
  149.5620  140.2439  152.6995 H   0  0  0  0  0  0  0  0  0  0  0  0
  152.3022  142.7859  156.8638 H   0  0  0  0  0  0  0  0  0  0  0  0
  150.8586  144.7731  156.8948 H   0  0  0  0  0  0  0  0  0  0  0  0
  152.2312  144.9733  157.9749 H   0  0  0  0  0  0  0  0  0  0  0  0
  150.6369  144.6277  158.6343 H   0  0  0  0  0  0  0  0  0  0  0  0
  152.4249  144.1426  160.1514 H   0  0  0  0  0  0  0  0  0  0  0  0
  153.7887  142.4589  161.8055 H   0  0  0  0  0  0  0  0  0  0  0  0
  153.8427  140.0860  160.3750 H   0  0  0  0  0  0  0  0  0  0  0  0
  150.6379  142.3064  155.3690 H   0  0  0  0  0  0  0  0  0  0  0  0
  1  2  1  0  0  0  0
  1 16  1  0  0  0  0
  1 17  1  0  0  0  0
  1 18  1  0  0  0  0
  2  3  1  0  0  0  0
  2  9  1  0  0  0  0
  2 19  1  0  0  0  0
  3  4  1  0  0  0  0
  3 20  1  0  0  0  0
  3 37  1  0  0  0  0
  4  5  1  0  0  0  0
  4 21  1  0  0  0  0
  4 22  1  0  0  0  0
  5  6  1  0  0  0  0
  5  7  1  0  0  0  0
  5  8  1  0  0  0  0
  6 23  1  0  0  0  0
  6 24  1  0  0  0  0
  6 25  1  0  0  0  0
  7 26  1  0  0  0  0
  7 27  1  0  0  0  0
  7 28  1  0  0  0  0
  8 29  1  0  0  0  0
  9 10  1  0  0  0  0
  9 11  1  0  0  0  0
  9 30  1  0  0  0  0
 10 31  1  0  0  0  0
 10 32  1  0  0  0  0
 10 33  1  0  0  0  0
 11 15  1  0  0  0  0
 11 12  1  0  0  0  0
 12 13  2  0  0  0  0
 12 34  1  0  0  0  0
 13 14  1  0  0  0  0
 13 35  1  0  0  0  0
 14 15  2  0  0  0  0
 14 36  1  0  0  0  0
M  CHG  1   3   1
M  END
> <s_m_source_file>
AV-unprocessed.smi

> <i_m_source_file_index>
3117

> <i_lp_mmshare_version>
43012

> <i_f3d_flags>
0

> <s_epik_input>
W0NIM11DKFtDSDNdKShbT0hdKVtDSDJdW05IXVtDQEBIXShbQ0gzXSlbQ0BIXShbQ0gzXSluMVtjSF1bY0hdW2NIXW4x

> <s_epik_cmdline>
J2VwaWtfcHl0aG9uJywgJy1waCcsICc3LjAnLCAnLXRuJywgJzgnLCAnLW1hJywgJzIwMCcsICctbWV0YWxfYmluZGluZycsICctaW1hZScsICc8aW5maWxlLm1hZT4nLCAnLW9tYWUnLCAnPG91dGZpbGUubWFlPic=

> <r_lp_tautomer_probability>
1

> <r_epik_Ionization_Penalty>
0.0164263

> <r_epik_Ionization_Penalty_Charging>
0.0164138

> <r_epik_Ionization_Penalty_Neutral>
1.24697e-05

> <r_epik_State_Penalty>
0.0129543

> <r_epik_Charging_Adjusted_Penalty>
0.0293681

> <i_epik_Tot_Q>
1

> <i_epik_Tot_abs_Q>
1

> <r_epik_Metal_State_Penalty>
0.0129806

> <b_epik_Metal_Only>
0

> <s_lp_Force_Field>
OPLS_2005

> <r_lp_Energy>
13.722

> <b_lp_Chiralities_Consistent>
1

> <s_lp_Variant>
AV-unprocessed.smi:3117-4

> <Gold.Version>
5.8.1

> <Gold.Id.Protein>
6NUR|6NUR_protein|mol2

> <Gold.PLP.Fitness>
46.2393

> <Gold.PLP.PLP>
-34.8719

> <Gold.PLP.part.hbond>
-3.0391

> <Gold.PLP.part.metal>
0.0000

> <Gold.PLP.part.buried>
-3.0096

> <Gold.PLP.part.nonpolar>
-28.7145

> <Gold.PLP.part.repulsive>
0.1225

> <Gold.PLP.ligand.clash>
0.0000

> <Gold.PLP.ligand.torsion>
0.5707

> <Gold.PLP.Chemscore.Hbond>
4.1040

> <Gold.PLP.Chemscore.CHOScore>
0.0000

> <Gold.PLP.Chemscore.Metal>
0.0000

> <Gold.Chemscore.Hbonds>
donor molecule, donor type, donor heavy atom, donor atom, acceptor molecule, acceptor atom, score
      L1  H     3    20       P1  8028  2.00
      L1  H     8    29       P1  7957  0.83
      P1  H  7989  7998       L1     8  0.26
      P1  H  8011  8017       L1     8  0.95

> <Gold.PLP.Chemscore.Internal.Correction>
0.1968

> <Gold.Rescore>
     Score         DG    S(hbond)    S(metal)    S(lipo)     H(rot)  DE(clash)    DE(int)     intcor
     16.96     -17.66       2.28        0.00      88.87       2.27       0.10       0.61       ----

> <Gold.Chemscore.Fitness>
16.9572

> <Gold.Chemscore.DG>
-17.6591

> <Gold.Chemscore.ZeroCoef>
-5.4800

> <Gold.Chemscore.Hbond>
2.2753

> <Gold.Chemscore.Metal>
0.0000

> <Gold.Chemscore.Lipo>
88.8658

> <Gold.Chemscore.Internal_Hbond>
0.0000

> <Gold.Chemscore.DEClash>
0.0960

> <Gold.Chemscore.DEInternal>
0.6059

> <Gold.Chemscore.Rot>
2.2725

> <Gold.Chemscore.Internal.Correction>
   9.000000E+99

> <Gold.Chemscore.Hbonds>
donor molecule, donor type, donor heavy atom, donor atom, acceptor molecule, acceptor atom, score
      L1  H     3    20       P1  8028  0.98
      L1  H     8    29       P1  7957  0.79
      P1  H  7989  7998       L1     8  0.04
      P1  H  8011  8017       L1     8  0.21

> <Gold.Chemscore.Hbond.Weighted>
-7.5994

> <Gold.Chemscore.Metal.Weighted>
-0.0000

> <Gold.Chemscore.Lipo.Weighted>
-10.3973

> <Gold.Chemscore.Internal_Hbond.Weighted>
0.0000

> <Gold.Chemscore.DEClash.Weighted>
0.0960

> <Gold.Chemscore.DEInternal.Weighted>
0.6059

> <Gold.Chemscore.Rot.Weighted>
5.8176

> <Gold.Chemscore.Internal.Correction.Weighted>
   9.000000E+99

> <Gold.Protein.RotatedTorsions>
[ 6907 6896 6895 6894 ] final  146.88 input  -60.11 | X-H torsion
[ 7974 7965 7964 7962 ] final  127.23 input  175.53 | X-H torsion
[ 8008 7997 7996 7995 ] final  -63.62 input   59.86 | X-H torsion
[ 10167 10162 10161 10158 ] final  132.49 input  -65.29 | X-H torsion
[ 10718 10713 10712 10709 ] final -176.61 input   66.30 | X-H torsion
[ 10763 10752 10751 10750 ] final -149.11 input  -60.55 | X-H torsion
[ 11005 11000 10999 10996 ] final -101.52 input  -57.11 | X-H torsion

> <Gold.Protein.ActiveResidues>
 VAL166  LYS551  ARG553  GLY616  TRP617  ASP618  TYR619  PRO620  LYS621  CYS622 
 ASP623  PHE694  ASN695  SER759  ASP760  ASP761  ALA762  ILE779  LEU786  VAL792 
 PHE793  MET794  SER795  GLU796  ALA797  LYS798  CYS799  TRP800  GLU811  SER814 

> <Gold.Protein.RotatedAtoms>
  152.1621  133.4588  159.4865 H   0  0  0  0  0  0  0  0  0  0  0  0  # atno 6907 bound_to 6896
  150.6908  134.2058  159.4349 H   0  0  0  0  0  0  0  0  0  0  0  0  # atno 6908 bound_to 6896
  151.9961  134.9953  160.0614 H   0  0  0  0  0  0  0  0  0  0  0  0  # atno 6909 bound_to 6896
  145.0529  139.3868  143.5045 H   0  0  0  0  0  0  0  0  0  0  0  0  # atno 7974 bound_to 7965
  154.4564  140.0971  156.6770 H   0  0  0  0  0  0  0  0  0  0  0  0  # atno 8008 bound_to 7997
  155.5125  140.3477  155.4372 H   0  0  0  0  0  0  0  0  0  0  0  0  # atno 8009 bound_to 7997
  156.0786  140.1367  156.9729 H   0  0  0  0  0  0  0  0  0  0  0  0  # atno 8010 bound_to 7997
  139.5337  144.6659  151.4860 H   0  0  0  0  0  0  0  0  0  0  0  0  # atno 10167 bound_to 10162
  156.8173  130.9607  151.3113 H   0  0  0  0  0  0  0  0  0  0  0  0  # atno 10718 bound_to 10713
  154.8196  135.3317  154.7077 H   0  0  0  0  0  0  0  0  0  0  0  0  # atno 10763 bound_to 10752
  153.7712  135.6925  153.4910 H   0  0  0  0  0  0  0  0  0  0  0  0  # atno 10764 bound_to 10752
  153.2043  135.4505  155.0253 H   0  0  0  0  0  0  0  0  0  0  0  0  # atno 10765 bound_to 10752
  141.1227  133.8485  157.1243 H   0  0  0  0  0  0  0  0  0  0  0  0  # atno 11005 bound_to 11000
  146.3519  140.0188  142.8660 LP  0  0  0  0  0  0  0  0  0  0  0  0  # atno 17320 bound_to 7965
  145.1505  140.9620  143.4436 LP  0  0  0  0  0  0  0  0  0  0  0  0  # atno 17321 bound_to 7965
  140.6531  143.8655  150.6806 LP  0  0  0  0  0  0  0  0  0  0  0  0  # atno 17342 bound_to 10162
  140.2026  143.3947  152.1780 LP  0  0  0  0  0  0  0  0  0  0  0  0  # atno 17343 bound_to 10162
  157.6475  130.8856  149.9567 LP  0  0  0  0  0  0  0  0  0  0  0  0  # atno 17370 bound_to 10713
  156.1009  130.3656  150.0219 LP  0  0  0  0  0  0  0  0  0  0  0  0  # atno 17371 bound_to 10713
  140.0198  134.9951  157.0569 LP  0  0  0  0  0  0  0  0  0  0  0  0  # atno 17394 bound_to 11000
  140.4458  134.1633  155.7177 LP  0  0  0  0  0  0  0  0  0  0  0  0  # atno 17395 bound_to 11000

$$$$
