AV-unprocessed.smi:702|AV-procd|sdf|3423|dock8
  -GOLD-   22720 0403D 1   1.00000     0.00000
 Structure written by MMmdl.
 50 52  0  0  0  0  0  0  0  0  2 V2000
  145.4545  138.4684  154.4110 C   0  0  0  0  0  0  0  0  0  0  0  0
  146.8288  137.7706  154.4267 C   0  0  1  0  0  0  0  0  0  0  0  0
  146.8599  136.7834  153.3405 N   0  0  0  0  0  0  0  0  0  0  0  0
  145.9102  135.8828  153.0465 C   0  0  0  0  0  0  0  0  0  0  0  0
  144.8503  135.7781  153.6626 O   0  0  0  0  0  0  0  0  0  0  0  0
  146.2871  135.1058  152.0165 N   0  0  0  0  0  0  0  0  0  0  0  0
  145.5884  134.0172  151.4283 C   0  0  0  0  0  0  0  0  0  0  0  0
  146.3405  133.0873  150.6767 C   0  0  0  0  0  0  0  0  0  0  0  0
  145.6882  131.9987  150.0627 C   0  0  0  0  0  0  0  0  0  0  0  0
  144.3512  131.8585  150.1885 N   0  3  0  0  0  0  0  0  0  0  0  0
  143.5882  132.7288  150.8836 C   0  0  0  0  0  0  0  0  0  0  0  0
  144.1846  133.8367  151.5197 C   0  0  0  0  0  0  0  0  0  0  0  0
  148.0466  138.7690  154.3664 C   0  0  0  0  0  0  0  0  0  0  0  0
  149.3501  138.0388  154.4395 N   0  0  0  0  0  0  0  0  0  0  0  0
  149.4907  137.1031  155.5675 C   0  0  0  0  0  0  0  0  0  0  0  0
  150.8051  136.3079  155.5040 C   0  0  0  0  0  0  0  0  0  0  0  0
  151.9043  137.2089  155.4768 O   0  0  0  0  0  0  0  0  0  0  0  0
  151.8490  138.0915  154.3639 C   0  0  0  0  0  0  0  0  0  0  0  0
  150.5403  138.8997  154.3983 C   0  0  0  0  0  0  0  0  0  0  0  0
  147.9233  139.6512  153.0824 C   0  0  0  0  0  0  0  0  0  0  0  0
  147.4928  141.0510  153.5258 C   0  0  0  0  0  0  0  0  0  0  0  0
  148.0713  141.1937  154.9256 C   0  0  0  0  0  0  0  0  0  0  0  0
  147.9040  139.8008  155.5344 C   0  0  0  0  0  0  0  0  0  0  0  0
  145.3386  139.1475  155.2555 H   0  0  0  0  0  0  0  0  0  0  0  0
  144.6473  137.7381  154.4759 H   0  0  0  0  0  0  0  0  0  0  0  0
  145.3018  139.0455  153.4992 H   0  0  0  0  0  0  0  0  0  0  0  0
  146.8851  137.2125  155.3598 H   0  0  0  0  0  0  0  0  0  0  0  0
  147.6958  136.7803  152.7745 H   0  0  0  0  0  0  0  0  0  0  0  0
  147.2188  135.2654  151.6620 H   0  0  0  0  0  0  0  0  0  0  0  0
  147.4103  133.2002  150.5745 H   0  0  0  0  0  0  0  0  0  0  0  0
  146.1921  131.2428  149.4779 H   0  0  0  0  0  0  0  0  0  0  0  0
  142.5289  132.5180  150.9061 H   0  0  0  0  0  0  0  0  0  0  0  0
  143.5531  134.5305  152.0532 H   0  0  0  0  0  0  0  0  0  0  0  0
  149.4586  137.6341  156.5175 H   0  0  0  0  0  0  0  0  0  0  0  0
  148.6751  136.3837  155.5891 H   0  0  0  0  0  0  0  0  0  0  0  0
  150.8982  135.6603  156.3760 H   0  0  0  0  0  0  0  0  0  0  0  0
  150.8271  135.6648  154.6229 H   0  0  0  0  0  0  0  0  0  0  0  0
  152.7080  138.7618  154.3984 H   0  0  0  0  0  0  0  0  0  0  0  0
  151.9252  137.5229  153.4358 H   0  0  0  0  0  0  0  0  0  0  0  0
  150.5396  139.5318  153.5137 H   0  0  0  0  0  0  0  0  0  0  0  0
  150.5532  139.5656  155.2616 H   0  0  0  0  0  0  0  0  0  0  0  0
  148.8721  139.7433  152.5574 H   0  0  0  0  0  0  0  0  0  0  0  0
  147.2332  139.2386  152.3459 H   0  0  0  0  0  0  0  0  0  0  0  0
  147.8400  141.8305  152.8472 H   0  0  0  0  0  0  0  0  0  0  0  0
  146.4047  141.1092  153.5691 H   0  0  0  0  0  0  0  0  0  0  0  0
  149.1282  141.4542  154.8628 H   0  0  0  0  0  0  0  0  0  0  0  0
  147.5724  141.9689  155.5078 H   0  0  0  0  0  0  0  0  0  0  0  0
  146.9178  139.7681  155.9953 H   0  0  0  0  0  0  0  0  0  0  0  0
  148.5911  139.6243  156.3619 H   0  0  0  0  0  0  0  0  0  0  0  0
  143.8975  131.0646  149.7354 H   0  0  0  0  0  0  0  0  0  0  0  0
  1  2  1  0  0  0  0
  1 24  1  0  0  0  0
  1 25  1  0  0  0  0
  1 26  1  0  0  0  0
  2  3  1  0  0  0  0
  2 13  1  0  0  0  0
  2 27  1  0  0  0  0
  3  4  1  0  0  0  0
  3 28  1  0  0  0  0
  4  5  2  0  0  0  0
  4  6  1  0  0  0  0
  6  7  1  0  0  0  0
  6 29  1  0  0  0  0
  7 12  1  0  0  0  0
  7  8  2  0  0  0  0
  8  9  1  0  0  0  0
  8 30  1  0  0  0  0
  9 10  2  0  0  0  0
  9 31  1  0  0  0  0
 10 11  1  0  0  0  0
 10 50  1  0  0  0  0
 11 12  2  0  0  0  0
 11 32  1  0  0  0  0
 12 33  1  0  0  0  0
 13 23  1  0  0  0  0
 13 14  1  0  0  0  0
 13 20  1  0  0  0  0
 14 19  1  0  0  0  0
 14 15  1  0  0  0  0
 15 16  1  0  0  0  0
 15 34  1  0  0  0  0
 15 35  1  0  0  0  0
 16 17  1  0  0  0  0
 16 36  1  0  0  0  0
 16 37  1  0  0  0  0
 17 18  1  0  0  0  0
 18 19  1  0  0  0  0
 18 38  1  0  0  0  0
 18 39  1  0  0  0  0
 19 40  1  0  0  0  0
 19 41  1  0  0  0  0
 20 21  1  0  0  0  0
 20 42  1  0  0  0  0
 20 43  1  0  0  0  0
 21 22  1  0  0  0  0
 21 44  1  0  0  0  0
 21 45  1  0  0  0  0
 22 23  1  0  0  0  0
 22 46  1  0  0  0  0
 22 47  1  0  0  0  0
 23 48  1  0  0  0  0
 23 49  1  0  0  0  0
M  CHG  1  10   1
M  END
> <s_m_source_file>
AV-unprocessed.smi

> <i_m_source_file_index>
702

> <i_lp_mmshare_version>
43012

> <i_f3d_flags>
0

> <s_epik_input>
W0NIMl0xW0NIMl1PW0NIMl1bQ0gyXU4xQzIoW0NIMl1bQ0gyXVtDSDJdW0NIMl0yKVtDQEhdKFtDSDNdKVtOSF1DKD1PKVtOSF1jM1tjSF1bY0hdbltjSF1bY0hdMw==

> <s_epik_cmdline>
J2VwaWtfcHl0aG9uJywgJy1waCcsICc3LjAnLCAnLXRuJywgJzgnLCAnLW1hJywgJzIwMCcsICctbWV0YWxfYmluZGluZycsICctaW1hZScsICc8aW5maWxlLm1hZT4nLCAnLW9tYWUnLCAnPG91dGZpbGUubWFlPic=

> <r_epik_Ionization_Penalty>
1.54019

> <r_epik_Ionization_Penalty_Charging>
1.02845

> <r_epik_Ionization_Penalty_Neutral>
0.511739

> <r_epik_State_Penalty>
1.62583

> <r_epik_Charging_Adjusted_Penalty>
2.65428

> <i_epik_Tot_Q>
1

> <i_epik_Tot_abs_Q>
1

> <r_epik_Metal_State_Penalty>
1.71803

> <b_epik_Metal_Only>
0

> <s_lp_Force_Field>
OPLS_2005

> <r_lp_Energy>
72.2563

> <b_lp_Chiralities_Consistent>
1

> <s_lp_Variant>
AV-unprocessed.smi:702-8

> <Gold.Version>
5.8.1

> <Gold.Id.Protein>
6NUR|6NUR_protein|mol2

> <Gold.PLP.Fitness>
39.7221

> <Gold.PLP.PLP>
-33.3494

> <Gold.PLP.part.hbond>
-3.0000

> <Gold.PLP.part.metal>
0.0000

> <Gold.PLP.part.buried>
-3.8328

> <Gold.PLP.part.nonpolar>
-28.3063

> <Gold.PLP.part.repulsive>
0.4395

> <Gold.PLP.ligand.clash>
0.0000

> <Gold.PLP.ligand.torsion>
0.2586

> <Gold.PLP.Chemscore.Hbond>
2.2559

> <Gold.PLP.Chemscore.CHOScore>
0.0000

> <Gold.PLP.Chemscore.Metal>
0.0000

> <Gold.Chemscore.Hbonds>
donor molecule, donor type, donor heavy atom, donor atom, acceptor molecule, acceptor atom, score
      L1  H     3    28       P1  7948  1.00
      L1  H     6    29       P1  7948  0.99
      P1  H 10752 10765       L1    17  0.22

> <Gold.PLP.Chemscore.Internal.Correction>
0.1222

> <Gold.Rescore>
     Score         DG    S(hbond)    S(metal)    S(lipo)     H(rot)  DE(clash)    DE(int)     intcor
     15.11     -18.01       1.96        0.00      82.53       1.44       0.31       2.59       ----

> <Gold.Chemscore.Fitness>
15.1063

> <Gold.Chemscore.DG>
-18.0133

> <Gold.Chemscore.ZeroCoef>
-5.4800

> <Gold.Chemscore.Hbond>
1.9646

> <Gold.Chemscore.Metal>
0.0000

> <Gold.Chemscore.Lipo>
82.5325

> <Gold.Chemscore.Internal_Hbond>
0.0000

> <Gold.Chemscore.DEClash>
0.3145

> <Gold.Chemscore.DEInternal>
2.5925

> <Gold.Chemscore.Rot>
1.4394

> <Gold.Chemscore.Internal.Correction>
   9.000000E+99

> <Gold.Chemscore.Hbonds>
donor molecule, donor type, donor heavy atom, donor atom, acceptor molecule, acceptor atom, score
      L1  H     3    28       P1  7948  0.99
      L1  H     6    29       P1  7948  0.88

> <Gold.Chemscore.Hbond.Weighted>
-6.5618

> <Gold.Chemscore.Metal.Weighted>
-0.0000

> <Gold.Chemscore.Lipo.Weighted>
-9.6563

> <Gold.Chemscore.Internal_Hbond.Weighted>
0.0000

> <Gold.Chemscore.DEClash.Weighted>
0.3145

> <Gold.Chemscore.DEInternal.Weighted>
2.5925

> <Gold.Chemscore.Rot.Weighted>
3.6848

> <Gold.Chemscore.Internal.Correction.Weighted>
   9.000000E+99

> <Gold.Protein.RotatedTorsions>
[ 6907 6896 6895 6894 ] final   12.62 input  -60.11 | X-H torsion
[ 7974 7965 7964 7962 ] final   -5.03 input  175.53 | X-H torsion
[ 8008 7997 7996 7995 ] final   26.27 input   59.86 | X-H torsion
[ 10167 10162 10161 10158 ] final   57.43 input  -65.29 | X-H torsion
[ 10718 10713 10712 10709 ] final  152.17 input   66.30 | X-H torsion
[ 10763 10752 10751 10750 ] final -159.19 input  -60.55 | X-H torsion
[ 11005 11000 10999 10996 ] final -177.01 input  -57.11 | X-H torsion

> <Gold.Protein.ActiveResidues>
 VAL166  LYS551  ARG553  GLY616  TRP617  ASP618  TYR619  PRO620  LYS621  CYS622 
 ASP623  PHE694  ASN695  SER759  ASP760  ASP761  ALA762  ILE779  LEU786  VAL792 
 PHE793  MET794  SER795  GLU796  ALA797  LYS798  CYS799  TRP800  GLU811  SER814 

> <Gold.Protein.RotatedAtoms>
  151.7733  135.0781  160.0362 H   0  0  0  0  0  0  0  0  0  0  0  0  # atno 6907 bound_to 6896
  152.3274  133.5915  159.5794 H   0  0  0  0  0  0  0  0  0  0  0  0  # atno 6908 bound_to 6896
  150.7403  133.9836  159.3626 H   0  0  0  0  0  0  0  0  0  0  0  0  # atno 6909 bound_to 6896
  146.2361  140.1959  142.8333 H   0  0  0  0  0  0  0  0  0  0  0  0  # atno 7974 bound_to 7965
  155.0247  140.3151  155.4780 H   0  0  0  0  0  0  0  0  0  0  0  0  # atno 8008 bound_to 7997
  156.2885  140.2191  156.5309 H   0  0  0  0  0  0  0  0  0  0  0  0  # atno 8009 bound_to 7997
  154.7421  140.0473  157.0808 H   0  0  0  0  0  0  0  0  0  0  0  0  # atno 8010 bound_to 7997
  140.1981  144.4016  150.6541 H   0  0  0  0  0  0  0  0  0  0  0  0  # atno 10167 bound_to 10162
  157.2613  131.0798  151.1664 H   0  0  0  0  0  0  0  0  0  0  0  0  # atno 10718 bound_to 10713
  154.7495  135.3089  154.8583 H   0  0  0  0  0  0  0  0  0  0  0  0  # atno 10763 bound_to 10752
  153.9375  135.6778  153.4749 H   0  0  0  0  0  0  0  0  0  0  0  0  # atno 10764 bound_to 10752
  153.1091  135.4875  154.8931 H   0  0  0  0  0  0  0  0  0  0  0  0  # atno 10765 bound_to 10752
  140.4457  134.6390  157.4778 H   0  0  0  0  0  0  0  0  0  0  0  0  # atno 11005 bound_to 11000
  144.9820  140.8468  143.5391 LP  0  0  0  0  0  0  0  0  0  0  0  0  # atno 17320 bound_to 7965
  145.1954  139.2279  143.5221 LP  0  0  0  0  0  0  0  0  0  0  0  0  # atno 17321 bound_to 7965
  140.6409  143.2203  151.6291 LP  0  0  0  0  0  0  0  0  0  0  0  0  # atno 17342 bound_to 10162
  139.5228  144.3151  152.0959 LP  0  0  0  0  0  0  0  0  0  0  0  0  # atno 17343 bound_to 10162
  157.3172  130.6919  149.6249 LP  0  0  0  0  0  0  0  0  0  0  0  0  # atno 17370 bound_to 10713
  155.9664  130.4346  150.5055 LP  0  0  0  0  0  0  0  0  0  0  0  0  # atno 17371 bound_to 10713
  140.0040  134.6792  155.9485 LP  0  0  0  0  0  0  0  0  0  0  0  0  # atno 17394 bound_to 11000
  141.1686  133.6537  156.4569 LP  0  0  0  0  0  0  0  0  0  0  0  0  # atno 17395 bound_to 11000

$$$$
