AV-unprocessed.smi:845|AV-procd|sdf|3931|dock6
  -GOLD-   22720 1393D 1   1.00000     0.00000
 Structure written by MMmdl.
 42 43  0  0  0  0  0  0  0  0  3 V2000
  149.5925  136.0875  157.5133 C   0  0  0  0  0  0  0  0  0  0  0  0
  148.3272  136.1215  156.6384 C   0  0  0  0  0  0  0  0  0  0  0  0
  147.2887  135.1056  157.1454 C   0  0  0  0  0  0  0  0  0  0  0  0
  148.6678  136.0020  155.1242 C   0  0  2  0  0  0  0  0  0  0  0  0
  149.3136  134.6567  154.6971 C   0  0  0  0  0  0  0  0  0  0  0  0
  148.5330  133.9719  153.6698 N   0  0  0  0  0  0  0  0  0  0  0  0
  148.0898  132.7071  153.7116 C   0  0  0  0  0  0  0  0  0  0  0  0
  148.3536  131.9897  154.6792 O   0  0  0  0  0  0  0  0  0  0  0  0
  147.3590  132.3560  152.6301 N   0  5  0  0  0  0  0  0  0  0  0  0
  146.8227  131.1273  152.5533 C   0  0  0  0  0  0  0  0  0  0  0  0
  147.1412  130.1384  153.3968 N   0  0  0  0  0  0  0  0  0  0  0  0
  146.4614  128.9471  153.1371 C   0  0  0  0  0  0  0  0  0  0  0  0
  145.5992  129.0333  152.0762 C   0  0  0  0  0  0  0  0  0  0  0  0
  145.6150  130.6231  151.3679 S   0  0  0  0  0  0  0  0  0  0  0  0
  149.4188  137.2051  154.6460 N   0  3  0  0  0  0  0  0  0  0  0  0
  148.8165  138.5310  154.9461 C   0  0  0  0  0  0  0  0  0  0  0  0
  149.6112  139.6408  154.2404 C   0  0  0  0  0  0  0  0  0  0  0  0
  150.9662  139.5957  154.6713 O   0  0  0  0  0  0  0  0  0  0  0  0
  151.5911  138.3611  154.3414 C   0  0  0  0  0  0  0  0  0  0  0  0
  150.8523  137.1982  155.0264 C   0  0  0  0  0  0  0  0  0  0  0  0
  150.0934  135.1207  157.4612 H   0  0  0  0  0  0  0  0  0  0  0  0
  149.3481  136.2753  158.5593 H   0  0  0  0  0  0  0  0  0  0  0  0
  150.3071  136.8511  157.2046 H   0  0  0  0  0  0  0  0  0  0  0  0
  147.8941  137.1088  156.7981 H   0  0  0  0  0  0  0  0  0  0  0  0
  147.6899  134.0925  157.1595 H   0  0  0  0  0  0  0  0  0  0  0  0
  146.3886  135.1050  156.5322 H   0  0  0  0  0  0  0  0  0  0  0  0
  146.9828  135.3446  158.1643 H   0  0  0  0  0  0  0  0  0  0  0  0
  147.6972  136.0166  154.6253 H   0  0  0  0  0  0  0  0  0  0  0  0
  150.2996  134.8446  154.2711 H   0  0  0  0  0  0  0  0  0  0  0  0
  149.4757  134.0009  155.5529 H   0  0  0  0  0  0  0  0  0  0  0  0
  148.2904  134.5111  152.8515 H   0  0  0  0  0  0  0  0  0  0  0  0
  146.6524  128.0854  153.7595 H   0  0  0  0  0  0  0  0  0  0  0  0
  144.9588  128.2646  151.6711 H   0  0  0  0  0  0  0  0  0  0  0  0
  147.7763  138.5677  154.6267 H   0  0  0  0  0  0  0  0  0  0  0  0
  148.8277  138.7173  156.0208 H   0  0  0  0  0  0  0  0  0  0  0  0
  149.5542  139.5341  153.1559 H   0  0  0  0  0  0  0  0  0  0  0  0
  149.1942  140.6171  154.4880 H   0  0  0  0  0  0  0  0  0  0  0  0
  151.6048  138.2274  153.2587 H   0  0  0  0  0  0  0  0  0  0  0  0
  152.6299  138.3920  154.6707 H   0  0  0  0  0  0  0  0  0  0  0  0
  150.9447  137.2758  156.1109 H   0  0  0  0  0  0  0  0  0  0  0  0
  151.3157  136.2565  154.7293 H   0  0  0  0  0  0  0  0  0  0  0  0
  149.4164  137.1221  153.6395 H   0  0  0  0  0  0  0  0  0  0  0  0
  1  2  1  0  0  0  0
  1 21  1  0  0  0  0
  1 22  1  0  0  0  0
  1 23  1  0  0  0  0
  2  3  1  0  0  0  0
  2  4  1  0  0  0  0
  2 24  1  0  0  0  0
  3 25  1  0  0  0  0
  3 26  1  0  0  0  0
  3 27  1  0  0  0  0
  4  5  1  0  0  0  0
  4 15  1  0  0  0  0
  4 28  1  0  0  0  0
  5  6  1  0  0  0  0
  5 29  1  0  0  0  0
  5 30  1  0  0  0  0
  6  7  1  0  0  0  0
  6 31  1  0  0  0  0
  7  8  2  0  0  0  0
  7  9  1  0  0  0  0
  9 10  1  0  0  0  0
 10 14  1  0  0  0  0
 10 11  2  0  0  0  0
 11 12  1  0  0  0  0
 12 13  2  0  0  0  0
 12 32  1  0  0  0  0
 13 14  1  0  0  0  0
 13 33  1  0  0  0  0
 15 20  1  0  0  0  0
 15 16  1  0  0  0  0
 15 42  1  0  0  0  0
 16 17  1  0  0  0  0
 16 34  1  0  0  0  0
 16 35  1  0  0  0  0
 17 18  1  0  0  0  0
 17 36  1  0  0  0  0
 17 37  1  0  0  0  0
 18 19  1  0  0  0  0
 19 20  1  0  0  0  0
 19 38  1  0  0  0  0
 19 39  1  0  0  0  0
 20 40  1  0  0  0  0
 20 41  1  0  0  0  0
M  CHG  1   9  -1
M  CHG  1  15   1
M  END
> <s_m_source_file>
AV-unprocessed.smi

> <i_m_source_file_index>
845

> <i_lp_mmshare_version>
43012

> <i_f3d_flags>
0

> <s_epik_input>
W0NIMl0xW0NIMl1PW0NIMl1bQ0gyXU4xW0NASF0oW0NIXShbQ0gzXSlbQ0gzXSlbQ0gyXVtOSF1DKD1PKVtOSF1jMm5bY0hdW2NIXXMy

> <s_epik_cmdline>
J2VwaWtfcHl0aG9uJywgJy1waCcsICc3LjAnLCAnLXRuJywgJzgnLCAnLW1hJywgJzIwMCcsICctbWV0YWxfYmluZGluZycsICctaW1hZScsICc8aW5maWxlLm1hZT4nLCAnLW9tYWUnLCAnPG91dGZpbGUubWFlPic=

> <r_lp_tautomer_probability>
0.999

> <r_epik_Ionization_Penalty>
7.97104

> <r_epik_Ionization_Penalty_Charging>
6.58021

> <r_epik_Ionization_Penalty_Neutral>
1.39083

> <r_epik_State_Penalty>
6.69807

> <r_epik_Charging_Adjusted_Penalty>
13.2783

> <i_epik_Tot_Q>
0

> <i_epik_Tot_abs_Q>
2

> <r_epik_Metal_State_Penalty>
2.62985

> <b_epik_Metal_Only>
1

> <s_lp_Force_Field>
OPLS_2005

> <r_lp_Energy>
16.3382

> <b_lp_Chiralities_Consistent>
1

> <s_lp_Variant>
AV-unprocessed.smi:845-5

> <Gold.Version>
5.8.1

> <Gold.Id.Protein>
6NUR|6NUR_protein|mol2

> <Gold.PLP.Fitness>
38.4061

> <Gold.PLP.PLP>
-28.5809

> <Gold.PLP.part.hbond>
-3.0000

> <Gold.PLP.part.metal>
0.0000

> <Gold.PLP.part.buried>
-3.3100

> <Gold.PLP.part.nonpolar>
-21.6298

> <Gold.PLP.part.repulsive>
0.3798

> <Gold.PLP.ligand.clash>
0.0000

> <Gold.PLP.ligand.torsion>
0.9353

> <Gold.PLP.Chemscore.Hbond>
3.7040

> <Gold.PLP.Chemscore.CHOScore>
0.0000

> <Gold.PLP.Chemscore.Metal>
0.0000

> <Gold.Chemscore.Hbonds>
donor molecule, donor type, donor heavy atom, donor atom, acceptor molecule, acceptor atom, score
      L1  H     6    31       P1  7948  0.74
      L1  H    15    42       P1  7948  2.00
      P1  H  7989  7998       L1    18  0.90

> <Gold.PLP.Chemscore.Internal.Correction>
0.5839

> <Gold.Rescore>
     Score         DG    S(hbond)    S(metal)    S(lipo)     H(rot)  DE(clash)    DE(int)     intcor
     10.45     -13.65       1.41        0.00      68.21       1.76       0.43       2.77       ----

> <Gold.Chemscore.Fitness>
10.4515

> <Gold.Chemscore.DG>
-13.6488

> <Gold.Chemscore.ZeroCoef>
-5.4800

> <Gold.Chemscore.Hbond>
1.4071

> <Gold.Chemscore.Metal>
0.0000

> <Gold.Chemscore.Lipo>
68.2094

> <Gold.Chemscore.Internal_Hbond>
0.0000

> <Gold.Chemscore.DEClash>
0.4253

> <Gold.Chemscore.DEInternal>
2.7719

> <Gold.Chemscore.Rot>
1.7623

> <Gold.Chemscore.Internal.Correction>
   9.000000E+99

> <Gold.Chemscore.Hbonds>
donor molecule, donor type, donor heavy atom, donor atom, acceptor molecule, acceptor atom, score
      L1  H     6    31       P1  7948  0.27
      L1  H    15    42       P1  7948  0.88
      P1  H  7989  7998       L1    18  0.10

> <Gold.Chemscore.Hbond.Weighted>
-4.6998

> <Gold.Chemscore.Metal.Weighted>
-0.0000

> <Gold.Chemscore.Lipo.Weighted>
-7.9805

> <Gold.Chemscore.Internal_Hbond.Weighted>
0.0000

> <Gold.Chemscore.DEClash.Weighted>
0.4253

> <Gold.Chemscore.DEInternal.Weighted>
2.7719

> <Gold.Chemscore.Rot.Weighted>
4.5116

> <Gold.Chemscore.Internal.Correction.Weighted>
   9.000000E+99

> <Gold.Protein.RotatedTorsions>
[ 6907 6896 6895 6894 ] final   67.90 input  -60.11 | X-H torsion
[ 7974 7965 7964 7962 ] final  125.10 input  175.53 | X-H torsion
[ 8008 7997 7996 7995 ] final    4.94 input   59.86 | X-H torsion
[ 10167 10162 10161 10158 ] final  151.68 input  -65.29 | X-H torsion
[ 10718 10713 10712 10709 ] final  159.64 input   66.30 | X-H torsion
[ 10763 10752 10751 10750 ] final -176.47 input  -60.55 | X-H torsion
[ 11005 11000 10999 10996 ] final  101.17 input  -57.11 | X-H torsion

> <Gold.Protein.ActiveResidues>
 VAL166  LYS551  ARG553  GLY616  TRP617  ASP618  TYR619  PRO620  LYS621  CYS622 
 ASP623  PHE694  ASN695  SER759  ASP760  ASP761  ALA762  ILE779  LEU786  VAL792 
 PHE793  MET794  SER795  GLU796  ALA797  LYS798  CYS799  TRP800  GLU811  SER814 

> <Gold.Protein.RotatedAtoms>
  152.4584  134.5240  159.9790 H   0  0  0  0  0  0  0  0  0  0  0  0  # atno 6907 bound_to 6896
  151.5295  133.3446  159.2923 H   0  0  0  0  0  0  0  0  0  0  0  0  # atno 6908 bound_to 6896
  150.8537  134.7899  159.7091 H   0  0  0  0  0  0  0  0  0  0  0  0  # atno 6909 bound_to 6896
  145.0769  139.3687  143.4929 H   0  0  0  0  0  0  0  0  0  0  0  0  # atno 7974 bound_to 7965
  154.7222  140.2714  155.6531 H   0  0  0  0  0  0  0  0  0  0  0  0  # atno 8008 bound_to 7997
  156.2827  140.2732  156.1822 H   0  0  0  0  0  0  0  0  0  0  0  0  # atno 8009 bound_to 7997
  155.0492  140.0371  157.2527 H   0  0  0  0  0  0  0  0  0  0  0  0  # atno 8010 bound_to 7997
  139.4838  144.5421  151.7547 H   0  0  0  0  0  0  0  0  0  0  0  0  # atno 10167 bound_to 10162
  157.1615  131.0588  151.2230 H   0  0  0  0  0  0  0  0  0  0  0  0  # atno 10718 bound_to 10713
  154.5720  135.2829  155.0818 H   0  0  0  0  0  0  0  0  0  0  0  0  # atno 10763 bound_to 10752
  154.2187  135.6395  153.5141 H   0  0  0  0  0  0  0  0  0  0  0  0  # atno 10764 bound_to 10752
  153.0060  135.5509  154.6346 H   0  0  0  0  0  0  0  0  0  0  0  0  # atno 10765 bound_to 10752
  139.8772  134.9171  156.4866 H   0  0  0  0  0  0  0  0  0  0  0  0  # atno 11005 bound_to 11000
  146.3530  140.0540  142.8634 LP  0  0  0  0  0  0  0  0  0  0  0  0  # atno 17320 bound_to 7965
  145.1225  140.9471  143.4592 LP  0  0  0  0  0  0  0  0  0  0  0  0  # atno 17321 bound_to 7965
  140.4962  144.1237  150.5960 LP  0  0  0  0  0  0  0  0  0  0  0  0  # atno 17342 bound_to 10162
  140.4115  143.2654  151.9827 LP  0  0  0  0  0  0  0  0  0  0  0  0  # atno 17343 bound_to 10162
  157.4128  130.7394  149.6852 LP  0  0  0  0  0  0  0  0  0  0  0  0  # atno 17370 bound_to 10713
  155.9753  130.4091  150.3859 LP  0  0  0  0  0  0  0  0  0  0  0  0  # atno 17371 bound_to 10713
  140.8689  133.8003  155.9343 LP  0  0  0  0  0  0  0  0  0  0  0  0  # atno 17394 bound_to 11000
  140.8973  134.2422  157.5061 LP  0  0  0  0  0  0  0  0  0  0  0  0  # atno 17395 bound_to 11000

$$$$
