AV-unprocessed.smi:1929|AV-procd|sdf|7808|dock4
  -GOLD-   22720 9553D 1   1.00000     0.00000
 Structure written by MMmdl.
 43 44  0  0  0  0  0  0  0  0  4 V2000
  149.0435  132.0558  153.8280 C   0  0  0  0  0  0  0  0  0  0  0  0
  148.5909  133.3385  154.3529 N   0  5  0  0  0  0  0  0  0  0  0  0
  149.3811  134.1732  155.0802 C   0  0  0  0  0  0  0  0  0  0  0  0
  150.5323  134.0283  155.5048 O   0  0  0  0  0  0  0  0  0  0  0  0
  148.6470  135.4784  155.4089 C   0  0  0  0  0  0  0  0  0  0  0  0
  149.3047  136.6289  154.7391 N   0  3  2  0  0  0  0  0  0  0  0  0
  150.7073  136.8472  155.1870 C   0  0  0  0  0  0  0  0  0  0  0  0
  151.3800  137.9736  154.3833 C   0  0  0  0  0  0  0  0  0  0  0  0
  150.5820  139.2898  154.4591 C   0  0  2  0  0  0  0  0  0  0  0  0
  150.6416  139.8841  155.7949 N   0  0  0  0  0  0  0  0  0  0  0  0
  151.7477  139.9907  156.5458 C   0  0  0  0  0  0  0  0  0  0  0  0
  152.8569  139.6074  156.1755 O   0  0  0  0  0  0  0  0  0  0  0  0
  151.4749  140.5403  157.7421 N   0  0  0  0  0  0  0  0  0  0  0  0
  152.3598  140.7712  158.8305 C   0  0  0  0  0  0  0  0  0  0  0  0
  152.2106  141.9782  159.5492 C   0  0  0  0  0  0  0  0  0  0  0  0
  153.0718  142.2556  160.6305 C   0  0  0  0  0  0  0  0  0  0  0  0
  154.0381  141.3734  160.9637 N   0  3  0  0  0  0  0  0  0  0  0  0
  154.2295  140.2144  160.2978 C   0  0  0  0  0  0  0  0  0  0  0  0
  153.3984  139.8822  159.2085 C   0  0  0  0  0  0  0  0  0  0  0  0
  149.1230  139.0271  154.0485 C   0  0  0  0  0  0  0  0  0  0  0  0
  148.4952  137.8697  154.8471 C   0  0  0  0  0  0  0  0  0  0  0  0
  148.2279  131.4944  153.3725 H   0  0  0  0  0  0  0  0  0  0  0  0
  149.4659  131.4131  154.6013 H   0  0  0  0  0  0  0  0  0  0  0  0
  149.8077  132.1695  153.0591 H   0  0  0  0  0  0  0  0  0  0  0  0
  147.6274  135.3679  155.0373 H   0  0  0  0  0  0  0  0  0  0  0  0
  148.5643  135.6587  156.4831 H   0  0  0  0  0  0  0  0  0  0  0  0
  150.7186  137.0825  156.2524 H   0  0  0  0  0  0  0  0  0  0  0  0
  151.2921  135.9357  155.0634 H   0  0  0  0  0  0  0  0  0  0  0  0
  152.4028  138.1211  154.7315 H   0  0  0  0  0  0  0  0  0  0  0  0
  151.4621  137.6647  153.3404 H   0  0  0  0  0  0  0  0  0  0  0  0
  151.0095  140.0040  153.7530 H   0  0  0  0  0  0  0  0  0  0  0  0
  149.7728  140.2274  156.1779 H   0  0  0  0  0  0  0  0  0  0  0  0
  150.5025  140.7401  157.9256 H   0  0  0  0  0  0  0  0  0  0  0  0
  151.4382  142.6852  159.2825 H   0  0  0  0  0  0  0  0  0  0  0  0
  153.0177  143.1503  161.2334 H   0  0  0  0  0  0  0  0  0  0  0  0
  155.0396  139.5929  160.6504 H   0  0  0  0  0  0  0  0  0  0  0  0
  153.5822  138.9593  158.6800 H   0  0  0  0  0  0  0  0  0  0  0  0
  148.5264  139.9323  154.1684 H   0  0  0  0  0  0  0  0  0  0  0  0
  149.0901  138.7825  152.9858 H   0  0  0  0  0  0  0  0  0  0  0  0
  147.4886  137.6837  154.4703 H   0  0  0  0  0  0  0  0  0  0  0  0
  148.3916  138.1454  155.8976 H   0  0  0  0  0  0  0  0  0  0  0  0
  149.3426  136.3932  153.7575 H   0  0  0  0  0  0  0  0  0  0  0  0
  154.6522  141.5936  161.7486 H   0  0  0  0  0  0  0  0  0  0  0  0
  1  2  1  0  0  0  0
  1 22  1  0  0  0  0
  1 23  1  0  0  0  0
  1 24  1  0  0  0  0
  2  3  1  0  0  0  0
  3  4  2  0  0  0  0
  3  5  1  0  0  0  0
  5  6  1  0  0  0  0
  5 25  1  0  0  0  0
  5 26  1  0  0  0  0
  6 21  1  0  0  0  0
  6  7  1  0  0  0  0
  6 42  1  0  0  0  0
  7  8  1  0  0  0  0
  7 27  1  0  0  0  0
  7 28  1  0  0  0  0
  8  9  1  0  0  0  0
  8 29  1  0  0  0  0
  8 30  1  0  0  0  0
  9 10  1  0  0  0  0
  9 20  1  0  0  0  0
  9 31  1  0  0  0  0
 10 11  1  0  0  0  0
 10 32  1  0  0  0  0
 11 12  2  0  0  0  0
 11 13  1  0  0  0  0
 13 14  1  0  0  0  0
 13 33  1  0  0  0  0
 14 19  1  0  0  0  0
 14 15  2  0  0  0  0
 15 16  1  0  0  0  0
 15 34  1  0  0  0  0
 16 17  2  0  0  0  0
 16 35  1  0  0  0  0
 17 18  1  0  0  0  0
 17 43  1  0  0  0  0
 18 19  2  0  0  0  0
 18 36  1  0  0  0  0
 19 37  1  0  0  0  0
 20 21  1  0  0  0  0
 20 38  1  0  0  0  0
 20 39  1  0  0  0  0
 21 40  1  0  0  0  0
 21 41  1  0  0  0  0
M  CHG  1   2  -1
M  CHG  1   6   1
M  CHG  1  17   1
M  END
> <s_m_source_file>
AV-unprocessed.smi

> <i_m_source_file_index>
1929

> <i_lp_mmshare_version>
43012

> <i_f3d_flags>
0

> <s_epik_input>
W0NIM11bTkhdQyg9TylbQ0gyXU4xW0NIMl1bQ0gyXVtDSF0oW0NIMl1bQ0gyXTEpW05IXUMoPU8pW05IXWMyW2NIXVtjSF1uW2NIXVtjSF0y

> <s_epik_cmdline>
J2VwaWtfcHl0aG9uJywgJy1waCcsICc3LjAnLCAnLXRuJywgJzgnLCAnLW1hJywgJzIwMCcsICctbWV0YWxfYmluZGluZycsICctaW1hZScsICc8aW5maWxlLm1hZT4nLCAnLW9tYWUnLCAnPG91dGZpbGUubWFlPic=

> <r_epik_Ionization_Penalty>
7.25133

> <r_epik_Ionization_Penalty_Charging>
7.25131

> <r_epik_Ionization_Penalty_Neutral>
1.84563e-05

> <r_epik_State_Penalty>
8.093

> <r_epik_Charging_Adjusted_Penalty>
15.3443

> <i_epik_Tot_Q>
1

> <i_epik_Tot_abs_Q>
3

> <r_epik_Metal_State_Penalty>
4.12368

> <b_epik_Metal_Only>
1

> <s_lp_Force_Field>
OPLS_2005

> <r_lp_Energy>
20.7097

> <b_lp_Chiralities_Consistent>
1

> <s_lp_Variant>
AV-unprocessed.smi:1929-10

> <Gold.Version>
5.8.1

> <Gold.Id.Protein>
6NUR|6NUR_protein|mol2

> <Gold.PLP.Fitness>
42.8676

> <Gold.PLP.PLP>
-34.9006

> <Gold.PLP.part.hbond>
-2.0000

> <Gold.PLP.part.metal>
0.0000

> <Gold.PLP.part.buried>
-4.6746

> <Gold.PLP.part.nonpolar>
-28.6596

> <Gold.PLP.part.repulsive>
0.3142

> <Gold.PLP.ligand.clash>
0.0000

> <Gold.PLP.ligand.torsion>
0.5400

> <Gold.PLP.Chemscore.Hbond>
3.0000

> <Gold.PLP.Chemscore.CHOScore>
0.0000

> <Gold.PLP.Chemscore.Metal>
0.0000

> <Gold.Chemscore.Hbonds>
donor molecule, donor type, donor heavy atom, donor atom, acceptor molecule, acceptor atom, score
      L1  H     6    42       P1  7948  2.00
      P1  H  7997  8010       L1    12  1.00

> <Gold.PLP.Chemscore.Internal.Correction>
0.0469

> <Gold.Rescore>
     Score         DG    S(hbond)    S(metal)    S(lipo)     H(rot)  DE(clash)    DE(int)     intcor
     14.24     -17.35       1.97        0.00      81.53       1.66       0.02       3.08       ----

> <Gold.Chemscore.Fitness>
14.2449

> <Gold.Chemscore.DG>
-17.3476

> <Gold.Chemscore.ZeroCoef>
-5.4800

> <Gold.Chemscore.Hbond>
1.9676

> <Gold.Chemscore.Metal>
0.0000

> <Gold.Chemscore.Lipo>
81.5289

> <Gold.Chemscore.Internal_Hbond>
0.0000

> <Gold.Chemscore.DEClash>
0.0193

> <Gold.Chemscore.DEInternal>
3.0834

> <Gold.Chemscore.Rot>
1.6574

> <Gold.Chemscore.Internal.Correction>
   9.000000E+99

> <Gold.Chemscore.Hbonds>
donor molecule, donor type, donor heavy atom, donor atom, acceptor molecule, acceptor atom, score
      L1  H     6    42       P1  7948  0.88
      P1  H  7997  8010       L1    12  0.97

> <Gold.Chemscore.Hbond.Weighted>
-6.5717

> <Gold.Chemscore.Metal.Weighted>
-0.0000

> <Gold.Chemscore.Lipo.Weighted>
-9.5389

> <Gold.Chemscore.Internal_Hbond.Weighted>
0.0000

> <Gold.Chemscore.DEClash.Weighted>
0.0193

> <Gold.Chemscore.DEInternal.Weighted>
3.0834

> <Gold.Chemscore.Rot.Weighted>
4.2430

> <Gold.Chemscore.Internal.Correction.Weighted>
   9.000000E+99

> <Gold.Protein.RotatedTorsions>
[ 6907 6896 6895 6894 ] final  175.07 input  -60.11 | X-H torsion
[ 7974 7965 7964 7962 ] final  -90.99 input  175.53 | X-H torsion
[ 8008 7997 7996 7995 ] final   84.47 input   59.86 | X-H torsion
[ 10167 10162 10161 10158 ] final  175.70 input  -65.29 | X-H torsion
[ 10718 10713 10712 10709 ] final -104.62 input   66.30 | X-H torsion
[ 10763 10752 10751 10750 ] final  146.42 input  -60.55 | X-H torsion
[ 11005 11000 10999 10996 ] final  174.84 input  -57.11 | X-H torsion

> <Gold.Protein.ActiveResidues>
 VAL166  LYS551  ARG553  GLY616  TRP617  ASP618  TYR619  PRO620  LYS621  CYS622 
 ASP623  PHE694  ASN695  SER759  ASP760  ASP761  ALA762  ILE779  LEU786  VAL792 
 PHE793  MET794  SER795  GLU796  ALA797  LYS798  CYS799  TRP800  GLU811  SER814 

> <Gold.Protein.RotatedAtoms>
  151.7422  133.3322  159.3368 H   0  0  0  0  0  0  0  0  0  0  0  0  # atno 6907 bound_to 6896
  150.7569  134.6268  159.6174 H   0  0  0  0  0  0  0  0  0  0  0  0  # atno 6908 bound_to 6896
  152.3523  134.6990  160.0284 H   0  0  0  0  0  0  0  0  0  0  0  0  # atno 6909 bound_to 6896
  145.4191  140.9550  143.2191 H   0  0  0  0  0  0  0  0  0  0  0  0  # atno 7974 bound_to 7965
  155.9375  140.3410  155.6300 H   0  0  0  0  0  0  0  0  0  0  0  0  # atno 8008 bound_to 7997
  155.7081  140.0768  157.2401 H   0  0  0  0  0  0  0  0  0  0  0  0  # atno 8009 bound_to 7997
  154.4096  140.1628  156.2253 H   0  0  0  0  0  0  0  0  0  0  0  0  # atno 8010 bound_to 7997
  139.5187  144.3001  152.0387 H   0  0  0  0  0  0  0  0  0  0  0  0  # atno 10167 bound_to 10162
  156.0312  130.5524  150.7423 H   0  0  0  0  0  0  0  0  0  0  0  0  # atno 10718 bound_to 10713
  154.0216  135.2905  155.3380 H   0  0  0  0  0  0  0  0  0  0  0  0  # atno 10763 bound_to 10752
  154.7042  135.5176  153.8574 H   0  0  0  0  0  0  0  0  0  0  0  0  # atno 10764 bound_to 10752
  153.0678  135.6637  154.0438 H   0  0  0  0  0  0  0  0  0  0  0  0  # atno 10765 bound_to 10752
  140.3557  134.7156  157.4298 H   0  0  0  0  0  0  0  0  0  0  0  0  # atno 11005 bound_to 11000
  144.8257  139.5714  143.6966 LP  0  0  0  0  0  0  0  0  0  0  0  0  # atno 17320 bound_to 7965
  146.2666  139.6533  142.9325 LP  0  0  0  0  0  0  0  0  0  0  0  0  # atno 17321 bound_to 7965
  140.2448  144.4231  150.6245 LP  0  0  0  0  0  0  0  0  0  0  0  0  # atno 17342 bound_to 10162
  140.6265  143.2182  151.6585 LP  0  0  0  0  0  0  0  0  0  0  0  0  # atno 17343 bound_to 10162
  157.4988  131.0917  151.0339 LP  0  0  0  0  0  0  0  0  0  0  0  0  # atno 17370 bound_to 10713
  157.0725  130.5870  149.5405 LP  0  0  0  0  0  0  0  0  0  0  0  0  # atno 17371 bound_to 10713
  140.0667  134.5920  155.8687 LP  0  0  0  0  0  0  0  0  0  0  0  0  # atno 17394 bound_to 11000
  141.1999  133.6609  156.5868 LP  0  0  0  0  0  0  0  0  0  0  0  0  # atno 17395 bound_to 11000

$$$$
