AV-unprocessed.smi:2849|AV-procd|sdf|10959|dock10
  -GOLD-   2272015413D 1   1.00000     0.00000
 Structure written by MMmdl.
 55 58  0  0  0  0  0  0  0  0  2 V2000
  146.9194  133.7492  151.3410 C   0  0  0  0  0  0  0  0  0  0  0  0
  146.4707  135.0025  151.9931 N   0  3  2  0  0  0  0  0  0  0  0  0
  145.6477  134.8119  153.2125 C   0  0  2  0  0  0  0  0  0  0  0  0
  144.2489  134.2432  152.8639 C   0  0  0  0  0  0  0  0  0  0  0  0
  143.5019  135.0416  151.7790 C   0  0  0  0  0  0  0  0  0  0  0  0
  144.4260  135.4771  150.6254 C   0  0  0  0  0  0  0  0  0  0  0  0
  145.8192  135.9783  151.0858 C   0  0  1  0  0  0  0  0  0  0  0  0
  145.8178  137.3672  151.7657 C   0  0  0  0  0  0  0  0  0  0  0  0
  145.2162  137.3812  153.1912 C   0  0  2  0  0  0  0  0  0  0  0  0
  145.6403  138.5994  153.8789 N   0  0  0  0  0  0  0  0  0  0  0  0
  146.8988  138.8829  154.2463 C   0  0  0  0  0  0  0  0  0  0  0  0
  147.8498  138.1339  154.0272 O   0  0  0  0  0  0  0  0  0  0  0  0
  146.9623  140.0697  154.8748 N   0  0  0  0  0  0  0  0  0  0  0  0
  148.0819  140.7260  155.4581 C   0  0  0  0  0  0  0  0  0  0  0  0
  149.3845  140.7593  154.9058 C   0  0  0  0  0  0  0  0  0  0  0  0
  150.4012  141.4487  155.5945 C   0  0  0  0  0  0  0  0  0  0  0  0
  150.0937  142.0955  156.8146 C   0  0  0  0  0  0  0  0  0  0  0  0
  151.0840  142.7849  157.5415 N   0  0  0  0  0  0  0  0  0  0  0  0
  151.4026  142.4553  158.9217 C   0  0  0  0  0  0  0  0  0  0  0  0
  152.4586  143.4818  159.3280 C   0  0  0  0  0  0  0  0  0  0  0  0
  152.0716  144.7190  158.5166 C   0  0  0  0  0  0  0  0  0  0  0  0
  151.4782  144.1496  157.2224 C   0  0  0  0  0  0  0  0  0  0  0  0
  148.8461  142.0672  157.3391 N   0  0  0  0  0  0  0  0  0  0  0  0
  147.8758  141.4052  156.6758 C   0  0  0  0  0  0  0  0  0  0  0  0
  145.6276  136.1338  154.0150 C   0  0  0  0  0  0  0  0  0  0  0  0
  146.0879  133.1650  150.9482 H   0  0  0  0  0  0  0  0  0  0  0  0
  147.4641  133.1256  152.0505 H   0  0  0  0  0  0  0  0  0  0  0  0
  147.5942  133.9726  150.5145 H   0  0  0  0  0  0  0  0  0  0  0  0
  146.1494  134.0749  153.8415 H   0  0  0  0  0  0  0  0  0  0  0  0
  144.3631  133.2157  152.5182 H   0  0  0  0  0  0  0  0  0  0  0  0
  143.6351  134.1782  153.7628 H   0  0  0  0  0  0  0  0  0  0  0  0
  142.6858  134.4373  151.3817 H   0  0  0  0  0  0  0  0  0  0  0  0
  143.0090  135.9052  152.2172 H   0  0  0  0  0  0  0  0  0  0  0  0
  144.5627  134.6272  149.9560 H   0  0  0  0  0  0  0  0  0  0  0  0
  143.9310  136.2407  150.0246 H   0  0  0  0  0  0  0  0  0  0  0  0
  146.4411  136.0710  150.1940 H   0  0  0  0  0  0  0  0  0  0  0  0
  146.8547  137.7037  151.8222 H   0  0  0  0  0  0  0  0  0  0  0  0
  145.3053  138.0961  151.1363 H   0  0  0  0  0  0  0  0  0  0  0  0
  144.1327  137.4193  153.1061 H   0  0  0  0  0  0  0  0  0  0  0  0
  144.9206  139.2714  154.1014 H   0  0  0  0  0  0  0  0  0  0  0  0
  146.0822  140.5509  154.9903 H   0  0  0  0  0  0  0  0  0  0  0  0
  149.6334  140.2799  153.9729 H   0  0  0  0  0  0  0  0  0  0  0  0
  151.3985  141.4654  155.1809 H   0  0  0  0  0  0  0  0  0  0  0  0
  150.5070  142.5586  159.5357 H   0  0  0  0  0  0  0  0  0  0  0  0
  151.7742  141.4346  159.0189 H   0  0  0  0  0  0  0  0  0  0  0  0
  152.4815  143.6637  160.4028 H   0  0  0  0  0  0  0  0  0  0  0  0
  153.4471  143.1359  159.0222 H   0  0  0  0  0  0  0  0  0  0  0  0
  151.3053  145.2795  159.0537 H   0  0  0  0  0  0  0  0  0  0  0  0
  152.9119  145.3900  158.3368 H   0  0  0  0  0  0  0  0  0  0  0  0
  152.2280  144.1236  156.4311 H   0  0  0  0  0  0  0  0  0  0  0  0
  150.6368  144.7531  156.8804 H   0  0  0  0  0  0  0  0  0  0  0  0
  146.8999  141.4158  157.1390 H   0  0  0  0  0  0  0  0  0  0  0  0
  144.9845  136.0330  154.8900 H   0  0  0  0  0  0  0  0  0  0  0  0
  146.6336  136.2939  154.4068 H   0  0  0  0  0  0  0  0  0  0  0  0
  147.3226  135.4458  152.3056 H   0  0  0  0  0  0  0  0  0  0  0  0
  1  2  1  0  0  0  0
  1 26  1  0  0  0  0
  1 27  1  0  0  0  0
  1 28  1  0  0  0  0
  2  7  1  0  0  0  0
  2  3  1  0  0  0  0
  2 55  1  0  0  0  0
  3 25  1  0  0  0  0
  3  4  1  0  0  0  0
  3 29  1  0  0  0  0
  4  5  1  0  0  0  0
  4 30  1  0  0  0  0
  4 31  1  0  0  0  0
  5  6  1  0  0  0  0
  5 32  1  0  0  0  0
  5 33  1  0  0  0  0
  6  7  1  0  0  0  0
  6 34  1  0  0  0  0
  6 35  1  0  0  0  0
  7  8  1  0  0  0  0
  7 36  1  0  0  0  0
  8  9  1  0  0  0  0
  8 37  1  0  0  0  0
  8 38  1  0  0  0  0
  9 10  1  0  0  0  0
  9 25  1  0  0  0  0
  9 39  1  0  0  0  0
 10 11  1  0  0  0  0
 10 40  1  0  0  0  0
 11 12  2  0  0  0  0
 11 13  1  0  0  0  0
 13 14  1  0  0  0  0
 13 41  1  0  0  0  0
 14 24  1  0  0  0  0
 14 15  2  0  0  0  0
 15 16  1  0  0  0  0
 15 42  1  0  0  0  0
 16 17  2  0  0  0  0
 16 43  1  0  0  0  0
 17 18  1  0  0  0  0
 17 23  1  0  0  0  0
 18 22  1  0  0  0  0
 18 19  1  0  0  0  0
 19 20  1  0  0  0  0
 19 44  1  0  0  0  0
 19 45  1  0  0  0  0
 20 21  1  0  0  0  0
 20 46  1  0  0  0  0
 20 47  1  0  0  0  0
 21 22  1  0  0  0  0
 21 48  1  0  0  0  0
 21 49  1  0  0  0  0
 22 50  1  0  0  0  0
 22 51  1  0  0  0  0
 23 24  2  0  0  0  0
 24 52  1  0  0  0  0
 25 53  1  0  0  0  0
 25 54  1  0  0  0  0
M  CHG  1   2   1
M  END
> <s_m_source_file>
AV-unprocessed.smi

> <i_m_source_file_index>
2849

> <i_lp_mmshare_version>
43012

> <i_f3d_flags>
0

> <s_epik_input>
W0NIMl0xW0NIMl1bQ0gyXVtDQEhdKE4oW0NIM10pW0NIXTEyKVtDSDJdW0NASF0oW0NIMl0yKVtOSF1DKD1PKVtOSF1jM1tjSF1bY0hdYyhuW2NIXTMpTjRbQ0gyXVtDSDJdW0NIMl1bQ0gyXTQ=

> <s_epik_cmdline>
J2VwaWtfcHl0aG9uJywgJy1waCcsICc3LjAnLCAnLXRuJywgJzgnLCAnLW1hJywgJzIwMCcsICctbWV0YWxfYmluZGluZycsICctaW1hZScsICc8aW5maWxlLm1hZT4nLCAnLW9tYWUnLCAnPG91dGZpbGUubWFlPic=

> <r_lp_tautomer_probability>
1

> <r_epik_Ionization_Penalty>
0.07954

> <r_epik_Ionization_Penalty_Charging>
0.00089841

> <r_epik_Ionization_Penalty_Neutral>
0.0786416

> <r_epik_State_Penalty>
0.0689917

> <r_epik_Charging_Adjusted_Penalty>
0.0698901

> <i_epik_Tot_Q>
1

> <i_epik_Tot_abs_Q>
1

> <r_epik_Metal_State_Penalty>
0.060891

> <b_epik_Metal_Only>
0

> <s_lp_Force_Field>
OPLS_2005

> <r_lp_Energy>
61.678

> <b_lp_Chiralities_Consistent>
1

> <s_lp_Variant>
AV-unprocessed.smi:2849-3

> <Gold.Version>
5.8.1

> <Gold.Id.Protein>
6NUR|6NUR_protein|mol2

> <Gold.PLP.Fitness>
43.8121

> <Gold.PLP.PLP>
-40.8346

> <Gold.PLP.part.hbond>
-2.0000

> <Gold.PLP.part.metal>
0.0000

> <Gold.PLP.part.buried>
-0.6630

> <Gold.PLP.part.nonpolar>
-38.0176

> <Gold.PLP.part.repulsive>
0.9892

> <Gold.PLP.ligand.clash>
0.0000

> <Gold.PLP.ligand.torsion>
1.5969

> <Gold.PLP.Chemscore.Hbond>
2.0073

> <Gold.PLP.Chemscore.CHOScore>
0.0000

> <Gold.PLP.Chemscore.Metal>
0.0000

> <Gold.Chemscore.Hbonds>
donor molecule, donor type, donor heavy atom, donor atom, acceptor molecule, acceptor atom, score
      L1  H     2    55       P1  7948  1.86
      L1  H    10    40       P1 10175  0.08

> <Gold.PLP.Chemscore.Internal.Correction>
0.1494

> <Gold.Rescore>
     Score         DG    S(hbond)    S(metal)    S(lipo)     H(rot)  DE(clash)    DE(int)     intcor
     17.20     -21.00       1.45        0.00     113.17       1.00       1.20       2.60       ----

> <Gold.Chemscore.Fitness>
17.2033

> <Gold.Chemscore.DG>
-21.0011

> <Gold.Chemscore.ZeroCoef>
-5.4800

> <Gold.Chemscore.Hbond>
1.4493

> <Gold.Chemscore.Metal>
0.0000

> <Gold.Chemscore.Lipo>
113.1671

> <Gold.Chemscore.Internal_Hbond>
0.0000

> <Gold.Chemscore.DEClash>
1.2018

> <Gold.Chemscore.DEInternal>
2.5960

> <Gold.Chemscore.Rot>
1.0000

> <Gold.Chemscore.Internal.Correction>
   9.000000E+99

> <Gold.Chemscore.Hbonds>
donor molecule, donor type, donor heavy atom, donor atom, acceptor molecule, acceptor atom, score
      L1  H     2    55       P1  7948  0.91
      L1  H    10    40       P1 10175  0.08

> <Gold.Chemscore.Hbond.Weighted>
-4.8405

> <Gold.Chemscore.Metal.Weighted>
-0.0000

> <Gold.Chemscore.Lipo.Weighted>
-13.2405

> <Gold.Chemscore.Internal_Hbond.Weighted>
0.0000

> <Gold.Chemscore.DEClash.Weighted>
1.2018

> <Gold.Chemscore.DEInternal.Weighted>
2.5960

> <Gold.Chemscore.Rot.Weighted>
2.5600

> <Gold.Chemscore.Internal.Correction.Weighted>
   9.000000E+99

> <Gold.Protein.RotatedTorsions>
[ 6907 6896 6895 6894 ] final    0.14 input  -60.11 | X-H torsion
[ 7974 7965 7964 7962 ] final  -98.32 input  175.53 | X-H torsion
[ 8008 7997 7996 7995 ] final  -78.42 input   59.86 | X-H torsion
[ 10167 10162 10161 10158 ] final  -65.93 input  -65.29 | X-H torsion
[ 10718 10713 10712 10709 ] final  127.36 input   66.30 | X-H torsion
[ 10763 10752 10751 10750 ] final -172.93 input  -60.55 | X-H torsion
[ 11005 11000 10999 10996 ] final   75.88 input  -57.11 | X-H torsion

> <Gold.Protein.ActiveResidues>
 VAL166  LYS551  ARG553  GLY616  TRP617  ASP618  TYR619  PRO620  LYS621  CYS622 
 ASP623  PHE694  ASN695  SER759  ASP760  ASP761  ALA762  ILE779  LEU786  VAL792 
 PHE793  MET794  SER795  GLU796  ALA797  LYS798  CYS799  TRP800  GLU811  SER814 

> <Gold.Protein.RotatedAtoms>
  151.5717  135.1062  159.9996 H   0  0  0  0  0  0  0  0  0  0  0  0  # atno 6907 bound_to 6896
  152.4398  133.7422  159.6658 H   0  0  0  0  0  0  0  0  0  0  0  0  # atno 6908 bound_to 6896
  150.8301  133.8036  159.3125 H   0  0  0  0  0  0  0  0  0  0  0  0  # atno 6909 bound_to 6896
  145.3221  140.9424  143.2709 H   0  0  0  0  0  0  0  0  0  0  0  0  # atno 7974 bound_to 7965
  154.5688  140.0694  156.8932 H   0  0  0  0  0  0  0  0  0  0  0  0  # atno 8008 bound_to 7997
  155.2674  140.3363  155.4250 H   0  0  0  0  0  0  0  0  0  0  0  0  # atno 8009 bound_to 7997
  156.2101  140.1756  156.7698 H   0  0  0  0  0  0  0  0  0  0  0  0  # atno 8010 bound_to 7997
  140.5694  143.2317  151.6569 H   0  0  0  0  0  0  0  0  0  0  0  0  # atno 10167 bound_to 10162
  157.5340  131.1098  150.8965 H   0  0  0  0  0  0  0  0  0  0  0  0  # atno 10718 bound_to 10713
  154.6136  135.2867  155.0404 H   0  0  0  0  0  0  0  0  0  0  0  0  # atno 10763 bound_to 10752
  154.1625  135.6486  153.4993 H   0  0  0  0  0  0  0  0  0  0  0  0  # atno 10764 bound_to 10752
  153.0205  135.5381  154.6899 H   0  0  0  0  0  0  0  0  0  0  0  0  # atno 10765 bound_to 10752
  139.9324  134.7554  156.1325 H   0  0  0  0  0  0  0  0  0  0  0  0  # atno 11005 bound_to 11000
  144.8931  139.4748  143.6668 LP  0  0  0  0  0  0  0  0  0  0  0  0  # atno 17320 bound_to 7965
  146.3078  139.7641  142.9043 LP  0  0  0  0  0  0  0  0  0  0  0  0  # atno 17321 bound_to 7965
  139.5109  144.3525  152.0638 LP  0  0  0  0  0  0  0  0  0  0  0  0  # atno 17342 bound_to 10162
  140.2661  144.4015  150.6168 LP  0  0  0  0  0  0  0  0  0  0  0  0  # atno 17343 bound_to 10162
  156.9538  130.5429  149.5283 LP  0  0  0  0  0  0  0  0  0  0  0  0  # atno 17370 bound_to 10713
  156.0444  130.5522  150.8846 LP  0  0  0  0  0  0  0  0  0  0  0  0  # atno 17371 bound_to 10713
  141.0919  133.6711  156.2560 LP  0  0  0  0  0  0  0  0  0  0  0  0  # atno 17394 bound_to 11000
  140.6167  134.5403  157.5542 LP  0  0  0  0  0  0  0  0  0  0  0  0  # atno 17395 bound_to 11000

$$$$
