AV-unprocessed.smi:1978|AV-procd|sdf|8014|dock2
  -GOLD-   2272010203D 1   1.00000     0.00000
 Structure written by MMmdl.
 44 45  0  0  0  0  0  0  0  0  3 V2000
  146.9320  133.9347  162.7377 C   0  0  0  0  0  0  0  0  0  0  0  0
  147.3564  134.9212  161.7047 C   0  0  0  0  0  0  0  0  0  0  0  0
  147.7543  134.7931  160.4038 C   0  0  0  0  0  0  0  0  0  0  0  0
  148.0136  136.1339  160.0133 C   0  0  0  0  0  0  0  0  0  0  0  0
  148.4590  136.4308  158.6978 N   0  0  0  0  0  0  0  0  0  0  0  0
  148.4998  135.6263  157.6198 C   0  0  0  0  0  0  0  0  0  0  0  0
  148.0983  134.4590  157.6962 O   0  0  0  0  0  0  0  0  0  0  0  0
  149.0113  136.2567  156.5270 N   0  5  0  0  0  0  0  0  0  0  0  0
  148.4752  136.1297  155.1722 C   0  0  0  0  0  0  0  0  0  0  0  0
  148.3965  134.6281  154.7524 C   0  0  2  0  0  0  0  0  0  0  0  0
  149.8376  134.0324  154.7029 C   0  0  0  0  0  0  0  0  0  0  0  0
  147.6195  134.4762  153.4671 N   0  3  2  0  0  0  0  0  0  0  0  0
  146.2243  135.0243  153.5037 C   0  0  0  0  0  0  0  0  0  0  0  0
  145.6714  135.1992  152.0794 C   0  0  0  0  0  0  0  0  0  0  0  0
  145.7034  133.8801  151.2987 C   0  0  0  0  0  0  0  0  0  0  0  0
  147.1099  133.2633  151.3521 C   0  0  0  0  0  0  0  0  0  0  0  0
  147.6413  133.1342  152.7964 C   0  0  2  0  0  0  0  0  0  0  0  0
  146.8899  132.0324  153.5831 C   0  0  0  0  0  0  0  0  0  0  0  0
  147.7916  137.0020  160.9893 N   0  0  0  0  0  0  0  0  0  0  0  0
  147.3698  136.2295  162.0778 O   0  0  0  0  0  0  0  0  0  0  0  0
  146.9433  132.9211  162.3368 H   0  0  0  0  0  0  0  0  0  0  0  0
  145.9212  134.1499  163.0847 H   0  0  0  0  0  0  0  0  0  0  0  0
  147.6004  133.9657  163.5983 H   0  0  0  0  0  0  0  0  0  0  0  0
  147.8452  133.8855  159.8260 H   0  0  0  0  0  0  0  0  0  0  0  0
  148.7959  137.3710  158.5542 H   0  0  0  0  0  0  0  0  0  0  0  0
  147.4842  136.5784  155.1133 H   0  0  0  0  0  0  0  0  0  0  0  0
  149.0747  136.6722  154.4401 H   0  0  0  0  0  0  0  0  0  0  0  0
  147.8444  134.0741  155.5140 H   0  0  0  0  0  0  0  0  0  0  0  0
  150.3744  134.1543  155.6464 H   0  0  0  0  0  0  0  0  0  0  0  0
  150.4502  134.4920  153.9245 H   0  0  0  0  0  0  0  0  0  0  0  0
  149.8441  132.9600  154.5241 H   0  0  0  0  0  0  0  0  0  0  0  0
  145.5765  134.3751  154.0919 H   0  0  0  0  0  0  0  0  0  0  0  0
  146.1759  135.9947  153.9950 H   0  0  0  0  0  0  0  0  0  0  0  0
  144.6512  135.5823  152.1192 H   0  0  0  0  0  0  0  0  0  0  0  0
  146.2619  135.9495  151.5518 H   0  0  0  0  0  0  0  0  0  0  0  0
  144.9701  133.1878  151.7122 H   0  0  0  0  0  0  0  0  0  0  0  0
  145.4087  134.0512  150.2627 H   0  0  0  0  0  0  0  0  0  0  0  0
  147.1080  132.2895  150.8610 H   0  0  0  0  0  0  0  0  0  0  0  0
  147.7925  133.8901  150.7763 H   0  0  0  0  0  0  0  0  0  0  0  0
  148.6767  132.8155  152.6845 H   0  0  0  0  0  0  0  0  0  0  0  0
  147.0725  131.0545  153.1368 H   0  0  0  0  0  0  0  0  0  0  0  0
  145.8112  132.1808  153.5864 H   0  0  0  0  0  0  0  0  0  0  0  0
  147.1989  131.9736  154.6249 H   0  0  0  0  0  0  0  0  0  0  0  0
  148.1202  135.0766  152.8275 H   0  0  0  0  0  0  0  0  0  0  0  0
  1  2  1  0  0  0  0
  1 21  1  0  0  0  0
  1 22  1  0  0  0  0
  1 23  1  0  0  0  0
  2 20  1  0  0  0  0
  2  3  2  0  0  0  0
  3  4  1  0  0  0  0
  3 24  1  0  0  0  0
  4  5  1  0  0  0  0
  4 19  2  0  0  0  0
  5  6  1  0  0  0  0
  5 25  1  0  0  0  0
  6  7  2  0  0  0  0
  6  8  1  0  0  0  0
  8  9  1  0  0  0  0
  9 10  1  0  0  0  0
  9 26  1  0  0  0  0
  9 27  1  0  0  0  0
 10 11  1  0  0  0  0
 10 12  1  0  0  0  0
 10 28  1  0  0  0  0
 11 29  1  0  0  0  0
 11 30  1  0  0  0  0
 11 31  1  0  0  0  0
 12 17  1  0  0  0  0
 12 13  1  0  0  0  0
 12 44  1  0  0  0  0
 13 14  1  0  0  0  0
 13 32  1  0  0  0  0
 13 33  1  0  0  0  0
 14 15  1  0  0  0  0
 14 34  1  0  0  0  0
 14 35  1  0  0  0  0
 15 16  1  0  0  0  0
 15 36  1  0  0  0  0
 15 37  1  0  0  0  0
 16 17  1  0  0  0  0
 16 38  1  0  0  0  0
 16 39  1  0  0  0  0
 17 18  1  0  0  0  0
 17 40  1  0  0  0  0
 18 41  1  0  0  0  0
 18 42  1  0  0  0  0
 18 43  1  0  0  0  0
 19 20  1  0  0  0  0
M  CHG  1   8  -1
M  CHG  1  12   1
M  END
> <s_m_source_file>
AV-unprocessed.smi

> <i_m_source_file_index>
1978

> <i_lp_mmshare_version>
43012

> <i_f3d_flags>
0

> <s_epik_input>
W0NIM11jMVtjSF1jKG5vMSlbTkhdQyg9TylbTkhdW0NIMl1bQ0BIXShbQ0gzXSlOMltDSDJdW0NIMl1bQ0gyXVtDSDJdW0NASF0yW0NIM10=

> <s_epik_cmdline>
J2VwaWtfcHl0aG9uJywgJy1waCcsICc3LjAnLCAnLXRuJywgJzgnLCAnLW1hJywgJzIwMCcsICctbWV0YWxfYmluZGluZycsICctaW1hZScsICc8aW5maWxlLm1hZT4nLCAnLW9tYWUnLCAnPG91dGZpbGUubWFlPic=

> <r_epik_Ionization_Penalty>
6.7666

> <r_epik_Ionization_Penalty_Charging>
6.7666

> <r_epik_Ionization_Penalty_Neutral>
5.77131e-06

> <r_epik_State_Penalty>
6.79217

> <r_epik_Charging_Adjusted_Penalty>
13.5588

> <i_epik_Tot_Q>
0

> <i_epik_Tot_abs_Q>
2

> <r_epik_Metal_State_Penalty>
2.72569

> <b_epik_Metal_Only>
1

> <s_lp_Force_Field>
OPLS_2005

> <r_lp_Energy>
25.8045

> <b_lp_Chiralities_Consistent>
1

> <s_lp_Variant>
AV-unprocessed.smi:1978-23

> <Gold.Version>
5.8.1

> <Gold.Id.Protein>
6NUR|6NUR_protein|mol2

> <Gold.PLP.Fitness>
38.5057

> <Gold.PLP.PLP>
-27.8861

> <Gold.PLP.part.hbond>
-3.0000

> <Gold.PLP.part.metal>
0.0000

> <Gold.PLP.part.buried>
-4.1841

> <Gold.PLP.part.nonpolar>
-21.8756

> <Gold.PLP.part.repulsive>
0.1345

> <Gold.PLP.ligand.clash>
0.0086

> <Gold.PLP.ligand.torsion>
0.4815

> <Gold.PLP.Chemscore.Hbond>
3.8240

> <Gold.PLP.Chemscore.CHOScore>
0.0000

> <Gold.PLP.Chemscore.Metal>
0.0000

> <Gold.Chemscore.Hbonds>
donor molecule, donor type, donor heavy atom, donor atom, acceptor molecule, acceptor atom, score
      L1  H    12    44       P1  7948  2.00
      P1  H  6931  6943       L1    19  0.99
      P1  H  6934  6947       L1    19  0.70

> <Gold.PLP.Chemscore.Internal.Correction>
0.1191

> <Gold.Rescore>
     Score         DG    S(hbond)    S(metal)    S(lipo)     H(rot)  DE(clash)    DE(int)     intcor
     13.82     -16.97       2.58        0.00      57.86       1.52       0.05       3.11       ----

> <Gold.Chemscore.Fitness>
13.8183

> <Gold.Chemscore.DG>
-16.9723

> <Gold.Chemscore.ZeroCoef>
-5.4800

> <Gold.Chemscore.Hbond>
2.5784

> <Gold.Chemscore.Metal>
0.0000

> <Gold.Chemscore.Lipo>
57.8553

> <Gold.Chemscore.Internal_Hbond>
0.0000

> <Gold.Chemscore.DEClash>
0.0480

> <Gold.Chemscore.DEInternal>
3.1060

> <Gold.Chemscore.Rot>
1.5190

> <Gold.Chemscore.Internal.Correction>
   9.000000E+99

> <Gold.Chemscore.Hbonds>
donor molecule, donor type, donor heavy atom, donor atom, acceptor molecule, acceptor atom, score
      L1  H    12    44       P1  7948  0.94
      P1  H  6931  6943       L1    19  0.23
      P1  H  6934  6947       L1    19  0.67

> <Gold.Chemscore.Hbond.Weighted>
-8.6119

> <Gold.Chemscore.Metal.Weighted>
-0.0000

> <Gold.Chemscore.Lipo.Weighted>
-6.7691

> <Gold.Chemscore.Internal_Hbond.Weighted>
0.0000

> <Gold.Chemscore.DEClash.Weighted>
0.0480

> <Gold.Chemscore.DEInternal.Weighted>
3.1060

> <Gold.Chemscore.Rot.Weighted>
3.8886

> <Gold.Chemscore.Internal.Correction.Weighted>
   9.000000E+99

> <Gold.Protein.RotatedTorsions>
[ 6907 6896 6895 6894 ] final  130.49 input  -60.11 | X-H torsion
[ 7974 7965 7964 7962 ] final  151.87 input  175.53 | X-H torsion
[ 8008 7997 7996 7995 ] final   57.17 input   59.86 | X-H torsion
[ 10167 10162 10161 10158 ] final  -94.78 input  -65.29 | X-H torsion
[ 10718 10713 10712 10709 ] final -110.90 input   66.30 | X-H torsion
[ 10763 10752 10751 10750 ] final  -49.36 input  -60.55 | X-H torsion
[ 11005 11000 10999 10996 ] final  -22.30 input  -57.11 | X-H torsion

> <Gold.Protein.ActiveResidues>
 VAL166  LYS551  ARG553  GLY616  TRP617  ASP618  TYR619  PRO620  LYS621  CYS622 
 ASP623  PHE694  ASN695  SER759  ASP760  ASP761  ALA762  ILE779  LEU786  VAL792 
 PHE793  MET794  SER795  GLU796  ALA797  LYS798  CYS799  TRP800  GLU811  SER814 

> <Gold.Protein.RotatedAtoms>
  152.3521  133.6192  159.5951 H   0  0  0  0  0  0  0  0  0  0  0  0  # atno 6907 bound_to 6896
  150.7544  133.9558  159.3509 H   0  0  0  0  0  0  0  0  0  0  0  0  # atno 6908 bound_to 6896
  151.7409  135.0855  160.0366 H   0  0  0  0  0  0  0  0  0  0  0  0  # atno 6909 bound_to 6896
  144.8262  139.6594  143.6079 H   0  0  0  0  0  0  0  0  0  0  0  0  # atno 7974 bound_to 7965
  155.5295  140.3481  155.4423 H   0  0  0  0  0  0  0  0  0  0  0  0  # atno 8008 bound_to 7997
  156.0728  140.1367  156.9834 H   0  0  0  0  0  0  0  0  0  0  0  0  # atno 8009 bound_to 7997
  154.4537  140.0962  156.6670 H   0  0  0  0  0  0  0  0  0  0  0  0  # atno 8010 bound_to 7997
  140.3109  143.3105  152.0149 H   0  0  0  0  0  0  0  0  0  0  0  0  # atno 10167 bound_to 10162
  156.0616  130.5839  150.8300 H   0  0  0  0  0  0  0  0  0  0  0  0  # atno 10718 bound_to 10713
  154.0928  135.6575  153.4855 H   0  0  0  0  0  0  0  0  0  0  0  0  # atno 10763 bound_to 10752
  153.0315  135.5206  154.7363 H   0  0  0  0  0  0  0  0  0  0  0  0  # atno 10764 bound_to 10752
  154.6492  135.2999  154.9977 H   0  0  0  0  0  0  0  0  0  0  0  0  # atno 10765 bound_to 10752
  140.8643  133.7765  156.0111 H   0  0  0  0  0  0  0  0  0  0  0  0  # atno 11005 bound_to 11000
  146.2567  139.6318  142.9390 LP  0  0  0  0  0  0  0  0  0  0  0  0  # atno 17320 bound_to 7965
  145.4996  141.0438  143.2548 LP  0  0  0  0  0  0  0  0  0  0  0  0  # atno 17321 bound_to 7965
  139.4894  144.6385  151.6926 LP  0  0  0  0  0  0  0  0  0  0  0  0  # atno 17342 bound_to 10162
  140.5569  144.0334  150.6151 LP  0  0  0  0  0  0  0  0  0  0  0  0  # atno 17343 bound_to 10162
  157.5629  131.0946  150.9532 LP  0  0  0  0  0  0  0  0  0  0  0  0  # atno 17370 bound_to 10713
  156.9765  130.5511  149.5293 LP  0  0  0  0  0  0  0  0  0  0  0  0  # atno 17371 bound_to 10713
  140.8646  134.2799  157.5219 LP  0  0  0  0  0  0  0  0  0  0  0  0  # atno 17394 bound_to 11000
  139.8708  134.9536  156.4150 LP  0  0  0  0  0  0  0  0  0  0  0  0  # atno 17395 bound_to 11000

$$$$
