AV-unprocessed.smi:2206|AV-procd|sdf|8943|dock3
  -GOLD-   2272012163D 1   1.00000     0.00000
 Structure written by MMmdl.
 25 26  0  0  0  0  0  0  0  0  3 V2000
  153.1154  138.7327  156.5076 O   0  0  0  0  0  0  0  0  0  0  0  0
  152.5988  137.7347  155.9581 C   0  0  0  0  0  0  0  0  0  0  0  0
  152.5164  136.5916  156.4600 O   0  5  0  0  0  0  0  0  0  0  0  0
  152.0035  137.9283  154.5608 C   0  0  0  0  0  0  0  0  0  0  0  0
  150.8815  138.9251  154.6504 C   0  0  0  0  0  0  0  0  0  0  0  0
  149.6278  138.8148  154.1038 C   0  0  0  0  0  0  0  0  0  0  0  0
  148.6405  140.2015  154.4642 S   0  0  0  0  0  0  0  0  0  0  0  0
  149.9789  140.9042  155.3732 C   0  0  0  0  0  0  0  0  0  0  0  0
  149.9386  142.0950  156.0001 N   0  5  0  0  0  0  0  0  0  0  0  0
  150.4533  142.2836  157.2443 C   0  0  0  0  0  0  0  0  0  0  0  0
  151.0488  141.4042  157.8659 O   0  0  0  0  0  0  0  0  0  0  0  0
  150.2971  143.4960  157.8107 N   0  0  0  0  0  0  0  0  0  0  0  0
  150.7673  143.9019  159.0960 C   0  0  0  0  0  0  0  0  0  0  0  0
  151.6382  145.1373  159.1658 C   0  0  0  0  0  0  0  0  0  0  0  0
  152.2515  143.7789  159.3647 C   0  0  0  0  0  0  0  0  0  0  0  0
  151.0537  140.1070  155.3784 N   0  0  0  0  0  0  0  0  0  0  0  0
  152.7751  138.2763  153.8732 H   0  0  0  0  0  0  0  0  0  0  0  0
  151.6531  136.9672  154.1822 H   0  0  0  0  0  0  0  0  0  0  0  0
  149.2321  138.0068  153.5072 H   0  0  0  0  0  0  0  0  0  0  0  0
  149.8115  144.1956  157.2679 H   0  0  0  0  0  0  0  0  0  0  0  0
  150.1138  143.7278  159.9494 H   0  0  0  0  0  0  0  0  0  0  0  0
  151.8592  145.6563  158.2349 H   0  0  0  0  0  0  0  0  0  0  0  0
  151.5337  145.7750  160.0410 H   0  0  0  0  0  0  0  0  0  0  0  0
  152.5572  143.5073  160.3729 H   0  0  0  0  0  0  0  0  0  0  0  0
  152.8822  143.3915  158.5665 H   0  0  0  0  0  0  0  0  0  0  0  0
  1  2  2  0  0  0  0
  2  3  1  0  0  0  0
  2  4  1  0  0  0  0
  4  5  1  0  0  0  0
  4 17  1  0  0  0  0
  4 18  1  0  0  0  0
  5 16  1  0  0  0  0
  5  6  2  0  0  0  0
  6  7  1  0  0  0  0
  6 19  1  0  0  0  0
  7  8  1  0  0  0  0
  8  9  1  0  0  0  0
  8 16  2  0  0  0  0
  9 10  1  0  0  0  0
 10 11  2  0  0  0  0
 10 12  1  0  0  0  0
 12 13  1  0  0  0  0
 12 20  1  0  0  0  0
 13 15  1  0  0  0  0
 13 14  1  0  0  0  0
 13 21  1  0  0  0  0
 14 15  1  0  0  0  0
 14 22  1  0  0  0  0
 14 23  1  0  0  0  0
 15 24  1  0  0  0  0
 15 25  1  0  0  0  0
M  CHG  1   3  -1
M  CHG  1   9  -1
M  END
> <s_m_source_file>
AV-unprocessed.smi

> <i_m_source_file_index>
2206

> <i_lp_mmshare_version>
43012

> <i_f3d_flags>
0

> <s_epik_input>
Tz1DKFtPSF0pW0NIMl1jMVtjSF1zYyhuMSlbTkhdQyg9TylbTkhdW0NIXTJbQ0gyXVtDSDJdMg==

> <s_epik_cmdline>
J2VwaWtfcHl0aG9uJywgJy1waCcsICc3LjAnLCAnLXRuJywgJzgnLCAnLW1hJywgJzIwMCcsICctbWV0YWxfYmluZGluZycsICctaW1hZScsICc8aW5maWxlLm1hZT4nLCAnLW9tYWUnLCAnPG91dGZpbGUubWFlPic=

> <r_lp_tautomer_probability>
0.999

> <r_epik_Ionization_Penalty>
7.78494

> <r_epik_Ionization_Penalty_Charging>
6.1535

> <r_epik_Ionization_Penalty_Neutral>
1.63144

> <r_epik_State_Penalty>
6.15322

> <r_epik_Charging_Adjusted_Penalty>
12.3067

> <i_epik_Tot_Q>
-2

> <i_epik_Tot_abs_Q>
2

> <r_epik_Metal_State_Penalty>
2.09572

> <b_epik_Metal_Only>
1

> <s_lp_Force_Field>
OPLS_2005

> <r_lp_Energy>
21.0072

> <b_lp_Chiralities_Consistent>
1

> <s_lp_Variant>
AV-unprocessed.smi:2206-2

> <Gold.Version>
5.8.1

> <Gold.Id.Protein>
6NUR|6NUR_protein|mol2

> <Gold.PLP.Fitness>
50.7164

> <Gold.PLP.PLP>
-32.9832

> <Gold.PLP.part.hbond>
-4.0000

> <Gold.PLP.part.metal>
0.0000

> <Gold.PLP.part.buried>
-3.6780

> <Gold.PLP.part.nonpolar>
-27.9624

> <Gold.PLP.part.repulsive>
1.9085

> <Gold.PLP.ligand.clash>
0.0000

> <Gold.PLP.ligand.torsion>
0.5334

> <Gold.PLP.Chemscore.Hbond>
5.2400

> <Gold.PLP.Chemscore.CHOScore>
1.0000

> <Gold.PLP.Chemscore.Metal>
0.0000

> <Gold.Chemscore.Hbonds>
donor molecule, donor type, donor heavy atom, donor atom, acceptor molecule, acceptor atom, score
      L1  H    12    20       P1  8028  1.00
      P1  H  7989  7998       L1    16  0.06
      P1  H  7997  8008       L1     1  2.00
      P1  H 10752 10765       L1     3  2.00
      L1  C     6    19       P1  7948  1.00

> <Gold.PLP.Chemscore.Internal.Correction>
0.0799

> <Gold.Rescore>
     Score         DG    S(hbond)    S(metal)    S(lipo)     H(rot)  DE(clash)    DE(int)     intcor
     11.73     -16.26       2.42        0.00      65.11       1.92       1.05       3.48       ----

> <Gold.Chemscore.Fitness>
11.7288

> <Gold.Chemscore.DG>
-16.2563

> <Gold.Chemscore.ZeroCoef>
-5.4800

> <Gold.Chemscore.Hbond>
2.4212

> <Gold.Chemscore.Metal>
0.0000

> <Gold.Chemscore.Lipo>
65.1067

> <Gold.Chemscore.Internal_Hbond>
0.0000

> <Gold.Chemscore.DEClash>
1.0477

> <Gold.Chemscore.DEInternal>
3.4798

> <Gold.Chemscore.Rot>
1.9249

> <Gold.Chemscore.Internal.Correction>
   9.000000E+99

> <Gold.Chemscore.Hbonds>
donor molecule, donor type, donor heavy atom, donor atom, acceptor molecule, acceptor atom, score
      L1  H    12    20       P1  8028  0.48
      P1  H  7997  8008       L1     1  0.94
      P1  H 10752 10765       L1     3  0.49

> <Gold.Chemscore.Hbond.Weighted>
-8.0867

> <Gold.Chemscore.Metal.Weighted>
-0.0000

> <Gold.Chemscore.Lipo.Weighted>
-7.6175

> <Gold.Chemscore.Internal_Hbond.Weighted>
0.0000

> <Gold.Chemscore.DEClash.Weighted>
1.0477

> <Gold.Chemscore.DEInternal.Weighted>
3.4798

> <Gold.Chemscore.Rot.Weighted>
4.9279

> <Gold.Chemscore.Internal.Correction.Weighted>
   9.000000E+99

> <Gold.Protein.RotatedTorsions>
[ 6907 6896 6895 6894 ] final   69.33 input  -60.11 | X-H torsion
[ 7974 7965 7964 7962 ] final -131.62 input  175.53 | X-H torsion
[ 8008 7997 7996 7995 ] final  -39.06 input   59.86 | X-H torsion
[ 10167 10162 10161 10158 ] final   76.41 input  -65.29 | X-H torsion
[ 10718 10713 10712 10709 ] final   41.73 input   66.30 | X-H torsion
[ 10763 10752 10751 10750 ] final -135.01 input  -60.55 | X-H torsion
[ 11005 11000 10999 10996 ] final  -92.61 input  -57.11 | X-H torsion

> <Gold.Protein.ActiveResidues>
 VAL166  LYS551  ARG553  GLY616  TRP617  ASP618  TYR619  PRO620  LYS621  CYS622 
 ASP623  PHE694  ASN695  SER759  ASP760  ASP761  ALA762  ILE779  LEU786  VAL792 
 PHE793  MET794  SER795  GLU796  ALA797  LYS798  CYS799  TRP800  GLU811  SER814 

> <Gold.Protein.RotatedAtoms>
  152.4679  134.5031  159.9730 H   0  0  0  0  0  0  0  0  0  0  0  0  # atno 6907 bound_to 6896
  151.5064  133.3488  159.2885 H   0  0  0  0  0  0  0  0  0  0  0  0  # atno 6908 bound_to 6896
  150.8673  134.8068  159.7190 H   0  0  0  0  0  0  0  0  0  0  0  0  # atno 6909 bound_to 6896
  144.9362  140.7186  143.4875 H   0  0  0  0  0  0  0  0  0  0  0  0  # atno 7974 bound_to 7965
  154.4028  140.1561  156.2802 H   0  0  0  0  0  0  0  0  0  0  0  0  # atno 8008 bound_to 7997
  155.8876  140.3440  155.5911 H   0  0  0  0  0  0  0  0  0  0  0  0  # atno 8009 bound_to 7997
  155.7595  140.0815  157.2153 H   0  0  0  0  0  0  0  0  0  0  0  0  # atno 8010 bound_to 7997
  139.9926  144.5746  150.7805 H   0  0  0  0  0  0  0  0  0  0  0  0  # atno 10167 bound_to 10162
  157.3969  130.7838  149.7316 H   0  0  0  0  0  0  0  0  0  0  0  0  # atno 10718 bound_to 10713
  154.8710  135.3717  154.4828 H   0  0  0  0  0  0  0  0  0  0  0  0  # atno 10763 bound_to 10752
  153.5480  135.7025  153.5610 H   0  0  0  0  0  0  0  0  0  0  0  0  # atno 10764 bound_to 10752
  153.3741  135.4013  155.1774 H   0  0  0  0  0  0  0  0  0  0  0  0  # atno 10765 bound_to 10752
  141.1518  133.7832  157.0043 H   0  0  0  0  0  0  0  0  0  0  0  0  # atno 11005 bound_to 11000
  145.3063  139.1833  143.4663 LP  0  0  0  0  0  0  0  0  0  0  0  0  # atno 17320 bound_to 7965
  146.3267  140.3061  142.8624 LP  0  0  0  0  0  0  0  0  0  0  0  0  # atno 17321 bound_to 7965
  140.7449  143.2867  151.3442 LP  0  0  0  0  0  0  0  0  0  0  0  0  # atno 17342 bound_to 10162
  139.6329  144.0686  152.2491 LP  0  0  0  0  0  0  0  0  0  0  0  0  # atno 17343 bound_to 10162
  155.9813  130.4021  150.3481 LP  0  0  0  0  0  0  0  0  0  0  0  0  # atno 17370 bound_to 10713
  157.1604  131.0343  151.2843 LP  0  0  0  0  0  0  0  0  0  0  0  0  # atno 17371 bound_to 10713
  140.0919  134.9587  157.1789 LP  0  0  0  0  0  0  0  0  0  0  0  0  # atno 17394 bound_to 11000
  140.3434  134.2678  155.7208 LP  0  0  0  0  0  0  0  0  0  0  0  0  # atno 17395 bound_to 11000

$$$$
