AV-unprocessed.smi:2317|AV-procd|sdf|9272|dock10
  -GOLD-   2272012493D 1   1.00000     0.00000
 Structure written by MMmdl.
 37 38  0  0  0  0  0  0  0  0  1 V2000
  144.9950  137.1355  153.1322 O   0  0  0  0  0  0  0  0  0  0  0  0
  146.1370  136.8713  152.7577 C   0  0  0  0  0  0  0  0  0  0  0  0
  147.1644  137.7275  152.8590 N   0  0  0  0  0  0  0  0  0  0  0  0
  147.1014  139.0663  153.4401 C   0  0  0  0  0  0  0  0  0  0  0  0
  148.2342  139.3232  154.4601 C   0  0  1  0  0  0  0  0  0  0  0  0
  149.4485  138.3818  154.2836 C   0  0  0  0  0  0  0  0  0  0  0  0
  150.5330  138.6479  155.3404 C   0  0  0  0  0  0  0  0  0  0  0  0
  150.9829  140.1158  155.3271 C   0  0  0  0  0  0  0  0  0  0  0  0
  149.7868  141.0664  155.5054 C   0  0  0  0  0  0  0  0  0  0  0  0
  148.6803  140.8068  154.4646 C   0  0  1  0  0  0  0  0  0  0  0  0
  149.1430  141.2075  153.1880 O   0  0  0  0  0  0  0  0  0  0  0  0
  146.5243  135.7186  152.1845 N   0  0  0  0  0  0  0  0  0  0  0  0
  145.7619  134.5504  151.9044 C   0  0  0  0  0  0  0  0  0  0  0  0
  144.4168  134.5565  151.4602 C   0  0  0  0  0  0  0  0  0  0  0  0
  143.7738  133.3224  151.2355 C   0  0  0  0  0  0  0  0  0  0  0  0
  144.3693  132.1266  151.4274 N   0  0  0  0  0  0  0  0  0  0  0  0
  145.6474  132.1238  151.8610 C   0  0  0  0  0  0  0  0  0  0  0  0
  146.3809  133.2999  152.1158 C   0  0  0  0  0  0  0  0  0  0  0  0
  147.6607  133.2247  152.5547 F   0  0  0  0  0  0  0  0  0  0  0  0
  148.0652  137.4272  152.5161 H   0  0  0  0  0  0  0  0  0  0  0  0
  147.1059  139.8289  152.6596 H   0  0  0  0  0  0  0  0  0  0  0  0
  146.1361  139.1535  153.9394 H   0  0  0  0  0  0  0  0  0  0  0  0
  147.8181  139.1209  155.4485 H   0  0  0  0  0  0  0  0  0  0  0  0
  149.1376  137.3401  154.3595 H   0  0  0  0  0  0  0  0  0  0  0  0
  149.8702  138.5027  153.2850 H   0  0  0  0  0  0  0  0  0  0  0  0
  150.1490  138.3936  156.3290 H   0  0  0  0  0  0  0  0  0  0  0  0
  151.3895  137.9965  155.1650 H   0  0  0  0  0  0  0  0  0  0  0  0
  151.7138  140.2870  156.1180 H   0  0  0  0  0  0  0  0  0  0  0  0
  151.4911  140.3337  154.3870 H   0  0  0  0  0  0  0  0  0  0  0  0
  149.3739  140.9331  156.5061 H   0  0  0  0  0  0  0  0  0  0  0  0
  150.1214  142.1032  155.4515 H   0  0  0  0  0  0  0  0  0  0  0  0
  147.8230  141.4370  154.7041 H   0  0  0  0  0  0  0  0  0  0  0  0
  149.2465  140.4377  152.6497 H   0  0  0  0  0  0  0  0  0  0  0  0
  147.4838  135.6837  151.8727 H   0  0  0  0  0  0  0  0  0  0  0  0
  143.8632  135.4677  151.2982 H   0  0  0  0  0  0  0  0  0  0  0  0
  142.7485  133.2961  150.8975 H   0  0  0  0  0  0  0  0  0  0  0  0
  146.0989  131.1546  152.0119 H   0  0  0  0  0  0  0  0  0  0  0  0
  1  2  2  0  0  0  0
  2  3  1  0  0  0  0
  2 12  1  0  0  0  0
  3  4  1  0  0  0  0
  3 20  1  0  0  0  0
  4  5  1  0  0  0  0
  4 21  1  0  0  0  0
  4 22  1  0  0  0  0
  5 10  1  0  0  0  0
  5  6  1  0  0  0  0
  5 23  1  0  0  0  0
  6  7  1  0  0  0  0
  6 24  1  0  0  0  0
  6 25  1  0  0  0  0
  7  8  1  0  0  0  0
  7 26  1  0  0  0  0
  7 27  1  0  0  0  0
  8  9  1  0  0  0  0
  8 28  1  0  0  0  0
  8 29  1  0  0  0  0
  9 10  1  0  0  0  0
  9 30  1  0  0  0  0
  9 31  1  0  0  0  0
 10 11  1  0  0  0  0
 10 32  1  0  0  0  0
 11 33  1  0  0  0  0
 12 13  1  0  0  0  0
 12 34  1  0  0  0  0
 13 18  1  0  0  0  0
 13 14  2  0  0  0  0
 14 15  1  0  0  0  0
 14 35  1  0  0  0  0
 15 16  2  0  0  0  0
 15 36  1  0  0  0  0
 16 17  1  0  0  0  0
 17 18  2  0  0  0  0
 17 37  1  0  0  0  0
 18 19  1  0  0  0  0
M  END
> <s_m_source_file>
AV-unprocessed.smi

> <i_m_source_file_index>
2317

> <i_lp_mmshare_version>
43012

> <i_f3d_flags>
0

> <s_epik_input>
RmMxW2NIXW5bY0hdW2NIXWMxW05IXUMoPU8pW05IXVtDSDJdW0NAQEhdMltDSDJdW0NIMl1bQ0gyXVtDSDJdW0NASF0yW09IXQ==

> <s_epik_cmdline>
J2VwaWtfcHl0aG9uJywgJy1waCcsICc3LjAnLCAnLXRuJywgJzgnLCAnLW1hJywgJzIwMCcsICctbWV0YWxfYmluZGluZycsICctaW1hZScsICc8aW5maWxlLm1hZT4nLCAnLW9tYWUnLCAnPG91dGZpbGUubWFlPic=

> <r_epik_Ionization_Penalty>
0.00317647

> <r_epik_Ionization_Penalty_Charging>
0

> <r_epik_Ionization_Penalty_Neutral>
0.00317647

> <r_epik_State_Penalty>
0.0022093

> <r_epik_Charging_Adjusted_Penalty>
0.0022093

> <i_epik_Tot_Q>
0

> <i_epik_Tot_abs_Q>
0

> <r_epik_Metal_State_Penalty>
-0

> <b_epik_Metal_Only>
0

> <s_lp_Force_Field>
OPLS_2005

> <r_lp_Energy>
21.0871

> <b_lp_Chiralities_Consistent>
1

> <s_lp_Variant>
AV-unprocessed.smi:2317-2

> <Gold.Version>
5.8.1

> <Gold.Id.Protein>
6NUR|6NUR_protein|mol2

> <Gold.PLP.Fitness>
44.9589

> <Gold.PLP.PLP>
-32.2147

> <Gold.PLP.part.hbond>
-4.3777

> <Gold.PLP.part.metal>
0.0000

> <Gold.PLP.part.buried>
-1.5350

> <Gold.PLP.part.nonpolar>
-26.8930

> <Gold.PLP.part.repulsive>
0.4477

> <Gold.PLP.ligand.clash>
0.0000

> <Gold.PLP.ligand.torsion>
0.8334

> <Gold.PLP.Chemscore.Hbond>
3.7993

> <Gold.PLP.Chemscore.CHOScore>
1.0000

> <Gold.PLP.Chemscore.Metal>
0.0000

> <Gold.Chemscore.Hbonds>
donor molecule, donor type, donor heavy atom, donor atom, acceptor molecule, acceptor atom, score
      L1  H     3    20       P1  7948  0.96
      L1  H    11    33       P1  7957  0.78
      L1  H    12    34       P1  7948  1.00
      P1  H  8011  8017       L1    11  1.00
      L1  C    15    36       P1 10186  1.00

> <Gold.PLP.Chemscore.Internal.Correction>
0.0133

> <Gold.Rescore>
     Score         DG    S(hbond)    S(metal)    S(lipo)     H(rot)  DE(clash)    DE(int)     intcor
     18.39     -20.61       3.37        0.00      72.30       1.79       1.27       0.95       ----

> <Gold.Chemscore.Fitness>
18.3937

> <Gold.Chemscore.DG>
-20.6144

> <Gold.Chemscore.ZeroCoef>
-5.4800

> <Gold.Chemscore.Hbond>
3.3669

> <Gold.Chemscore.Metal>
0.0000

> <Gold.Chemscore.Lipo>
72.3016

> <Gold.Chemscore.Internal_Hbond>
0.0000

> <Gold.Chemscore.DEClash>
1.2682

> <Gold.Chemscore.DEInternal>
0.9525

> <Gold.Chemscore.Rot>
1.7853

> <Gold.Chemscore.Internal.Correction>
   9.000000E+99

> <Gold.Chemscore.Hbonds>
donor molecule, donor type, donor heavy atom, donor atom, acceptor molecule, acceptor atom, score
      L1  H     3    20       P1  7948  0.91
      L1  H    11    33       P1  7957  0.76
      L1  H    12    34       P1  7948  0.91
      P1  H  8011  8017       L1    11  0.49

> <Gold.Chemscore.Hbond.Weighted>
-11.2456

> <Gold.Chemscore.Metal.Weighted>
-0.0000

> <Gold.Chemscore.Lipo.Weighted>
-8.4593

> <Gold.Chemscore.Internal_Hbond.Weighted>
0.0000

> <Gold.Chemscore.DEClash.Weighted>
1.2682

> <Gold.Chemscore.DEInternal.Weighted>
0.9525

> <Gold.Chemscore.Rot.Weighted>
4.5704

> <Gold.Chemscore.Internal.Correction.Weighted>
   9.000000E+99

> <Gold.Protein.RotatedTorsions>
[ 6907 6896 6895 6894 ] final  -77.28 input  -60.11 | X-H torsion
[ 7974 7965 7964 7962 ] final  -61.55 input  175.53 | X-H torsion
[ 8008 7997 7996 7995 ] final   49.69 input   59.86 | X-H torsion
[ 10167 10162 10161 10158 ] final  141.77 input  -65.29 | X-H torsion
[ 10718 10713 10712 10709 ] final  -57.00 input   66.30 | X-H torsion
[ 10763 10752 10751 10750 ] final -169.31 input  -60.55 | X-H torsion
[ 11005 11000 10999 10996 ] final  156.63 input  -57.11 | X-H torsion

> <Gold.Protein.ActiveResidues>
 VAL166  LYS551  ARG553  GLY616  TRP617  ASP618  TYR619  PRO620  LYS621  CYS622 
 ASP623  PHE694  ASN695  SER759  ASP760  ASP761  ALA762  ILE779  LEU786  VAL792 
 PHE793  MET794  SER795  GLU796  ALA797  LYS798  CYS799  TRP800  GLU811  SER814 

> <Gold.Protein.RotatedAtoms>
  150.7003  134.4446  159.5307 H   0  0  0  0  0  0  0  0  0  0  0  0  # atno 6907 bound_to 6896
  152.2150  134.8464  160.0502 H   0  0  0  0  0  0  0  0  0  0  0  0  # atno 6908 bound_to 6896
  151.9335  133.3583  159.3976 H   0  0  0  0  0  0  0  0  0  0  0  0  # atno 6909 bound_to 6896
  145.8021  140.8649  143.0226 H   0  0  0  0  0  0  0  0  0  0  0  0  # atno 7974 bound_to 7965
  155.4064  140.3440  155.4260 H   0  0  0  0  0  0  0  0  0  0  0  0  # atno 8008 bound_to 7997
  156.1474  140.1560  156.8857 H   0  0  0  0  0  0  0  0  0  0  0  0  # atno 8009 bound_to 7997
  154.5022  140.0811  156.7803 H   0  0  0  0  0  0  0  0  0  0  0  0  # atno 8010 bound_to 7997
  139.5012  144.6150  151.6184 H   0  0  0  0  0  0  0  0  0  0  0  0  # atno 10167 bound_to 10162
  156.1244  130.4163  150.0382 H   0  0  0  0  0  0  0  0  0  0  0  0  # atno 10718 bound_to 10713
  154.6537  135.2915  154.9955 H   0  0  0  0  0  0  0  0  0  0  0  0  # atno 10763 bound_to 10752
  154.1039  135.6572  153.4877 H   0  0  0  0  0  0  0  0  0  0  0  0  # atno 10764 bound_to 10752
  153.0390  135.5249  154.7456 H   0  0  0  0  0  0  0  0  0  0  0  0  # atno 10765 bound_to 10752
  140.1693  134.8554  157.2670 H   0  0  0  0  0  0  0  0  0  0  0  0  # atno 11005 bound_to 11000
  144.6767  140.0274  143.7483 LP  0  0  0  0  0  0  0  0  0  0  0  0  # atno 17320 bound_to 7965
  145.9867  139.2983  143.1009 LP  0  0  0  0  0  0  0  0  0  0  0  0  # atno 17321 bound_to 7965
  140.5836  143.9904  150.6282 LP  0  0  0  0  0  0  0  0  0  0  0  0  # atno 17342 bound_to 10162
  140.3061  143.3229  152.0925 LP  0  0  0  0  0  0  0  0  0  0  0  0  # atno 17343 bound_to 10162
  156.8311  130.9393  151.3637 LP  0  0  0  0  0  0  0  0  0  0  0  0  # atno 17370 bound_to 10713
  157.6426  130.8818  149.9478 LP  0  0  0  0  0  0  0  0  0  0  0  0  # atno 17371 bound_to 10713
  140.2396  134.3811  155.7486 LP  0  0  0  0  0  0  0  0  0  0  0  0  # atno 17394 bound_to 11000
  141.2216  133.7258  156.8769 LP  0  0  0  0  0  0  0  0  0  0  0  0  # atno 17395 bound_to 11000

$$$$
