AV-unprocessed.smi:738|AV-procd|sdf|3539|dock7
  -GOLD-   22720 0533D 1   1.00000     0.00000
 Structure written by MMmdl.
 35 37  0  0  0  0  0  0  0  0  1 V2000
  155.6758  137.9430  162.8535 N   0  0  0  0  0  0  0  0  0  0  0  0
  154.4590  137.5383  162.4769 C   0  0  0  0  0  0  0  0  0  0  0  0
  153.7191  136.8955  163.2192 O   0  0  0  0  0  0  0  0  0  0  0  0
  154.0091  137.9703  161.1112 C   0  0  0  0  0  0  0  0  0  0  0  0
  154.7724  138.8924  160.3620 C   0  0  0  0  0  0  0  0  0  0  0  0
  154.4149  139.3364  159.1385 N   0  0  0  0  0  0  0  0  0  0  0  0
  153.2568  138.8859  158.5991 C   0  0  0  0  0  0  0  0  0  0  0  0
  152.8982  139.3543  157.3242 N   0  0  0  0  0  0  0  0  0  0  0  0
  152.8037  138.2859  156.3283 C   0  0  0  0  0  0  0  0  0  0  0  0
  152.4545  138.8524  154.9299 C   0  0  0  0  0  0  0  0  0  0  0  0
  151.2899  139.6829  154.9854 O   0  0  0  0  0  0  0  0  0  0  0  0
  151.4960  140.7474  155.9040 C   0  0  1  0  0  0  0  0  0  0  0  0
  150.3282  141.7083  156.1089 C   0  0  0  0  0  0  0  0  0  0  0  0
  150.5679  142.2917  157.5182 C   0  0  0  0  0  0  0  0  0  0  0  0
  151.6431  141.4075  158.1838 C   0  0  0  0  0  0  0  0  0  0  0  0
  151.6863  140.1626  157.2953 C   0  0  2  0  0  0  0  0  0  0  0  0
  152.4145  137.9711  159.2729 C   0  0  0  0  0  0  0  0  0  0  0  0
  150.9401  137.4093  158.5662 Cl  0  0  0  0  0  0  0  0  0  0  0  0
  152.7969  137.5121  160.5482 C   0  0  0  0  0  0  0  0  0  0  0  0
  156.0276  137.6865  163.7646 H   0  0  0  0  0  0  0  0  0  0  0  0
  156.2372  138.5068  162.2324 H   0  0  0  0  0  0  0  0  0  0  0  0
  155.7019  139.2859  160.7470 H   0  0  0  0  0  0  0  0  0  0  0  0
  153.7467  137.7394  156.2849 H   0  0  0  0  0  0  0  0  0  0  0  0
  152.0351  137.5722  156.6291 H   0  0  0  0  0  0  0  0  0  0  0  0
  153.2936  139.4254  154.5322 H   0  0  0  0  0  0  0  0  0  0  0  0
  152.2743  138.0363  154.2303 H   0  0  0  0  0  0  0  0  0  0  0  0
  152.3749  141.3256  155.6084 H   0  0  0  0  0  0  0  0  0  0  0  0
  150.2794  142.4756  155.3358 H   0  0  0  0  0  0  0  0  0  0  0  0
  149.3865  141.1580  156.0930 H   0  0  0  0  0  0  0  0  0  0  0  0
  150.9087  143.3261  157.4637 H   0  0  0  0  0  0  0  0  0  0  0  0
  149.6413  142.2842  158.0931 H   0  0  0  0  0  0  0  0  0  0  0  0
  152.6062  141.9199  158.1644 H   0  0  0  0  0  0  0  0  0  0  0  0
  151.4093  141.1725  159.2225 H   0  0  0  0  0  0  0  0  0  0  0  0
  150.8289  139.5299  157.5346 H   0  0  0  0  0  0  0  0  0  0  0  0
  152.1601  136.8203  161.0799 H   0  0  0  0  0  0  0  0  0  0  0  0
  1  2  1  0  0  0  0
  1 20  1  0  0  0  0
  1 21  1  0  0  0  0
  2  3  2  0  0  0  0
  2  4  1  0  0  0  0
  4 19  1  0  0  0  0
  4  5  2  0  0  0  0
  5  6  1  0  0  0  0
  5 22  1  0  0  0  0
  6  7  2  0  0  0  0
  7  8  1  0  0  0  0
  7 17  1  0  0  0  0
  8 16  1  0  0  0  0
  8  9  1  0  0  0  0
  9 10  1  0  0  0  0
  9 23  1  0  0  0  0
  9 24  1  0  0  0  0
 10 11  1  0  0  0  0
 10 25  1  0  0  0  0
 10 26  1  0  0  0  0
 11 12  1  0  0  0  0
 12 16  1  0  0  0  0
 12 13  1  0  0  0  0
 12 27  1  0  0  0  0
 13 14  1  0  0  0  0
 13 28  1  0  0  0  0
 13 29  1  0  0  0  0
 14 15  1  0  0  0  0
 14 30  1  0  0  0  0
 14 31  1  0  0  0  0
 15 16  1  0  0  0  0
 15 32  1  0  0  0  0
 15 33  1  0  0  0  0
 16 34  1  0  0  0  0
 17 18  1  0  0  0  0
 17 19  2  0  0  0  0
 19 35  1  0  0  0  0
M  END
> <s_m_source_file>
AV-unprocessed.smi

> <i_m_source_file_index>
738

> <i_lp_mmshare_version>
43012

> <i_f3d_flags>
0

> <s_epik_input>
W05IMl1DKD1PKWMxW2NIXW5jKGMoQ2wpW2NIXTEpTihbQ0gyXVtDSDJdTzIpW0NASF0oW0NASF0yMylbQ0gyXVtDSDJdW0NIMl0z

> <s_epik_cmdline>
J2VwaWtfcHl0aG9uJywgJy1waCcsICc3LjAnLCAnLXRuJywgJzgnLCAnLW1hJywgJzIwMCcsICctbWV0YWxfYmluZGluZycsICctaW1hZScsICc8aW5maWxlLm1hZT4nLCAnLW9tYWUnLCAnPG91dGZpbGUubWFlPic=

> <r_lp_tautomer_probability>
1

> <r_epik_Ionization_Penalty>
6.75978e-06

> <r_epik_Ionization_Penalty_Charging>
0

> <r_epik_Ionization_Penalty_Neutral>
6.75978e-06

> <r_epik_State_Penalty>
-0

> <r_epik_Charging_Adjusted_Penalty>
0

> <i_epik_Tot_Q>
0

> <i_epik_Tot_abs_Q>
0

> <r_epik_Metal_State_Penalty>
-0

> <b_epik_Metal_Only>
0

> <s_lp_Force_Field>
OPLS_2005

> <r_lp_Energy>
40.6009

> <b_lp_Chiralities_Consistent>
1

> <s_lp_Variant>
AV-unprocessed.smi:738-2

> <Gold.Version>
5.8.1

> <Gold.Id.Protein>
6NUR|6NUR_protein|mol2

> <Gold.PLP.Fitness>
35.9859

> <Gold.PLP.PLP>
-31.5571

> <Gold.PLP.part.hbond>
-3.0000

> <Gold.PLP.part.metal>
0.0000

> <Gold.PLP.part.buried>
-4.7069

> <Gold.PLP.part.nonpolar>
-24.1256

> <Gold.PLP.part.repulsive>
0.0556

> <Gold.PLP.ligand.clash>
0.0000

> <Gold.PLP.ligand.torsion>
0.0597

> <Gold.PLP.Chemscore.Hbond>
1.5000

> <Gold.PLP.Chemscore.CHOScore>
0.0000

> <Gold.PLP.Chemscore.Metal>
0.0000

> <Gold.Chemscore.Hbonds>
donor molecule, donor type, donor heavy atom, donor atom, acceptor molecule, acceptor atom, score
      P1  H  7989  7998       L1    11  0.55
      P1  H  7997  8008       L1     8  0.90

> <Gold.PLP.Chemscore.Internal.Correction>
0.0482

> <Gold.Rescore>
     Score         DG    S(hbond)    S(metal)    S(lipo)     H(rot)  DE(clash)    DE(int)     intcor
     13.38     -14.28       0.96        0.00      69.62       1.00       0.01       0.89       ----

> <Gold.Chemscore.Fitness>
13.3841

> <Gold.Chemscore.DG>
-14.2802

> <Gold.Chemscore.ZeroCoef>
-5.4800

> <Gold.Chemscore.Hbond>
0.9625

> <Gold.Chemscore.Metal>
0.0000

> <Gold.Chemscore.Lipo>
69.6178

> <Gold.Chemscore.Internal_Hbond>
0.0000

> <Gold.Chemscore.DEClash>
0.0076

> <Gold.Chemscore.DEInternal>
0.8885

> <Gold.Chemscore.Rot>
1.0000

> <Gold.Chemscore.Internal.Correction>
   9.000000E+99

> <Gold.Chemscore.Hbonds>
donor molecule, donor type, donor heavy atom, donor atom, acceptor molecule, acceptor atom, score
      P1  H  7989  7998       L1    11  0.01
      P1  H  7997  8008       L1     8  0.04

> <Gold.Chemscore.Hbond.Weighted>
-3.2149

> <Gold.Chemscore.Metal.Weighted>
-0.0000

> <Gold.Chemscore.Lipo.Weighted>
-8.1453

> <Gold.Chemscore.Internal_Hbond.Weighted>
0.0000

> <Gold.Chemscore.DEClash.Weighted>
0.0076

> <Gold.Chemscore.DEInternal.Weighted>
0.8885

> <Gold.Chemscore.Rot.Weighted>
2.5600

> <Gold.Chemscore.Internal.Correction.Weighted>
   9.000000E+99

> <Gold.Protein.RotatedTorsions>
[ 6907 6896 6895 6894 ] final  -77.26 input  -60.11 | X-H torsion
[ 7974 7965 7964 7962 ] final   78.13 input  175.53 | X-H torsion
[ 8008 7997 7996 7995 ] final  -70.10 input   59.86 | X-H torsion
[ 10167 10162 10161 10158 ] final    6.84 input  -65.29 | X-H torsion
[ 10718 10713 10712 10709 ] final   79.97 input   66.30 | X-H torsion
[ 10763 10752 10751 10750 ] final  111.26 input  -60.55 | X-H torsion
[ 11005 11000 10999 10996 ] final  146.66 input  -57.11 | X-H torsion

> <Gold.Protein.ActiveResidues>
 VAL166  LYS551  ARG553  GLY616  TRP617  ASP618  TYR619  PRO620  LYS621  CYS622 
 ASP623  PHE694  ASN695  SER759  ASP760  ASP761  ALA762  ILE779  LEU786  VAL792 
 PHE793  MET794  SER795  GLU796  ALA797  LYS798  CYS799  TRP800  GLU811  SER814 

> <Gold.Protein.RotatedAtoms>
  150.7004  134.4449  159.5308 H   0  0  0  0  0  0  0  0  0  0  0  0  # atno 6907 bound_to 6896
  152.2152  134.8462  160.0502 H   0  0  0  0  0  0  0  0  0  0  0  0  # atno 6908 bound_to 6896
  151.9332  133.3582  159.3975 H   0  0  0  0  0  0  0  0  0  0  0  0  # atno 6909 bound_to 6896
  145.6811  139.2524  143.1813 H   0  0  0  0  0  0  0  0  0  0  0  0  # atno 7974 bound_to 7965
  154.4987  140.0841  156.7752 H   0  0  0  0  0  0  0  0  0  0  0  0  # atno 8008 bound_to 7997
  155.4054  140.3439  155.4241 H   0  0  0  0  0  0  0  0  0  0  0  0  # atno 8009 bound_to 7997
  156.1428  140.1534  156.8882 H   0  0  0  0  0  0  0  0  0  0  0  0  # atno 8010 bound_to 7997
  140.6405  143.7785  150.7421 H   0  0  0  0  0  0  0  0  0  0  0  0  # atno 10167 bound_to 10162
  157.6793  130.9938  150.2011 H   0  0  0  0  0  0  0  0  0  0  0  0  # atno 10718 bound_to 10713
  153.4608  135.3722  155.2337 H   0  0  0  0  0  0  0  0  0  0  0  0  # atno 10763 bound_to 10752
  154.8757  135.3908  154.3928 H   0  0  0  0  0  0  0  0  0  0  0  0  # atno 10764 bound_to 10752
  153.4501  135.7085  153.6179 H   0  0  0  0  0  0  0  0  0  0  0  0  # atno 10765 bound_to 10752
  140.0812  134.9096  157.1503 H   0  0  0  0  0  0  0  0  0  0  0  0  # atno 11005 bound_to 11000
  146.0963  140.7597  142.9571 LP  0  0  0  0  0  0  0  0  0  0  0  0  # atno 17320 bound_to 7965
  144.7026  140.3716  143.7144 LP  0  0  0  0  0  0  0  0  0  0  0  0  # atno 17321 bound_to 7965
  140.1415  143.4437  152.2190 LP  0  0  0  0  0  0  0  0  0  0  0  0  # atno 17342 bound_to 10162
  139.5614  144.7408  151.4143 LP  0  0  0  0  0  0  0  0  0  0  0  0  # atno 17343 bound_to 10162
  156.2702  130.3721  149.8040 LP  0  0  0  0  0  0  0  0  0  0  0  0  # atno 17370 bound_to 10713
  156.5759  130.8445  151.3369 LP  0  0  0  0  0  0  0  0  0  0  0  0  # atno 17371 bound_to 10713
  140.3485  134.2624  155.7201 LP  0  0  0  0  0  0  0  0  0  0  0  0  # atno 17394 bound_to 11000
  141.2047  133.7879  157.0272 LP  0  0  0  0  0  0  0  0  0  0  0  0  # atno 17395 bound_to 11000

$$$$
