AV-unprocessed.smi:1897|AV-procd|sdf|7695|dock1
  -GOLD-   22720 9433D 1   1.00000     0.00000
 Structure written by MMmdl.
 38 40  0  0  0  0  0  0  0  0  3 V2000
  152.5557  141.0468  159.3436 C   0  0  0  0  0  0  0  0  0  0  0  0
  152.1618  140.6359  157.9663 C   0  0  0  0  0  0  0  0  0  0  0  0
  152.8506  139.7395  157.2559 N   0  0  0  0  0  0  0  0  0  0  0  0
  152.2907  139.5212  156.0057 N   0  0  0  0  0  0  0  0  0  0  0  0
  151.1800  140.2420  155.7940 C   0  0  0  0  0  0  0  0  0  0  0  0
  150.4660  140.1561  154.6555 N   0  5  0  0  0  0  0  0  0  0  0  0
  149.1361  139.8779  154.6519 C   0  0  0  0  0  0  0  0  0  0  0  0
  148.4366  139.8785  155.6637 O   0  0  0  0  0  0  0  0  0  0  0  0
  148.5669  139.5902  153.4672 N   0  0  0  0  0  0  0  0  0  0  0  0
  147.1675  139.2557  153.2289 C   0  0  1  0  0  0  0  0  0  0  0  0
  146.8071  139.1342  151.7322 C   0  0  0  0  0  0  0  0  0  0  0  0
  146.0105  137.8304  151.6196 C   0  0  0  0  0  0  0  0  0  0  0  0
  146.5728  137.0008  152.6921 N   0  3  2  0  0  0  0  0  0  0  0  0
  145.8650  135.7565  153.0579 C   0  0  0  0  0  0  0  0  0  0  0  0
  146.7168  134.9881  154.0911 C   0  0  0  0  0  0  0  0  0  0  0  0
  147.1078  135.8705  155.2979 C   0  0  0  0  0  0  0  0  0  0  0  0
  147.7374  137.2042  154.8444 C   0  0  0  0  0  0  0  0  0  0  0  0
  146.7891  137.8922  153.8440 C   0  0  1  0  0  0  0  0  0  0  0  0
  150.7507  141.2857  157.1488 S   0  0  0  0  0  0  0  0  0  0  0  0
  152.3097  140.2565  160.0528 H   0  0  0  0  0  0  0  0  0  0  0  0
  152.0272  141.9552  159.6339 H   0  0  0  0  0  0  0  0  0  0  0  0
  153.6281  141.2386  159.3877 H   0  0  0  0  0  0  0  0  0  0  0  0
  149.1705  139.6033  152.6583 H   0  0  0  0  0  0  0  0  0  0  0  0
  146.5495  140.0260  153.6943 H   0  0  0  0  0  0  0  0  0  0  0  0
  146.2461  139.9948  151.3670 H   0  0  0  0  0  0  0  0  0  0  0  0
  147.7128  139.0552  151.1285 H   0  0  0  0  0  0  0  0  0  0  0  0
  144.9515  138.0113  151.8104 H   0  0  0  0  0  0  0  0  0  0  0  0
  146.1116  137.3582  150.6420 H   0  0  0  0  0  0  0  0  0  0  0  0
  144.8799  135.9907  153.4644 H   0  0  0  0  0  0  0  0  0  0  0  0
  145.7119  135.1456  152.1677 H   0  0  0  0  0  0  0  0  0  0  0  0
  146.1802  134.1027  154.4332 H   0  0  0  0  0  0  0  0  0  0  0  0
  147.6252  134.6271  153.6068 H   0  0  0  0  0  0  0  0  0  0  0  0
  146.2192  136.0762  155.8960 H   0  0  0  0  0  0  0  0  0  0  0  0
  147.7982  135.3326  155.9486 H   0  0  0  0  0  0  0  0  0  0  0  0
  147.9148  137.8479  155.7069 H   0  0  0  0  0  0  0  0  0  0  0  0
  148.7088  137.0157  154.3846 H   0  0  0  0  0  0  0  0  0  0  0  0
  145.8232  138.0314  154.3347 H   0  0  0  0  0  0  0  0  0  0  0  0
  147.4919  136.7306  152.3723 H   0  0  0  0  0  0  0  0  0  0  0  0
  1  2  1  0  0  0  0
  1 20  1  0  0  0  0
  1 21  1  0  0  0  0
  1 22  1  0  0  0  0
  2 19  1  0  0  0  0
  2  3  2  0  0  0  0
  3  4  1  0  0  0  0
  4  5  2  0  0  0  0
  5  6  1  0  0  0  0
  5 19  1  0  0  0  0
  6  7  1  0  0  0  0
  7  8  2  0  0  0  0
  7  9  1  0  0  0  0
  9 10  1  0  0  0  0
  9 23  1  0  0  0  0
 10 18  1  0  0  0  0
 10 11  1  0  0  0  0
 10 24  1  0  0  0  0
 11 12  1  0  0  0  0
 11 25  1  0  0  0  0
 11 26  1  0  0  0  0
 12 13  1  0  0  0  0
 12 27  1  0  0  0  0
 12 28  1  0  0  0  0
 13 18  1  0  0  0  0
 13 14  1  0  0  0  0
 13 38  1  0  0  0  0
 14 15  1  0  0  0  0
 14 29  1  0  0  0  0
 14 30  1  0  0  0  0
 15 16  1  0  0  0  0
 15 31  1  0  0  0  0
 15 32  1  0  0  0  0
 16 17  1  0  0  0  0
 16 33  1  0  0  0  0
 16 34  1  0  0  0  0
 17 18  1  0  0  0  0
 17 35  1  0  0  0  0
 17 36  1  0  0  0  0
 18 37  1  0  0  0  0
M  CHG  1   6  -1
M  CHG  1  13   1
M  END
> <s_m_source_file>
AV-unprocessed.smi

> <i_m_source_file_index>
1897

> <i_lp_mmshare_version>
43012

> <i_f3d_flags>
0

> <s_epik_input>
W0NIM11jMW5uYyhzMSlbTkhdQyg9TylbTkhdW0NASF0oW0NIMl1bQ0gyXTIpW0NAQEhdKE4yMylbQ0gyXVtDSDJdW0NIMl1bQ0gyXTM=

> <s_epik_cmdline>
J2VwaWtfcHl0aG9uJywgJy1waCcsICc3LjAnLCAnLXRuJywgJzgnLCAnLW1hJywgJzIwMCcsICctbWV0YWxfYmluZGluZycsICctaW1hZScsICc8aW5maWxlLm1hZT4nLCAnLW9tYWUnLCAnPG91dGZpbGUubWFlPic=

> <r_lp_tautomer_probability>
1

> <r_epik_Ionization_Penalty>
3.77712

> <r_epik_Ionization_Penalty_Charging>
3.67739

> <r_epik_Ionization_Penalty_Neutral>
0.0997294

> <r_epik_State_Penalty>
3.67514

> <r_epik_Charging_Adjusted_Penalty>
7.35254

> <i_epik_Tot_Q>
0

> <i_epik_Tot_abs_Q>
2

> <r_epik_Metal_State_Penalty>
0.540795

> <b_epik_Metal_Only>
1

> <s_lp_Force_Field>
OPLS_2005

> <r_lp_Energy>
34.5765

> <b_lp_Chiralities_Consistent>
1

> <s_lp_Variant>
AV-unprocessed.smi:1897-12

> <Gold.Version>
5.8.1

> <Gold.Id.Protein>
6NUR|6NUR_protein|mol2

> <Gold.PLP.Fitness>
41.3842

> <Gold.PLP.PLP>
-27.5157

> <Gold.PLP.part.hbond>
-4.5745

> <Gold.PLP.part.metal>
0.0000

> <Gold.PLP.part.buried>
-0.1259

> <Gold.PLP.part.nonpolar>
-23.8313

> <Gold.PLP.part.repulsive>
0.2490

> <Gold.PLP.ligand.clash>
0.0000

> <Gold.PLP.ligand.torsion>
0.5705

> <Gold.PLP.Chemscore.Hbond>
5.0000

> <Gold.PLP.Chemscore.CHOScore>
0.0000

> <Gold.PLP.Chemscore.Metal>
0.0000

> <Gold.Chemscore.Hbonds>
donor molecule, donor type, donor heavy atom, donor atom, acceptor molecule, acceptor atom, score
      L1  H     9    23       P1  7957  1.00
      L1  H    13    38       P1  7948  2.00
      P1  H  7989  7998       L1     6  1.00
      P1  H  7997  8009       L1     3  1.00

> <Gold.PLP.Chemscore.Internal.Correction>
0.0095

> <Gold.Rescore>
     Score         DG    S(hbond)    S(metal)    S(lipo)     H(rot)  DE(clash)    DE(int)     intcor
     15.78     -19.41       3.04        0.00      54.27       1.00       0.77       2.86       ----

> <Gold.Chemscore.Fitness>
15.7754

> <Gold.Chemscore.DG>
-19.4082

> <Gold.Chemscore.ZeroCoef>
-5.4800

> <Gold.Chemscore.Hbond>
3.0355

> <Gold.Chemscore.Metal>
0.0000

> <Gold.Chemscore.Lipo>
54.2703

> <Gold.Chemscore.Internal_Hbond>
0.0000

> <Gold.Chemscore.DEClash>
0.7703

> <Gold.Chemscore.DEInternal>
2.8625

> <Gold.Chemscore.Rot>
1.0000

> <Gold.Chemscore.Internal.Correction>
   9.000000E+99

> <Gold.Chemscore.Hbonds>
donor molecule, donor type, donor heavy atom, donor atom, acceptor molecule, acceptor atom, score
      L1  H     9    23       P1  7957  0.97
      L1  H    13    38       P1  7948  0.99
      P1  H  7989  7998       L1     6  0.30
      P1  H  7997  8009       L1     3  0.33

> <Gold.Chemscore.Hbond.Weighted>
-10.1386

> <Gold.Chemscore.Metal.Weighted>
-0.0000

> <Gold.Chemscore.Lipo.Weighted>
-6.3496

> <Gold.Chemscore.Internal_Hbond.Weighted>
0.0000

> <Gold.Chemscore.DEClash.Weighted>
0.7703

> <Gold.Chemscore.DEInternal.Weighted>
2.8625

> <Gold.Chemscore.Rot.Weighted>
2.5600

> <Gold.Chemscore.Internal.Correction.Weighted>
   9.000000E+99

> <Gold.Protein.RotatedTorsions>
[ 6907 6896 6895 6894 ] final  139.66 input  -60.11 | X-H torsion
[ 7974 7965 7964 7962 ] final  -31.06 input  175.53 | X-H torsion
[ 8008 7997 7996 7995 ] final  164.12 input   59.86 | X-H torsion
[ 10167 10162 10161 10158 ] final  118.35 input  -65.29 | X-H torsion
[ 10718 10713 10712 10709 ] final  112.40 input   66.30 | X-H torsion
[ 10763 10752 10751 10750 ] final  -33.87 input  -60.55 | X-H torsion
[ 11005 11000 10999 10996 ] final  -96.66 input  -57.11 | X-H torsion

> <Gold.Protein.ActiveResidues>
 VAL166  LYS551  ARG553  GLY616  TRP617  ASP618  TYR619  PRO620  LYS621  CYS622 
 ASP623  PHE694  ASN695  SER759  ASP760  ASP761  ALA762  ILE779  LEU786  VAL792 
 PHE793  MET794  SER795  GLU796  ALA797  LYS798  CYS799  TRP800  GLU811  SER814 

> <Gold.Protein.RotatedAtoms>
  152.2523  133.5225  159.5332 H   0  0  0  0  0  0  0  0  0  0  0  0  # atno 6907 bound_to 6896
  150.7097  134.0943  159.3952 H   0  0  0  0  0  0  0  0  0  0  0  0  # atno 6908 bound_to 6896
  151.8863  135.0434  160.0544 H   0  0  0  0  0  0  0  0  0  0  0  0  # atno 6909 bound_to 6896
  146.1096  140.5619  142.8784 H   0  0  0  0  0  0  0  0  0  0  0  0  # atno 7974 bound_to 7965
  156.1905  140.1705  156.8102 H   0  0  0  0  0  0  0  0  0  0  0  0  # atno 8008 bound_to 7997
  154.5465  140.0726  156.8630 H   0  0  0  0  0  0  0  0  0  0  0  0  # atno 8009 bound_to 7997
  155.3111  140.3367  155.4246 H   0  0  0  0  0  0  0  0  0  0  0  0  # atno 8010 bound_to 7997
  139.6117  144.7083  151.2829 H   0  0  0  0  0  0  0  0  0  0  0  0  # atno 10167 bound_to 10162
  157.6394  131.0967  150.6889 H   0  0  0  0  0  0  0  0  0  0  0  0  # atno 10718 bound_to 10713
  153.8373  135.6861  153.4807 H   0  0  0  0  0  0  0  0  0  0  0  0  # atno 10763 bound_to 10752
  153.1475  135.4632  154.9585 H   0  0  0  0  0  0  0  0  0  0  0  0  # atno 10764 bound_to 10752
  154.7860  135.3285  154.7830 H   0  0  0  0  0  0  0  0  0  0  0  0  # atno 10765 bound_to 10752
  141.1404  133.8114  157.0601 H   0  0  0  0  0  0  0  0  0  0  0  0  # atno 11005 bound_to 11000
  144.7500  140.5166  143.6808 LP  0  0  0  0  0  0  0  0  0  0  0  0  # atno 17320 bound_to 7965
  145.5691  139.1482  143.3298 LP  0  0  0  0  0  0  0  0  0  0  0  0  # atno 17321 bound_to 7965
  140.7324  143.6825  150.7989 LP  0  0  0  0  0  0  0  0  0  0  0  0  # atno 17342 bound_to 10162
  140.0421  143.5335  152.2713 LP  0  0  0  0  0  0  0  0  0  0  0  0  # atno 17343 bound_to 10162
  156.7215  130.4682  149.5521 LP  0  0  0  0  0  0  0  0  0  0  0  0  # atno 17370 bound_to 10713
  156.1662  130.6407  151.0781 LP  0  0  0  0  0  0  0  0  0  0  0  0  # atno 17371 bound_to 10713
  140.0576  134.9772  157.1249 LP  0  0  0  0  0  0  0  0  0  0  0  0  # atno 17394 bound_to 11000
  140.3895  134.2199  155.7167 LP  0  0  0  0  0  0  0  0  0  0  0  0  # atno 17395 bound_to 11000

$$$$
