#       Name:                AV-unprocessed.smi:317
#       Creating user name   scv26
#       Creation time:       Thu Mar 26 22:23:25 2020


#       File generated by GOLD software.
#

@<TRIPOS>MOLECULE
AV-unprocessed.smi:317
    45    46     1
SMALL
NO_CHARGES


@<TRIPOS>ATOM
      1 ****        -4.4425  -0.5437  -0.6572 C.3            1 S1                 0.0000
      2 ****        -3.8131  -0.5213   0.7475 C.3            1 S1                 0.0000
      3 ****        -4.1466  -1.7674   1.5892 C.3            1 S1                 0.0000
      4 ****        -3.8014  -2.9601   0.9137 O.3            1 S1                 0.0000
      5 ****        -2.3651  -0.3383   0.6825 N.am           1 S1                 0.0000
      6 ****        -1.7334   0.8310   0.5085 C.2            1 S1                 0.0000
      7 ****        -2.3144   1.9086   0.3817 O.2            1 S1                 0.0000
      8 ****        -0.4012   0.6603   0.4721 N.am           1 S1                 0.0000
      9 ****         0.6104   1.6403   0.2598 C.ar           1 S1                 0.0000
     10 ****         0.4396   2.9855   0.6780 C.ar           1 S1                 0.0000
     11 ****         1.4518   3.9324   0.4325 C.ar           1 S1                 0.0000
     12 ****         2.6239   3.5205  -0.2241 C.ar           1 S1                 0.0000
     13 ****         2.7655   2.2305  -0.5917 N.pl3          1 S1                 1.0000
     14 ****         1.8338   1.2693  -0.3707 C.ar           1 S1                 0.0000
     15 ****         2.1268  -0.0455  -0.7988 N.3            1 S1                 0.0000
     16 ****         3.2825  -0.3039  -1.6497 C.3            1 S1                 0.0000
     17 ****         3.4739  -1.8171  -1.6056 C.3            1 S1                 0.0000
     18 ****         3.0741  -2.1561  -0.1726 C.3            1 S1                 0.0000
     19 ****         1.9665  -1.1457   0.1469 C.3            1 S1                 0.0000
     20 ****        -5.5221  -0.6843  -0.5985 H              1 S1                 0.0000
     21 ****        -4.0344  -1.3486  -1.2691 H              1 S1                 0.0000
     22 ****        -4.2640   0.3937  -1.1849 H              1 S1                 0.0000
     23 ****        -4.2311   0.3331   1.2830 H              1 S1                 0.0000
     24 ****        -3.6350  -1.7352   2.5518 H              1 S1                 0.0000
     25 ****        -5.2159  -1.7966   1.8009 H              1 S1                 0.0000
     26 ****        -4.0620  -3.6946   1.4486 H              1 S1                 0.0000
     27 ****        -1.8063  -1.1746   0.7698 H              1 S1                 0.0000
     28 ****        -0.0803  -0.2964   0.4968 H              1 S1                 0.0000
     29 ****        -0.4530   3.3087   1.1916 H              1 S1                 0.0000
     30 ****         1.3287   4.9598   0.7429 H              1 S1                 0.0000
     31 ****         3.4507   4.1757  -0.4571 H              1 S1                 0.0000
     32 ****         3.1177   0.0539  -2.6664 H              1 S1                 0.0000
     33 ****         4.1699   0.1887  -1.2501 H              1 S1                 0.0000
     34 ****         2.7928  -2.3011  -2.3071 H              1 S1                 0.0000
     35 ****         4.4907  -2.1250  -1.8511 H              1 S1                 0.0000
     36 ****         2.7505  -3.1907  -0.0542 H              1 S1                 0.0000
     37 ****         3.9241  -1.9923   0.4914 H              1 S1                 0.0000
     38 ****         2.0251  -0.8085   1.1829 H              1 S1                 0.0000
     39 ****         0.9894  -1.6045  -0.0076 H              1 S1                 0.0000
     40 ****         3.6321   1.9602  -1.0571 H              1 S1                 0.0000
     41 ****        -2.8134  -2.9876   0.7615 LP             1 S1                 0.0000
     42 ****        -4.2753  -2.9987   0.0340 LP             1 S1                 0.0000
     43 ****        -3.3135   1.9438   0.4059 LP             1 S1                 0.0000
     44 ****        -1.7873   2.7489   0.2546 LP             1 S1                 0.0000
     45 ****         1.3355  -0.0443  -1.4101 LP             1 S1                 0.0000
@<TRIPOS>BOND
    1    1    2 1     
    2    1   20 1     
    3    1   21 1     
    4    1   22 1     
    5    2    3 1     
    6    2    5 1     
    7    2   23 1     
    8    3    4 1     
    9    3   24 1     
   10    3   25 1     
   11    4   26 1     
   12    5    6 am    
   13    5   27 1     
   14    6    7 2     
   15    6    8 am    
   16    8    9 1     
   17    8   28 1     
   18    9   14 ar    
   19    9   10 ar    
   20   10   11 ar    
   21   10   29 1     
   22   11   12 ar    
   23   11   30 1     
   24   12   13 ar    
   25   12   31 1     
   26   13   14 ar    
   27   13   40 1     
   28   14   15 1     
   29   15   19 1     
   30   15   16 1     
   31   16   17 1     
   32   16   32 1     
   33   16   33 1     
   34   17   18 1     
   35   17   34 1     
   36   17   35 1     
   37   18   19 1     
   38   18   36 1     
   39   18   37 1     
   40   19   38 1     
   41   19   39 1     
   42    4   41 1     
   43    4   42 1     
   44    7   43 1     
   45    7   44 1     
   46   15   45 1     
@<TRIPOS>SUBSTRUCTURE
      1 S1             1
@<TRIPOS>SET
LONE_PAIRS      STATIC     ATOMS    <user>   **** ""
5 41 42 43 44 45
DONOR_HYDROGENS      STATIC     ATOMS    <user>   **** ""
4 26 27 28 40
ATOM$BLUE        STATIC     ATOMS    COLORGROUP SYSTEM
5 41 42 43 44 45
ATOM$RED        STATIC     ATOMS    COLORGROUP SYSTEM
4 26 27 28 40
