#       Name:                AV-unprocessed.smi:2146
#       Creating user name   scv26
#       Creation time:       Fri Mar 27 11:51:06 2020


#       File generated by GOLD software.
#

@<TRIPOS>MOLECULE
AV-unprocessed.smi:2146
    51    52     1
SMALL
NO_CHARGES


@<TRIPOS>ATOM
      1 ****        -0.7485   2.5135  -1.4471 C.3            1 S1                 0.0000
      2 ****        -1.5367   1.2856  -0.9243 C.3            1 S1                 0.0000
      3 ****        -1.1028   0.0279  -1.7331 C.3            1 S1                 0.0000
      4 ****         0.3378  -0.2107  -1.7148 N.am           1 S1                 0.0000
      5 ****         1.0240  -0.7159  -0.6787 C.2            1 S1                 0.0000
      6 ****         0.4969  -1.0294   0.3898 O.2            1 S1                 0.0000
      7 ****         2.5377  -0.8661  -0.8877 C.3            1 S1                 0.0000
      8 ****         3.1787  -1.7593   0.0920 N.am           1 S1                 0.0000
      9 ****         3.7957  -1.1541   1.2046 C.2            1 S1                 0.0000
     10 ****         4.4017  -1.8581   2.1796 C.2            1 S1                 0.0000
     11 ****         5.0999  -1.1705   3.3424 C.3            1 S1                 0.0000
     12 ****         4.2180  -0.8979   4.3029 F              1 S1                 0.0000
     13 ****         6.0531  -1.9457   3.8600 F              1 S1                 0.0000
     14 ****         5.6579  -0.0232   2.9544 F              1 S1                 0.0000
     15 ****         4.4230  -3.2987   2.0177 C.2            1 S1                 0.0000
     16 ****         3.8423  -3.8929   0.9571 C.2            1 S1                 0.0000
     17 ****         3.1656  -3.1147  -0.0829 C.2            1 S1                 0.0000
     18 ****         2.6224  -3.6475  -1.0509 O.2            1 S1                 0.0000
     19 ****        -3.0024   1.5037  -0.9234 N.3            1 S1                 0.0000
     20 ****        -3.7471   0.3547  -0.3950 C.3            1 S1                 0.0000
     21 ****        -5.2671   0.5903  -0.3632 C.3            1 S1                 0.0000
     22 ****        -5.5570   1.7525   0.4009 O.3            1 S1                 0.0000
     23 ****        -4.9170   2.9076  -0.1228 C.3            1 S1                 0.0000
     24 ****        -3.3946   2.6883  -0.1509 C.3            1 S1                 0.0000
     25 ****         0.3247   2.3322  -1.4894 H              1 S1                 0.0000
     26 ****        -0.8615   3.3832  -0.8014 H              1 S1                 0.0000
     27 ****        -1.0733   2.7923  -2.4501 H              1 S1                 0.0000
     28 ****        -1.2247   1.1268   0.1091 H              1 S1                 0.0000
     29 ****        -1.5733  -0.8809  -1.3608 H              1 S1                 0.0000
     30 ****        -1.4145   0.1312  -2.7729 H              1 S1                 0.0000
     31 ****         0.8490   0.0255  -2.5530 H              1 S1                 0.0000
     32 ****         2.7271  -1.2234  -1.9015 H              1 S1                 0.0000
     33 ****         2.9851   0.1278  -0.8490 H              1 S1                 0.0000
     34 ****         3.7405  -0.0752   1.2182 H              1 S1                 0.0000
     35 ****         4.9083  -3.9136   2.7612 H              1 S1                 0.0000
     36 ****         3.8747  -4.9691   0.8706 H              1 S1                 0.0000
     37 ****        -3.5802  -0.5289  -1.0069 H              1 S1                 0.0000
     38 ****        -3.3959   0.1172   0.6103 H              1 S1                 0.0000
     39 ****        -5.6621   0.7016  -1.3743 H              1 S1                 0.0000
     40 ****        -5.7730  -0.2648   0.0848 H              1 S1                 0.0000
     41 ****        -5.2958   3.1224  -1.1233 H              1 S1                 0.0000
     42 ****        -5.1637   3.7650   0.5034 H              1 S1                 0.0000
     43 ****        -3.0229   2.6029   0.8715 H              1 S1                 0.0000
     44 ****        -2.9521   3.5878  -0.5745 H              1 S1                 0.0000
     45 ****        -0.4881  -0.9110   0.5151 LP             1 S1                 0.0000
     46 ****         1.0541  -1.4022   1.1318 LP             1 S1                 0.0000
     47 ****         2.1704  -3.0847  -1.7429 LP             1 S1                 0.0000
     48 ****         2.6333  -4.6430  -1.1450 LP             1 S1                 0.0000
     49 ****        -3.2356   1.6374  -1.8866 LP             1 S1                 0.0000
     50 ****        -5.2442   1.6079   1.3397 LP             1 S1                 0.0000
     51 ****        -6.5457   1.9022   0.3983 LP             1 S1                 0.0000
@<TRIPOS>BOND
    1    1    2 1     
    2    1   25 1     
    3    1   26 1     
    4    1   27 1     
    5    2    3 1     
    6    2   19 1     
    7    2   28 1     
    8    3    4 1     
    9    3   29 1     
   10    3   30 1     
   11    4    5 am    
   12    4   31 1     
   13    5    6 2     
   14    5    7 1     
   15    7    8 1     
   16    7   32 1     
   17    7   33 1     
   18    8   17 am    
   19    8    9 1     
   20    9   10 2     
   21    9   34 1     
   22   10   11 1     
   23   10   15 1     
   24   11   12 1     
   25   11   13 1     
   26   11   14 1     
   27   15   16 2     
   28   15   35 1     
   29   16   17 1     
   30   16   36 1     
   31   17   18 2     
   32   19   24 1     
   33   19   20 1     
   34   20   21 1     
   35   20   37 1     
   36   20   38 1     
   37   21   22 1     
   38   21   39 1     
   39   21   40 1     
   40   22   23 1     
   41   23   24 1     
   42   23   41 1     
   43   23   42 1     
   44   24   43 1     
   45   24   44 1     
   46    6   45 1     
   47    6   46 1     
   48   18   47 1     
   49   18   48 1     
   50   19   49 1     
   51   22   50 1     
   52   22   51 1     
@<TRIPOS>SUBSTRUCTURE
      1 S1             1
@<TRIPOS>SET
LONE_PAIRS      STATIC     ATOMS    <user>   **** ""
7 45 46 47 48 49 50 51
DONOR_HYDROGENS      STATIC     ATOMS    <user>   **** ""
1 31
ATOM$BLUE        STATIC     ATOMS    COLORGROUP SYSTEM
7 45 46 47 48 49 50 51
ATOM$RED        STATIC     ATOMS    COLORGROUP SYSTEM
1 31
