AV-unprocessed.smi:2321|AV-procd|sdf|9283|dock4
  -GOLD-   2272012503D 1   1.00000     0.00000
 Structure written by MMmdl.
 36 37  0  0  0  0  0  0  0  0  1 V2000
  149.2944  140.7760  157.6661 O   0  0  0  0  0  0  0  0  0  0  0  0
  149.4352  141.7700  156.9573 C   0  0  0  0  0  0  0  0  0  0  0  0
  148.9436  141.9014  155.7097 N   0  0  0  0  0  0  0  0  0  0  0  0
  148.1833  140.9771  154.9436 C   0  0  0  0  0  0  0  0  0  0  0  0
  148.3995  139.5776  154.9399 C   0  0  0  0  0  0  0  0  0  0  0  0
  147.5841  138.7719  154.1198 C   0  0  0  0  0  0  0  0  0  0  0  0
  146.6085  139.2639  153.3268 N   0  0  0  0  0  0  0  0  0  0  0  0
  146.4152  140.5999  153.3223 C   0  0  0  0  0  0  0  0  0  0  0  0
  147.1738  141.4940  154.1041 C   0  0  0  0  0  0  0  0  0  0  0  0
  146.9309  142.8262  154.0500 F   0  0  0  0  0  0  0  0  0  0  0  0
  150.0967  142.8532  157.4057 N   0  0  0  0  0  0  0  0  0  0  0  0
  150.7505  143.0505  158.7016 C   0  0  2  0  0  0  0  0  0  0  0  0
  151.5909  144.3391  158.6584 C   0  0  0  0  0  0  0  0  0  0  0  0
  152.3388  144.5615  159.9813 C   0  0  0  0  0  0  0  0  0  0  0  0
  153.2138  143.3496  160.3370 C   0  0  0  0  0  0  0  0  0  0  0  0
  152.3869  142.0479  160.3938 C   0  0  2  0  0  0  0  0  0  0  0  0
  153.2535  140.8278  160.7681 C   0  0  0  0  0  0  0  0  0  0  0  0
  153.6017  140.8694  162.0545 F   0  0  0  0  0  0  0  0  0  0  0  0
  152.5780  139.7012  160.5408 F   0  0  0  0  0  0  0  0  0  0  0  0
  154.3585  140.8068  160.0225 F   0  0  0  0  0  0  0  0  0  0  0  0
  151.6359  141.8378  159.0613 C   0  0  0  0  0  0  0  0  0  0  0  0
  149.0741  142.8060  155.2809 H   0  0  0  0  0  0  0  0  0  0  0  0
  149.1721  139.1112  155.5311 H   0  0  0  0  0  0  0  0  0  0  0  0
  147.7245  137.7015  154.0959 H   0  0  0  0  0  0  0  0  0  0  0  0
  145.6334  140.9680  152.6744 H   0  0  0  0  0  0  0  0  0  0  0  0
  150.1353  143.6419  156.7761 H   0  0  0  0  0  0  0  0  0  0  0  0
  149.9907  143.1798  159.4747 H   0  0  0  0  0  0  0  0  0  0  0  0
  152.3112  144.2861  157.8406 H   0  0  0  0  0  0  0  0  0  0  0  0
  150.9506  145.1975  158.4514 H   0  0  0  0  0  0  0  0  0  0  0  0
  152.9562  145.4575  159.9116 H   0  0  0  0  0  0  0  0  0  0  0  0
  151.6210  144.7431  160.7822 H   0  0  0  0  0  0  0  0  0  0  0  0
  154.0108  143.2496  159.5991 H   0  0  0  0  0  0  0  0  0  0  0  0
  153.7023  143.5264  161.2957 H   0  0  0  0  0  0  0  0  0  0  0  0
  151.6383  142.1663  161.1789 H   0  0  0  0  0  0  0  0  0  0  0  0
  151.0237  140.9379  159.1260 H   0  0  0  0  0  0  0  0  0  0  0  0
  152.3550  141.6602  158.2603 H   0  0  0  0  0  0  0  0  0  0  0  0
  1  2  2  0  0  0  0
  2  3  1  0  0  0  0
  2 11  1  0  0  0  0
  3  4  1  0  0  0  0
  3 22  1  0  0  0  0
  4  9  1  0  0  0  0
  4  5  2  0  0  0  0
  5  6  1  0  0  0  0
  5 23  1  0  0  0  0
  6  7  2  0  0  0  0
  6 24  1  0  0  0  0
  7  8  1  0  0  0  0
  8  9  2  0  0  0  0
  8 25  1  0  0  0  0
  9 10  1  0  0  0  0
 11 12  1  0  0  0  0
 11 26  1  0  0  0  0
 12 21  1  0  0  0  0
 12 13  1  0  0  0  0
 12 27  1  0  0  0  0
 13 14  1  0  0  0  0
 13 28  1  0  0  0  0
 13 29  1  0  0  0  0
 14 15  1  0  0  0  0
 14 30  1  0  0  0  0
 14 31  1  0  0  0  0
 15 16  1  0  0  0  0
 15 32  1  0  0  0  0
 15 33  1  0  0  0  0
 16 17  1  0  0  0  0
 16 21  1  0  0  0  0
 16 34  1  0  0  0  0
 17 18  1  0  0  0  0
 17 19  1  0  0  0  0
 17 20  1  0  0  0  0
 21 35  1  0  0  0  0
 21 36  1  0  0  0  0
M  END
> <s_m_source_file>
AV-unprocessed.smi

> <i_m_source_file_index>
2321

> <i_lp_mmshare_version>
43012

> <i_f3d_flags>
0

> <s_epik_input>
RkMoRikoRilbQ0BASF0oW0NIMl0xKVtDSDJdW0NIMl1bQ0gyXVtDQEhdMVtOSF1DKD1PKVtOSF1jMltjSF1bY0hdbltjSF1jMkY=

> <s_epik_cmdline>
J2VwaWtfcHl0aG9uJywgJy1waCcsICc3LjAnLCAnLXRuJywgJzgnLCAnLW1hJywgJzIwMCcsICctbWV0YWxfYmluZGluZycsICctaW1hZScsICc8aW5maWxlLm1hZT4nLCAnLW9tYWUnLCAnPG91dGZpbGUubWFlPic=

> <r_epik_Ionization_Penalty>
0.00319438

> <r_epik_Ionization_Penalty_Charging>
0

> <r_epik_Ionization_Penalty_Neutral>
0.00319438

> <r_epik_State_Penalty>
0.00222511

> <r_epik_Charging_Adjusted_Penalty>
0.00222511

> <i_epik_Tot_Q>
0

> <i_epik_Tot_abs_Q>
0

> <r_epik_Metal_State_Penalty>
-0

> <b_epik_Metal_Only>
0

> <s_lp_Force_Field>
OPLS_2005

> <r_lp_Energy>
26.7556

> <b_lp_Chiralities_Consistent>
1

> <s_lp_Variant>
AV-unprocessed.smi:2321-3

> <Gold.Version>
5.8.1

> <Gold.Id.Protein>
6NUR|6NUR_protein|mol2

> <Gold.PLP.Fitness>
53.3688

> <Gold.PLP.PLP>
-42.7648

> <Gold.PLP.part.hbond>
-2.0000

> <Gold.PLP.part.metal>
0.0000

> <Gold.PLP.part.buried>
-4.0321

> <Gold.PLP.part.nonpolar>
-38.5033

> <Gold.PLP.part.repulsive>
1.4225

> <Gold.PLP.ligand.clash>
0.0000

> <Gold.PLP.ligand.torsion>
0.6994

> <Gold.PLP.Chemscore.Hbond>
2.0000

> <Gold.PLP.Chemscore.CHOScore>
1.9950

> <Gold.PLP.Chemscore.Metal>
0.0000

> <Gold.Chemscore.Hbonds>
donor molecule, donor type, donor heavy atom, donor atom, acceptor molecule, acceptor atom, score
      L1  H     3    22       P1  8028  0.83
      L1  H    11    26       P1  8028  0.78
      L1  C     8    25       P1 10175  0.80

> <Gold.PLP.Chemscore.Internal.Correction>
0.0177

> <Gold.Rescore>
     Score         DG    S(hbond)    S(metal)    S(lipo)     H(rot)  DE(clash)    DE(int)     intcor
     18.49     -20.31       1.88        0.00      94.84       1.00       1.50       0.31       ----

> <Gold.Chemscore.Fitness>
18.4923

> <Gold.Chemscore.DG>
-20.3084

> <Gold.Chemscore.ZeroCoef>
-5.4800

> <Gold.Chemscore.Hbond>
1.8840

> <Gold.Chemscore.Metal>
0.0000

> <Gold.Chemscore.Lipo>
94.8373

> <Gold.Chemscore.Internal_Hbond>
0.0000

> <Gold.Chemscore.DEClash>
1.5012

> <Gold.Chemscore.DEInternal>
0.3148

> <Gold.Chemscore.Rot>
1.0000

> <Gold.Chemscore.Internal.Correction>
   9.000000E+99

> <Gold.Chemscore.Hbonds>
donor molecule, donor type, donor heavy atom, donor atom, acceptor molecule, acceptor atom, score
      L1  H     3    22       P1  8028  0.82
      L1  H    11    26       P1  8028  0.76

> <Gold.Chemscore.Hbond.Weighted>
-6.2924

> <Gold.Chemscore.Metal.Weighted>
-0.0000

> <Gold.Chemscore.Lipo.Weighted>
-11.0960

> <Gold.Chemscore.Internal_Hbond.Weighted>
0.0000

> <Gold.Chemscore.DEClash.Weighted>
1.5012

> <Gold.Chemscore.DEInternal.Weighted>
0.3148

> <Gold.Chemscore.Rot.Weighted>
2.5600

> <Gold.Chemscore.Internal.Correction.Weighted>
   9.000000E+99

> <Gold.Protein.RotatedTorsions>
[ 6907 6896 6895 6894 ] final -116.45 input  -60.11 | X-H torsion
[ 7974 7965 7964 7962 ] final  102.73 input  175.53 | X-H torsion
[ 8008 7997 7996 7995 ] final -175.94 input   59.86 | X-H torsion
[ 10167 10162 10161 10158 ] final  -95.25 input  -65.29 | X-H torsion
[ 10718 10713 10712 10709 ] final  120.98 input   66.30 | X-H torsion
[ 10763 10752 10751 10750 ] final   -8.64 input  -60.55 | X-H torsion
[ 11005 11000 10999 10996 ] final -144.06 input  -57.11 | X-H torsion

> <Gold.Protein.ActiveResidues>
 VAL166  LYS551  ARG553  GLY616  TRP617  ASP618  TYR619  PRO620  LYS621  CYS622 
 ASP623  PHE694  ASN695  SER759  ASP760  ASP761  ALA762  ILE779  LEU786  VAL792 
 PHE793  MET794  SER795  GLU796  ALA797  LYS798  CYS799  TRP800  GLU811  SER814 

> <Gold.Protein.RotatedAtoms>
  150.8057  133.8515  159.3206 H   0  0  0  0  0  0  0  0  0  0  0  0  # atno 6907 bound_to 6896
  151.6315  135.1020  160.0132 H   0  0  0  0  0  0  0  0  0  0  0  0  # atno 6908 bound_to 6896
  152.4147  133.6979  159.6464 H   0  0  0  0  0  0  0  0  0  0  0  0  # atno 6909 bound_to 6896
  145.3552  139.2430  143.3536 H   0  0  0  0  0  0  0  0  0  0  0  0  # atno 7974 bound_to 7965
  155.9887  140.1196  157.0658 H   0  0  0  0  0  0  0  0  0  0  0  0  # atno 8008 bound_to 7997
  154.4205  140.1130  156.5604 H   0  0  0  0  0  0  0  0  0  0  0  0  # atno 8009 bound_to 7997
  155.6372  140.3473  155.4705 H   0  0  0  0  0  0  0  0  0  0  0  0  # atno 8010 bound_to 7997
  140.3061  143.3133  152.0198 H   0  0  0  0  0  0  0  0  0  0  0  0  # atno 10167 bound_to 10162
  157.5851  131.1071  150.8110 H   0  0  0  0  0  0  0  0  0  0  0  0  # atno 10718 bound_to 10713
  153.4434  135.7014  153.6154 H   0  0  0  0  0  0  0  0  0  0  0  0  # atno 10763 bound_to 10752
  153.4519  135.3756  155.2289 H   0  0  0  0  0  0  0  0  0  0  0  0  # atno 10764 bound_to 10752
  154.8728  135.3999  154.3836 H   0  0  0  0  0  0  0  0  0  0  0  0  # atno 10765 bound_to 10752
  140.8062  134.2798  157.4959 H   0  0  0  0  0  0  0  0  0  0  0  0  # atno 11005 bound_to 11000
  146.2951  140.4176  142.8725 LP  0  0  0  0  0  0  0  0  0  0  0  0  # atno 17320 bound_to 7965
  144.8687  140.7242  143.6060 LP  0  0  0  0  0  0  0  0  0  0  0  0  # atno 17321 bound_to 7965
  139.4904  144.6420  151.6857 LP  0  0  0  0  0  0  0  0  0  0  0  0  # atno 17342 bound_to 10162
  140.5609  144.0270  150.6169 LP  0  0  0  0  0  0  0  0  0  0  0  0  # atno 17343 bound_to 10162
  156.8546  130.5092  149.5309 LP  0  0  0  0  0  0  0  0  0  0  0  0  # atno 17370 bound_to 10713
  156.0900  130.5888  150.9716 LP  0  0  0  0  0  0  0  0  0  0  0  0  # atno 17371 bound_to 10713
  139.8717  134.9457  156.3918 LP  0  0  0  0  0  0  0  0  0  0  0  0  # atno 17394 bound_to 11000
  140.9244  133.7622  155.9947 LP  0  0  0  0  0  0  0  0  0  0  0  0  # atno 17395 bound_to 11000

$$$$
