AV-unprocessed.smi:287|AV-procd|sdf|2182|dock3
  -GOLD-   2262021553D 1   1.00000     0.00000
 Structure written by MMmdl.
 55 58  0  0  0  0  0  0  0  0  1 V2000
  134.1650  137.0173  155.0136 C   0  0  0  0  0  0  0  0  0  0  0  0
  135.6280  137.1366  155.2713 C   0  0  0  0  0  0  0  0  0  0  0  0
  136.7127  137.3631  154.4751 C   0  0  0  0  0  0  0  0  0  0  0  0
  137.8645  137.3771  155.3172 C   0  0  0  0  0  0  0  0  0  0  0  0
  139.3016  137.5980  154.8639 C   0  0  2  0  0  0  0  0  0  0  0  0
  139.7872  138.9817  155.3268 C   0  0  0  0  0  0  0  0  0  0  0  0
  139.4387  137.6050  153.4560 O   0  0  0  0  0  0  0  0  0  0  0  0
  140.2609  136.5004  155.3787 C   0  0  0  0  0  0  0  0  0  0  0  0
  141.6236  136.6571  154.8864 N   0  0  0  0  0  0  0  0  0  0  0  0
  142.1510  135.7752  154.0113 C   0  0  0  0  0  0  0  0  0  0  0  0
  141.3277  134.7692  153.6306 N   0  0  0  0  0  0  0  0  0  0  0  0
  141.7549  133.8393  152.7717 C   0  0  0  0  0  0  0  0  0  0  0  0
  142.9471  133.7324  152.1825 N   0  0  0  0  0  0  0  0  0  0  0  0
  143.7809  134.7453  152.5573 C   0  0  0  0  0  0  0  0  0  0  0  0
  143.4675  135.8005  153.4611 C   0  0  0  0  0  0  0  0  0  0  0  0
  144.5750  136.6324  153.5899 N   0  0  0  0  0  0  0  0  0  0  0  0
  145.4795  136.0957  152.8165 C   0  0  0  0  0  0  0  0  0  0  0  0
  145.0783  134.9601  152.1464 N   0  0  0  0  0  0  0  0  0  0  0  0
  145.8469  134.0878  151.2014 C   0  0  2  0  0  0  0  0  0  0  0  0
  145.1864  134.0880  149.9714 O   0  0  0  0  0  0  0  0  0  0  0  0
  144.3335  132.9507  149.8909 C   0  0  1  0  0  0  0  0  0  0  0  0
  143.9060  132.6714  148.4395 C   0  0  0  0  0  0  0  0  0  0  0  0
  143.4458  133.8608  147.8338 O   0  0  0  0  0  0  0  0  0  0  0  0
  145.1956  131.8689  150.5517 C   0  0  1  0  0  0  0  0  0  0  0  0
  146.1458  131.3591  149.6295 O   0  0  0  0  0  0  0  0  0  0  0  0
  145.8451  132.6316  151.7066 C   0  0  1  0  0  0  0  0  0  0  0  0
  147.1358  132.1468  152.0272 O   0  0  0  0  0  0  0  0  0  0  0  0
  137.3777  137.1374  156.5801 C   0  0  0  0  0  0  0  0  0  0  0  0
  138.0070  137.0023  157.9273 C   0  0  0  0  0  0  0  0  0  0  0  0
  136.0231  136.9952  156.5610 O   0  0  0  0  0  0  0  0  0  0  0  0
  146.8316  134.5518  151.1280 H   0  0  0  0  0  0  0  0  0  0  0  0
  143.4522  133.1137  150.5146 H   0  0  0  0  0  0  0  0  0  0  0  0
  144.5921  131.0353  150.9120 H   0  0  0  0  0  0  0  0  0  0  0  0
  145.2102  132.5538  152.5909 H   0  0  0  0  0  0  0  0  0  0  0  0
  133.9231  137.3186  153.9944 H   0  0  0  0  0  0  0  0  0  0  0  0
  133.5983  137.6511  155.6961 H   0  0  0  0  0  0  0  0  0  0  0  0
  133.8318  135.9885  155.1505 H   0  0  0  0  0  0  0  0  0  0  0  0
  136.6843  137.5093  153.4056 H   0  0  0  0  0  0  0  0  0  0  0  0
  139.7574  139.0679  156.4136 H   0  0  0  0  0  0  0  0  0  0  0  0
  139.1640  139.7779  154.9177 H   0  0  0  0  0  0  0  0  0  0  0  0
  140.8145  139.1713  155.0128 H   0  0  0  0  0  0  0  0  0  0  0  0
  139.8305  136.7877  153.1888 H   0  0  0  0  0  0  0  0  0  0  0  0
  140.2514  136.4609  156.4688 H   0  0  0  0  0  0  0  0  0  0  0  0
  139.9022  135.5334  155.0232 H   0  0  0  0  0  0  0  0  0  0  0  0
  142.1003  137.4972  155.1817 H   0  0  0  0  0  0  0  0  0  0  0  0
  141.0386  133.0707  152.5214 H   0  0  0  0  0  0  0  0  0  0  0  0
  146.4675  136.5217  152.7187 H   0  0  0  0  0  0  0  0  0  0  0  0
  144.7227  132.2432  147.8576 H   0  0  0  0  0  0  0  0  0  0  0  0
  143.0827  131.9565  148.4217 H   0  0  0  0  0  0  0  0  0  0  0  0
  144.1814  134.2957  147.4303 H   0  0  0  0  0  0  0  0  0  0  0  0
  147.0011  131.4064  150.0293 H   0  0  0  0  0  0  0  0  0  0  0  0
  147.6093  132.0062  151.2210 H   0  0  0  0  0  0  0  0  0  0  0  0
  138.8095  136.2650  157.9069 H   0  0  0  0  0  0  0  0  0  0  0  0
  137.2789  136.6825  158.6735 H   0  0  0  0  0  0  0  0  0  0  0  0
  138.4270  137.9536  158.2541 H   0  0  0  0  0  0  0  0  0  0  0  0
  1  2  1  0  0  0  0
  1 35  1  0  0  0  0
  1 36  1  0  0  0  0
  1 37  1  0  0  0  0
  2 30  1  0  0  0  0
  2  3  2  0  0  0  0
  3  4  1  0  0  0  0
  3 38  1  0  0  0  0
  4  5  1  0  0  0  0
  4 28  2  0  0  0  0
  5  6  1  0  0  0  0
  5  7  1  0  0  0  0
  5  8  1  0  0  0  0
  6 39  1  0  0  0  0
  6 40  1  0  0  0  0
  6 41  1  0  0  0  0
  7 42  1  0  0  0  0
  8  9  1  0  0  0  0
  8 43  1  0  0  0  0
  8 44  1  0  0  0  0
  9 10  1  0  0  0  0
  9 45  1  0  0  0  0
 10 15  1  0  0  0  0
 10 11  2  0  0  0  0
 11 12  1  0  0  0  0
 12 13  2  0  0  0  0
 12 46  1  0  0  0  0
 13 14  1  0  0  0  0
 14 18  1  0  0  0  0
 14 15  2  0  0  0  0
 15 16  1  0  0  0  0
 16 17  2  0  0  0  0
 17 18  1  0  0  0  0
 17 47  1  0  0  0  0
 18 19  1  0  0  0  0
 19 31  1  0  0  0  0
 19 26  1  0  0  0  0
 19 20  1  0  0  0  0
 20 21  1  0  0  0  0
 21 32  1  0  0  0  0
 21 22  1  0  0  0  0
 21 24  1  0  0  0  0
 22 23  1  0  0  0  0
 22 48  1  0  0  0  0
 22 49  1  0  0  0  0
 23 50  1  0  0  0  0
 24 33  1  0  0  0  0
 24 25  1  0  0  0  0
 24 26  1  0  0  0  0
 25 51  1  0  0  0  0
 26 34  1  0  0  0  0
 26 27  1  0  0  0  0
 27 52  1  0  0  0  0
 28 29  1  0  0  0  0
 28 30  1  0  0  0  0
 29 53  1  0  0  0  0
 29 54  1  0  0  0  0
 29 55  1  0  0  0  0
M  END
> <s_m_source_file>
AV-unprocessed.smi

> <i_m_source_file_index>
287

> <i_lp_mmshare_version>
43012

> <i_f3d_flags>
0

> <s_epik_input>
W0NIM11jMVtjSF1jKGMobzEpW0NIM10pW0NAQF0oW0NIM10pKFtPSF0pW0NIMl1bTkhdYyhuW2NIXW4yKWMoYzIzKW5bY0hdbjNbQ0BASF00T1tDQEhdKFtDSDJdW09IXSlbQ0BASF0oW09IXSlbQ0BIXTRbT0hd

> <s_epik_cmdline>
J2VwaWtfcHl0aG9uJywgJy1waCcsICc3LjAnLCAnLXRuJywgJzgnLCAnLW1hJywgJzIwMCcsICctbWV0YWxfYmluZGluZycsICctaW1hZScsICc8aW5maWxlLm1hZT4nLCAnLW9tYWUnLCAnPG91dGZpbGUubWFlPic=

> <r_lp_tautomer_probability>
1

> <r_epik_Ionization_Penalty>
0.000992612

> <r_epik_Ionization_Penalty_Charging>
0

> <r_epik_Ionization_Penalty_Neutral>
0.000992612

> <r_epik_State_Penalty>
-0

> <r_epik_Charging_Adjusted_Penalty>
0

> <i_epik_Tot_Q>
0

> <i_epik_Tot_abs_Q>
0

> <r_epik_Metal_State_Penalty>
-0

> <b_epik_Metal_Only>
0

> <s_epik_Chemistry_Notes>
This compound contains an acetal/aminal-like group ( X-CH(R)-Y where X, Y are N, S, or O) that may be acid/base labile, releasing an aldehyde.

> <s_lp_Force_Field>
OPLS_2005

> <r_lp_Energy>
45.3255

> <b_lp_Chiralities_Consistent>
1

> <s_lp_Variant>
AV-unprocessed.smi:287-6

> <Gold.Version>
5.8.1

> <Gold.Id.Protein>
6NUR|6NUR_protein|mol2

> <Gold.PLP.Fitness>
54.7386

> <Gold.PLP.PLP>
-41.7481

> <Gold.PLP.part.hbond>
-5.9558

> <Gold.PLP.part.metal>
0.0000

> <Gold.PLP.part.buried>
-5.1357

> <Gold.PLP.part.nonpolar>
-33.6907

> <Gold.PLP.part.repulsive>
4.0697

> <Gold.PLP.ligand.clash>
0.0000

> <Gold.PLP.ligand.torsion>
0.4436

> <Gold.PLP.Chemscore.Hbond>
3.8610

> <Gold.PLP.Chemscore.CHOScore>
0.7461

> <Gold.PLP.Chemscore.Metal>
0.0000

> <Gold.Chemscore.Hbonds>
donor molecule, donor type, donor heavy atom, donor atom, acceptor molecule, acceptor atom, score
      L1  H    23    50       P1  7921  0.94
      L1  H    25    51       P1 10747  0.94
      L1  H    27    52       P1 10747  0.91
      P1  H 10192 10197       L1    23  0.77
      P1  H 11000 11005       L1    11  0.23
      L1  C    17    47       P1  7948  0.74

> <Gold.PLP.Chemscore.Internal.Correction>
0.0564

> <Gold.Rescore>
     Score         DG    S(hbond)    S(metal)    S(lipo)     H(rot)  DE(clash)    DE(int)     intcor
      6.48     -10.29       2.54        0.00      83.92       5.27       1.99       1.82       ----

> <Gold.Chemscore.Fitness>
6.4765

> <Gold.Chemscore.DG>
-10.2863

> <Gold.Chemscore.ZeroCoef>
-5.4800

> <Gold.Chemscore.Hbond>
2.5365

> <Gold.Chemscore.Metal>
0.0000

> <Gold.Chemscore.Lipo>
83.9173

> <Gold.Chemscore.Internal_Hbond>
0.0000

> <Gold.Chemscore.DEClash>
1.9944

> <Gold.Chemscore.DEInternal>
1.8155

> <Gold.Chemscore.Rot>
5.2672

> <Gold.Chemscore.Internal.Correction>
   9.000000E+99

> <Gold.Chemscore.Hbonds>
donor molecule, donor type, donor heavy atom, donor atom, acceptor molecule, acceptor atom, score
      L1  H    23    50       P1  7921  0.88
      L1  H    25    51       P1 10747  0.87
      L1  H    27    52       P1 10747  0.85
      P1  H 10192 10197       L1    23  0.11
      P1  H 11000 11005       L1    11  0.06

> <Gold.Chemscore.Hbond.Weighted>
-8.4719

> <Gold.Chemscore.Metal.Weighted>
-0.0000

> <Gold.Chemscore.Lipo.Weighted>
-9.8183

> <Gold.Chemscore.Internal_Hbond.Weighted>
0.0000

> <Gold.Chemscore.DEClash.Weighted>
1.9944

> <Gold.Chemscore.DEInternal.Weighted>
1.8155

> <Gold.Chemscore.Rot.Weighted>
13.4839

> <Gold.Chemscore.Internal.Correction.Weighted>
   9.000000E+99

> <Gold.Protein.RotatedTorsions>
[ 6907 6896 6895 6894 ] final -130.60 input  -60.11 | X-H torsion
[ 7974 7965 7964 7962 ] final  -87.02 input  175.53 | X-H torsion
[ 8008 7997 7996 7995 ] final -101.30 input   59.86 | X-H torsion
[ 10167 10162 10161 10158 ] final -161.28 input  -65.29 | X-H torsion
[ 10718 10713 10712 10709 ] final  -36.78 input   66.30 | X-H torsion
[ 10763 10752 10751 10750 ] final   58.31 input  -60.55 | X-H torsion
[ 11005 11000 10999 10996 ] final   23.30 input  -57.11 | X-H torsion

> <Gold.Protein.ActiveResidues>
 VAL166  LYS551  ARG553  GLY616  TRP617  ASP618  TYR619  PRO620  LYS621  CYS622 
 ASP623  PHE694  ASN695  SER759  ASP760  ASP761  ALA762  ILE779  LEU786  VAL792 
 PHE793  MET794  SER795  GLU796  ALA797  LYS798  CYS799  TRP800  GLU811  SER814 

> <Gold.Protein.RotatedAtoms>
  150.9416  133.6650  159.2789 H   0  0  0  0  0  0  0  0  0  0  0  0  # atno 6907 bound_to 6896
  151.4038  135.0974  159.9573 H   0  0  0  0  0  0  0  0  0  0  0  0  # atno 6908 bound_to 6896
  152.5071  133.8904  159.7446 H   0  0  0  0  0  0  0  0  0  0  0  0  # atno 6909 bound_to 6896
  145.4721  140.9559  143.1911 H   0  0  0  0  0  0  0  0  0  0  0  0  # atno 7974 bound_to 7965
  154.8406  140.0435  157.1539 H   0  0  0  0  0  0  0  0  0  0  0  0  # atno 8008 bound_to 7997
  154.9051  140.3005  155.5276 H   0  0  0  0  0  0  0  0  0  0  0  0  # atno 8009 bound_to 7997
  156.2992  140.2368  156.4083 H   0  0  0  0  0  0  0  0  0  0  0  0  # atno 8010 bound_to 7997
  139.6477  144.0142  152.2139 H   0  0  0  0  0  0  0  0  0  0  0  0  # atno 10167 bound_to 10162
  156.3228  130.4268  149.7944 H   0  0  0  0  0  0  0  0  0  0  0  0  # atno 10718 bound_to 10713
  152.9868  135.5611  154.5532 H   0  0  0  0  0  0  0  0  0  0  0  0  # atno 10763 bound_to 10752
  154.4965  135.2795  155.1457 H   0  0  0  0  0  0  0  0  0  0  0  0  # atno 10764 bound_to 10752
  154.2905  135.6327  153.5436 H   0  0  0  0  0  0  0  0  0  0  0  0  # atno 10765 bound_to 10752
  140.3711  134.2022  155.7667 H   0  0  0  0  0  0  0  0  0  0  0  0  # atno 11005 bound_to 11000
  144.7939  139.6274  143.7101 LP  0  0  0  0  0  0  0  0  0  0  0  0  # atno 17320 bound_to 7965
  146.2390  139.5963  142.9504 LP  0  0  0  0  0  0  0  0  0  0  0  0  # atno 17321 bound_to 7965
  139.9848  144.6403  150.7867 LP  0  0  0  0  0  0  0  0  0  0  0  0  # atno 17342 bound_to 10162
  140.7522  143.2987  151.3138 LP  0  0  0  0  0  0  0  0  0  0  0  0  # atno 17343 bound_to 10162
  156.5245  130.8230  151.3215 LP  0  0  0  0  0  0  0  0  0  0  0  0  # atno 17370 bound_to 10713
  157.7415  130.9872  150.2451 LP  0  0  0  0  0  0  0  0  0  0  0  0  # atno 17371 bound_to 10713
  141.1954  133.8106  157.0715 LP  0  0  0  0  0  0  0  0  0  0  0  0  # atno 17394 bound_to 11000
  140.0551  134.9785  157.1206 LP  0  0  0  0  0  0  0  0  0  0  0  0  # atno 17395 bound_to 11000

$$$$
