AV-unprocessed.smi:3204|AV-procd|sdf|12251|dock8
  -GOLD-   2272018 83D 1   1.00000     0.00000
 Structure written by MMmdl.
 30 31  0  0  0  0  0  0  0  0  1 V2000
  153.1645  142.5742  159.3961 C   0  0  0  0  0  0  0  0  0  0  0  0
  152.6430  141.1399  159.2517 C   0  0  0  0  0  0  0  0  0  0  0  0
  152.1099  140.8569  157.8592 C   0  0  0  0  0  0  0  0  0  0  0  0
  152.6870  139.8379  157.1836 N   0  0  0  0  0  0  0  0  0  0  0  0
  152.2223  139.5900  155.9566 C   0  0  0  0  0  0  0  0  0  0  0  0
  151.2457  140.2464  155.3249 N   0  0  0  0  0  0  0  0  0  0  0  0
  150.6600  141.2729  155.9866 C   0  0  0  0  0  0  0  0  0  0  0  0
  149.6309  141.9977  155.3689 N   0  0  0  0  0  0  0  0  0  0  0  0
  148.8202  141.4159  154.3032 C   0  0  1  0  0  0  0  0  0  0  0  0
  148.2884  140.0261  154.6270 C   0  0  0  0  0  0  0  0  0  0  0  0
  147.2849  139.8331  153.6404 O   0  0  0  0  0  0  0  0  0  0  0  0
  146.6620  141.0828  153.3427 C   0  0  0  0  0  0  0  0  0  0  0  0
  147.5367  142.1736  153.9782 C   0  0  1  0  0  0  0  0  0  0  0  0
  146.8909  142.6601  155.1422 O   0  0  0  0  0  0  0  0  0  0  0  0
  151.0703  141.6250  157.2904 C   0  0  0  0  0  0  0  0  0  0  0  0
  150.4946  142.6528  157.9610 F   0  0  0  0  0  0  0  0  0  0  0  0
  153.5411  142.7503  160.4038 H   0  0  0  0  0  0  0  0  0  0  0  0
  152.3741  143.3004  159.2039 H   0  0  0  0  0  0  0  0  0  0  0  0
  153.9785  142.7705  158.6978 H   0  0  0  0  0  0  0  0  0  0  0  0
  153.4423  140.4324  159.4758 H   0  0  0  0  0  0  0  0  0  0  0  0
  151.8598  140.9565  159.9880 H   0  0  0  0  0  0  0  0  0  0  0  0
  152.6843  138.7759  155.4184 H   0  0  0  0  0  0  0  0  0  0  0  0
  149.4757  142.9612  155.6284 H   0  0  0  0  0  0  0  0  0  0  0  0
  149.4250  141.3371  153.3984 H   0  0  0  0  0  0  0  0  0  0  0  0
  149.0571  139.2548  154.5751 H   0  0  0  0  0  0  0  0  0  0  0  0
  147.8318  139.9945  155.6178 H   0  0  0  0  0  0  0  0  0  0  0  0
  146.6240  141.1976  152.2592 H   0  0  0  0  0  0  0  0  0  0  0  0
  145.6352  141.0987  153.7114 H   0  0  0  0  0  0  0  0  0  0  0  0
  147.7110  143.0067  153.2967 H   0  0  0  0  0  0  0  0  0  0  0  0
  147.5000  143.2086  155.6124 H   0  0  0  0  0  0  0  0  0  0  0  0
  1  2  1  0  0  0  0
  1 17  1  0  0  0  0
  1 18  1  0  0  0  0
  1 19  1  0  0  0  0
  2  3  1  0  0  0  0
  2 20  1  0  0  0  0
  2 21  1  0  0  0  0
  3 15  1  0  0  0  0
  3  4  2  0  0  0  0
  4  5  1  0  0  0  0
  5  6  2  0  0  0  0
  5 22  1  0  0  0  0
  6  7  1  0  0  0  0
  7  8  1  0  0  0  0
  7 15  2  0  0  0  0
  8  9  1  0  0  0  0
  8 23  1  0  0  0  0
  9 13  1  0  0  0  0
  9 10  1  0  0  0  0
  9 24  1  0  0  0  0
 10 11  1  0  0  0  0
 10 25  1  0  0  0  0
 10 26  1  0  0  0  0
 11 12  1  0  0  0  0
 12 13  1  0  0  0  0
 12 27  1  0  0  0  0
 12 28  1  0  0  0  0
 13 14  1  0  0  0  0
 13 29  1  0  0  0  0
 14 30  1  0  0  0  0
 15 16  1  0  0  0  0
M  END
> <s_m_source_file>
AV-unprocessed.smi

> <i_m_source_file_index>
3204

> <i_lp_mmshare_version>
43012

> <i_f3d_flags>
0

> <s_epik_input>
W0NIM11bQ0gyXWMxbltjSF1uYyhjMUYpW05IXVtDQEBIXTJbQ0gyXU9bQ0gyXVtDQEhdMltPSF0=

> <s_epik_cmdline>
J2VwaWtfcHl0aG9uJywgJy1waCcsICc3LjAnLCAnLXRuJywgJzgnLCAnLW1hJywgJzIwMCcsICctbWV0YWxfYmluZGluZycsICctaW1hZScsICc8aW5maWxlLm1hZT4nLCAnLW9tYWUnLCAnPG91dGZpbGUubWFlPic=

> <r_lp_tautomer_probability>
1

> <r_epik_Ionization_Penalty>
0.000484964

> <r_epik_Ionization_Penalty_Charging>
0

> <r_epik_Ionization_Penalty_Neutral>
0.000484964

> <r_epik_State_Penalty>
-0

> <r_epik_Charging_Adjusted_Penalty>
0

> <i_epik_Tot_Q>
0

> <i_epik_Tot_abs_Q>
0

> <r_epik_Metal_State_Penalty>
-0

> <b_epik_Metal_Only>
0

> <s_lp_Force_Field>
OPLS_2005

> <r_lp_Energy>
19.2614

> <b_lp_Chiralities_Consistent>
1

> <s_lp_Variant>
AV-unprocessed.smi:3204-2

> <Gold.Version>
5.8.1

> <Gold.Id.Protein>
6NUR|6NUR_protein|mol2

> <Gold.PLP.Fitness>
42.9012

> <Gold.PLP.PLP>
-31.6407

> <Gold.PLP.part.hbond>
-4.0000

> <Gold.PLP.part.metal>
0.0000

> <Gold.PLP.part.buried>
-2.5828

> <Gold.PLP.part.nonpolar>
-24.4708

> <Gold.PLP.part.repulsive>
0.3981

> <Gold.PLP.ligand.clash>
0.0000

> <Gold.PLP.ligand.torsion>
0.2849

> <Gold.PLP.Chemscore.Hbond>
3.9417

> <Gold.PLP.Chemscore.CHOScore>
0.0000

> <Gold.PLP.Chemscore.Metal>
0.0000

> <Gold.Chemscore.Hbonds>
donor molecule, donor type, donor heavy atom, donor atom, acceptor molecule, acceptor atom, score
      L1  H     8    23       P1  8028  1.00
      L1  H    14    30       P1  8028  0.85
      P1  H  7989  7998       L1     6  1.00
      P1  H  7997  8008       L1     4  1.00

> <Gold.PLP.Chemscore.Internal.Correction>
0.0052

> <Gold.Rescore>
     Score         DG    S(hbond)    S(metal)    S(lipo)     H(rot)  DE(clash)    DE(int)     intcor
     15.50     -15.79       2.32        0.00      61.89       1.83       0.13       0.17       ----

> <Gold.Chemscore.Fitness>
15.4955

> <Gold.Chemscore.DG>
-15.7879

> <Gold.Chemscore.ZeroCoef>
-5.4800

> <Gold.Chemscore.Hbond>
2.3238

> <Gold.Chemscore.Metal>
0.0000

> <Gold.Chemscore.Lipo>
61.8853

> <Gold.Chemscore.Internal_Hbond>
0.0000

> <Gold.Chemscore.DEClash>
0.1264

> <Gold.Chemscore.DEInternal>
0.1660

> <Gold.Chemscore.Rot>
1.8337

> <Gold.Chemscore.Internal.Correction>
   9.000000E+99

> <Gold.Chemscore.Hbonds>
donor molecule, donor type, donor heavy atom, donor atom, acceptor molecule, acceptor atom, score
      L1  H     8    23       P1  8028  1.00
      L1  H    14    30       P1  8028  0.13
      P1  H  7989  7998       L1     6  0.53
      P1  H  7997  8008       L1     4  0.33

> <Gold.Chemscore.Hbond.Weighted>
-7.7616

> <Gold.Chemscore.Metal.Weighted>
-0.0000

> <Gold.Chemscore.Lipo.Weighted>
-7.2406

> <Gold.Chemscore.Internal_Hbond.Weighted>
0.0000

> <Gold.Chemscore.DEClash.Weighted>
0.1264

> <Gold.Chemscore.DEInternal.Weighted>
0.1660

> <Gold.Chemscore.Rot.Weighted>
4.6942

> <Gold.Chemscore.Internal.Correction.Weighted>
   9.000000E+99

> <Gold.Protein.RotatedTorsions>
[ 6907 6896 6895 6894 ] final -156.25 input  -60.11 | X-H torsion
[ 7974 7965 7964 7962 ] final  156.80 input  175.53 | X-H torsion
[ 8008 7997 7996 7995 ] final  -78.57 input   59.86 | X-H torsion
[ 10167 10162 10161 10158 ] final   63.60 input  -65.29 | X-H torsion
[ 10718 10713 10712 10709 ] final  -14.31 input   66.30 | X-H torsion
[ 10763 10752 10751 10750 ] final    2.90 input  -60.55 | X-H torsion
[ 11005 11000 10999 10996 ] final   46.94 input  -57.11 | X-H torsion

> <Gold.Protein.ActiveResidues>
 VAL166  LYS551  ARG553  GLY616  TRP617  ASP618  TYR619  PRO620  LYS621  CYS622 
 ASP623  PHE694  ASN695  SER759  ASP760  ASP761  ALA762  ILE779  LEU786  VAL792 
 PHE793  MET794  SER795  GLU796  ALA797  LYS798  CYS799  TRP800  GLU811  SER814 

> <Gold.Protein.RotatedAtoms>
  151.2847  133.4193  159.2628 H   0  0  0  0  0  0  0  0  0  0  0  0  # atno 6907 bound_to 6896
  151.0329  134.9553  159.8131 H   0  0  0  0  0  0  0  0  0  0  0  0  # atno 6908 bound_to 6896
  152.5349  134.2808  159.9059 H   0  0  0  0  0  0  0  0  0  0  0  0  # atno 6909 bound_to 6896
  144.7941  139.7253  143.6209 H   0  0  0  0  0  0  0  0  0  0  0  0  # atno 7974 bound_to 7965
  154.5702  140.0692  156.8953 H   0  0  0  0  0  0  0  0  0  0  0  0  # atno 8008 bound_to 7997
  155.2648  140.3361  155.4252 H   0  0  0  0  0  0  0  0  0  0  0  0  # atno 8009 bound_to 7997
  156.2112  140.1760  156.7675 H   0  0  0  0  0  0  0  0  0  0  0  0  # atno 8010 bound_to 7997
  140.1313  144.4640  150.6863 H   0  0  0  0  0  0  0  0  0  0  0  0  # atno 10167 bound_to 10162
  156.6177  130.4867  149.6176 H   0  0  0  0  0  0  0  0  0  0  0  0  # atno 10718 bound_to 10713
  153.2899  135.6947  153.7303 H   0  0  0  0  0  0  0  0  0  0  0  0  # atno 10763 bound_to 10752
  153.6257  135.3419  155.3026 H   0  0  0  0  0  0  0  0  0  0  0  0  # atno 10764 bound_to 10752
  154.8521  135.4397  154.1979 H   0  0  0  0  0  0  0  0  0  0  0  0  # atno 10765 bound_to 10752
  140.1324  134.4689  155.8511 H   0  0  0  0  0  0  0  0  0  0  0  0  # atno 11005 bound_to 11000
  146.2204  139.5625  142.9622 LP  0  0  0  0  0  0  0  0  0  0  0  0  # atno 17320 bound_to 7965
  145.5718  141.0393  143.2170 LP  0  0  0  0  0  0  0  0  0  0  0  0  # atno 17321 bound_to 7965
  140.6815  143.2329  151.5371 LP  0  0  0  0  0  0  0  0  0  0  0  0  # atno 17342 bound_to 10162
  139.5518  144.2376  152.1544 LP  0  0  0  0  0  0  0  0  0  0  0  0  # atno 17343 bound_to 10162
  156.2337  130.6810  151.1488 LP  0  0  0  0  0  0  0  0  0  0  0  0  # atno 17370 bound_to 10713
  157.7236  131.0665  150.6029 LP  0  0  0  0  0  0  0  0  0  0  0  0  # atno 17371 bound_to 10713
  141.2172  133.6801  156.7094 LP  0  0  0  0  0  0  0  0  0  0  0  0  # atno 17394 bound_to 11000
  140.2825  134.8305  157.3946 LP  0  0  0  0  0  0  0  0  0  0  0  0  # atno 17395 bound_to 11000

$$$$
