AV-unprocessed.smi:2829|AV-procd|sdf|10903|dock5
  -GOLD-   2272015353D 1   1.00000     0.00000
 Structure written by MMmdl.
 50 53  0  0  0  0  0  0  0  0  1 V2000
  151.0437  128.9199  156.1917 C   0  0  0  0  0  0  0  0  0  0  0  0
  151.2345  129.4013  154.7355 C   0  0  0  0  0  0  0  0  0  0  0  0
  152.7413  129.3168  154.4131 C   0  0  0  0  0  0  0  0  0  0  0  0
  150.4476  128.4391  153.8215 C   0  0  0  0  0  0  0  0  0  0  0  0
  150.7371  130.8425  154.5228 C   0  0  0  0  0  0  0  0  0  0  0  0
  149.7275  131.1836  153.5947 C   0  0  0  0  0  0  0  0  0  0  0  0
  149.3650  132.5369  153.4901 C   0  0  0  0  0  0  0  0  0  0  0  0
  150.0233  133.4737  154.3111 C   0  0  0  0  0  0  0  0  0  0  0  0
  149.6124  134.8205  154.1428 N   0  0  0  0  0  0  0  0  0  0  0  0
  149.7757  135.8556  154.9897 C   0  0  0  0  0  0  0  0  0  0  0  0
  150.2398  135.7672  156.1246 O   0  0  0  0  0  0  0  0  0  0  0  0
  149.3750  137.0378  154.4895 N   0  0  0  0  0  0  0  0  0  0  0  0
  149.4182  138.3428  155.1505 C   0  0  1  0  0  0  0  0  0  0  0  0
  150.4695  139.2797  154.5256 C   0  0  2  0  0  0  0  0  0  0  0  0
  151.6432  139.7433  155.3456 C   0  0  0  0  0  0  0  0  0  0  0  0
  151.1963  141.1248  155.8315 C   0  0  0  0  0  0  0  0  0  0  0  0
  149.7729  141.0891  155.7573 O   0  0  0  0  0  0  0  0  0  0  0  0
  149.4248  140.3892  154.5666 C   0  0  2  0  0  0  0  0  0  0  0  0
  148.3195  139.3360  154.7114 C   0  0  0  0  0  0  0  0  0  0  0  0
  147.3627  139.0663  153.5341 C   0  0  0  0  0  0  0  0  0  0  0  0
  146.2283  138.8732  154.5436 C   0  0  0  0  0  0  0  0  0  0  0  0
  147.0847  139.6000  155.5849 C   0  0  0  0  0  0  0  0  0  0  0  0
  150.9835  133.0761  155.1828 N   0  0  0  0  0  0  0  0  0  0  0  0
  151.3330  131.7906  155.2866 N   0  0  0  0  0  0  0  0  0  0  0  0
  151.4042  127.8985  156.3203 H   0  0  0  0  0  0  0  0  0  0  0  0
  149.9931  128.9252  156.4848 H   0  0  0  0  0  0  0  0  0  0  0  0
  151.5944  129.5430  156.8975 H   0  0  0  0  0  0  0  0  0  0  0  0
  153.3186  129.9980  155.0395 H   0  0  0  0  0  0  0  0  0  0  0  0
  152.9485  129.5721  153.3735 H   0  0  0  0  0  0  0  0  0  0  0  0
  153.1277  128.3106  154.5788 H   0  0  0  0  0  0  0  0  0  0  0  0
  150.7657  127.4059  153.9643 H   0  0  0  0  0  0  0  0  0  0  0  0
  150.5891  128.6752  152.7662 H   0  0  0  0  0  0  0  0  0  0  0  0
  149.3776  128.4853  154.0273 H   0  0  0  0  0  0  0  0  0  0  0  0
  149.2343  130.4538  152.9717 H   0  0  0  0  0  0  0  0  0  0  0  0
  148.6004  132.8455  152.7920 H   0  0  0  0  0  0  0  0  0  0  0  0
  149.1928  135.0382  153.2512 H   0  0  0  0  0  0  0  0  0  0  0  0
  148.9911  137.0276  153.5555 H   0  0  0  0  0  0  0  0  0  0  0  0
  149.5212  138.2969  156.2369 H   0  0  0  0  0  0  0  0  0  0  0  0
  150.7135  139.0074  153.4969 H   0  0  0  0  0  0  0  0  0  0  0  0
  151.8187  139.0738  156.1884 H   0  0  0  0  0  0  0  0  0  0  0  0
  152.5647  139.7999  154.7656 H   0  0  0  0  0  0  0  0  0  0  0  0
  151.5409  141.3485  156.8412 H   0  0  0  0  0  0  0  0  0  0  0  0
  151.5665  141.9042  155.1637 H   0  0  0  0  0  0  0  0  0  0  0  0
  149.3935  141.0112  153.6711 H   0  0  0  0  0  0  0  0  0  0  0  0
  147.2107  139.9475  152.9094 H   0  0  0  0  0  0  0  0  0  0  0  0
  147.5829  138.1888  152.9266 H   0  0  0  0  0  0  0  0  0  0  0  0
  145.3003  139.3830  154.2842 H   0  0  0  0  0  0  0  0  0  0  0  0
  146.0546  137.8256  154.7912 H   0  0  0  0  0  0  0  0  0  0  0  0
  147.1075  139.1211  156.5641 H   0  0  0  0  0  0  0  0  0  0  0  0
  146.8428  140.6612  155.6612 H   0  0  0  0  0  0  0  0  0  0  0  0
  1  2  1  0  0  0  0
  1 25  1  0  0  0  0
  1 26  1  0  0  0  0
  1 27  1  0  0  0  0
  2  3  1  0  0  0  0
  2  4  1  0  0  0  0
  2  5  1  0  0  0  0
  3 28  1  0  0  0  0
  3 29  1  0  0  0  0
  3 30  1  0  0  0  0
  4 31  1  0  0  0  0
  4 32  1  0  0  0  0
  4 33  1  0  0  0  0
  5 24  1  0  0  0  0
  5  6  2  0  0  0  0
  6  7  1  0  0  0  0
  6 34  1  0  0  0  0
  7  8  2  0  0  0  0
  7 35  1  0  0  0  0
  8  9  1  0  0  0  0
  8 23  1  0  0  0  0
  9 10  1  0  0  0  0
  9 36  1  0  0  0  0
 10 11  2  0  0  0  0
 10 12  1  0  0  0  0
 12 13  1  0  0  0  0
 12 37  1  0  0  0  0
 13 19  1  0  0  0  0
 13 14  1  0  0  0  0
 13 38  1  0  0  0  0
 14 18  1  0  0  0  0
 14 15  1  0  0  0  0
 14 39  1  0  0  0  0
 15 16  1  0  0  0  0
 15 40  1  0  0  0  0
 15 41  1  0  0  0  0
 16 17  1  0  0  0  0
 16 42  1  0  0  0  0
 16 43  1  0  0  0  0
 17 18  1  0  0  0  0
 18 19  1  0  0  0  0
 18 44  1  0  0  0  0
 19 22  1  0  0  0  0
 19 20  1  0  0  0  0
 20 21  1  0  0  0  0
 20 45  1  0  0  0  0
 20 46  1  0  0  0  0
 21 22  1  0  0  0  0
 21 47  1  0  0  0  0
 21 48  1  0  0  0  0
 22 49  1  0  0  0  0
 22 50  1  0  0  0  0
 23 24  2  0  0  0  0
M  END
> <s_m_source_file>
AV-unprocessed.smi

> <i_m_source_file_index>
2829

> <i_lp_mmshare_version>
43012

> <i_f3d_flags>
0

> <s_epik_input>
W0NIM11DKFtDSDNdKShbQ0gzXSljMVtjSF1bY0hdYyhubjEpW05IXUMoPU8pW05IXVtDQEBIXTJbQ0BIXShbQ0gyXVtDSDJdTzMpW0NAQEhdM0MyNFtDSDJdW0NIMl1bQ0gyXTQ=

> <s_epik_cmdline>
J2VwaWtfcHl0aG9uJywgJy1waCcsICc3LjAnLCAnLXRuJywgJzgnLCAnLW1hJywgJzIwMCcsICctbWV0YWxfYmluZGluZycsICctaW1hZScsICc8aW5maWxlLm1hZT4nLCAnLW9tYWUnLCAnPG91dGZpbGUubWFlPic=

> <r_lp_tautomer_probability>
1

> <r_epik_Ionization_Penalty>
0.011915

> <r_epik_Ionization_Penalty_Charging>
0

> <r_epik_Ionization_Penalty_Neutral>
0.011915

> <r_epik_State_Penalty>
0.00486223

> <r_epik_Charging_Adjusted_Penalty>
0.00486223

> <i_epik_Tot_Q>
0

> <i_epik_Tot_abs_Q>
0

> <r_epik_Metal_State_Penalty>
-0

> <b_epik_Metal_Only>
0

> <s_lp_Force_Field>
OPLS_2005

> <r_lp_Energy>
59.5844

> <b_lp_Chiralities_Consistent>
1

> <s_lp_Variant>
AV-unprocessed.smi:2829-6

> <Gold.Version>
5.8.1

> <Gold.Id.Protein>
6NUR|6NUR_protein|mol2

> <Gold.PLP.Fitness>
41.5593

> <Gold.PLP.PLP>
-36.1490

> <Gold.PLP.part.hbond>
-2.0000

> <Gold.PLP.part.metal>
0.0000

> <Gold.PLP.part.buried>
-3.0463

> <Gold.PLP.part.nonpolar>
-30.7734

> <Gold.PLP.part.repulsive>
0.1298

> <Gold.PLP.ligand.clash>
0.0000

> <Gold.PLP.ligand.torsion>
0.3208

> <Gold.PLP.Chemscore.Hbond>
1.9520

> <Gold.PLP.Chemscore.CHOScore>
0.0000

> <Gold.PLP.Chemscore.Metal>
0.0000

> <Gold.Chemscore.Hbonds>
donor molecule, donor type, donor heavy atom, donor atom, acceptor molecule, acceptor atom, score
      L1  H     9    36       P1  7948  0.74
      L1  H    12    37       P1  7948  0.94

> <Gold.PLP.Chemscore.Internal.Correction>
0.1960

> <Gold.Rescore>
     Score         DG    S(hbond)    S(metal)    S(lipo)     H(rot)  DE(clash)    DE(int)     intcor
     14.03     -15.39       0.98        0.00      82.14       1.16       0.04       1.32       ----

> <Gold.Chemscore.Fitness>
14.0324

> <Gold.Chemscore.DG>
-15.3872

> <Gold.Chemscore.ZeroCoef>
-5.4800

> <Gold.Chemscore.Hbond>
0.9793

> <Gold.Chemscore.Metal>
0.0000

> <Gold.Chemscore.Lipo>
82.1406

> <Gold.Chemscore.Internal_Hbond>
0.0000

> <Gold.Chemscore.DEClash>
0.0358

> <Gold.Chemscore.DEInternal>
1.3190

> <Gold.Chemscore.Rot>
1.1618

> <Gold.Chemscore.Internal.Correction>
   9.000000E+99

> <Gold.Chemscore.Hbonds>
donor molecule, donor type, donor heavy atom, donor atom, acceptor molecule, acceptor atom, score
      L1  H     9    36       P1  7948  0.09
      L1  H    12    37       P1  7948  0.91

> <Gold.Chemscore.Hbond.Weighted>
-3.2709

> <Gold.Chemscore.Metal.Weighted>
-0.0000

> <Gold.Chemscore.Lipo.Weighted>
-9.6105

> <Gold.Chemscore.Internal_Hbond.Weighted>
0.0000

> <Gold.Chemscore.DEClash.Weighted>
0.0358

> <Gold.Chemscore.DEInternal.Weighted>
1.3190

> <Gold.Chemscore.Rot.Weighted>
2.9741

> <Gold.Chemscore.Internal.Correction.Weighted>
   9.000000E+99

> <Gold.Protein.RotatedTorsions>
[ 6907 6896 6895 6894 ] final  -57.83 input  -60.11 | X-H torsion
[ 7974 7965 7964 7962 ] final  135.10 input  175.53 | X-H torsion
[ 8008 7997 7996 7995 ] final  145.42 input   59.86 | X-H torsion
[ 10167 10162 10161 10158 ] final -171.98 input  -65.29 | X-H torsion
[ 10718 10713 10712 10709 ] final  164.51 input   66.30 | X-H torsion
[ 10763 10752 10751 10750 ] final   67.04 input  -60.55 | X-H torsion
[ 11005 11000 10999 10996 ] final  118.89 input  -57.11 | X-H torsion

> <Gold.Protein.ActiveResidues>
 VAL166  LYS551  ARG553  GLY616  TRP617  ASP618  TYR619  PRO620  LYS621  CYS622 
 ASP623  PHE694  ASN695  SER759  ASP760  ASP761  ALA762  ILE779  LEU786  VAL792 
 PHE793  MET794  SER795  GLU796  ALA797  LYS798  CYS799  TRP800  GLU811  SER814 

> <Gold.Protein.RotatedAtoms>
  150.8055  134.7177  159.6639 H   0  0  0  0  0  0  0  0  0  0  0  0  # atno 6907 bound_to 6896
  152.4174  134.6014  160.0011 H   0  0  0  0  0  0  0  0  0  0  0  0  # atno 6908 bound_to 6896
  151.6239  133.3300  159.3130 H   0  0  0  0  0  0  0  0  0  0  0  0  # atno 6909 bound_to 6896
  144.9697  139.4619  143.5439 H   0  0  0  0  0  0  0  0  0  0  0  0  # atno 7974 bound_to 7965
  156.2883  140.2209  156.5212 H   0  0  0  0  0  0  0  0  0  0  0  0  # atno 8008 bound_to 7997
  154.7527  140.0479  157.0929 H   0  0  0  0  0  0  0  0  0  0  0  0  # atno 8009 bound_to 7997
  155.0089  140.3110  155.4841 H   0  0  0  0  0  0  0  0  0  0  0  0  # atno 8010 bound_to 7997
  139.5770  144.1509  152.1464 H   0  0  0  0  0  0  0  0  0  0  0  0  # atno 10167 bound_to 10162
  157.0934  131.0423  151.2528 H   0  0  0  0  0  0  0  0  0  0  0  0  # atno 10718 bound_to 10713
  153.0167  135.5298  154.6917 H   0  0  0  0  0  0  0  0  0  0  0  0  # atno 10763 bound_to 10752
  154.6050  135.2872  155.0497 H   0  0  0  0  0  0  0  0  0  0  0  0  # atno 10764 bound_to 10752
  154.1540  135.6558  153.5022 H   0  0  0  0  0  0  0  0  0  0  0  0  # atno 10765 bound_to 10752
  139.9126  134.9624  156.7572 H   0  0  0  0  0  0  0  0  0  0  0  0  # atno 11005 bound_to 11000
  146.3378  139.8901  142.8810 LP  0  0  0  0  0  0  0  0  0  0  0  0  # atno 17320 bound_to 7965
  145.2577  141.0066  143.3844 LP  0  0  0  0  0  0  0  0  0  0  0  0  # atno 17321 bound_to 7965
  140.1054  144.5504  150.6961 LP  0  0  0  0  0  0  0  0  0  0  0  0  # atno 17342 bound_to 10162
  140.7052  143.2463  151.4747 LP  0  0  0  0  0  0  0  0  0  0  0  0  # atno 17343 bound_to 10162
  157.4702  130.7704  149.7316 LP  0  0  0  0  0  0  0  0  0  0  0  0  # atno 17370 bound_to 10713
  155.9892  130.3953  150.3083 LP  0  0  0  0  0  0  0  0  0  0  0  0  # atno 17371 bound_to 10713
  140.6726  133.9546  155.7865 LP  0  0  0  0  0  0  0  0  0  0  0  0  # atno 17394 bound_to 11000
  141.0567  134.0407  157.3713 LP  0  0  0  0  0  0  0  0  0  0  0  0  # atno 17395 bound_to 11000

$$$$
