AV-unprocessed.smi:2434|AV-procd|sdf|9591|dock7
  -GOLD-   2272013223D 1   1.00000     0.00000
 Structure written by MMmdl.
 36 37  0  0  0  0  0  0  0  0  1 V2000
  145.3369  142.6844  154.5495 C   0  0  0  0  0  0  0  0  0  0  0  0
  146.7969  142.6333  154.0730 C   0  0  0  0  0  0  0  0  0  0  0  0
  147.3913  141.2140  153.9711 C   0  0  0  0  0  0  0  0  0  0  0  0
  148.9312  141.2820  154.0608 C   0  0  0  0  0  0  0  0  0  0  0  0
  149.3888  142.0647  155.2068 N   0  0  0  0  0  0  0  0  0  0  0  0
  150.2381  141.6398  156.1533 C   0  0  0  0  0  0  0  0  0  0  0  0
  150.7276  140.5103  156.1809 O   0  0  0  0  0  0  0  0  0  0  0  0
  150.5054  142.6107  157.0417 N   0  0  0  0  0  0  0  0  0  0  0  0
  151.3878  142.5241  158.1484 C   0  0  0  0  0  0  0  0  0  0  0  0
  151.7253  141.2458  158.6387 C   0  0  0  0  0  0  0  0  0  0  0  0
  152.6164  141.1528  159.7266 C   0  0  0  0  0  0  0  0  0  0  0  0
  153.1810  142.2271  160.3178 N   0  0  0  0  0  0  0  0  0  0  0  0
  152.8755  143.4482  159.8290 C   0  0  0  0  0  0  0  0  0  0  0  0
  151.9967  143.6544  158.7462 C   0  0  0  0  0  0  0  0  0  0  0  0
  151.7774  144.9096  158.2861 F   0  0  0  0  0  0  0  0  0  0  0  0
  146.7356  140.1587  154.8910 C   0  0  0  0  0  0  0  0  0  0  0  0
  146.7738  139.1548  153.7403 C   0  0  0  0  0  0  0  0  0  0  0  0
  146.8548  140.3577  152.8027 C   0  0  0  0  0  0  0  0  0  0  0  0
  145.0148  143.7172  154.6831 H   0  0  0  0  0  0  0  0  0  0  0  0
  145.2114  142.1743  155.5045 H   0  0  0  0  0  0  0  0  0  0  0  0
  144.6582  142.2264  153.8307 H   0  0  0  0  0  0  0  0  0  0  0  0
  146.8848  143.1643  153.1250 H   0  0  0  0  0  0  0  0  0  0  0  0
  147.3895  143.2222  154.7741 H   0  0  0  0  0  0  0  0  0  0  0  0
  149.3493  140.2822  154.1797 H   0  0  0  0  0  0  0  0  0  0  0  0
  149.3564  141.6507  153.1269 H   0  0  0  0  0  0  0  0  0  0  0  0
  149.0443  143.0115  155.2706 H   0  0  0  0  0  0  0  0  0  0  0  0
  150.1425  143.5289  156.8332 H   0  0  0  0  0  0  0  0  0  0  0  0
  151.3031  140.3529  158.2010 H   0  0  0  0  0  0  0  0  0  0  0  0
  152.8843  140.1882  160.1314 H   0  0  0  0  0  0  0  0  0  0  0  0
  153.3573  144.2881  160.3075 H   0  0  0  0  0  0  0  0  0  0  0  0
  147.3287  139.8701  155.7593 H   0  0  0  0  0  0  0  0  0  0  0  0
  145.7151  140.4142  155.1811 H   0  0  0  0  0  0  0  0  0  0  0  0
  147.6782  138.5448  153.7328 H   0  0  0  0  0  0  0  0  0  0  0  0
  145.8733  138.5498  153.6303 H   0  0  0  0  0  0  0  0  0  0  0  0
  145.8710  140.6762  152.4531 H   0  0  0  0  0  0  0  0  0  0  0  0
  147.5472  140.2348  151.9688 H   0  0  0  0  0  0  0  0  0  0  0  0
  1  2  1  0  0  0  0
  1 19  1  0  0  0  0
  1 20  1  0  0  0  0
  1 21  1  0  0  0  0
  2  3  1  0  0  0  0
  2 22  1  0  0  0  0
  2 23  1  0  0  0  0
  3 18  1  0  0  0  0
  3  4  1  0  0  0  0
  3 16  1  0  0  0  0
  4  5  1  0  0  0  0
  4 24  1  0  0  0  0
  4 25  1  0  0  0  0
  5  6  1  0  0  0  0
  5 26  1  0  0  0  0
  6  7  2  0  0  0  0
  6  8  1  0  0  0  0
  8  9  1  0  0  0  0
  8 27  1  0  0  0  0
  9 14  1  0  0  0  0
  9 10  2  0  0  0  0
 10 11  1  0  0  0  0
 10 28  1  0  0  0  0
 11 12  2  0  0  0  0
 11 29  1  0  0  0  0
 12 13  1  0  0  0  0
 13 14  2  0  0  0  0
 13 30  1  0  0  0  0
 14 15  1  0  0  0  0
 16 17  1  0  0  0  0
 16 31  1  0  0  0  0
 16 32  1  0  0  0  0
 17 18  1  0  0  0  0
 17 33  1  0  0  0  0
 17 34  1  0  0  0  0
 18 35  1  0  0  0  0
 18 36  1  0  0  0  0
M  END
> <s_m_source_file>
AV-unprocessed.smi

> <i_m_source_file_index>
2434

> <i_lp_mmshare_version>
43012

> <i_f3d_flags>
0

> <s_epik_input>
W0NIMl0xW0NIMl1bQ0gyXUMxKFtDSDJdW0NIM10pW0NIMl1bTkhdQyg9TylbTkhdYzJbY0hdW2NIXW5bY0hdYzJG

> <s_epik_cmdline>
J2VwaWtfcHl0aG9uJywgJy1waCcsICc3LjAnLCAnLXRuJywgJzgnLCAnLW1hJywgJzIwMCcsICctbWV0YWxfYmluZGluZycsICctaW1hZScsICc8aW5maWxlLm1hZT4nLCAnLW9tYWUnLCAnPG91dGZpbGUubWFlPic=

> <r_epik_Ionization_Penalty>
0.00332283

> <r_epik_Ionization_Penalty_Charging>
0

> <r_epik_Ionization_Penalty_Neutral>
0.00332283

> <r_epik_State_Penalty>
0.00231995

> <r_epik_Charging_Adjusted_Penalty>
0.00231995

> <i_epik_Tot_Q>
0

> <i_epik_Tot_abs_Q>
0

> <r_epik_Metal_State_Penalty>
-0

> <b_epik_Metal_Only>
0

> <s_lp_Force_Field>
OPLS_2005

> <r_lp_Energy>
27.2745

> <b_lp_Chiralities_Consistent>
1

> <s_lp_Variant>
AV-unprocessed.smi:2434-1

> <Gold.Version>
5.8.1

> <Gold.Id.Protein>
6NUR|6NUR_protein|mol2

> <Gold.PLP.Fitness>
44.2727

> <Gold.PLP.PLP>
-39.3121

> <Gold.PLP.part.hbond>
-2.0000

> <Gold.PLP.part.metal>
0.0000

> <Gold.PLP.part.buried>
-3.8859

> <Gold.PLP.part.nonpolar>
-34.2805

> <Gold.PLP.part.repulsive>
0.2451

> <Gold.PLP.ligand.clash>
0.0000

> <Gold.PLP.ligand.torsion>
0.6396

> <Gold.PLP.Chemscore.Hbond>
1.9357

> <Gold.PLP.Chemscore.CHOScore>
0.0000

> <Gold.PLP.Chemscore.Metal>
0.0000

> <Gold.Chemscore.Hbonds>
donor molecule, donor type, donor heavy atom, donor atom, acceptor molecule, acceptor atom, score
      L1  H     5    26       P1  8028  1.00
      L1  H     8    27       P1  8028  0.87

> <Gold.PLP.Chemscore.Internal.Correction>
0.4326

> <Gold.Rescore>
     Score         DG    S(hbond)    S(metal)    S(lipo)     H(rot)  DE(clash)    DE(int)     intcor
     17.00     -19.53       1.95        0.00      95.03       1.40       0.63       1.89       ----

> <Gold.Chemscore.Fitness>
17.0038

> <Gold.Chemscore.DG>
-19.5294

> <Gold.Chemscore.ZeroCoef>
-5.4800

> <Gold.Chemscore.Hbond>
1.9497

> <Gold.Chemscore.Metal>
0.0000

> <Gold.Chemscore.Lipo>
95.0326

> <Gold.Chemscore.Internal_Hbond>
0.0000

> <Gold.Chemscore.DEClash>
0.6326

> <Gold.Chemscore.DEInternal>
1.8930

> <Gold.Chemscore.Rot>
1.3990

> <Gold.Chemscore.Internal.Correction>
   9.000000E+99

> <Gold.Chemscore.Hbonds>
donor molecule, donor type, donor heavy atom, donor atom, acceptor molecule, acceptor atom, score
      L1  H     5    26       P1  8028  1.00
      L1  H     8    27       P1  8028  0.80

> <Gold.Chemscore.Hbond.Weighted>
-6.5119

> <Gold.Chemscore.Metal.Weighted>
-0.0000

> <Gold.Chemscore.Lipo.Weighted>
-11.1188

> <Gold.Chemscore.Internal_Hbond.Weighted>
0.0000

> <Gold.Chemscore.DEClash.Weighted>
0.6326

> <Gold.Chemscore.DEInternal.Weighted>
1.8930

> <Gold.Chemscore.Rot.Weighted>
3.5814

> <Gold.Chemscore.Internal.Correction.Weighted>
   9.000000E+99

> <Gold.Protein.RotatedTorsions>
[ 6907 6896 6895 6894 ] final  134.38 input  -60.11 | X-H torsion
[ 7974 7965 7964 7962 ] final  -69.37 input  175.53 | X-H torsion
[ 8008 7997 7996 7995 ] final  112.76 input   59.86 | X-H torsion
[ 10167 10162 10161 10158 ] final  164.07 input  -65.29 | X-H torsion
[ 10718 10713 10712 10709 ] final  136.32 input   66.30 | X-H torsion
[ 10763 10752 10751 10750 ] final  -68.20 input  -60.55 | X-H torsion
[ 11005 11000 10999 10996 ] final  -82.10 input  -57.11 | X-H torsion

> <Gold.Protein.ActiveResidues>
 VAL166  LYS551  ARG553  GLY616  TRP617  ASP618  TYR619  PRO620  LYS621  CYS622 
 ASP623  PHE694  ASN695  SER759  ASP760  ASP761  ALA762  ILE779  LEU786  VAL792 
 PHE793  MET794  SER795  GLU796  ALA797  LYS798  CYS799  TRP800  GLU811  SER814 

> <Gold.Protein.RotatedAtoms>
  152.3119  133.5762  159.5686 H   0  0  0  0  0  0  0  0  0  0  0  0  # atno 6907 bound_to 6896
  150.7327  134.0139  159.3687 H   0  0  0  0  0  0  0  0  0  0  0  0  # atno 6908 bound_to 6896
  151.8031  135.0703  160.0454 H   0  0  0  0  0  0  0  0  0  0  0  0  # atno 6909 bound_to 6896
  145.7046  140.9103  143.0713 H   0  0  0  0  0  0  0  0  0  0  0  0  # atno 7974 bound_to 7965
  156.2213  140.2993  155.9960 H   0  0  0  0  0  0  0  0  0  0  0  0  # atno 8008 bound_to 7997
  155.2473  140.0424  157.2999 H   0  0  0  0  0  0  0  0  0  0  0  0  # atno 8009 bound_to 7997
  154.5846  140.2384  155.8014 H   0  0  0  0  0  0  0  0  0  0  0  0  # atno 8010 bound_to 7997
  139.4883  144.4272  151.9114 H   0  0  0  0  0  0  0  0  0  0  0  0  # atno 10167 bound_to 10162
  157.4479  131.1063  151.0068 H   0  0  0  0  0  0  0  0  0  0  0  0  # atno 10718 bound_to 10713
  154.3856  135.6064  153.5815 H   0  0  0  0  0  0  0  0  0  0  0  0  # atno 10763 bound_to 10752
  152.9787  135.5871  154.4358 H   0  0  0  0  0  0  0  0  0  0  0  0  # atno 10764 bound_to 10752
  154.4134  135.2844  155.2000 H   0  0  0  0  0  0  0  0  0  0  0  0  # atno 10765 bound_to 10752
  141.1664  133.7228  156.8522 H   0  0  0  0  0  0  0  0  0  0  0  0  # atno 11005 bound_to 11000
  144.6959  139.8993  143.7457 LP  0  0  0  0  0  0  0  0  0  0  0  0  # atno 17320 bound_to 7965
  146.0767  139.3755  143.0489 LP  0  0  0  0  0  0  0  0  0  0  0  0  # atno 17321 bound_to 7965
  140.3719  144.2845  150.5919 LP  0  0  0  0  0  0  0  0  0  0  0  0  # atno 17342 bound_to 10162
  140.5312  143.2243  151.8236 LP  0  0  0  0  0  0  0  0  0  0  0  0  # atno 17343 bound_to 10162
  157.0908  130.5941  149.5439 LP  0  0  0  0  0  0  0  0  0  0  0  0  # atno 17370 bound_to 10713
  155.9975  130.5046  150.7535 LP  0  0  0  0  0  0  0  0  0  0  0  0  # atno 17371 bound_to 10713
  140.1908  134.8967  157.3058 LP  0  0  0  0  0  0  0  0  0  0  0  0  # atno 17394 bound_to 11000
  140.2293  134.3929  155.7529 LP  0  0  0  0  0  0  0  0  0  0  0  0  # atno 17395 bound_to 11000

$$$$
