AV-unprocessed.smi:133|AV-procd|sdf|1165|dock10
  -GOLD-   2262018303D 1   1.00000     0.00000
 Structure written by MMmdl.
 47 50  0  0  0  0  0  0  0  0  1 V2000
  153.3534  138.9955  157.5785 O   0  0  0  0  0  0  0  0  0  0  0  0
  152.5967  139.3698  156.6816 C   0  0  0  0  0  0  0  0  0  0  0  0
  152.4501  138.5503  155.3895 C   0  0  0  0  0  0  0  0  0  0  0  0
  151.0672  138.0940  155.1270 N   0  0  0  0  0  0  0  0  0  0  0  0
  150.1404  139.0162  154.5800 C   0  0  0  0  0  0  0  0  0  0  0  0
  150.4628  140.1813  154.3428 O   0  0  0  0  0  0  0  0  0  0  0  0
  148.8079  138.4868  154.3139 C   0  0  0  0  0  0  0  0  0  0  0  0
  147.8681  139.2856  153.7806 F   0  0  0  0  0  0  0  0  0  0  0  0
  148.5034  137.2024  154.5907 C   0  0  0  0  0  0  0  0  0  0  0  0
  149.4091  136.3192  155.1442 N   0  0  0  0  0  0  0  0  0  0  0  0
  148.9944  134.8842  155.3738 C   0  0  2  0  0  0  0  0  0  0  0  0
  149.7844  133.8700  154.5250 C   0  0  0  0  0  0  0  0  0  0  0  0
  148.6932  133.1601  153.7402 C   0  0  0  0  0  0  0  0  0  0  0  0
  147.4449  133.4300  154.5735 C   0  0  0  0  0  0  0  0  0  0  0  0
  147.6458  134.7531  155.0452 O   0  0  0  0  0  0  0  0  0  0  0  0
  150.7338  136.7447  155.3967 C   0  0  0  0  0  0  0  0  0  0  0  0
  151.5799  135.9622  155.8324 O   0  0  0  0  0  0  0  0  0  0  0  0
  151.8677  140.4998  156.7225 N   0  0  0  0  0  0  0  0  0  0  0  0
  151.7799  141.4611  157.7650 C   0  0  0  0  0  0  0  0  0  0  0  0
  151.2231  142.7586  157.5862 C   0  0  0  0  0  0  0  0  0  0  0  0
  151.1826  143.6802  158.6557 C   0  0  0  0  0  0  0  0  0  0  0  0
  151.7142  143.2877  159.8954 C   0  0  0  0  0  0  0  0  0  0  0  0
  152.2725  142.0287  160.0722 C   0  0  0  0  0  0  0  0  0  0  0  0
  152.3228  141.0985  159.0198 C   0  0  0  0  0  0  0  0  0  0  0  0
  152.7821  141.8409  161.4750 C   0  0  0  0  0  0  0  0  0  0  0  0
  152.2820  143.1009  162.2224 C   0  0  0  0  0  0  0  0  0  0  0  0
  151.7778  144.1044  161.1570 C   0  0  0  0  0  0  0  0  0  0  0  0
  152.8270  139.1469  154.5572 H   0  0  0  0  0  0  0  0  0  0  0  0
  153.1373  137.7041  155.4376 H   0  0  0  0  0  0  0  0  0  0  0  0
  147.5036  136.8588  154.3683 H   0  0  0  0  0  0  0  0  0  0  0  0
  149.1218  134.7010  156.4418 H   0  0  0  0  0  0  0  0  0  0  0  0
  150.5283  134.3464  153.8857 H   0  0  0  0  0  0  0  0  0  0  0  0
  150.2972  133.1808  155.1968 H   0  0  0  0  0  0  0  0  0  0  0  0
  148.5855  133.6112  152.7532 H   0  0  0  0  0  0  0  0  0  0  0  0
  148.8896  132.0963  153.6043 H   0  0  0  0  0  0  0  0  0  0  0  0
  146.5249  133.3438  153.9953 H   0  0  0  0  0  0  0  0  0  0  0  0
  147.3869  132.7450  155.4210 H   0  0  0  0  0  0  0  0  0  0  0  0
  151.3675  140.7321  155.8771 H   0  0  0  0  0  0  0  0  0  0  0  0
  150.8339  143.0737  156.6303 H   0  0  0  0  0  0  0  0  0  0  0  0
  150.7593  144.6647  158.5205 H   0  0  0  0  0  0  0  0  0  0  0  0
  152.7636  140.1241  159.1737 H   0  0  0  0  0  0  0  0  0  0  0  0
  152.4016  140.9201  161.9186 H   0  0  0  0  0  0  0  0  0  0  0  0
  153.8717  141.7970  161.4592 H   0  0  0  0  0  0  0  0  0  0  0  0
  151.4368  142.8144  162.8496 H   0  0  0  0  0  0  0  0  0  0  0  0
  153.0372  143.5282  162.8829 H   0  0  0  0  0  0  0  0  0  0  0  0
  152.4833  144.9247  161.0214 H   0  0  0  0  0  0  0  0  0  0  0  0
  150.8024  144.5204  161.4118 H   0  0  0  0  0  0  0  0  0  0  0  0
  1  2  2  0  0  0  0
  2  3  1  0  0  0  0
  2 18  1  0  0  0  0
  3  4  1  0  0  0  0
  3 28  1  0  0  0  0
  3 29  1  0  0  0  0
  4 16  1  0  0  0  0
  4  5  1  0  0  0  0
  5  6  2  0  0  0  0
  5  7  1  0  0  0  0
  7  8  1  0  0  0  0
  7  9  2  0  0  0  0
  9 10  1  0  0  0  0
  9 30  1  0  0  0  0
 10 11  1  0  0  0  0
 10 16  1  0  0  0  0
 11 15  1  0  0  0  0
 11 12  1  0  0  0  0
 11 31  1  0  0  0  0
 12 13  1  0  0  0  0
 12 32  1  0  0  0  0
 12 33  1  0  0  0  0
 13 14  1  0  0  0  0
 13 34  1  0  0  0  0
 13 35  1  0  0  0  0
 14 15  1  0  0  0  0
 14 36  1  0  0  0  0
 14 37  1  0  0  0  0
 16 17  2  0  0  0  0
 18 19  1  0  0  0  0
 18 38  1  0  0  0  0
 19 24  1  0  0  0  0
 19 20  2  0  0  0  0
 20 21  1  0  0  0  0
 20 39  1  0  0  0  0
 21 22  2  0  0  0  0
 21 40  1  0  0  0  0
 22 27  1  0  0  0  0
 22 23  1  0  0  0  0
 23 24  2  0  0  0  0
 23 25  1  0  0  0  0
 24 41  1  0  0  0  0
 25 26  1  0  0  0  0
 25 42  1  0  0  0  0
 25 43  1  0  0  0  0
 26 27  1  0  0  0  0
 26 44  1  0  0  0  0
 26 45  1  0  0  0  0
 27 46  1  0  0  0  0
 27 47  1  0  0  0  0
M  END
> <s_m_source_file>
AV-unprocessed.smi

> <i_m_source_file_index>
133

> <i_lp_mmshare_version>
43012

> <i_f3d_flags>
0

> <s_epik_input>
W0NIMl0xW0NIMl1bQ0gyXWMoYzEyKVtjSF1jKFtjSF1bY0hdMilbTkhdQyg9TylbQ0gyXW4zYyg9TyljKEYpW2NIXW4oYzM9TylbQ0BASF00W0NIMl1bQ0gyXVtDSDJdTzQ=

> <s_epik_cmdline>
J2VwaWtfcHl0aG9uJywgJy1waCcsICc3LjAnLCAnLXRuJywgJzgnLCAnLW1hJywgJzIwMCcsICctbWV0YWxfYmluZGluZycsICctaW1hZScsICc8aW5maWxlLm1hZT4nLCAnLW9tYWUnLCAnPG91dGZpbGUubWFlPic=

> <r_lp_tautomer_probability>
1

> <r_epik_Ionization_Penalty>
4.05675e-06

> <r_epik_Ionization_Penalty_Charging>
3.88729e-08

> <r_epik_Ionization_Penalty_Neutral>
4.01788e-06

> <r_epik_State_Penalty>
-0

> <r_epik_Charging_Adjusted_Penalty>
3.88729e-08

> <i_epik_Tot_Q>
0

> <i_epik_Tot_abs_Q>
0

> <r_epik_Metal_State_Penalty>
-0

> <b_epik_Metal_Only>
0

> <s_epik_Chemistry_Notes>
This compound contains an acetal/aminal-like group ( X-CH(R)-Y where X, Y are N, S, or O) that may be acid/base labile, releasing an aldehyde.

> <s_lp_Force_Field>
OPLS_2005

> <r_lp_Energy>
40.9248

> <b_lp_Chiralities_Consistent>
1

> <s_lp_Variant>
AV-unprocessed.smi:133-1

> <Gold.Version>
5.8.1

> <Gold.Id.Protein>
6NUR|6NUR_protein|mol2

> <Gold.PLP.Fitness>
57.8992

> <Gold.PLP.PLP>
-49.5025

> <Gold.PLP.part.hbond>
-2.8756

> <Gold.PLP.part.metal>
0.0000

> <Gold.PLP.part.buried>
-3.1631

> <Gold.PLP.part.nonpolar>
-44.0775

> <Gold.PLP.part.repulsive>
0.3691

> <Gold.PLP.ligand.clash>
0.0038

> <Gold.PLP.ligand.torsion>
0.3137

> <Gold.PLP.Chemscore.Hbond>
3.0000

> <Gold.PLP.Chemscore.CHOScore>
0.0000

> <Gold.PLP.Chemscore.Metal>
0.0000

> <Gold.Chemscore.Hbonds>
donor molecule, donor type, donor heavy atom, donor atom, acceptor molecule, acceptor atom, score
      P1  H  7989  7998       L1     6  1.00
      P1  H  7997  8009       L1     1  0.70
      P1  H 10752 10765       L1    17  1.00

> <Gold.PLP.Chemscore.Internal.Correction>
0.0278

> <Gold.Rescore>
     Score         DG    S(hbond)    S(metal)    S(lipo)     H(rot)  DE(clash)    DE(int)     intcor
     21.73     -23.93       2.69        0.00     115.64       1.59       0.28       1.93       ----

> <Gold.Chemscore.Fitness>
21.7266

> <Gold.Chemscore.DG>
-23.9280

> <Gold.Chemscore.ZeroCoef>
-5.4800

> <Gold.Chemscore.Hbond>
2.6888

> <Gold.Chemscore.Metal>
0.0000

> <Gold.Chemscore.Lipo>
115.6383

> <Gold.Chemscore.Internal_Hbond>
0.0000

> <Gold.Chemscore.DEClash>
0.2753

> <Gold.Chemscore.DEInternal>
1.9261

> <Gold.Chemscore.Rot>
1.5869

> <Gold.Chemscore.Internal.Correction>
   9.000000E+99

> <Gold.Chemscore.Hbonds>
donor molecule, donor type, donor heavy atom, donor atom, acceptor molecule, acceptor atom, score
      P1  H  7989  7998       L1     6  0.97
      P1  H  7997  8009       L1     1  0.07
      P1  H 10752 10765       L1    17  1.00

> <Gold.Chemscore.Hbond.Weighted>
-8.9807

> <Gold.Chemscore.Metal.Weighted>
-0.0000

> <Gold.Chemscore.Lipo.Weighted>
-13.5297

> <Gold.Chemscore.Internal_Hbond.Weighted>
0.0000

> <Gold.Chemscore.DEClash.Weighted>
0.2753

> <Gold.Chemscore.DEInternal.Weighted>
1.9261

> <Gold.Chemscore.Rot.Weighted>
4.0624

> <Gold.Chemscore.Internal.Correction.Weighted>
   9.000000E+99

> <Gold.Protein.RotatedTorsions>
[ 6907 6896 6895 6894 ] final   36.20 input  -60.11 | X-H torsion
[ 7974 7965 7964 7962 ] final  -57.19 input  175.53 | X-H torsion
[ 8008 7997 7996 7995 ] final  148.35 input   59.86 | X-H torsion
[ 10167 10162 10161 10158 ] final -121.30 input  -65.29 | X-H torsion
[ 10718 10713 10712 10709 ] final   96.69 input   66.30 | X-H torsion
[ 10763 10752 10751 10750 ] final -157.72 input  -60.55 | X-H torsion
[ 11005 11000 10999 10996 ] final  115.11 input  -57.11 | X-H torsion

> <Gold.Protein.ActiveResidues>
 VAL166  LYS551  ARG553  GLY616  TRP617  ASP618  TYR619  PRO620  LYS621  CYS622 
 ASP623  PHE694  ASN695  SER759  ASP760  ASP761  ALA762  ILE779  LEU786  VAL792 
 PHE793  MET794  SER795  GLU796  ALA797  LYS798  CYS799  TRP800  GLU811  SER814 

> <Gold.Protein.RotatedAtoms>
  152.1265  134.9167  160.0560 H   0  0  0  0  0  0  0  0  0  0  0  0  # atno 6907 bound_to 6896
  152.0287  133.3923  159.4296 H   0  0  0  0  0  0  0  0  0  0  0  0  # atno 6908 bound_to 6896
  150.6853  134.3466  159.4934 H   0  0  0  0  0  0  0  0  0  0  0  0  # atno 6909 bound_to 6896
  145.8539  140.8333  142.9971 H   0  0  0  0  0  0  0  0  0  0  0  0  # atno 7974 bound_to 7965
  156.2794  140.2131  156.5684 H   0  0  0  0  0  0  0  0  0  0  0  0  # atno 8008 bound_to 7997
  154.7156  140.0508  157.0614 H   0  0  0  0  0  0  0  0  0  0  0  0  # atno 8009 bound_to 7997
  155.0547  140.3160  155.4683 H   0  0  0  0  0  0  0  0  0  0  0  0  # atno 8010 bound_to 7997
  140.0265  143.5291  152.2196 H   0  0  0  0  0  0  0  0  0  0  0  0  # atno 10167 bound_to 10162
  157.6923  131.0586  150.4530 H   0  0  0  0  0  0  0  0  0  0  0  0  # atno 10718 bound_to 10713
  154.7614  135.3119  154.8371 H   0  0  0  0  0  0  0  0  0  0  0  0  # atno 10763 bound_to 10752
  153.9131  135.6803  153.4754 H   0  0  0  0  0  0  0  0  0  0  0  0  # atno 10764 bound_to 10752
  153.1215  135.4820  154.9134 H   0  0  0  0  0  0  0  0  0  0  0  0  # atno 10765 bound_to 10752
  139.9000  134.9579  156.6996 H   0  0  0  0  0  0  0  0  0  0  0  0  # atno 11005 bound_to 11000
  144.6728  140.0994  143.7461 LP  0  0  0  0  0  0  0  0  0  0  0  0  # atno 17320 bound_to 7965
  145.9326  139.2616  143.1316 LP  0  0  0  0  0  0  0  0  0  0  0  0  # atno 17321 bound_to 7965
  139.6105  144.7607  151.2964 LP  0  0  0  0  0  0  0  0  0  0  0  0  # atno 17342 bound_to 10162
  140.7320  143.6835  150.7981 LP  0  0  0  0  0  0  0  0  0  0  0  0  # atno 17343 bound_to 10162
  156.4880  130.4088  149.6423 LP  0  0  0  0  0  0  0  0  0  0  0  0  # atno 17370 bound_to 10713
  156.3444  130.7399  151.2349 LP  0  0  0  0  0  0  0  0  0  0  0  0  # atno 17371 bound_to 10713
  140.7161  133.9181  155.8116 LP  0  0  0  0  0  0  0  0  0  0  0  0  # atno 17394 bound_to 11000
  141.0263  134.0818  157.4064 LP  0  0  0  0  0  0  0  0  0  0  0  0  # atno 17395 bound_to 11000

$$$$
