#       Name:                AV-unprocessed.smi:2007
#       Creating user name   scv26
#       Creation time:       Fri Mar 27 10:36:55 2020


#       File generated by GOLD software.
#

@<TRIPOS>MOLECULE
AV-unprocessed.smi:2007
    42    43     1
SMALL
NO_CHARGES


@<TRIPOS>ATOM
      1 ****        -0.7713   3.4880  -0.7331 C.3            1 S1                 0.0000
      2 ****        -0.3473   2.0136  -0.7005 C.3            1 S1                 0.0000
      3 ****         1.1688   1.8770  -0.4389 C.3            1 S1                 0.0000
      4 ****         1.6929   0.5104  -0.4407 N.3            1 S1                 0.0000
      5 ****         1.6662  -0.1029  -1.7671 C.3            1 S1                 0.0000
      6 ****         2.2303  -1.5340  -1.7458 C.3            1 S1                 0.0000
      7 ****         3.5540  -1.5188  -1.2210 O.3            1 S1                 0.0000
      8 ****         3.6186  -0.9649   0.0891 C.3            1 S1                 0.0000
      9 ****         3.0581   0.4679   0.0706 C.3            1 S1                 0.0000
     10 ****        -1.1062   1.3250   0.3426 N.am           1 S1                 0.0000
     11 ****        -1.6892   0.1224   0.2257 C.2            1 S1                 0.0000
     12 ****        -1.6728  -0.5474  -0.8075 O.2            1 S1                 0.0000
     13 ****        -2.2801  -0.2426   1.3769 N.am           1 S1                 0.0000
     14 ****        -2.9785  -1.4450   1.6624 C.2            1 S1                 0.0000
     15 ****        -3.1625  -2.4384   0.7847 N.2            1 S1                 0.0000
     16 ****        -3.8820  -3.5005   1.3380 C.2            1 S1                 0.0000
     17 ****        -4.2408  -3.2975   2.6474 C.2            1 S1                 0.0000
     18 ****        -3.6861  -1.7549   3.2411 S.3            1 S1                 0.0000
     19 ****        -0.2405   4.0307  -1.5157 H              1 S1                 0.0000
     20 ****        -0.5627   3.9841   0.2154 H              1 S1                 0.0000
     21 ****        -1.8390   3.5851  -0.9330 H              1 S1                 0.0000
     22 ****        -0.5906   1.5988  -1.6790 H              1 S1                 0.0000
     23 ****         1.7164   2.4726  -1.1709 H              1 S1                 0.0000
     24 ****         1.3797   2.3340   0.5291 H              1 S1                 0.0000
     25 ****         0.6483  -0.1382  -2.1520 H              1 S1                 0.0000
     26 ****         2.2435   0.5028  -2.4671 H              1 S1                 0.0000
     27 ****         1.5986  -2.1873  -1.1418 H              1 S1                 0.0000
     28 ****         2.2502  -1.9491  -2.7534 H              1 S1                 0.0000
     29 ****         3.0566  -1.5904   0.7845 H              1 S1                 0.0000
     30 ****         4.6555  -0.9626   0.4248 H              1 S1                 0.0000
     31 ****         3.7028   1.1000  -0.5421 H              1 S1                 0.0000
     32 ****         3.0885   0.8776   1.0808 H              1 S1                 0.0000
     33 ****        -1.1749   1.7965   1.2323 H              1 S1                 0.0000
     34 ****        -2.2143   0.4122   2.1421 H              1 S1                 0.0000
     35 ****        -4.0949  -4.3650   0.7269 H              1 S1                 0.0000
     36 ****        -4.7952  -3.9596   3.2958 H              1 S1                 0.0000
     37 ****         1.0884  -0.0133   0.1595 LP             1 S1                 0.0000
     38 ****         4.1326  -0.9738  -1.8278 LP             1 S1                 0.0000
     39 ****         3.8963  -2.4578  -1.1887 LP             1 S1                 0.0000
     40 ****        -1.2061  -0.2004  -1.6210 LP             1 S1                 0.0000
     41 ****        -2.1262  -1.4383  -0.8331 LP             1 S1                 0.0000
     42 ****        -2.8247  -2.4223  -0.1564 LP             1 S1                 0.0000
@<TRIPOS>BOND
    1    1    2 1     
    2    1   19 1     
    3    1   20 1     
    4    1   21 1     
    5    2    3 1     
    6    2   10 1     
    7    2   22 1     
    8    3    4 1     
    9    3   23 1     
   10    3   24 1     
   11    4    9 1     
   12    4    5 1     
   13    5    6 1     
   14    5   25 1     
   15    5   26 1     
   16    6    7 1     
   17    6   27 1     
   18    6   28 1     
   19    7    8 1     
   20    8    9 1     
   21    8   29 1     
   22    8   30 1     
   23    9   31 1     
   24    9   32 1     
   25   10   11 am    
   26   10   33 1     
   27   11   12 2     
   28   11   13 am    
   29   13   14 1     
   30   13   34 1     
   31   14   18 1     
   32   14   15 2     
   33   15   16 1     
   34   16   17 2     
   35   16   35 1     
   36   17   18 1     
   37   17   36 1     
   38    4   37 1     
   39    7   38 1     
   40    7   39 1     
   41   12   40 1     
   42   12   41 1     
   43   15   42 1     
@<TRIPOS>SUBSTRUCTURE
      1 S1             1
@<TRIPOS>SET
LONE_PAIRS      STATIC     ATOMS    <user>   **** ""
6 37 38 39 40 41 42
DONOR_HYDROGENS      STATIC     ATOMS    <user>   **** ""
2 33 34
ATOM$BLUE        STATIC     ATOMS    COLORGROUP SYSTEM
6 37 38 39 40 41 42
ATOM$RED        STATIC     ATOMS    COLORGROUP SYSTEM
2 33 34
