AV-unprocessed.smi:527|AV-procd|sdf|2819|dock6
  -GOLD-   2262023303D 1   1.00000     0.00000
 Structure written by MMmdl.
 42 43  0  0  0  0  0  0  0  0  1 V2000
  149.2904  141.0253  156.0830 C   0  0  0  0  0  0  0  0  0  0  0  0
  149.1209  140.9506  154.5515 C   0  0  2  0  0  0  0  0  0  0  0  0
  147.9346  141.8099  154.0695 C   0  0  0  0  0  0  0  0  0  0  0  0
  146.5792  141.1804  154.4265 C   0  0  0  0  0  0  0  0  0  0  0  0
  146.4685  139.7518  153.8763 C   0  0  0  0  0  0  0  0  0  0  0  0
  147.6386  138.8611  154.3450 C   0  0  1  0  0  0  0  0  0  0  0  0
  147.5279  137.5389  153.7311 N   0  0  0  0  0  0  0  0  0  0  0  0
  146.5180  136.6762  153.9180 C   0  0  0  0  0  0  0  0  0  0  0  0
  145.5520  136.9120  154.6470 O   0  0  0  0  0  0  0  0  0  0  0  0
  146.7131  135.5459  153.2116 N   0  0  0  0  0  0  0  0  0  0  0  0
  145.9116  134.4627  153.1540 C   0  0  0  0  0  0  0  0  0  0  0  0
  144.8403  134.3461  153.7548 O   0  0  0  0  0  0  0  0  0  0  0  0
  146.4305  133.3285  152.2597 C   0  0  0  0  0  0  0  0  0  0  0  0
  145.4155  132.7976  151.3654 N   0  0  0  0  0  0  0  0  0  0  0  0
  144.0793  133.1719  151.2952 C   0  0  0  0  0  0  0  0  0  0  0  0
  143.5076  132.4047  150.3055 C   0  0  0  0  0  0  0  0  0  0  0  0
  144.4668  131.5572  149.7561 N   0  0  0  0  0  0  0  0  0  0  0  0
  145.5710  131.8482  150.4319 C   0  0  0  0  0  0  0  0  0  0  0  0
  149.0045  139.5064  153.9942 C   0  0  2  0  0  0  0  0  0  0  0  0
  150.2064  138.6262  154.3907 C   0  0  0  0  0  0  0  0  0  0  0  0
  148.4616  140.5572  156.6130 H   0  0  0  0  0  0  0  0  0  0  0  0
  149.3475  142.0615  156.4171 H   0  0  0  0  0  0  0  0  0  0  0  0
  150.2086  140.5373  156.4086 H   0  0  0  0  0  0  0  0  0  0  0  0
  150.0220  141.3927  154.1242 H   0  0  0  0  0  0  0  0  0  0  0  0
  148.0008  142.8151  154.4872 H   0  0  0  0  0  0  0  0  0  0  0  0
  147.9953  141.9304  152.9871 H   0  0  0  0  0  0  0  0  0  0  0  0
  146.4447  141.1694  155.5083 H   0  0  0  0  0  0  0  0  0  0  0  0
  145.7707  141.7927  154.0261 H   0  0  0  0  0  0  0  0  0  0  0  0
  145.5165  139.3182  154.1852 H   0  0  0  0  0  0  0  0  0  0  0  0
  146.4490  139.7893  152.7862 H   0  0  0  0  0  0  0  0  0  0  0  0
  147.5809  138.7460  155.4288 H   0  0  0  0  0  0  0  0  0  0  0  0
  148.2872  137.2575  153.1284 H   0  0  0  0  0  0  0  0  0  0  0  0
  147.5591  135.5027  152.6631 H   0  0  0  0  0  0  0  0  0  0  0  0
  147.2688  133.6891  151.6619 H   0  0  0  0  0  0  0  0  0  0  0  0
  146.8047  132.5162  152.8841 H   0  0  0  0  0  0  0  0  0  0  0  0
  143.6585  133.9330  151.9356 H   0  0  0  0  0  0  0  0  0  0  0  0
  142.4879  132.3974  149.9494 H   0  0  0  0  0  0  0  0  0  0  0  0
  146.5153  131.3591  150.2437 H   0  0  0  0  0  0  0  0  0  0  0  0
  149.0426  139.5956  152.9069 H   0  0  0  0  0  0  0  0  0  0  0  0
  150.1872  138.3740  155.4512 H   0  0  0  0  0  0  0  0  0  0  0  0
  151.1491  139.1330  154.1835 H   0  0  0  0  0  0  0  0  0  0  0  0
  150.2171  137.6894  153.8334 H   0  0  0  0  0  0  0  0  0  0  0  0
  1  2  1  0  0  0  0
  1 21  1  0  0  0  0
  1 22  1  0  0  0  0
  1 23  1  0  0  0  0
  2 19  1  0  0  0  0
  2  3  1  0  0  0  0
  2 24  1  0  0  0  0
  3  4  1  0  0  0  0
  3 25  1  0  0  0  0
  3 26  1  0  0  0  0
  4  5  1  0  0  0  0
  4 27  1  0  0  0  0
  4 28  1  0  0  0  0
  5  6  1  0  0  0  0
  5 29  1  0  0  0  0
  5 30  1  0  0  0  0
  6  7  1  0  0  0  0
  6 19  1  0  0  0  0
  6 31  1  0  0  0  0
  7  8  1  0  0  0  0
  7 32  1  0  0  0  0
  8  9  2  0  0  0  0
  8 10  1  0  0  0  0
 10 11  1  0  0  0  0
 10 33  1  0  0  0  0
 11 12  2  0  0  0  0
 11 13  1  0  0  0  0
 13 14  1  0  0  0  0
 13 34  1  0  0  0  0
 13 35  1  0  0  0  0
 14 18  1  0  0  0  0
 14 15  1  0  0  0  0
 15 16  2  0  0  0  0
 15 36  1  0  0  0  0
 16 17  1  0  0  0  0
 16 37  1  0  0  0  0
 17 18  2  0  0  0  0
 18 38  1  0  0  0  0
 19 20  1  0  0  0  0
 19 39  1  0  0  0  0
 20 40  1  0  0  0  0
 20 41  1  0  0  0  0
 20 42  1  0  0  0  0
M  END
> <s_m_source_file>
AV-unprocessed.smi

> <i_m_source_file_index>
527

> <i_lp_mmshare_version>
43012

> <i_f3d_flags>
0

> <s_epik_input>
W0NIM11bQ0BASF0xW0NIMl1bQ0gyXVtDSDJdW0NASF0oW0NASF0xW0NIM10pW05IXUMoPU8pW05IXUMoPU8pW0NIMl1uMltjSF1bY0hdbltjSF0y

> <s_epik_cmdline>
J2VwaWtfcHl0aG9uJywgJy1waCcsICc3LjAnLCAnLXRuJywgJzgnLCAnLW1hJywgJzIwMCcsICctbWV0YWxfYmluZGluZycsICctaW1hZScsICc8aW5maWxlLm1hZT4nLCAnLW9tYWUnLCAnPG91dGZpbGUubWFlPic=

> <r_lp_tautomer_probability>
1

> <r_epik_Ionization_Penalty>
0.172132

> <r_epik_Ionization_Penalty_Charging>
0.172105

> <r_epik_Ionization_Penalty_Neutral>
2.71747e-05

> <r_epik_State_Penalty>
0.161503

> <r_epik_Charging_Adjusted_Penalty>
0.333607

> <i_epik_Tot_Q>
0

> <i_epik_Tot_abs_Q>
0

> <r_epik_Metal_State_Penalty>
0.124763

> <b_epik_Metal_Only>
0

> <s_lp_Force_Field>
OPLS_2005

> <r_lp_Energy>
17.7357

> <b_lp_Chiralities_Consistent>
1

> <s_lp_Variant>
AV-unprocessed.smi:527-5

> <Gold.Version>
5.8.1

> <Gold.Id.Protein>
6NUR|6NUR_protein|mol2

> <Gold.PLP.Fitness>
46.0717

> <Gold.PLP.PLP>
-31.3995

> <Gold.PLP.part.hbond>
-3.0000

> <Gold.PLP.part.metal>
0.0000

> <Gold.PLP.part.buried>
-1.8228

> <Gold.PLP.part.nonpolar>
-27.7817

> <Gold.PLP.part.repulsive>
0.2760

> <Gold.PLP.ligand.clash>
0.0000

> <Gold.PLP.ligand.torsion>
0.1759

> <Gold.PLP.Chemscore.Hbond>
2.3627

> <Gold.PLP.Chemscore.CHOScore>
2.6411

> <Gold.PLP.Chemscore.Metal>
0.0000

> <Gold.Chemscore.Hbonds>
donor molecule, donor type, donor heavy atom, donor atom, acceptor molecule, acceptor atom, score
      L1  H     7    32       P1  7948  1.00
      L1  H    10    33       P1  7948  1.00
      P1  H 10785 10796       L1    17  0.35
      L1  C    16    37       P1 10186  0.94
      L1  C    16    37       P1 10952  0.67
      L1  C    18    38       P1 10747  1.00

> <Gold.PLP.Chemscore.Internal.Correction>
0.0124

> <Gold.Rescore>
     Score         DG    S(hbond)    S(metal)    S(lipo)     H(rot)  DE(clash)    DE(int)     intcor
     14.41     -18.22       2.60        0.00      71.02       1.66       0.84       2.97       ----

> <Gold.Chemscore.Fitness>
14.4130

> <Gold.Chemscore.DG>
-18.2227

> <Gold.Chemscore.ZeroCoef>
-5.4800

> <Gold.Chemscore.Hbond>
2.6020

> <Gold.Chemscore.Metal>
0.0000

> <Gold.Chemscore.Lipo>
71.0173

> <Gold.Chemscore.Internal_Hbond>
0.0000

> <Gold.Chemscore.DEClash>
0.8411

> <Gold.Chemscore.DEInternal>
2.9685

> <Gold.Chemscore.Rot>
1.6629

> <Gold.Chemscore.Internal.Correction>
   9.000000E+99

> <Gold.Chemscore.Hbonds>
donor molecule, donor type, donor heavy atom, donor atom, acceptor molecule, acceptor atom, score
      L1  H     7    32       P1  7948  0.96
      L1  H    10    33       P1  7948  0.98
      P1  H 10785 10796       L1    17  0.10

> <Gold.Chemscore.Hbond.Weighted>
-8.6906

> <Gold.Chemscore.Metal.Weighted>
-0.0000

> <Gold.Chemscore.Lipo.Weighted>
-8.3090

> <Gold.Chemscore.Internal_Hbond.Weighted>
0.0000

> <Gold.Chemscore.DEClash.Weighted>
0.8411

> <Gold.Chemscore.DEInternal.Weighted>
2.9685

> <Gold.Chemscore.Rot.Weighted>
4.2569

> <Gold.Chemscore.Internal.Correction.Weighted>
   9.000000E+99

> <Gold.Protein.RotatedTorsions>
[ 6907 6896 6895 6894 ] final  -35.68 input  -60.11 | X-H torsion
[ 7974 7965 7964 7962 ] final  -72.70 input  175.53 | X-H torsion
[ 8008 7997 7996 7995 ] final  151.85 input   59.86 | X-H torsion
[ 10167 10162 10161 10158 ] final  -42.33 input  -65.29 | X-H torsion
[ 10718 10713 10712 10709 ] final  173.20 input   66.30 | X-H torsion
[ 10763 10752 10751 10750 ] final  131.01 input  -60.55 | X-H torsion
[ 11005 11000 10999 10996 ] final   31.91 input  -57.11 | X-H torsion

> <Gold.Protein.ActiveResidues>
 VAL166  LYS551  ARG553  GLY616  TRP617  ASP618  TYR619  PRO620  LYS621  CYS622 
 ASP623  PHE694  ASN695  SER759  ASP760  ASP761  ALA762  ILE779  LEU786  VAL792 
 PHE793  MET794  SER795  GLU796  ALA797  LYS798  CYS799  TRP800  GLU811  SER814 

> <Gold.Protein.RotatedAtoms>
  151.0368  134.9578  159.8139 H   0  0  0  0  0  0  0  0  0  0  0  0  # atno 6907 bound_to 6896
  152.5356  134.2710  159.8981 H   0  0  0  0  0  0  0  0  0  0  0  0  # atno 6908 bound_to 6896
  151.2721  133.4208  159.2656 H   0  0  0  0  0  0  0  0  0  0  0  0  # atno 6909 bound_to 6896
  145.6618  140.9250  143.0930 H   0  0  0  0  0  0  0  0  0  0  0  0  # atno 7974 bound_to 7965
  156.2655  140.2036  156.6241 H   0  0  0  0  0  0  0  0  0  0  0  0  # atno 8008 bound_to 7997
  154.6734  140.0547  157.0214 H   0  0  0  0  0  0  0  0  0  0  0  0  # atno 8009 bound_to 7997
  155.1104  140.3215  155.4526 H   0  0  0  0  0  0  0  0  0  0  0  0  # atno 8010 bound_to 7997
  140.6972  143.3043  151.3194 H   0  0  0  0  0  0  0  0  0  0  0  0  # atno 10167 bound_to 10162
  156.9678  131.0080  151.2912 H   0  0  0  0  0  0  0  0  0  0  0  0  # atno 10718 bound_to 10713
  153.7673  135.3187  155.3346 H   0  0  0  0  0  0  0  0  0  0  0  0  # atno 10763 bound_to 10752
  154.8209  135.4604  154.0779 H   0  0  0  0  0  0  0  0  0  0  0  0  # atno 10764 bound_to 10752
  153.2028  135.6925  153.8295 H   0  0  0  0  0  0  0  0  0  0  0  0  # atno 10765 bound_to 10752
  140.2789  134.2995  155.7806 H   0  0  0  0  0  0  0  0  0  0  0  0  # atno 11005 bound_to 11000
  144.7086  139.8458  143.7422 LP  0  0  0  0  0  0  0  0  0  0  0  0  # atno 17320 bound_to 7965
  146.1119  139.4125  143.0282 LP  0  0  0  0  0  0  0  0  0  0  0  0  # atno 17321 bound_to 7965
  139.6443  144.0480  152.2579 LP  0  0  0  0  0  0  0  0  0  0  0  0  # atno 17342 bound_to 10162
  139.9995  144.6303  150.7742 LP  0  0  0  0  0  0  0  0  0  0  0  0  # atno 17343 bound_to 10162
  157.5613  130.8248  149.8270 LP  0  0  0  0  0  0  0  0  0  0  0  0  # atno 17370 bound_to 10713
  156.0295  130.3769  150.1727 LP  0  0  0  0  0  0  0  0  0  0  0  0  # atno 17371 bound_to 10713
  141.2166  133.7513  156.9450 LP  0  0  0  0  0  0  0  0  0  0  0  0  # atno 17394 bound_to 11000
  140.1302  134.9361  157.2326 LP  0  0  0  0  0  0  0  0  0  0  0  0  # atno 17395 bound_to 11000

$$$$
