AV-unprocessed.smi:2597|AV-procd|sdf|10174|dock7
  -GOLD-   2272014183D 1   1.00000     0.00000
 Structure written by MMmdl.
 30 31  0  0  0  0  0  0  0  0  1 V2000
  148.6713  138.7368  153.1939 N   0  0  0  0  0  0  0  0  0  0  0  0
  147.7522  139.7909  153.5863 C   0  0  1  0  0  0  0  0  0  0  0  0
  146.8156  139.2935  154.7072 C   0  0  0  0  0  0  0  0  0  0  0  0
  145.8510  140.4029  155.1562 C   0  0  0  0  0  0  0  0  0  0  0  0
  146.6019  141.6802  155.5655 C   0  0  0  0  0  0  0  0  0  0  0  0
  147.5113  142.1812  154.4286 C   0  0  0  0  0  0  0  0  0  0  0  0
  148.5042  141.1080  153.9298 C   0  0  1  0  0  0  0  0  0  0  0  0
  149.6464  140.9636  154.8361 N   0  0  0  0  0  0  0  0  0  0  0  0
  149.8412  141.6120  156.0393 C   0  0  0  0  0  0  0  0  0  0  0  0
  151.0234  141.1030  156.5013 C   0  0  0  0  0  0  0  0  0  0  0  0
  151.7846  141.3960  157.7624 C   0  0  0  0  0  0  0  0  0  0  0  0
  152.8172  140.4386  157.8782 O   0  0  0  0  0  0  0  0  0  0  0  0
  151.4872  140.1663  155.5807 N   0  0  0  0  0  0  0  0  0  0  0  0
  150.6519  140.0861  154.5941 N   0  0  0  0  0  0  0  0  0  0  0  0
  147.1293  139.9931  152.7141 H   0  0  0  0  0  0  0  0  0  0  0  0
  148.9224  141.4806  152.9934 H   0  0  0  0  0  0  0  0  0  0  0  0
  148.1563  137.9637  152.7975 H   0  0  0  0  0  0  0  0  0  0  0  0
  149.2914  139.0740  152.4715 H   0  0  0  0  0  0  0  0  0  0  0  0
  146.2385  138.4387  154.3527 H   0  0  0  0  0  0  0  0  0  0  0  0
  147.3827  138.9313  155.5639 H   0  0  0  0  0  0  0  0  0  0  0  0
  145.1625  140.6340  154.3425 H   0  0  0  0  0  0  0  0  0  0  0  0
  145.2390  140.0488  155.9862 H   0  0  0  0  0  0  0  0  0  0  0  0
  145.8842  142.4578  155.8286 H   0  0  0  0  0  0  0  0  0  0  0  0
  147.1870  141.4946  156.4659 H   0  0  0  0  0  0  0  0  0  0  0  0
  146.8823  142.4926  153.5939 H   0  0  0  0  0  0  0  0  0  0  0  0
  148.0502  143.0746  154.7464 H   0  0  0  0  0  0  0  0  0  0  0  0
  149.1566  142.3433  156.4424 H   0  0  0  0  0  0  0  0  0  0  0  0
  152.2160  142.3967  157.7369 H   0  0  0  0  0  0  0  0  0  0  0  0
  151.1377  141.3350  158.6379 H   0  0  0  0  0  0  0  0  0  0  0  0
  152.4518  139.6477  158.2443 H   0  0  0  0  0  0  0  0  0  0  0  0
  1  2  1  0  0  0  0
  1 17  1  0  0  0  0
  1 18  1  0  0  0  0
  2 15  1  0  0  0  0
  2  7  1  0  0  0  0
  2  3  1  0  0  0  0
  3  4  1  0  0  0  0
  3 19  1  0  0  0  0
  3 20  1  0  0  0  0
  4  5  1  0  0  0  0
  4 21  1  0  0  0  0
  4 22  1  0  0  0  0
  5  6  1  0  0  0  0
  5 23  1  0  0  0  0
  5 24  1  0  0  0  0
  6  7  1  0  0  0  0
  6 25  1  0  0  0  0
  6 26  1  0  0  0  0
  7 16  1  0  0  0  0
  7  8  1  0  0  0  0
  8 14  1  0  0  0  0
  8  9  1  0  0  0  0
  9 10  2  0  0  0  0
  9 27  1  0  0  0  0
 10 11  1  0  0  0  0
 10 13  1  0  0  0  0
 11 12  1  0  0  0  0
 11 28  1  0  0  0  0
 11 29  1  0  0  0  0
 12 30  1  0  0  0  0
 13 14  2  0  0  0  0
M  END
> <s_m_source_file>
AV-unprocessed.smi

> <i_m_source_file_index>
2597

> <i_lp_mmshare_version>
43012

> <i_f3d_flags>
0

> <s_epik_input>
W05IMl1bQ0BIXTFbQ0gyXVtDSDJdW0NIMl1bQ0gyXVtDQEhdMW4yW2NIXWMobm4yKVtDSDJdW09IXQ==

> <s_epik_cmdline>
J2VwaWtfcHl0aG9uJywgJy1waCcsICc3LjAnLCAnLXRuJywgJzgnLCAnLW1hJywgJzIwMCcsICctbWV0YWxfYmluZGluZycsICctaW1hZScsICc8aW5maWxlLm1hZT4nLCAnLW9tYWUnLCAnPG91dGZpbGUubWFlPic=

> <r_lp_tautomer_probability>
1

> <r_epik_Ionization_Penalty>
2.21303

> <r_epik_Ionization_Penalty_Charging>
0

> <r_epik_Ionization_Penalty_Neutral>
2.21303

> <r_epik_State_Penalty>
2.3573

> <r_epik_Charging_Adjusted_Penalty>
2.3573

> <i_epik_Tot_Q>
0

> <i_epik_Tot_abs_Q>
0

> <r_epik_Metal_State_Penalty>
2.35724

> <b_epik_Metal_Only>
0

> <s_lp_Force_Field>
OPLS_2005

> <r_lp_Energy>
16.8416

> <b_lp_Chiralities_Consistent>
1

> <s_lp_Variant>
AV-unprocessed.smi:2597-5

> <Gold.Version>
5.8.1

> <Gold.Id.Protein>
6NUR|6NUR_protein|mol2

> <Gold.PLP.Fitness>
36.0177

> <Gold.PLP.PLP>
-23.6387

> <Gold.PLP.part.hbond>
-4.6239

> <Gold.PLP.part.metal>
0.0000

> <Gold.PLP.part.buried>
1.1084

> <Gold.PLP.part.nonpolar>
-19.0908

> <Gold.PLP.part.repulsive>
0.0844

> <Gold.PLP.ligand.clash>
0.0000

> <Gold.PLP.ligand.torsion>
0.1258

> <Gold.PLP.Chemscore.Hbond>
3.2740

> <Gold.PLP.Chemscore.CHOScore>
0.9152

> <Gold.PLP.Chemscore.Metal>
0.0000

> <Gold.Chemscore.Hbonds>
donor molecule, donor type, donor heavy atom, donor atom, acceptor molecule, acceptor atom, score
      L1  H     1    17       P1  7948  0.43
      L1  H     1    18       P1  7957  1.00
      P1  H  7989  7998       L1    14  0.80
      P1  H  7997  8008       L1    12  0.86
      L1  C     9    27       P1  8028  0.93

> <Gold.PLP.Chemscore.Internal.Correction>
0.0631

> <Gold.Rescore>
     Score         DG    S(hbond)    S(metal)    S(lipo)     H(rot)  DE(clash)    DE(int)     intcor
     13.13     -15.04       2.58        0.00      47.86       1.82       0.37       1.54       ----

> <Gold.Chemscore.Fitness>
13.1263

> <Gold.Chemscore.DG>
-15.0398

> <Gold.Chemscore.ZeroCoef>
-5.4800

> <Gold.Chemscore.Hbond>
2.5825

> <Gold.Chemscore.Metal>
0.0000

> <Gold.Chemscore.Lipo>
47.8561

> <Gold.Chemscore.Internal_Hbond>
0.0000

> <Gold.Chemscore.DEClash>
0.3725

> <Gold.Chemscore.DEInternal>
1.5410

> <Gold.Chemscore.Rot>
1.8222

> <Gold.Chemscore.Internal.Correction>
   9.000000E+99

> <Gold.Chemscore.Hbonds>
donor molecule, donor type, donor heavy atom, donor atom, acceptor molecule, acceptor atom, score
      L1  H     1    17       P1  7948  0.43
      L1  H     1    18       P1  7957  0.94
      P1  H  7989  7998       L1    14  0.05
      P1  H  7997  8008       L1    12  0.68

> <Gold.Chemscore.Hbond.Weighted>
-8.6255

> <Gold.Chemscore.Metal.Weighted>
-0.0000

> <Gold.Chemscore.Lipo.Weighted>
-5.5992

> <Gold.Chemscore.Internal_Hbond.Weighted>
0.0000

> <Gold.Chemscore.DEClash.Weighted>
0.3725

> <Gold.Chemscore.DEInternal.Weighted>
1.5410

> <Gold.Chemscore.Rot.Weighted>
4.6649

> <Gold.Chemscore.Internal.Correction.Weighted>
   9.000000E+99

> <Gold.Protein.RotatedTorsions>
[ 6907 6896 6895 6894 ] final  -54.02 input  -60.11 | X-H torsion
[ 7974 7965 7964 7962 ] final   27.02 input  175.53 | X-H torsion
[ 8008 7997 7996 7995 ] final  -75.93 input   59.86 | X-H torsion
[ 10167 10162 10161 10158 ] final  100.40 input  -65.29 | X-H torsion
[ 10718 10713 10712 10709 ] final -176.23 input   66.30 | X-H torsion
[ 10763 10752 10751 10750 ] final -102.66 input  -60.55 | X-H torsion
[ 11005 11000 10999 10996 ] final   39.64 input  -57.11 | X-H torsion

> <Gold.Protein.ActiveResidues>
 VAL166  LYS551  ARG553  GLY616  TRP617  ASP618  TYR619  PRO620  LYS621  CYS622 
 ASP623  PHE694  ASN695  SER759  ASP760  ASP761  ALA762  ILE779  LEU786  VAL792 
 PHE793  MET794  SER795  GLU796  ALA797  LYS798  CYS799  TRP800  GLU811  SER814 

> <Gold.Protein.RotatedAtoms>
  150.8375  134.7653  159.6904 H   0  0  0  0  0  0  0  0  0  0  0  0  # atno 6907 bound_to 6896
  152.4468  134.5473  159.9866 H   0  0  0  0  0  0  0  0  0  0  0  0  # atno 6908 bound_to 6896
  151.5621  133.3364  159.3009 H   0  0  0  0  0  0  0  0  0  0  0  0  # atno 6909 bound_to 6896
  146.1807  139.7249  142.8902 H   0  0  0  0  0  0  0  0  0  0  0  0  # atno 7974 bound_to 7965
  154.5460  140.0736  156.8589 H   0  0  0  0  0  0  0  0  0  0  0  0  # atno 8008 bound_to 7997
  155.3087  140.3389  155.4226 H   0  0  0  0  0  0  0  0  0  0  0  0  # atno 8009 bound_to 7997
  156.1918  140.1689  156.8063 H   0  0  0  0  0  0  0  0  0  0  0  0  # atno 8010 bound_to 7997
  139.7531  144.6978  151.0403 H   0  0  0  0  0  0  0  0  0  0  0  0  # atno 10167 bound_to 10162
  156.8116  130.9588  151.3115 H   0  0  0  0  0  0  0  0  0  0  0  0  # atno 10718 bound_to 10713
  154.7750  135.4852  153.9726 H   0  0  0  0  0  0  0  0  0  0  0  0  # atno 10763 bound_to 10752
  153.1417  135.6774  153.9025 H   0  0  0  0  0  0  0  0  0  0  0  0  # atno 10764 bound_to 10752
  153.8697  135.3145  155.3420 H   0  0  0  0  0  0  0  0  0  0  0  0  # atno 10765 bound_to 10752
  140.2008  134.3872  155.8097 H   0  0  0  0  0  0  0  0  0  0  0  0  # atno 11005 bound_to 11000
  145.4085  141.0394  143.3030 LP  0  0  0  0  0  0  0  0  0  0  0  0  # atno 17320 bound_to 7965
  144.8310  139.5629  143.6944 LP  0  0  0  0  0  0  0  0  0  0  0  0  # atno 17321 bound_to 7965
  140.7800  143.4786  151.0049 LP  0  0  0  0  0  0  0  0  0  0  0  0  # atno 17342 bound_to 10162
  139.8473  143.7485  152.3179 LP  0  0  0  0  0  0  0  0  0  0  0  0  # atno 17343 bound_to 10162
  157.6503  130.8879  149.9620 LP  0  0  0  0  0  0  0  0  0  0  0  0  # atno 17370 bound_to 10713
  156.1041  130.3654  150.0165 LP  0  0  0  0  0  0  0  0  0  0  0  0  # atno 17371 bound_to 10713
  141.2227  133.7093  156.8255 LP  0  0  0  0  0  0  0  0  0  0  0  0  # atno 17394 bound_to 11000
  140.2056  134.8865  157.3218 LP  0  0  0  0  0  0  0  0  0  0  0  0  # atno 17395 bound_to 11000

$$$$
