AV-unprocessed.smi:3031|AV-procd|sdf|11554|dock9
  -GOLD-   2272016513D 1   1.00000     0.00000
 Structure written by MMmdl.
 46 47  0  0  0  0  0  0  0  0  1 V2000
  150.6542  142.6638  157.7459 C   0  0  0  0  0  0  0  0  0  0  0  0
  150.4075  141.7552  156.5763 C   0  0  0  0  0  0  0  0  0  0  0  0
  151.2479  140.7193  156.0785 C   0  0  0  0  0  0  0  0  0  0  0  0
  150.7369  140.1054  155.0238 N   0  0  0  0  0  0  0  0  0  0  0  0
  149.5470  140.7112  154.8216 N   0  0  0  0  0  0  0  0  0  0  0  0
  148.7063  140.2983  153.7092 C   0  0  0  0  0  0  0  0  0  0  0  0
  147.1874  140.4151  153.9922 C   0  0  1  0  0  0  0  0  0  0  0  0
  146.7293  141.8736  153.8504 C   0  0  0  0  0  0  0  0  0  0  0  0
  146.3666  139.5807  153.1056 N   0  0  0  0  0  0  0  0  0  0  0  0
  146.4535  138.1355  153.3123 C   0  0  0  0  0  0  0  0  0  0  0  0
  145.6260  137.3712  152.2665 C   0  0  2  0  0  0  0  0  0  0  0  0
  144.2791  137.7634  152.4329 O   0  0  0  0  0  0  0  0  0  0  0  0
  145.7099  135.8415  152.4627 C   0  0  0  0  0  0  0  0  0  0  0  0
  144.7544  135.0483  151.6873 N   0  0  0  0  0  0  0  0  0  0  0  0
  143.8263  134.3482  152.5691 C   0  0  0  0  0  0  0  0  0  0  0  0
  142.8054  133.5095  151.7819 C   0  0  0  0  0  0  0  0  0  0  0  0
  143.4947  132.5840  150.9484 O   0  0  0  0  0  0  0  0  0  0  0  0
  144.3830  133.2235  150.0377 C   0  0  0  0  0  0  0  0  0  0  0  0
  145.4052  134.0714  150.8157 C   0  0  0  0  0  0  0  0  0  0  0  0
  149.3335  141.7250  155.7326 C   0  0  0  0  0  0  0  0  0  0  0  0
  151.5687  142.4012  158.2784 H   0  0  0  0  0  0  0  0  0  0  0  0
  149.8386  142.6191  158.4680 H   0  0  0  0  0  0  0  0  0  0  0  0
  150.7515  143.7036  157.4336 H   0  0  0  0  0  0  0  0  0  0  0  0
  152.2112  140.3998  156.4482 H   0  0  0  0  0  0  0  0  0  0  0  0
  148.9742  140.9380  152.8675 H   0  0  0  0  0  0  0  0  0  0  0  0
  148.9626  139.2803  153.4099 H   0  0  0  0  0  0  0  0  0  0  0  0
  146.9945  140.1294  155.0268 H   0  0  0  0  0  0  0  0  0  0  0  0
  147.2618  142.5233  154.5457 H   0  0  0  0  0  0  0  0  0  0  0  0
  145.6642  141.9755  154.0617 H   0  0  0  0  0  0  0  0  0  0  0  0
  146.9065  142.2497  152.8421 H   0  0  0  0  0  0  0  0  0  0  0  0
  145.3964  139.8710  153.1752 H   0  0  0  0  0  0  0  0  0  0  0  0
  147.4870  137.7976  153.2626 H   0  0  0  0  0  0  0  0  0  0  0  0
  146.0870  137.8914  154.3103 H   0  0  0  0  0  0  0  0  0  0  0  0
  145.9508  137.6709  151.2708 H   0  0  0  0  0  0  0  0  0  0  0  0
  144.0318  138.3036  151.6980 H   0  0  0  0  0  0  0  0  0  0  0  0
  146.7194  135.5022  152.2259 H   0  0  0  0  0  0  0  0  0  0  0  0
  145.5738  135.6305  153.5245 H   0  0  0  0  0  0  0  0  0  0  0  0
  144.3802  133.6968  153.2471 H   0  0  0  0  0  0  0  0  0  0  0  0
  143.2945  135.0674  153.1932 H   0  0  0  0  0  0  0  0  0  0  0  0
  142.1577  132.9603  152.4653 H   0  0  0  0  0  0  0  0  0  0  0  0
  142.1633  134.1501  151.1753 H   0  0  0  0  0  0  0  0  0  0  0  0
  144.8934  132.4639  149.4456 H   0  0  0  0  0  0  0  0  0  0  0  0
  143.8161  133.8447  149.3425 H   0  0  0  0  0  0  0  0  0  0  0  0
  146.0532  134.5720  150.0977 H   0  0  0  0  0  0  0  0  0  0  0  0
  146.0428  133.4134  151.4079 H   0  0  0  0  0  0  0  0  0  0  0  0
  148.4412  142.3329  155.7096 H   0  0  0  0  0  0  0  0  0  0  0  0
  1  2  1  0  0  0  0
  1 21  1  0  0  0  0
  1 22  1  0  0  0  0
  1 23  1  0  0  0  0
  2 20  2  0  0  0  0
  2  3  1  0  0  0  0
  3  4  2  0  0  0  0
  3 24  1  0  0  0  0
  4  5  1  0  0  0  0
  5  6  1  0  0  0  0
  5 20  1  0  0  0  0
  6  7  1  0  0  0  0
  6 25  1  0  0  0  0
  6 26  1  0  0  0  0
  7  8  1  0  0  0  0
  7  9  1  0  0  0  0
  7 27  1  0  0  0  0
  8 28  1  0  0  0  0
  8 29  1  0  0  0  0
  8 30  1  0  0  0  0
  9 10  1  0  0  0  0
  9 31  1  0  0  0  0
 10 11  1  0  0  0  0
 10 32  1  0  0  0  0
 10 33  1  0  0  0  0
 11 12  1  0  0  0  0
 11 13  1  0  0  0  0
 11 34  1  0  0  0  0
 12 35  1  0  0  0  0
 13 14  1  0  0  0  0
 13 36  1  0  0  0  0
 13 37  1  0  0  0  0
 14 19  1  0  0  0  0
 14 15  1  0  0  0  0
 15 16  1  0  0  0  0
 15 38  1  0  0  0  0
 15 39  1  0  0  0  0
 16 17  1  0  0  0  0
 16 40  1  0  0  0  0
 16 41  1  0  0  0  0
 17 18  1  0  0  0  0
 18 19  1  0  0  0  0
 18 42  1  0  0  0  0
 18 43  1  0  0  0  0
 19 44  1  0  0  0  0
 19 45  1  0  0  0  0
 20 46  1  0  0  0  0
M  END
> <s_m_source_file>
AV-unprocessed.smi

> <i_m_source_file_index>
3031

> <i_lp_mmshare_version>
43012

> <i_f3d_flags>
0

> <s_epik_input>
W0NIM11jMVtjSF1ubihbY0hdMSlbQ0gyXVtDQEhdKFtDSDNdKVtOSF1bQ0gyXVtDQEhdKFtPSF0pW0NIMl1OMltDSDJdW0NIMl1PW0NIMl1bQ0gyXTI=

> <s_epik_cmdline>
J2VwaWtfcHl0aG9uJywgJy1waCcsICc3LjAnLCAnLXRuJywgJzgnLCAnLW1hJywgJzIwMCcsICctbWV0YWxfYmluZGluZycsICctaW1hZScsICc8aW5maWxlLm1hZT4nLCAnLW9tYWUnLCAnPG91dGZpbGUubWFlPic=

> <r_lp_tautomer_probability>
1

> <r_epik_Ionization_Penalty>
2.8101

> <r_epik_Ionization_Penalty_Charging>
0

> <r_epik_Ionization_Penalty_Neutral>
2.8101

> <r_epik_State_Penalty>
2.12351

> <r_epik_Charging_Adjusted_Penalty>
2.12351

> <i_epik_Tot_Q>
0

> <i_epik_Tot_abs_Q>
0

> <r_epik_Metal_State_Penalty>
2.12345

> <b_epik_Metal_Only>
0

> <s_lp_Force_Field>
OPLS_2005

> <r_lp_Energy>
32.7569

> <b_lp_Chiralities_Consistent>
1

> <s_lp_Variant>
AV-unprocessed.smi:3031-14

> <Gold.Version>
5.8.1

> <Gold.Id.Protein>
6NUR|6NUR_protein|mol2

> <Gold.PLP.Fitness>
43.3901

> <Gold.PLP.PLP>
-35.0629

> <Gold.PLP.part.hbond>
-4.0000

> <Gold.PLP.part.metal>
0.0000

> <Gold.PLP.part.buried>
1.7995

> <Gold.PLP.part.nonpolar>
-32.9365

> <Gold.PLP.part.repulsive>
0.4293

> <Gold.PLP.ligand.clash>
0.0000

> <Gold.PLP.ligand.torsion>
1.4104

> <Gold.PLP.Chemscore.Hbond>
3.0000

> <Gold.PLP.Chemscore.CHOScore>
0.6875

> <Gold.PLP.Chemscore.Metal>
0.0000

> <Gold.Chemscore.Hbonds>
donor molecule, donor type, donor heavy atom, donor atom, acceptor molecule, acceptor atom, score
      L1  H     9    31       P1 10175  1.00
      L1  H    12    35       P1 10171  1.00
      P1  H  7989  7998       L1     4  0.80
      L1  C    20    46       P1  8028  0.69

> <Gold.PLP.Chemscore.Internal.Correction>
0.0854

> <Gold.Rescore>
     Score         DG    S(hbond)    S(metal)    S(lipo)     H(rot)  DE(clash)    DE(int)     intcor
     15.95     -18.86       2.76        0.00      91.09       2.53       1.65       1.25       ----

> <Gold.Chemscore.Fitness>
15.9506

> <Gold.Chemscore.DG>
-18.8555

> <Gold.Chemscore.ZeroCoef>
-5.4800

> <Gold.Chemscore.Hbond>
2.7555

> <Gold.Chemscore.Metal>
0.0000

> <Gold.Chemscore.Lipo>
91.0878

> <Gold.Chemscore.Internal_Hbond>
0.0000

> <Gold.Chemscore.DEClash>
1.6532

> <Gold.Chemscore.DEInternal>
1.2516

> <Gold.Chemscore.Rot>
2.5333

> <Gold.Chemscore.Internal.Correction>
   9.000000E+99

> <Gold.Chemscore.Hbonds>
donor molecule, donor type, donor heavy atom, donor atom, acceptor molecule, acceptor atom, score
      L1  H     9    31       P1 10175  0.97
      L1  H    12    35       P1 10171  0.96
      P1  H  7989  7998       L1     4  0.06

> <Gold.Chemscore.Hbond.Weighted>
-9.2033

> <Gold.Chemscore.Metal.Weighted>
-0.0000

> <Gold.Chemscore.Lipo.Weighted>
-10.6573

> <Gold.Chemscore.Internal_Hbond.Weighted>
0.0000

> <Gold.Chemscore.DEClash.Weighted>
1.6532

> <Gold.Chemscore.DEInternal.Weighted>
1.2516

> <Gold.Chemscore.Rot.Weighted>
6.4852

> <Gold.Chemscore.Internal.Correction.Weighted>
   9.000000E+99

> <Gold.Protein.RotatedTorsions>
[ 6907 6896 6895 6894 ] final  -74.18 input  -60.11 | X-H torsion
[ 7974 7965 7964 7962 ] final   34.33 input  175.53 | X-H torsion
[ 8008 7997 7996 7995 ] final   33.83 input   59.86 | X-H torsion
[ 10167 10162 10161 10158 ] final  113.68 input  -65.29 | X-H torsion
[ 10718 10713 10712 10709 ] final   68.51 input   66.30 | X-H torsion
[ 10763 10752 10751 10750 ] final  -35.28 input  -60.55 | X-H torsion
[ 11005 11000 10999 10996 ] final  128.43 input  -57.11 | X-H torsion

> <Gold.Protein.ActiveResidues>
 VAL166  LYS551  ARG553  GLY616  TRP617  ASP618  TYR619  PRO620  LYS621  CYS622 
 ASP623  PHE694  ASN695  SER759  ASP760  ASP761  ALA762  ILE779  LEU786  VAL792 
 PHE793  MET794  SER795  GLU796  ALA797  LYS798  CYS799  TRP800  GLU811  SER814 

> <Gold.Protein.RotatedAtoms>
  150.7102  134.4907  159.5513 H   0  0  0  0  0  0  0  0  0  0  0  0  # atno 6907 bound_to 6896
  152.2525  134.8115  160.0453 H   0  0  0  0  0  0  0  0  0  0  0  0  # atno 6908 bound_to 6896
  151.8857  133.3470  159.3818 H   0  0  0  0  0  0  0  0  0  0  0  0  # atno 6909 bound_to 6896
  146.1360  139.6283  142.9195 H   0  0  0  0  0  0  0  0  0  0  0  0  # atno 7974 bound_to 7965
  155.1450  140.3269  155.4443 H   0  0  0  0  0  0  0  0  0  0  0  0  # atno 8008 bound_to 7997
  156.2592  140.1987  156.6514 H   0  0  0  0  0  0  0  0  0  0  0  0  # atno 8009 bound_to 7997
  154.6514  140.0558  156.9947 H   0  0  0  0  0  0  0  0  0  0  0  0  # atno 8010 bound_to 7997
  139.6443  144.7126  151.2173 H   0  0  0  0  0  0  0  0  0  0  0  0  # atno 10167 bound_to 10162
  157.6293  130.9377  150.0388 H   0  0  0  0  0  0  0  0  0  0  0  0  # atno 10718 bound_to 10713
  153.8606  135.6840  153.4783 H   0  0  0  0  0  0  0  0  0  0  0  0  # atno 10763 bound_to 10752
  153.1344  135.4684  154.9397 H   0  0  0  0  0  0  0  0  0  0  0  0  # atno 10764 bound_to 10752
  154.7760  135.3253  154.8040 H   0  0  0  0  0  0  0  0  0  0  0  0  # atno 10765 bound_to 10752
  139.9560  134.9613  156.9001 H   0  0  0  0  0  0  0  0  0  0  0  0  # atno 11005 bound_to 11000
  145.5155  141.0434  143.2464 LP  0  0  0  0  0  0  0  0  0  0  0  0  # atno 17320 bound_to 7965
  144.7740  139.6670  143.7182 LP  0  0  0  0  0  0  0  0  0  0  0  0  # atno 17321 bound_to 7965
  140.7507  143.6257  150.8470 LP  0  0  0  0  0  0  0  0  0  0  0  0  # atno 17342 bound_to 10162
  139.9898  143.5859  152.2914 LP  0  0  0  0  0  0  0  0  0  0  0  0  # atno 17343 bound_to 10162
  156.1486  130.3642  149.9472 LP  0  0  0  0  0  0  0  0  0  0  0  0  # atno 17370 bound_to 10713
  156.7497  130.9110  151.3636 LP  0  0  0  0  0  0  0  0  0  0  0  0  # atno 17371 bound_to 10713
  140.5608  134.0537  155.7398 LP  0  0  0  0  0  0  0  0  0  0  0  0  # atno 17394 bound_to 11000
  141.1232  133.9427  157.2688 LP  0  0  0  0  0  0  0  0  0  0  0  0  # atno 17395 bound_to 11000

$$$$
