AV-unprocessed.smi:283|AV-procd|sdf|2131|dock7
  -GOLD-   2262021443D 1   1.00000     0.00000
 Structure written by MMmdl.
 48 51  0  0  0  0  0  0  0  0  1 V2000
  150.9748  142.2171  156.9146 C   0  0  0  0  0  0  0  0  0  0  0  0
  151.8990  141.5793  157.9602 C   0  0  2  0  0  0  0  0  0  0  0  0
  151.4602  140.2152  158.2501 N   0  0  0  0  0  0  0  0  0  0  0  0
  151.6602  139.2145  157.3625 C   0  0  0  0  0  0  0  0  0  0  0  0
  152.4549  139.3878  156.2738 N   0  0  0  0  0  0  0  0  0  0  0  0
  152.6366  138.3841  155.4115 C   0  0  0  0  0  0  0  0  0  0  0  0
  152.1223  137.1532  155.4453 N   0  0  0  0  0  0  0  0  0  0  0  0
  151.3161  136.9742  156.5315 C   0  0  0  0  0  0  0  0  0  0  0  0
  151.0389  137.9498  157.5302 C   0  0  0  0  0  0  0  0  0  0  0  0
  150.1853  137.4155  158.4860 N   0  0  0  0  0  0  0  0  0  0  0  0
  149.9702  136.1962  158.0707 C   0  0  0  0  0  0  0  0  0  0  0  0
  150.6108  135.8460  156.9028 N   0  0  0  0  0  0  0  0  0  0  0  0
  150.5482  134.5271  156.1953 C   0  0  1  0  0  0  0  0  0  0  0  0
  149.8513  133.6042  156.9780 O   0  0  0  0  0  0  0  0  0  0  0  0
  149.0064  132.7817  156.1691 C   0  0  1  0  0  0  0  0  0  0  0  0
  147.5483  133.0194  156.6123 C   0  0  0  0  0  0  0  0  0  0  0  0
  146.6596  132.2232  155.8566 O   0  0  0  0  0  0  0  0  0  0  0  0
  149.3469  133.1707  154.7181 C   0  0  1  0  0  0  0  0  0  0  0  0
  148.3041  133.0152  153.7738 O   0  0  0  0  0  0  0  0  0  0  0  0
  149.8469  134.6009  154.8336 C   0  0  1  0  0  0  0  0  0  0  0  0
  148.8032  135.5603  154.7857 O   0  0  0  0  0  0  0  0  0  0  0  0
  152.0092  142.4760  159.1950 C   0  0  0  0  0  0  0  0  0  0  0  0
  151.2894  143.6922  159.2379 C   0  0  0  0  0  0  0  0  0  0  0  0
  151.3726  144.5366  160.3609 C   0  0  0  0  0  0  0  0  0  0  0  0
  152.1804  144.1741  161.4535 C   0  0  0  0  0  0  0  0  0  0  0  0
  152.9074  142.9700  161.4182 C   0  0  0  0  0  0  0  0  0  0  0  0
  152.8298  142.1216  160.2956 C   0  0  0  0  0  0  0  0  0  0  0  0
  153.7548  140.6606  160.3053 Cl  0  0  0  0  0  0  0  0  0  0  0  0
  151.5864  134.2031  156.1117 H   0  0  0  0  0  0  0  0  0  0  0  0
  149.2711  131.7393  156.3521 H   0  0  0  0  0  0  0  0  0  0  0  0
  150.1799  132.5461  154.3918 H   0  0  0  0  0  0  0  0  0  0  0  0
  150.5745  134.8450  154.0587 H   0  0  0  0  0  0  0  0  0  0  0  0
  151.3337  143.2060  156.6278 H   0  0  0  0  0  0  0  0  0  0  0  0
  149.9592  142.3292  157.2959 H   0  0  0  0  0  0  0  0  0  0  0  0
  150.9265  141.6103  156.0100 H   0  0  0  0  0  0  0  0  0  0  0  0
  152.8810  141.4839  157.4988 H   0  0  0  0  0  0  0  0  0  0  0  0
  151.0999  140.0587  159.1804 H   0  0  0  0  0  0  0  0  0  0  0  0
  153.2858  138.5973  154.5752 H   0  0  0  0  0  0  0  0  0  0  0  0
  149.3324  135.5114  158.6107 H   0  0  0  0  0  0  0  0  0  0  0  0
  147.4289  132.7358  157.6584 H   0  0  0  0  0  0  0  0  0  0  0  0
  147.2661  134.0690  156.5347 H   0  0  0  0  0  0  0  0  0  0  0  0
  145.9484  131.9528  156.4174 H   0  0  0  0  0  0  0  0  0  0  0  0
  148.6915  132.7953  152.9398 H   0  0  0  0  0  0  0  0  0  0  0  0
  148.7924  135.9472  153.9234 H   0  0  0  0  0  0  0  0  0  0  0  0
  150.6674  143.9848  158.4048 H   0  0  0  0  0  0  0  0  0  0  0  0
  150.8171  145.4626  160.3829 H   0  0  0  0  0  0  0  0  0  0  0  0
  152.2450  144.8200  162.3167 H   0  0  0  0  0  0  0  0  0  0  0  0
  153.5296  142.6967  162.2576 H   0  0  0  0  0  0  0  0  0  0  0  0
  1  2  1  0  0  0  0
  1 33  1  0  0  0  0
  1 34  1  0  0  0  0
  1 35  1  0  0  0  0
  2  3  1  0  0  0  0
  2 22  1  0  0  0  0
  2 36  1  0  0  0  0
  3  4  1  0  0  0  0
  3 37  1  0  0  0  0
  4  9  1  0  0  0  0
  4  5  2  0  0  0  0
  5  6  1  0  0  0  0
  6  7  2  0  0  0  0
  6 38  1  0  0  0  0
  7  8  1  0  0  0  0
  8 12  1  0  0  0  0
  8  9  2  0  0  0  0
  9 10  1  0  0  0  0
 10 11  2  0  0  0  0
 11 12  1  0  0  0  0
 11 39  1  0  0  0  0
 12 13  1  0  0  0  0
 13 29  1  0  0  0  0
 13 20  1  0  0  0  0
 13 14  1  0  0  0  0
 14 15  1  0  0  0  0
 15 30  1  0  0  0  0
 15 16  1  0  0  0  0
 15 18  1  0  0  0  0
 16 17  1  0  0  0  0
 16 40  1  0  0  0  0
 16 41  1  0  0  0  0
 17 42  1  0  0  0  0
 18 31  1  0  0  0  0
 18 19  1  0  0  0  0
 18 20  1  0  0  0  0
 19 43  1  0  0  0  0
 20 32  1  0  0  0  0
 20 21  1  0  0  0  0
 21 44  1  0  0  0  0
 22 27  1  0  0  0  0
 22 23  2  0  0  0  0
 23 24  1  0  0  0  0
 23 45  1  0  0  0  0
 24 25  2  0  0  0  0
 24 46  1  0  0  0  0
 25 26  1  0  0  0  0
 25 47  1  0  0  0  0
 26 27  2  0  0  0  0
 26 48  1  0  0  0  0
 27 28  1  0  0  0  0
M  END
> <s_m_source_file>
AV-unprocessed.smi

> <i_m_source_file_index>
283

> <i_lp_mmshare_version>
43012

> <i_f3d_flags>
0

> <s_epik_input>
Q2xjMVtjSF1bY0hdW2NIXVtjSF1jMVtDQEhdKFtDSDNdKVtOSF1jKG5bY0hdbjIpYyhjMjMpbltjSF1uM1tDQEBIXTRPW0NASF0oW0NIMl1bT0hdKVtDQEBIXShbT0hdKVtDQEhdNFtPSF0=

> <s_epik_cmdline>
J2VwaWtfcHl0aG9uJywgJy1waCcsICc3LjAnLCAnLXRuJywgJzgnLCAnLW1hJywgJzIwMCcsICctbWV0YWxfYmluZGluZycsICctaW1hZScsICc8aW5maWxlLm1hZT4nLCAnLW9tYWUnLCAnPG91dGZpbGUubWFlPic=

> <r_lp_tautomer_probability>
1

> <r_epik_Ionization_Penalty>
0.000266407

> <r_epik_Ionization_Penalty_Charging>
0

> <r_epik_Ionization_Penalty_Neutral>
0.000266407

> <r_epik_State_Penalty>
-0

> <r_epik_Charging_Adjusted_Penalty>
0

> <i_epik_Tot_Q>
0

> <i_epik_Tot_abs_Q>
0

> <r_epik_Metal_State_Penalty>
-0

> <b_epik_Metal_Only>
0

> <s_epik_Chemistry_Notes>
This compound contains an acetal/aminal-like group ( X-CH(R)-Y where X, Y are N, S, or O) that may be acid/base labile, releasing an aldehyde.

> <s_lp_Force_Field>
OPLS_2005

> <r_lp_Energy>
56.5757

> <b_lp_Chiralities_Consistent>
1

> <s_lp_Variant>
AV-unprocessed.smi:283-7

> <Gold.Version>
5.8.1

> <Gold.Id.Protein>
6NUR|6NUR_protein|mol2

> <Gold.PLP.Fitness>
54.4713

> <Gold.PLP.PLP>
-46.8152

> <Gold.PLP.part.hbond>
-3.0947

> <Gold.PLP.part.metal>
0.0000

> <Gold.PLP.part.buried>
-7.2386

> <Gold.PLP.part.nonpolar>
-36.1279

> <Gold.PLP.part.repulsive>
0.1563

> <Gold.PLP.ligand.clash>
0.0000

> <Gold.PLP.ligand.torsion>
0.3457

> <Gold.PLP.Chemscore.Hbond>
2.7680

> <Gold.PLP.Chemscore.CHOScore>
0.0000

> <Gold.PLP.Chemscore.Metal>
0.0000

> <Gold.Chemscore.Hbonds>
donor molecule, donor type, donor heavy atom, donor atom, acceptor molecule, acceptor atom, score
      L1  H    21    44       P1  7948  0.89
      P1  H  7997  8010       L1     5  0.95
      P1  H 10752 10764       L1     7  0.80

> <Gold.PLP.Chemscore.Internal.Correction>
0.0436

> <Gold.Rescore>
     Score         DG    S(hbond)    S(metal)    S(lipo)     H(rot)  DE(clash)    DE(int)     intcor
     15.72     -16.34       2.51        0.00     110.66       4.10       0.27       0.34       ----

> <Gold.Chemscore.Fitness>
15.7216

> <Gold.Chemscore.DG>
-16.3351

> <Gold.Chemscore.ZeroCoef>
-5.4800

> <Gold.Chemscore.Hbond>
2.5136

> <Gold.Chemscore.Metal>
0.0000

> <Gold.Chemscore.Lipo>
110.6647

> <Gold.Chemscore.Internal_Hbond>
0.0000

> <Gold.Chemscore.DEClash>
0.2715

> <Gold.Chemscore.DEInternal>
0.3421

> <Gold.Chemscore.Rot>
4.0968

> <Gold.Chemscore.Internal.Correction>
   9.000000E+99

> <Gold.Chemscore.Hbonds>
donor molecule, donor type, donor heavy atom, donor atom, acceptor molecule, acceptor atom, score
      L1  H    21    44       P1  7948  0.86
      P1  H  6896  6909       L1    14  0.01
      P1  H  7997  8010       L1     5  0.20
      P1  H 10752 10764       L1     7  0.76

> <Gold.Chemscore.Hbond.Weighted>
-8.3953

> <Gold.Chemscore.Metal.Weighted>
-0.0000

> <Gold.Chemscore.Lipo.Weighted>
-12.9478

> <Gold.Chemscore.Internal_Hbond.Weighted>
0.0000

> <Gold.Chemscore.DEClash.Weighted>
0.2715

> <Gold.Chemscore.DEInternal.Weighted>
0.3421

> <Gold.Chemscore.Rot.Weighted>
10.4879

> <Gold.Chemscore.Internal.Correction.Weighted>
   9.000000E+99

> <Gold.Protein.RotatedTorsions>
[ 6907 6896 6895 6894 ] final   -7.95 input  -60.11 | X-H torsion
[ 7974 7965 7964 7962 ] final  101.90 input  175.53 | X-H torsion
[ 8008 7997 7996 7995 ] final   78.48 input   59.86 | X-H torsion
[ 10167 10162 10161 10158 ] final  128.73 input  -65.29 | X-H torsion
[ 10718 10713 10712 10709 ] final    5.47 input   66.30 | X-H torsion
[ 10763 10752 10751 10750 ] final  -64.76 input  -60.55 | X-H torsion
[ 11005 11000 10999 10996 ] final  -82.24 input  -57.11 | X-H torsion

> <Gold.Protein.ActiveResidues>
 VAL166  LYS551  ARG553  GLY616  TRP617  ASP618  TYR619  PRO620  LYS621  CYS622 
 ASP623  PHE694  ASN695  SER759  ASP760  ASP761  ALA762  ILE779  LEU786  VAL792 
 PHE793  MET794  SER795  GLU796  ALA797  LYS798  CYS799  TRP800  GLU811  SER814 

> <Gold.Protein.RotatedAtoms>
  151.4413  135.1020  159.9670 H   0  0  0  0  0  0  0  0  0  0  0  0  # atno 6907 bound_to 6896
  152.4921  133.8525  159.7219 H   0  0  0  0  0  0  0  0  0  0  0  0  # atno 6908 bound_to 6896
  150.9086  133.6968  159.2888 H   0  0  0  0  0  0  0  0  0  0  0  0  # atno 6909 bound_to 6896
  145.3662  139.2407  143.3480 H   0  0  0  0  0  0  0  0  0  0  0  0  # atno 7974 bound_to 7965
  155.8563  140.3456  155.5726 H   0  0  0  0  0  0  0  0  0  0  0  0  # atno 8008 bound_to 7997
  155.7983  140.0881  157.1991 H   0  0  0  0  0  0  0  0  0  0  0  0  # atno 8009 bound_to 7997
  154.4009  140.1470  156.3231 H   0  0  0  0  0  0  0  0  0  0  0  0  # atno 8010 bound_to 7997
  139.5512  144.6814  151.4318 H   0  0  0  0  0  0  0  0  0  0  0  0  # atno 10167 bound_to 10162
  156.9079  130.5745  149.5647 H   0  0  0  0  0  0  0  0  0  0  0  0  # atno 10718 bound_to 10713
  154.3349  135.6169  153.5569 H   0  0  0  0  0  0  0  0  0  0  0  0  # atno 10763 bound_to 10752
  152.9808  135.5756  154.4919 H   0  0  0  0  0  0  0  0  0  0  0  0  # atno 10764 bound_to 10752
  154.4612  135.2856  155.1688 H   0  0  0  0  0  0  0  0  0  0  0  0  # atno 10765 bound_to 10752
  141.1664  133.7235  156.8542 H   0  0  0  0  0  0  0  0  0  0  0  0  # atno 11005 bound_to 11000
  146.2905  140.4305  142.8741 LP  0  0  0  0  0  0  0  0  0  0  0  0  # atno 17320 bound_to 7965
  144.8610  140.7139  143.6107 LP  0  0  0  0  0  0  0  0  0  0  0  0  # atno 17321 bound_to 7965
  140.6775  143.8157  150.7077 LP  0  0  0  0  0  0  0  0  0  0  0  0  # atno 17342 bound_to 10162
  140.1600  143.4284  152.2073 LP  0  0  0  0  0  0  0  0  0  0  0  0  # atno 17343 bound_to 10162
  156.0550  130.5613  150.9072 LP  0  0  0  0  0  0  0  0  0  0  0  0  # atno 17370 bound_to 10713
  157.5986  131.0942  150.8999 LP  0  0  0  0  0  0  0  0  0  0  0  0  # atno 17371 bound_to 10713
  140.1894  134.8976  157.3042 LP  0  0  0  0  0  0  0  0  0  0  0  0  # atno 17394 bound_to 11000
  140.2307  134.3912  155.7523 LP  0  0  0  0  0  0  0  0  0  0  0  0  # atno 17395 bound_to 11000

$$$$
