#       Name:                AV-unprocessed.smi:3112
#       Creating user name   scv26
#       Creation time:       Fri Mar 27 17:22:14 2020


#       File generated by GOLD software.
#

@<TRIPOS>MOLECULE
AV-unprocessed.smi:3112
    40    40     1
SMALL
NO_CHARGES


@<TRIPOS>ATOM
      1 ****        -3.6128   3.9811  -0.5872 C.3            1 S1                 0.0000
      2 ****        -3.1793   2.5148  -0.4532 C.3            1 S1                 0.0000
      3 ****        -1.6516   2.3250  -0.4467 C.3            1 S1                 0.0000
      4 ****        -1.1234   2.9081   0.7288 O.3            1 S1                 0.0000
      5 ****        -1.2571   0.8391  -0.4668 C.3            1 S1                 0.0000
      6 ****         0.2024   0.6758  -0.6335 N.4            1 S1                 1.0000
      7 ****         0.6900  -0.7201  -0.5668 C.3            1 S1                 0.0000
      8 ****         1.5367  -1.0054  -1.8207 C.3            1 S1                 0.0000
      9 ****         1.4617  -0.9627   0.7583 C.3            1 S1                 0.0000
     10 ****         0.5777  -0.8138   2.0101 C.3            1 S1                 0.0000
     11 ****         2.1190  -2.2637   0.7730 N.pl3          1 S1                 0.0000
     12 ****         1.5480  -3.5211   0.7902 C.2            1 S1                 0.0000
     13 ****         2.5649  -4.4320   0.7913 C.2            1 S1                 0.0000
     14 ****         3.7383  -3.6279   0.7716 C.2            1 S1                 0.0000
     15 ****         3.4683  -2.3326   0.7584 N.2            1 S1                 0.0000
     16 ****        -4.6997   4.0611  -0.6149 H              1 S1                 0.0000
     17 ****        -3.2240   4.4254  -1.5040 H              1 S1                 0.0000
     18 ****        -3.2607   4.5805   0.2526 H              1 S1                 0.0000
     19 ****        -3.6130   2.0862   0.4513 H              1 S1                 0.0000
     20 ****        -3.6062   1.9560  -1.2869 H              1 S1                 0.0000
     21 ****        -1.2221   2.8287  -1.3138 H              1 S1                 0.0000
     22 ****        -1.3685   3.8213   0.7486 H              1 S1                 0.0000
     23 ****        -1.5913   0.3461   0.4472 H              1 S1                 0.0000
     24 ****        -1.7524   0.3353  -1.2980 H              1 S1                 0.0000
     25 ****         0.4563   1.0579  -1.5331 H              1 S1                 0.0000
     26 ****        -0.1641  -1.3990  -0.6007 H              1 S1                 0.0000
     27 ****         1.8408  -2.0508  -1.8780 H              1 S1                 0.0000
     28 ****         2.4402  -0.3950  -1.8358 H              1 S1                 0.0000
     29 ****         0.9741  -0.7877  -2.7293 H              1 S1                 0.0000
     30 ****         2.2459  -0.2059   0.8276 H              1 S1                 0.0000
     31 ****         0.1902   0.2002   2.1083 H              1 S1                 0.0000
     32 ****         1.1455  -1.0276   2.9163 H              1 S1                 0.0000
     33 ****        -0.2732  -1.4951   1.9830 H              1 S1                 0.0000
     34 ****         0.4772  -3.6618   0.8007 H              1 S1                 0.0000
     35 ****         2.4837  -5.5089   0.8044 H              1 S1                 0.0000
     36 ****         4.7708  -3.9444   0.7656 H              1 S1                 0.0000
     37 ****         0.6695   1.2125   0.0839 H              1 S1                 0.0000
     38 ****        -0.1268   2.8267   0.7268 LP             1 S1                 0.0000
     39 ****        -1.4944   2.4422   1.5321 LP             1 S1                 0.0000
     40 ****         4.1186  -1.5731   0.7413 LP             1 S1                 0.0000
@<TRIPOS>BOND
    1    1    2 1     
    2    1   16 1     
    3    1   17 1     
    4    1   18 1     
    5    2    3 1     
    6    2   19 1     
    7    2   20 1     
    8    3    4 1     
    9    3    5 1     
   10    3   21 1     
   11    4   22 1     
   12    5    6 1     
   13    5   23 1     
   14    5   24 1     
   15    6    7 1     
   16    6   25 1     
   17    6   37 1     
   18    7    8 1     
   19    7    9 1     
   20    7   26 1     
   21    8   27 1     
   22    8   28 1     
   23    8   29 1     
   24    9   10 1     
   25    9   11 1     
   26    9   30 1     
   27   10   31 1     
   28   10   32 1     
   29   10   33 1     
   30   11   15 1     
   31   11   12 1     
   32   12   13 2     
   33   12   34 1     
   34   13   14 1     
   35   13   35 1     
   36   14   15 2     
   37   14   36 1     
   38    4   38 1     
   39    4   39 1     
   40   15   40 1     
@<TRIPOS>SUBSTRUCTURE
      1 S1             1
@<TRIPOS>SET
LONE_PAIRS      STATIC     ATOMS    <user>   **** ""
3 38 39 40
DONOR_HYDROGENS      STATIC     ATOMS    <user>   **** ""
3 22 25 37
ATOM$BLUE        STATIC     ATOMS    COLORGROUP SYSTEM
3 38 39 40
ATOM$RED        STATIC     ATOMS    COLORGROUP SYSTEM
3 22 25 37
