AV-unprocessed.smi:34|AV-procd|sdf|243|dock8
  -GOLD-   2262015593D 1   1.00000     0.00000
 Structure written by MMmdl.
 54 58  0  0  0  0  0  0  0  0  2 V2000
  154.8746  141.3296  161.9235 O   0  0  0  0  0  0  0  0  0  0  0  0
  154.4156  141.6065  160.8133 C   0  0  0  0  0  0  0  0  0  0  0  0
  154.6238  140.9579  159.6394 N   0  5  0  0  0  0  0  0  0  0  0  0
  154.1936  139.6963  159.4862 C   0  0  0  0  0  0  0  0  0  0  0  0
  154.4950  138.7505  160.4120 N   0  0  0  0  0  0  0  0  0  0  0  0
  154.0579  137.4949  160.2617 C   0  0  0  0  0  0  0  0  0  0  0  0
  153.3117  136.9768  159.2818 N   0  0  0  0  0  0  0  0  0  0  0  0
  152.9959  137.9187  158.3462 C   0  0  0  0  0  0  0  0  0  0  0  0
  153.3941  139.2874  158.3840 C   0  0  0  0  0  0  0  0  0  0  0  0
  152.8988  139.9759  157.2866 N   0  0  0  0  0  0  0  0  0  0  0  0
  152.2389  139.0161  156.6437 C   0  0  0  0  0  0  0  0  0  0  0  0
  152.2460  137.7829  157.1879 N   0  0  0  0  0  0  0  0  0  0  0  0
  151.5829  136.5554  156.6454 C   0  0  2  0  0  0  0  0  0  0  0  0
  151.6647  136.5823  155.2521 O   0  0  0  0  0  0  0  0  0  0  0  0
  150.4485  136.0988  154.6875 C   0  0  1  0  0  0  0  0  0  0  0  0
  150.5108  134.5666  154.5724 C   0  0  0  0  0  0  0  0  0  0  0  0
  149.4049  134.1141  153.8086 O   0  0  0  0  0  0  0  0  0  0  0  0
  149.1546  132.7950  153.6956 C   0  0  0  0  0  0  0  0  0  0  0  0
  149.8282  131.9224  154.2477 O   0  0  0  0  0  0  0  0  0  0  0  0
  147.9777  132.5006  152.8281 C   0  0  0  0  0  0  0  0  0  0  0  0
  147.3685  133.5531  152.1055 C   0  0  0  0  0  0  0  0  0  0  0  0
  146.2558  133.3053  151.2782 C   0  0  0  0  0  0  0  0  0  0  0  0
  145.7400  132.0014  151.1621 C   0  0  0  0  0  0  0  0  0  0  0  0
  146.3372  130.9457  151.8753 C   0  0  0  0  0  0  0  0  0  0  0  0
  147.4491  131.1920  152.7042 C   0  0  0  0  0  0  0  0  0  0  0  0
  149.3888  136.5834  155.6783 C   0  0  2  0  0  0  0  0  0  0  0  0
  149.1122  137.8579  155.3960 F   0  0  0  0  0  0  0  0  0  0  0  0
  150.0911  136.4507  157.0234 C   0  0  2  0  0  0  0  0  0  0  0  0
  149.6228  137.3882  157.9767 O   0  0  0  0  0  0  0  0  0  0  0  0
  153.4520  142.7565  160.6933 C   0  0  0  0  0  0  0  0  0  0  0  0
  152.9095  143.3409  161.8607 C   0  0  0  0  0  0  0  0  0  0  0  0
  152.0259  144.4342  161.7703 C   0  0  0  0  0  0  0  0  0  0  0  0
  151.6828  144.9613  160.5111 C   0  0  0  0  0  0  0  0  0  0  0  0
  152.2279  144.3972  159.3426 C   0  0  0  0  0  0  0  0  0  0  0  0
  153.1111  143.3035  159.4321 C   0  0  0  0  0  0  0  0  0  0  0  0
  154.3470  136.8055  161.0410 H   0  0  0  0  0  0  0  0  0  0  0  0
  151.7219  139.2214  155.7179 H   0  0  0  0  0  0  0  0  0  0  0  0
  152.1745  135.7285  157.0409 H   0  0  0  0  0  0  0  0  0  0  0  0
  150.2853  136.5339  153.7004 H   0  0  0  0  0  0  0  0  0  0  0  0
  151.4519  134.2506  154.1201 H   0  0  0  0  0  0  0  0  0  0  0  0
  150.4559  134.1141  155.5632 H   0  0  0  0  0  0  0  0  0  0  0  0
  147.7470  134.5625  152.1789 H   0  0  0  0  0  0  0  0  0  0  0  0
  145.7983  134.1170  150.7322 H   0  0  0  0  0  0  0  0  0  0  0  0
  144.8874  131.8112  150.5270 H   0  0  0  0  0  0  0  0  0  0  0  0
  145.9427  129.9442  151.7866 H   0  0  0  0  0  0  0  0  0  0  0  0
  147.8837  130.3589  153.2370 H   0  0  0  0  0  0  0  0  0  0  0  0
  148.4509  136.0301  155.6226 H   0  0  0  0  0  0  0  0  0  0  0  0
  149.9274  135.4470  157.4178 H   0  0  0  0  0  0  0  0  0  0  0  0
  149.0658  136.9395  158.5942 H   0  0  0  0  0  0  0  0  0  0  0  0
  153.1646  142.9493  162.8349 H   0  0  0  0  0  0  0  0  0  0  0  0
  151.6129  144.8689  162.6683 H   0  0  0  0  0  0  0  0  0  0  0  0
  151.0059  145.7997  160.4421 H   0  0  0  0  0  0  0  0  0  0  0  0
  151.9716  144.8049  158.3758 H   0  0  0  0  0  0  0  0  0  0  0  0
  153.5266  142.8921  158.5235 H   0  0  0  0  0  0  0  0  0  0  0  0
  1  2  2  0  0  0  0
  2  3  1  0  0  0  0
  2 30  1  0  0  0  0
  3  4  1  0  0  0  0
  4  9  1  0  0  0  0
  4  5  2  0  0  0  0
  5  6  1  0  0  0  0
  6  7  2  0  0  0  0
  6 36  1  0  0  0  0
  7  8  1  0  0  0  0
  8 12  1  0  0  0  0
  8  9  2  0  0  0  0
  9 10  1  0  0  0  0
 10 11  2  0  0  0  0
 11 12  1  0  0  0  0
 11 37  1  0  0  0  0
 12 13  1  0  0  0  0
 13 28  1  0  0  0  0
 13 14  1  0  0  0  0
 13 38  1  0  0  0  0
 14 15  1  0  0  0  0
 15 16  1  0  0  0  0
 15 26  1  0  0  0  0
 15 39  1  0  0  0  0
 16 17  1  0  0  0  0
 16 40  1  0  0  0  0
 16 41  1  0  0  0  0
 17 18  1  0  0  0  0
 18 19  2  0  0  0  0
 18 20  1  0  0  0  0
 20 25  1  0  0  0  0
 20 21  2  0  0  0  0
 21 22  1  0  0  0  0
 21 42  1  0  0  0  0
 22 23  2  0  0  0  0
 22 43  1  0  0  0  0
 23 24  1  0  0  0  0
 23 44  1  0  0  0  0
 24 25  2  0  0  0  0
 24 45  1  0  0  0  0
 25 46  1  0  0  0  0
 26 27  1  0  0  0  0
 26 28  1  0  0  0  0
 26 47  1  0  0  0  0
 28 29  1  0  0  0  0
 28 48  1  0  0  0  0
 29 49  1  0  0  0  0
 30 35  1  0  0  0  0
 30 31  2  0  0  0  0
 31 32  1  0  0  0  0
 31 50  1  0  0  0  0
 32 33  2  0  0  0  0
 32 51  1  0  0  0  0
 33 34  1  0  0  0  0
 33 52  1  0  0  0  0
 34 35  2  0  0  0  0
 34 53  1  0  0  0  0
 35 54  1  0  0  0  0
M  CHG  1   3  -1
M  END
> <s_m_source_file>
AV-unprocessed.smi

> <i_m_source_file_index>
34

> <i_lp_mmshare_version>
43012

> <i_f3d_flags>
0

> <s_epik_input>
W2NIXTFbY0hdW2NIXVtjSF1bY0hdYzFDKD1PKVtOSF1jKG5bY0hdbjIpYyhjMjMpbltjSF1uM1tDQEBIXTRPW0NASF0oW0NAQEhdKEYpW0NASF00W09IXSlbQ0gyXU9DKD1PKWM1W2NIXVtjSF1bY0hdW2NIXVtjSF01

> <s_epik_cmdline>
J2VwaWtfcHl0aG9uJywgJy1waCcsICc3LjAnLCAnLXRuJywgJzgnLCAnLW1hJywgJzIwMCcsICctbWV0YWxfYmluZGluZycsICctaW1hZScsICc8aW5maWxlLm1hZT4nLCAnLW9tYWUnLCAnPG91dGZpbGUubWFlPic=

> <r_lp_tautomer_probability>
1

> <r_epik_Ionization_Penalty>
4.33227

> <r_epik_Ionization_Penalty_Charging>
3.41027

> <r_epik_Ionization_Penalty_Neutral>
0.922001

> <r_epik_State_Penalty>
3.41358

> <r_epik_Charging_Adjusted_Penalty>
6.82385

> <i_epik_Tot_Q>
-1

> <i_epik_Tot_abs_Q>
1

> <r_epik_Metal_State_Penalty>
0.496292

> <b_epik_Metal_Only>
1

> <s_epik_Chemistry_Notes>
This compound has an ester and may undergo hydrolysis at high or low pH. This compound contains an acetal/aminal-like group ( X-CH(R)-Y where X, Y are N, S, or O) that may be acid/base labile, releasing an aldehyde.

> <s_lp_Force_Field>
OPLS_2005

> <r_lp_Energy>
51.1701

> <b_lp_Chiralities_Consistent>
1

> <s_lp_Variant>
AV-unprocessed.smi:34-29

> <Gold.Version>
5.8.1

> <Gold.Id.Protein>
6NUR|6NUR_protein|mol2

> <Gold.PLP.Fitness>
68.9993

> <Gold.PLP.PLP>
-63.7361

> <Gold.PLP.part.hbond>
-3.8178

> <Gold.PLP.part.metal>
0.0000

> <Gold.PLP.part.buried>
-9.0976

> <Gold.PLP.part.nonpolar>
-51.4303

> <Gold.PLP.part.repulsive>
0.2895

> <Gold.PLP.ligand.clash>
0.0000

> <Gold.PLP.ligand.torsion>
1.9624

> <Gold.PLP.Chemscore.Hbond>
3.0000

> <Gold.PLP.Chemscore.CHOScore>
0.0000

> <Gold.PLP.Chemscore.Metal>
0.0000

> <Gold.Chemscore.Hbonds>
donor molecule, donor type, donor heavy atom, donor atom, acceptor molecule, acceptor atom, score
      P1  H  7997  8009       L1    10  0.84
      P1  H 10752 10763       L1    14  1.00

> <Gold.PLP.Chemscore.Internal.Correction>
0.1879

> <Gold.Rescore>
     Score         DG    S(hbond)    S(metal)    S(lipo)     H(rot)  DE(clash)    DE(int)     intcor
     21.11     -24.19       2.72        0.00     141.13       2.69       0.05       3.03       ----

> <Gold.Chemscore.Fitness>
21.1087

> <Gold.Chemscore.DG>
-24.1900

> <Gold.Chemscore.ZeroCoef>
-5.4800

> <Gold.Chemscore.Hbond>
2.7231

> <Gold.Chemscore.Metal>
0.0000

> <Gold.Chemscore.Lipo>
141.1327

> <Gold.Chemscore.Internal_Hbond>
0.0000

> <Gold.Chemscore.DEClash>
0.0536

> <Gold.Chemscore.DEInternal>
3.0278

> <Gold.Chemscore.Rot>
2.6944

> <Gold.Chemscore.Internal.Correction>
   9.000000E+99

> <Gold.Chemscore.Hbonds>
donor molecule, donor type, donor heavy atom, donor atom, acceptor molecule, acceptor atom, score
      P1  H  7997  8009       L1    10  0.08
      P1  H 10752 10763       L1    14  0.50

> <Gold.Chemscore.Hbond.Weighted>
-9.0950

> <Gold.Chemscore.Metal.Weighted>
-0.0000

> <Gold.Chemscore.Lipo.Weighted>
-16.5125

> <Gold.Chemscore.Internal_Hbond.Weighted>
0.0000

> <Gold.Chemscore.DEClash.Weighted>
0.0536

> <Gold.Chemscore.DEInternal.Weighted>
3.0278

> <Gold.Chemscore.Rot.Weighted>
6.8975

> <Gold.Chemscore.Internal.Correction.Weighted>
   9.000000E+99

> <Gold.Protein.RotatedTorsions>
[ 6907 6896 6895 6894 ] final -120.64 input  -60.11 | X-H torsion
[ 7974 7965 7964 7962 ] final  -99.82 input  175.53 | X-H torsion
[ 8008 7997 7996 7995 ] final -165.07 input   59.86 | X-H torsion
[ 10167 10162 10161 10158 ] final  -67.76 input  -65.29 | X-H torsion
[ 10718 10713 10712 10709 ] final   20.17 input   66.30 | X-H torsion
[ 10763 10752 10751 10750 ] final   57.81 input  -60.55 | X-H torsion
[ 11005 11000 10999 10996 ] final -133.25 input  -57.11 | X-H torsion

> <Gold.Protein.ActiveResidues>
 VAL166  LYS551  ARG553  GLY616  TRP617  ASP618  TYR619  PRO620  LYS621  CYS622 
 ASP623  PHE694  ASN695  SER759  ASP760  ASP761  ALA762  ILE779  LEU786  VAL792 
 PHE793  MET794  SER795  GLU796  ALA797  LYS798  CYS799  TRP800  GLU811  SER814 

> <Gold.Protein.RotatedAtoms>
  150.8412  133.7934  159.3060 H   0  0  0  0  0  0  0  0  0  0  0  0  # atno 6907 bound_to 6896
  151.5634  135.1063  159.9987 H   0  0  0  0  0  0  0  0  0  0  0  0  # atno 6908 bound_to 6896
  152.4475  133.7522  159.6756 H   0  0  0  0  0  0  0  0  0  0  0  0  # atno 6909 bound_to 6896
  145.3025  140.9381  143.2815 H   0  0  0  0  0  0  0  0  0  0  0  0  # atno 7974 bound_to 7965
  155.8445  140.0953  157.1713 H   0  0  0  0  0  0  0  0  0  0  0  0  # atno 8008 bound_to 7997
  154.3983  140.1395  156.3831 H   0  0  0  0  0  0  0  0  0  0  0  0  # atno 8009 bound_to 7997
  155.8028  140.3452  155.5415 H   0  0  0  0  0  0  0  0  0  0  0  0  # atno 8010 bound_to 7997
  140.5558  143.2312  151.6823 H   0  0  0  0  0  0  0  0  0  0  0  0  # atno 10167 bound_to 10162
  157.1208  130.6548  149.5923 H   0  0  0  0  0  0  0  0  0  0  0  0  # atno 10718 bound_to 10713
  152.9857  135.5628  154.5451 H   0  0  0  0  0  0  0  0  0  0  0  0  # atno 10763 bound_to 10752
  154.4899  135.2792  155.1507 H   0  0  0  0  0  0  0  0  0  0  0  0  # atno 10764 bound_to 10752
  154.2981  135.6313  153.5466 H   0  0  0  0  0  0  0  0  0  0  0  0  # atno 10765 bound_to 10752
  140.9097  134.1584  157.4398 H   0  0  0  0  0  0  0  0  0  0  0  0  # atno 11005 bound_to 11000
  144.9081  139.4563  143.6600 LP  0  0  0  0  0  0  0  0  0  0  0  0  # atno 17320 bound_to 7965
  146.3147  139.7874  142.8993 LP  0  0  0  0  0  0  0  0  0  0  0  0  # atno 17321 bound_to 7965
  139.5047  144.3743  152.0439 LP  0  0  0  0  0  0  0  0  0  0  0  0  # atno 17342 bound_to 10162
  140.2864  144.3802  150.6102 LP  0  0  0  0  0  0  0  0  0  0  0  0  # atno 17343 bound_to 10162
  155.9829  130.4845  150.6905 LP  0  0  0  0  0  0  0  0  0  0  0  0  # atno 17370 bound_to 10713
  157.4478  131.0869  151.0877 LP  0  0  0  0  0  0  0  0  0  0  0  0  # atno 17371 bound_to 10713
  139.8755  134.9931  156.5627 LP  0  0  0  0  0  0  0  0  0  0  0  0  # atno 17394 bound_to 11000
  140.8126  133.8417  155.8823 LP  0  0  0  0  0  0  0  0  0  0  0  0  # atno 17395 bound_to 11000

$$$$
