AV-unprocessed.smi:21|AV-procd|sdf|136|dock9
  -GOLD-   2262015333D 1   1.00000     0.00000
 Structure written by MMmdl.
 62 65  0  0  0  0  0  0  0  0  2 V2000
  150.9284  131.2673  155.1336 C   0  0  0  0  0  0  0  0  0  0  0  0
  149.8142  131.7543  154.4024 O   0  0  0  0  0  0  0  0  0  0  0  0
  149.7419  133.1711  154.3492 C   0  0  2  0  0  0  0  0  0  0  0  0
  149.6077  133.8198  155.7219 C   0  0  0  0  0  0  0  0  0  0  0  0
  148.9588  135.1830  155.4304 C   0  0  2  0  0  0  0  0  0  0  0  0
  148.1543  135.7668  156.6231 C   0  0  0  0  0  0  0  0  0  0  0  0
  148.9965  136.2667  157.7119 N   0  0  0  0  0  0  0  0  0  0  0  0
  148.5313  136.0527  159.0796 C   0  0  0  0  0  0  0  0  0  0  0  0
  149.7821  137.3505  157.4678 C   0  0  0  0  0  0  0  0  0  0  0  0
  149.5012  138.1405  156.3965 N   0  0  0  0  0  0  0  0  0  0  0  0
  150.2874  139.1754  156.0901 C   0  0  0  0  0  0  0  0  0  0  0  0
  151.3939  139.5905  156.7067 N   0  0  0  0  0  0  0  0  0  0  0  0
  151.6760  138.8167  157.7930 C   0  0  0  0  0  0  0  0  0  0  0  0
  150.9221  137.6981  158.2506 C   0  0  0  0  0  0  0  0  0  0  0  0
  151.5017  137.1864  159.4062 N   0  0  0  0  0  0  0  0  0  0  0  0
  152.5422  137.9459  159.6103 C   0  0  0  0  0  0  0  0  0  0  0  0
  152.7452  138.9258  158.6657 N   0  0  0  0  0  0  0  0  0  0  0  0
  153.8299  139.8924  158.6393 C   0  0  0  0  0  0  0  0  0  0  0  0
  153.9822  140.7356  159.9372 C   0  0  1  0  0  0  0  0  0  0  0  0
  155.3464  140.4167  160.5946 C   0  0  0  0  0  0  0  0  0  0  0  0
  156.4121  141.0113  159.8825 O   0  0  0  0  0  0  0  0  0  0  0  0
  153.8295  142.2695  159.7134 C   0  0  1  0  0  0  0  0  0  0  0  0
  152.5845  142.7364  158.9731 C   0  0  0  0  0  0  0  0  0  0  0  0
  152.5148  144.2065  159.3588 C   0  0  0  0  0  0  0  0  0  0  0  0
  152.9093  144.2348  160.7205 O   0  0  0  0  0  0  0  0  0  0  0  0
  153.6982  143.0848  161.0120 C   0  0  0  0  0  0  0  0  0  0  0  0
  148.1898  134.9911  154.1636 N   0  3  2  0  0  0  0  0  0  0  0  0
  146.7509  135.3455  154.1623 C   0  0  0  0  0  0  0  0  0  0  0  0
  148.4512  133.6196  153.6711 C   0  0  0  0  0  0  0  0  0  0  0  0
  150.5976  133.5867  153.8135 H   0  0  0  0  0  0  0  0  0  0  0  0
  149.7528  135.8854  155.1733 H   0  0  0  0  0  0  0  0  0  0  0  0
  150.9450  130.1784  155.0885 H   0  0  0  0  0  0  0  0  0  0  0  0
  150.8745  131.5535  156.1844 H   0  0  0  0  0  0  0  0  0  0  0  0
  151.8668  131.6352  154.7169 H   0  0  0  0  0  0  0  0  0  0  0  0
  148.9469  133.2137  156.3437 H   0  0  0  0  0  0  0  0  0  0  0  0
  150.5648  133.9101  156.2362 H   0  0  0  0  0  0  0  0  0  0  0  0
  147.5617  136.6161  156.2833 H   0  0  0  0  0  0  0  0  0  0  0  0
  147.4338  135.0369  156.9843 H   0  0  0  0  0  0  0  0  0  0  0  0
  149.3620  136.1089  159.7843 H   0  0  0  0  0  0  0  0  0  0  0  0
  148.0776  135.0666  159.1819 H   0  0  0  0  0  0  0  0  0  0  0  0
  147.7870  136.7987  159.3605 H   0  0  0  0  0  0  0  0  0  0  0  0
  149.9936  139.7460  155.2213 H   0  0  0  0  0  0  0  0  0  0  0  0
  153.2086  137.7946  160.4473 H   0  0  0  0  0  0  0  0  0  0  0  0
  154.7404  139.3268  158.4407 H   0  0  0  0  0  0  0  0  0  0  0  0
  153.6916  140.5524  157.7821 H   0  0  0  0  0  0  0  0  0  0  0  0
  153.2104  140.4311  160.6446 H   0  0  0  0  0  0  0  0  0  0  0  0
  155.3675  140.7597  161.6297 H   0  0  0  0  0  0  0  0  0  0  0  0
  155.5427  139.3455  160.6118 H   0  0  0  0  0  0  0  0  0  0  0  0
  156.0513  141.5867  159.2249 H   0  0  0  0  0  0  0  0  0  0  0  0
  154.7007  142.6356  159.1676 H   0  0  0  0  0  0  0  0  0  0  0  0
  152.6502  142.6198  157.8931 H   0  0  0  0  0  0  0  0  0  0  0  0
  151.6988  142.2083  159.3295 H   0  0  0  0  0  0  0  0  0  0  0  0
  153.2275  144.7887  158.7729 H   0  0  0  0  0  0  0  0  0  0  0  0
  151.5250  144.6378  159.2151 H   0  0  0  0  0  0  0  0  0  0  0  0
  153.1803  142.5139  161.7842 H   0  0  0  0  0  0  0  0  0  0  0  0
  154.6704  143.3792  161.4084 H   0  0  0  0  0  0  0  0  0  0  0  0
  146.1907  134.7494  154.8836 H   0  0  0  0  0  0  0  0  0  0  0  0
  146.3237  135.1641  153.1755 H   0  0  0  0  0  0  0  0  0  0  0  0
  146.6050  136.4022  154.3861 H   0  0  0  0  0  0  0  0  0  0  0  0
  148.5150  133.5864  152.5831 H   0  0  0  0  0  0  0  0  0  0  0  0
  147.6352  132.9621  153.9776 H   0  0  0  0  0  0  0  0  0  0  0  0
  148.6273  135.6107  153.4962 H   0  0  0  0  0  0  0  0  0  0  0  0
  1  2  1  0  0  0  0
  1 32  1  0  0  0  0
  1 33  1  0  0  0  0
  1 34  1  0  0  0  0
  2  3  1  0  0  0  0
  3 30  1  0  0  0  0
  3 29  1  0  0  0  0
  3  4  1  0  0  0  0
  4  5  1  0  0  0  0
  4 35  1  0  0  0  0
  4 36  1  0  0  0  0
  5 31  1  0  0  0  0
  5  6  1  0  0  0  0
  5 27  1  0  0  0  0
  6  7  1  0  0  0  0
  6 37  1  0  0  0  0
  6 38  1  0  0  0  0
  7  8  1  0  0  0  0
  7  9  1  0  0  0  0
  8 39  1  0  0  0  0
  8 40  1  0  0  0  0
  8 41  1  0  0  0  0
  9 14  1  0  0  0  0
  9 10  2  0  0  0  0
 10 11  1  0  0  0  0
 11 12  2  0  0  0  0
 11 42  1  0  0  0  0
 12 13  1  0  0  0  0
 13 17  1  0  0  0  0
 13 14  2  0  0  0  0
 14 15  1  0  0  0  0
 15 16  2  0  0  0  0
 16 17  1  0  0  0  0
 16 43  1  0  0  0  0
 17 18  1  0  0  0  0
 18 19  1  0  0  0  0
 18 44  1  0  0  0  0
 18 45  1  0  0  0  0
 19 20  1  0  0  0  0
 19 22  1  0  0  0  0
 19 46  1  0  0  0  0
 20 21  1  0  0  0  0
 20 47  1  0  0  0  0
 20 48  1  0  0  0  0
 21 49  1  0  0  0  0
 22 26  1  0  0  0  0
 22 23  1  0  0  0  0
 22 50  1  0  0  0  0
 23 24  1  0  0  0  0
 23 51  1  0  0  0  0
 23 52  1  0  0  0  0
 24 25  1  0  0  0  0
 24 53  1  0  0  0  0
 24 54  1  0  0  0  0
 25 26  1  0  0  0  0
 26 55  1  0  0  0  0
 26 56  1  0  0  0  0
 27 28  1  0  0  0  0
 27 29  1  0  0  0  0
 27 62  1  0  0  0  0
 28 57  1  0  0  0  0
 28 58  1  0  0  0  0
 28 59  1  0  0  0  0
 29 60  1  0  0  0  0
 29 61  1  0  0  0  0
M  CHG  1  27   1
M  END
> <s_m_source_file>
AV-unprocessed.smi

> <i_m_source_file_index>
21

> <i_lp_mmshare_version>
43012

> <i_f3d_flags>
0

> <s_epik_input>
W0NIM11PW0NASF0xW0NIMl1bQ0BIXShOKFtDSDNdKVtDSDJdMSlbQ0gyXU4oW0NIM10pYyhuW2NIXW4yKWMoYzIzKW5bY0hdbjNbQ0gyXVtDQEhdKFtDSDJdW09IXSlbQ0BASF00W0NIMl1bQ0gyXU9bQ0gyXTQ=

> <s_epik_cmdline>
J2VwaWtfcHl0aG9uJywgJy1waCcsICc3LjAnLCAnLXRuJywgJzgnLCAnLW1hJywgJzIwMCcsICctbWV0YWxfYmluZGluZycsICctaW1hZScsICc8aW5maWxlLm1hZT4nLCAnLW9tYWUnLCAnPG91dGZpbGUubWFlPic=

> <r_lp_tautomer_probability>
1

> <r_epik_Ionization_Penalty>
0.0157465

> <r_epik_Ionization_Penalty_Charging>
0.015354

> <r_epik_Ionization_Penalty_Neutral>
0.000392529

> <r_epik_State_Penalty>
0.0120612

> <r_epik_Charging_Adjusted_Penalty>
0.0274152

> <i_epik_Tot_Q>
1

> <i_epik_Tot_abs_Q>
1

> <r_epik_Metal_State_Penalty>
0.0121253

> <b_epik_Metal_Only>
0

> <s_lp_Force_Field>
OPLS_2005

> <r_lp_Energy>
61.1925

> <b_lp_Chiralities_Consistent>
1

> <s_lp_Variant>
AV-unprocessed.smi:21-16

> <Gold.Version>
5.8.1

> <Gold.Id.Protein>
6NUR|6NUR_protein|mol2

> <Gold.PLP.Fitness>
50.2341

> <Gold.PLP.PLP>
-43.6858

> <Gold.PLP.part.hbond>
-3.0000

> <Gold.PLP.part.metal>
0.0000

> <Gold.PLP.part.buried>
-5.9538

> <Gold.PLP.part.nonpolar>
-33.9945

> <Gold.PLP.part.repulsive>
0.1470

> <Gold.PLP.ligand.clash>
0.0000

> <Gold.PLP.ligand.torsion>
1.6808

> <Gold.PLP.Chemscore.Hbond>
3.0000

> <Gold.PLP.Chemscore.CHOScore>
0.0000

> <Gold.PLP.Chemscore.Metal>
0.0000

> <Gold.Chemscore.Hbonds>
donor molecule, donor type, donor heavy atom, donor atom, acceptor molecule, acceptor atom, score
      L1  H    27    62       P1  7948  2.00
      P1  H  6896  6907       L1    15  0.84

> <Gold.PLP.Chemscore.Internal.Correction>
0.9099

> <Gold.Rescore>
     Score         DG    S(hbond)    S(metal)    S(lipo)     H(rot)  DE(clash)    DE(int)     intcor
     13.03     -15.93       1.83        0.00     104.42       3.08       0.09       2.81       ----

> <Gold.Chemscore.Fitness>
13.0320

> <Gold.Chemscore.DG>
-15.9279

> <Gold.Chemscore.ZeroCoef>
-5.4800

> <Gold.Chemscore.Hbond>
1.8277

> <Gold.Chemscore.Metal>
0.0000

> <Gold.Chemscore.Lipo>
104.4222

> <Gold.Chemscore.Internal_Hbond>
0.0000

> <Gold.Chemscore.DEClash>
0.0897

> <Gold.Chemscore.DEInternal>
2.8062

> <Gold.Chemscore.Rot>
3.0758

> <Gold.Chemscore.Internal.Correction>
   9.000000E+99

> <Gold.Chemscore.Hbonds>
donor molecule, donor type, donor heavy atom, donor atom, acceptor molecule, acceptor atom, score
      L1  H    27    62       P1  7948  0.96
      P1  H  6896  6907       L1    15  0.82

> <Gold.Chemscore.Hbond.Weighted>
-6.1047

> <Gold.Chemscore.Metal.Weighted>
-0.0000

> <Gold.Chemscore.Lipo.Weighted>
-12.2174

> <Gold.Chemscore.Internal_Hbond.Weighted>
0.0000

> <Gold.Chemscore.DEClash.Weighted>
0.0897

> <Gold.Chemscore.DEInternal.Weighted>
2.8062

> <Gold.Chemscore.Rot.Weighted>
7.8741

> <Gold.Chemscore.Internal.Correction.Weighted>
   9.000000E+99

> <Gold.Protein.RotatedTorsions>
[ 6907 6896 6895 6894 ] final   -3.38 input  -60.11 | X-H torsion
[ 7974 7965 7964 7962 ] final  -29.02 input  175.53 | X-H torsion
[ 8008 7997 7996 7995 ] final -136.15 input   59.86 | X-H torsion
[ 10167 10162 10161 10158 ] final  -47.52 input  -65.29 | X-H torsion
[ 10718 10713 10712 10709 ] final   61.61 input   66.30 | X-H torsion
[ 10763 10752 10751 10750 ] final   40.47 input  -60.55 | X-H torsion
[ 11005 11000 10999 10996 ] final  146.10 input  -57.11 | X-H torsion

> <Gold.Protein.ActiveResidues>
 VAL166  LYS551  ARG553  GLY616  TRP617  ASP618  TYR619  PRO620  LYS621  CYS622 
 ASP623  PHE694  ASN695  SER759  ASP760  ASP761  ALA762  ILE779  LEU786  VAL792 
 PHE793  MET794  SER795  GLU796  ALA797  LYS798  CYS799  TRP800  GLU811  SER814 

> <Gold.Protein.RotatedAtoms>
  151.5147  135.1066  159.9862 H   0  0  0  0  0  0  0  0  0  0  0  0  # atno 6907 bound_to 6896
  152.4646  133.7892  159.6903 H   0  0  0  0  0  0  0  0  0  0  0  0  # atno 6908 bound_to 6896
  150.8624  133.7560  159.3013 H   0  0  0  0  0  0  0  0  0  0  0  0  # atno 6909 bound_to 6896
  146.1247  140.5358  142.8720 H   0  0  0  0  0  0  0  0  0  0  0  0  # atno 7974 bound_to 7965
  155.3905  140.0499  157.3041 H   0  0  0  0  0  0  0  0  0  0  0  0  # atno 8008 bound_to 7997
  154.5038  140.2167  155.9253 H   0  0  0  0  0  0  0  0  0  0  0  0  # atno 8009 bound_to 7997
  156.1501  140.3137  155.8639 H   0  0  0  0  0  0  0  0  0  0  0  0  # atno 8010 bound_to 7997
  140.6771  143.2780  151.3939 H   0  0  0  0  0  0  0  0  0  0  0  0  # atno 10167 bound_to 10162
  157.5840  130.9004  149.9483 H   0  0  0  0  0  0  0  0  0  0  0  0  # atno 10718 bound_to 10713
  152.9935  135.6190  154.2631 H   0  0  0  0  0  0  0  0  0  0  0  0  # atno 10763 bound_to 10752
  154.2366  135.2790  155.2871 H   0  0  0  0  0  0  0  0  0  0  0  0  # atno 10764 bound_to 10752
  154.5404  135.5762  153.6892 H   0  0  0  0  0  0  0  0  0  0  0  0  # atno 10765 bound_to 10752
  140.0766  134.9121  157.1432 H   0  0  0  0  0  0  0  0  0  0  0  0  # atno 11005 bound_to 11000
  144.7630  140.5467  143.6722 LP  0  0  0  0  0  0  0  0  0  0  0  0  # atno 17320 bound_to 7965
  145.5391  139.1475  143.3457 LP  0  0  0  0  0  0  0  0  0  0  0  0  # atno 17321 bound_to 7965
  139.6070  144.1176  152.2259 LP  0  0  0  0  0  0  0  0  0  0  0  0  # atno 17342 bound_to 10162
  140.0579  144.5880  150.7286 LP  0  0  0  0  0  0  0  0  0  0  0  0  # atno 17343 bound_to 10162
  156.0888  130.3665  150.0435 LP  0  0  0  0  0  0  0  0  0  0  0  0  # atno 17370 bound_to 10713
  156.8569  130.9478  151.3621 LP  0  0  0  0  0  0  0  0  0  0  0  0  # atno 17371 bound_to 10713
  140.3549  134.2558  155.7194 LP  0  0  0  0  0  0  0  0  0  0  0  0  # atno 17394 bound_to 11000
  141.2031  133.7919  157.0354 LP  0  0  0  0  0  0  0  0  0  0  0  0  # atno 17395 bound_to 11000

$$$$
