AV-unprocessed.smi:2612|AV-procd|sdf|10211|dock2
  -GOLD-   2272014213D 1   1.00000     0.00000
 Structure written by MMmdl.
 40 41  0  0  0  0  0  0  0  0  1 V2000
  144.9013  137.7995  160.3546 C   0  0  0  0  0  0  0  0  0  0  0  0
  146.2784  137.4491  160.2891 O   0  0  0  0  0  0  0  0  0  0  0  0
  146.7298  136.2736  160.9757 C   0  0  0  0  0  0  0  0  0  0  0  0
  147.9764  135.8449  160.1578 C   0  0  0  0  0  0  0  0  0  0  0  0
  147.8142  136.0451  158.7191 N   0  0  0  0  0  0  0  0  0  0  0  0
  148.5869  136.9723  158.0048 C   0  0  0  0  0  0  0  0  0  0  0  0
  148.6815  136.8262  156.6037 C   0  0  0  0  0  0  0  0  0  0  0  0
  149.4498  137.7528  155.8716 C   0  0  0  0  0  0  0  0  0  0  0  0
  150.0888  138.7926  156.5732 C   0  0  0  0  0  0  0  0  0  0  0  0
  151.1107  139.9755  155.7079 S   0  0  0  0  0  0  0  0  0  0  0  0
  150.7594  141.5641  156.5642 C   0  0  0  0  0  0  0  0  0  0  0  0
  152.5188  139.6269  155.9526 O   0  0  0  0  0  0  0  0  0  0  0  0
  150.6163  140.0822  154.3267 O   0  0  0  0  0  0  0  0  0  0  0  0
  149.9555  138.8522  157.9741 C   0  0  0  0  0  0  0  0  0  0  0  0
  149.2197  137.9641  158.6763 N   0  0  0  0  0  0  0  0  0  0  0  0
  147.0496  136.5058  162.4765 C   0  0  0  0  0  0  0  0  0  0  0  0
  147.3569  135.1836  163.2021 C   0  0  0  0  0  0  0  0  0  0  0  0
  146.2600  134.2886  163.0581 O   0  0  0  0  0  0  0  0  0  0  0  0
  146.0064  133.9304  161.7042 C   0  0  0  0  0  0  0  0  0  0  0  0
  145.6379  135.1820  160.8855 C   0  0  0  0  0  0  0  0  0  0  0  0
  144.7184  138.6341  159.6783 H   0  0  0  0  0  0  0  0  0  0  0  0
  144.6212  138.1318  161.3540 H   0  0  0  0  0  0  0  0  0  0  0  0
  144.2429  136.9862  160.0535 H   0  0  0  0  0  0  0  0  0  0  0  0
  148.8775  136.3321  160.5255 H   0  0  0  0  0  0  0  0  0  0  0  0
  148.1484  134.7786  160.3074 H   0  0  0  0  0  0  0  0  0  0  0  0
  146.9335  135.7573  158.3173 H   0  0  0  0  0  0  0  0  0  0  0  0
  148.1731  136.0203  156.0947 H   0  0  0  0  0  0  0  0  0  0  0  0
  149.5434  137.6628  154.7995 H   0  0  0  0  0  0  0  0  0  0  0  0
  151.3373  142.3619  156.0983 H   0  0  0  0  0  0  0  0  0  0  0  0
  151.0376  141.4818  157.6147 H   0  0  0  0  0  0  0  0  0  0  0  0
  149.6969  141.7935  156.4863 H   0  0  0  0  0  0  0  0  0  0  0  0
  150.4487  139.6222  158.5486 H   0  0  0  0  0  0  0  0  0  0  0  0
  147.8704  137.2110  162.6026 H   0  0  0  0  0  0  0  0  0  0  0  0
  146.1927  136.9466  162.9850 H   0  0  0  0  0  0  0  0  0  0  0  0
  148.2692  134.7190  162.8293 H   0  0  0  0  0  0  0  0  0  0  0  0
  147.5151  135.3725  164.2639 H   0  0  0  0  0  0  0  0  0  0  0  0
  146.8705  133.4157  161.2835 H   0  0  0  0  0  0  0  0  0  0  0  0
  145.1813  133.2186  161.6830 H   0  0  0  0  0  0  0  0  0  0  0  0
  144.6906  135.5573  161.2695 H   0  0  0  0  0  0  0  0  0  0  0  0
  145.4554  134.9097  159.8453 H   0  0  0  0  0  0  0  0  0  0  0  0
  1  2  1  0  0  0  0
  1 21  1  0  0  0  0
  1 22  1  0  0  0  0
  1 23  1  0  0  0  0
  2  3  1  0  0  0  0
  3 20  1  0  0  0  0
  3  4  1  0  0  0  0
  3 16  1  0  0  0  0
  4  5  1  0  0  0  0
  4 24  1  0  0  0  0
  4 25  1  0  0  0  0
  5  6  1  0  0  0  0
  5 26  1  0  0  0  0
  6 15  1  0  0  0  0
  6  7  2  0  0  0  0
  7  8  1  0  0  0  0
  7 27  1  0  0  0  0
  8  9  2  0  0  0  0
  8 28  1  0  0  0  0
  9 10  1  0  0  0  0
  9 14  1  0  0  0  0
 10 11  1  0  0  0  0
 10 12  2  0  0  0  0
 10 13  2  0  0  0  0
 11 29  1  0  0  0  0
 11 30  1  0  0  0  0
 11 31  1  0  0  0  0
 14 15  2  0  0  0  0
 14 32  1  0  0  0  0
 16 17  1  0  0  0  0
 16 33  1  0  0  0  0
 16 34  1  0  0  0  0
 17 18  1  0  0  0  0
 17 35  1  0  0  0  0
 17 36  1  0  0  0  0
 18 19  1  0  0  0  0
 19 20  1  0  0  0  0
 19 37  1  0  0  0  0
 19 38  1  0  0  0  0
 20 39  1  0  0  0  0
 20 40  1  0  0  0  0
M  END
> <s_m_source_file>
AV-unprocessed.smi

> <i_m_source_file_index>
2612

> <i_lp_mmshare_version>
43012

> <i_f3d_flags>
0

> <s_epik_input>
W0NIMl0xW0NIMl1PW0NIMl1bQ0gyXUMxKE9bQ0gzXSlbQ0gyXVtOSF1jMltjSF1bY0hdYyhbY0hdbjIpUyg9TykoPU8pW0NIM10=

> <s_epik_cmdline>
J2VwaWtfcHl0aG9uJywgJy1waCcsICc3LjAnLCAnLXRuJywgJzgnLCAnLW1hJywgJzIwMCcsICctbWV0YWxfYmluZGluZycsICctaW1hZScsICc8aW5maWxlLm1hZT4nLCAnLW9tYWUnLCAnPG91dGZpbGUubWFlPic=

> <r_lp_tautomer_probability>
1

> <r_epik_Ionization_Penalty>
1.02976e-06

> <r_epik_Ionization_Penalty_Charging>
0

> <r_epik_Ionization_Penalty_Neutral>
1.02976e-06

> <r_epik_State_Penalty>
-0

> <r_epik_Charging_Adjusted_Penalty>
0

> <i_epik_Tot_Q>
0

> <i_epik_Tot_abs_Q>
0

> <r_epik_Metal_State_Penalty>
-0

> <b_epik_Metal_Only>
0

> <s_lp_Force_Field>
OPLS_2005

> <r_lp_Energy>
16.1681

> <b_lp_Chiralities_Consistent>
1

> <s_lp_Variant>
AV-unprocessed.smi:2612-1

> <Gold.Version>
5.8.1

> <Gold.Id.Protein>
6NUR|6NUR_protein|mol2

> <Gold.PLP.Fitness>
34.7987

> <Gold.PLP.PLP>
-27.6069

> <Gold.PLP.part.hbond>
-3.8876

> <Gold.PLP.part.metal>
0.0000

> <Gold.PLP.part.buried>
-5.7533

> <Gold.PLP.part.nonpolar>
-18.8947

> <Gold.PLP.part.repulsive>
0.1786

> <Gold.PLP.ligand.clash>
0.0000

> <Gold.PLP.ligand.torsion>
1.9379

> <Gold.PLP.Chemscore.Hbond>
2.9913

> <Gold.PLP.Chemscore.CHOScore>
0.0000

> <Gold.PLP.Chemscore.Metal>
0.0000

> <Gold.Chemscore.Hbonds>
donor molecule, donor type, donor heavy atom, donor atom, acceptor molecule, acceptor atom, score
      P1  H  6934  6947       L1     2  1.00
      P1  H  7989  7998       L1    13  0.99
      P1  H  7997  8010       L1    12  1.00

> <Gold.PLP.Chemscore.Internal.Correction>
2.0939

> <Gold.Rescore>
     Score         DG    S(hbond)    S(metal)    S(lipo)     H(rot)  DE(clash)    DE(int)     intcor
     14.76     -17.06       2.61        0.00      56.11       1.45       0.01       2.30       ----

> <Gold.Chemscore.Fitness>
14.7593

> <Gold.Chemscore.DG>
-17.0646

> <Gold.Chemscore.ZeroCoef>
-5.4800

> <Gold.Chemscore.Hbond>
2.6134

> <Gold.Chemscore.Metal>
0.0000

> <Gold.Chemscore.Lipo>
56.1134

> <Gold.Chemscore.Internal_Hbond>
0.0000

> <Gold.Chemscore.DEClash>
0.0067

> <Gold.Chemscore.DEInternal>
2.2986

> <Gold.Chemscore.Rot>
1.4490

> <Gold.Chemscore.Internal.Correction>
   9.000000E+99

> <Gold.Chemscore.Hbonds>
donor molecule, donor type, donor heavy atom, donor atom, acceptor molecule, acceptor atom, score
      P1  H  6934  6947       L1     2  0.32
      P1  H  7989  7998       L1    13  0.69
      P1  H  7997  8010       L1    12  0.94

> <Gold.Chemscore.Hbond.Weighted>
-8.7287

> <Gold.Chemscore.Metal.Weighted>
-0.0000

> <Gold.Chemscore.Lipo.Weighted>
-6.5653

> <Gold.Chemscore.Internal_Hbond.Weighted>
0.0000

> <Gold.Chemscore.DEClash.Weighted>
0.0067

> <Gold.Chemscore.DEInternal.Weighted>
2.2986

> <Gold.Chemscore.Rot.Weighted>
3.7094

> <Gold.Chemscore.Internal.Correction.Weighted>
   9.000000E+99

> <Gold.Protein.RotatedTorsions>
[ 6907 6896 6895 6894 ] final  -32.39 input  -60.11 | X-H torsion
[ 7974 7965 7964 7962 ] final   -3.02 input  175.53 | X-H torsion
[ 8008 7997 7996 7995 ] final  101.93 input   59.86 | X-H torsion
[ 10167 10162 10161 10158 ] final   -9.75 input  -65.29 | X-H torsion
[ 10718 10713 10712 10709 ] final -131.43 input   66.30 | X-H torsion
[ 10763 10752 10751 10750 ] final   33.88 input  -60.55 | X-H torsion
[ 11005 11000 10999 10996 ] final  -94.99 input  -57.11 | X-H torsion

> <Gold.Protein.ActiveResidues>
 VAL166  LYS551  ARG553  GLY616  TRP617  ASP618  TYR619  PRO620  LYS621  CYS622 
 ASP623  PHE694  ASN695  SER759  ASP760  ASP761  ALA762  ILE779  LEU786  VAL792 
 PHE793  MET794  SER795  GLU796  ALA797  LYS798  CYS799  TRP800  GLU811  SER814 

> <Gold.Protein.RotatedAtoms>
  151.0794  134.9849  159.8348 H   0  0  0  0  0  0  0  0  0  0  0  0  # atno 6907 bound_to 6896
  152.5418  134.2200  159.8794 H   0  0  0  0  0  0  0  0  0  0  0  0  # atno 6908 bound_to 6896
  151.2229  133.4449  159.2635 H   0  0  0  0  0  0  0  0  0  0  0  0  # atno 6909 bound_to 6896
  146.2396  140.1658  142.8332 H   0  0  0  0  0  0  0  0  0  0  0  0  # atno 7974 bound_to 7965
  156.1345  140.3189  155.8400 H   0  0  0  0  0  0  0  0  0  0  0  0  # atno 8008 bound_to 7997
  155.4269  140.0516  157.3038 H   0  0  0  0  0  0  0  0  0  0  0  0  # atno 8009 bound_to 7997
  154.4926  140.2098  155.9528 H   0  0  0  0  0  0  0  0  0  0  0  0  # atno 8010 bound_to 7997
  140.7096  143.5823  150.8979 H   0  0  0  0  0  0  0  0  0  0  0  0  # atno 10167 bound_to 10162
  156.2244  130.6998  151.0791 H   0  0  0  0  0  0  0  0  0  0  0  0  # atno 10718 bound_to 10713
  153.0190  135.6375  154.1581 H   0  0  0  0  0  0  0  0  0  0  0  0  # atno 10763 bound_to 10752
  154.1317  135.2840  155.3185 H   0  0  0  0  0  0  0  0  0  0  0  0  # atno 10764 bound_to 10752
  154.6189  135.5531  153.7615 H   0  0  0  0  0  0  0  0  0  0  0  0  # atno 10765 bound_to 10752
  141.1455  133.7995  157.0374 H   0  0  0  0  0  0  0  0  0  0  0  0  # atno 11005 bound_to 11000
  145.0052  140.8666  143.5258 LP  0  0  0  0  0  0  0  0  0  0  0  0  # atno 17320 bound_to 7965
  145.1684  139.2418  143.5355 LP  0  0  0  0  0  0  0  0  0  0  0  0  # atno 17321 bound_to 7965
  139.9549  143.6230  152.3019 LP  0  0  0  0  0  0  0  0  0  0  0  0  # atno 17342 bound_to 10162
  139.6762  144.7658  151.1692 LP  0  0  0  0  0  0  0  0  0  0  0  0  # atno 17343 bound_to 10162
  157.7103  131.0737  150.6524 LP  0  0  0  0  0  0  0  0  0  0  0  0  # atno 17370 bound_to 10713
  156.6588  130.4506  149.5694 LP  0  0  0  0  0  0  0  0  0  0  0  0  # atno 17371 bound_to 10713
  140.0714  134.9700  157.1474 LP  0  0  0  0  0  0  0  0  0  0  0  0  # atno 17394 bound_to 11000
  140.3705  134.2396  155.7178 LP  0  0  0  0  0  0  0  0  0  0  0  0  # atno 17395 bound_to 11000

$$$$
