AV-unprocessed.smi:2046|AV-procd|sdf|8311|dock5
  -GOLD-   2272010573D 1   1.00000     0.00000
 Structure written by MMmdl.
 30 31  0  0  0  0  0  0  0  0  1 V2000
  149.6809  140.8551  157.7410 O   0  0  0  0  0  0  0  0  0  0  0  0
  149.5466  141.9693  157.2337 C   0  0  0  0  0  0  0  0  0  0  0  0
  150.0581  143.1132  157.7216 N   0  0  0  0  0  0  0  0  0  0  0  0
  150.8425  143.2991  158.8907 C   0  0  0  0  0  0  0  0  0  0  0  0
  151.1086  142.3224  159.7724 N   0  0  0  0  0  0  0  0  0  0  0  0
  151.8962  142.7725  160.8243 N   0  0  0  0  0  0  0  0  0  0  0  0
  152.1929  144.0687  160.6947 C   0  0  0  0  0  0  0  0  0  0  0  0
  151.5390  144.8667  159.2749 S   0  0  0  0  0  0  0  0  0  0  0  0
  148.8585  142.1900  156.1040 N   0  0  0  0  0  0  0  0  0  0  0  0
  148.1486  141.1758  155.3243 C   0  0  2  0  0  0  0  0  0  0  0  0
  147.2558  140.3030  156.2435 C   0  0  0  0  0  0  0  0  0  0  0  0
  146.9162  138.8923  155.7182 C   0  0  0  0  0  0  0  0  0  0  0  0
  146.3039  138.8395  154.3037 C   0  0  0  0  0  0  0  0  0  0  0  0
  147.1123  139.5144  153.1694 C   0  0  0  0  0  0  0  0  0  0  0  0
  148.5457  139.6325  153.4352 N   0  0  0  0  0  0  0  0  0  0  0  0
  149.0978  140.3966  154.3937 C   0  0  0  0  0  0  0  0  0  0  0  0
  150.3177  140.4586  154.5422 O   0  0  0  0  0  0  0  0  0  0  0  0
  149.8613  143.9515  157.1950 H   0  0  0  0  0  0  0  0  0  0  0  0
  152.8010  144.5584  161.4409 H   0  0  0  0  0  0  0  0  0  0  0  0
  148.7972  143.1381  155.7621 H   0  0  0  0  0  0  0  0  0  0  0  0
  147.4858  141.7251  154.6542 H   0  0  0  0  0  0  0  0  0  0  0  0
  147.7440  140.1817  157.2116 H   0  0  0  0  0  0  0  0  0  0  0  0
  146.3295  140.8413  156.4488 H   0  0  0  0  0  0  0  0  0  0  0  0
  147.8118  138.2701  155.7458 H   0  0  0  0  0  0  0  0  0  0  0  0
  146.2241  138.4192  156.4153 H   0  0  0  0  0  0  0  0  0  0  0  0
  146.1649  137.7889  154.0463 H   0  0  0  0  0  0  0  0  0  0  0  0
  145.3012  139.2676  154.3245 H   0  0  0  0  0  0  0  0  0  0  0  0
  146.9801  138.9519  152.2448 H   0  0  0  0  0  0  0  0  0  0  0  0
  146.7067  140.5050  152.9607 H   0  0  0  0  0  0  0  0  0  0  0  0
  149.1661  139.1099  152.8339 H   0  0  0  0  0  0  0  0  0  0  0  0
  1  2  2  0  0  0  0
  2  3  1  0  0  0  0
  2  9  1  0  0  0  0
  3  4  1  0  0  0  0
  3 18  1  0  0  0  0
  4  8  1  0  0  0  0
  4  5  2  0  0  0  0
  5  6  1  0  0  0  0
  6  7  2  0  0  0  0
  7  8  1  0  0  0  0
  7 19  1  0  0  0  0
  9 10  1  0  0  0  0
  9 20  1  0  0  0  0
 10 16  1  0  0  0  0
 10 11  1  0  0  0  0
 10 21  1  0  0  0  0
 11 12  1  0  0  0  0
 11 22  1  0  0  0  0
 11 23  1  0  0  0  0
 12 13  1  0  0  0  0
 12 24  1  0  0  0  0
 12 25  1  0  0  0  0
 13 14  1  0  0  0  0
 13 26  1  0  0  0  0
 13 27  1  0  0  0  0
 14 15  1  0  0  0  0
 14 28  1  0  0  0  0
 14 29  1  0  0  0  0
 15 16  1  0  0  0  0
 15 30  1  0  0  0  0
 16 17  2  0  0  0  0
M  END
> <s_m_source_file>
AV-unprocessed.smi

> <i_m_source_file_index>
2046

> <i_lp_mmshare_version>
43012

> <i_f3d_flags>
0

> <s_epik_input>
czFbY0hdbm5jMVtOSF1DKD1PKVtOSF1bQ0BASF0yW0NIMl1bQ0gyXVtDSDJdW0NIMl1bTkhdQzI9Tw==

> <s_epik_cmdline>
J2VwaWtfcHl0aG9uJywgJy1waCcsICc3LjAnLCAnLXRuJywgJzgnLCAnLW1hJywgJzIwMCcsICctbWV0YWxfYmluZGluZycsICctaW1hZScsICc8aW5maWxlLm1hZT4nLCAnLW9tYWUnLCAnPG91dGZpbGUubWFlPic=

> <r_lp_tautomer_probability>
1

> <r_epik_Ionization_Penalty>
0.000691558

> <r_epik_Ionization_Penalty_Charging>
0

> <r_epik_Ionization_Penalty_Neutral>
0.000691558

> <r_epik_State_Penalty>
-0

> <r_epik_Charging_Adjusted_Penalty>
0

> <i_epik_Tot_Q>
0

> <i_epik_Tot_abs_Q>
0

> <r_epik_Metal_State_Penalty>
0.252698

> <b_epik_Metal_Only>
0

> <s_lp_Force_Field>
OPLS_2005

> <r_lp_Energy>
13.4172

> <b_lp_Chiralities_Consistent>
1

> <s_lp_Variant>
AV-unprocessed.smi:2046-1

> <Gold.Version>
5.8.1

> <Gold.Id.Protein>
6NUR|6NUR_protein|mol2

> <Gold.PLP.Fitness>
36.3476

> <Gold.PLP.PLP>
-27.0664

> <Gold.PLP.part.hbond>
-5.6346

> <Gold.PLP.part.metal>
0.0000

> <Gold.PLP.part.buried>
-5.6756

> <Gold.PLP.part.nonpolar>
-16.3803

> <Gold.PLP.part.repulsive>
0.4108

> <Gold.PLP.ligand.clash>
0.0000

> <Gold.PLP.ligand.torsion>
0.2216

> <Gold.PLP.Chemscore.Hbond>
3.2240

> <Gold.PLP.Chemscore.CHOScore>
0.0000

> <Gold.PLP.Chemscore.Metal>
0.0000

> <Gold.Chemscore.Hbonds>
donor molecule, donor type, donor heavy atom, donor atom, acceptor molecule, acceptor atom, score
      L1  H     3    18       P1  8028  0.94
      L1  H     9    20       P1  8028  1.00
      L1  H    15    30       P1  7957  0.29
      P1  H  7989  7998       L1    17  0.98

> <Gold.PLP.Chemscore.Internal.Correction>
0.0524

> <Gold.Rescore>
     Score         DG    S(hbond)    S(metal)    S(lipo)     H(rot)  DE(clash)    DE(int)     intcor
     15.69     -18.27       3.13        0.00      41.73       1.00       0.02       2.55       ----

> <Gold.Chemscore.Fitness>
15.6942

> <Gold.Chemscore.DG>
-18.2726

> <Gold.Chemscore.ZeroCoef>
-5.4800

> <Gold.Chemscore.Hbond>
3.1348

> <Gold.Chemscore.Metal>
0.0000

> <Gold.Chemscore.Lipo>
41.7299

> <Gold.Chemscore.Internal_Hbond>
0.0000

> <Gold.Chemscore.DEClash>
0.0234

> <Gold.Chemscore.DEInternal>
2.5550

> <Gold.Chemscore.Rot>
1.0000

> <Gold.Chemscore.Internal.Correction>
   9.000000E+99

> <Gold.Chemscore.Hbonds>
donor molecule, donor type, donor heavy atom, donor atom, acceptor molecule, acceptor atom, score
      L1  H     3    18       P1  8028  0.74
      L1  H     9    20       P1  8028  0.98
      L1  H    15    30       P1  7957  0.28
      P1  H  7989  7998       L1    17  0.93

> <Gold.Chemscore.Hbond.Weighted>
-10.4702

> <Gold.Chemscore.Metal.Weighted>
-0.0000

> <Gold.Chemscore.Lipo.Weighted>
-4.8824

> <Gold.Chemscore.Internal_Hbond.Weighted>
0.0000

> <Gold.Chemscore.DEClash.Weighted>
0.0234

> <Gold.Chemscore.DEInternal.Weighted>
2.5550

> <Gold.Chemscore.Rot.Weighted>
2.5600

> <Gold.Chemscore.Internal.Correction.Weighted>
   9.000000E+99

> <Gold.Protein.RotatedTorsions>
[ 6907 6896 6895 6894 ] final  -51.39 input  -60.11 | X-H torsion
[ 7974 7965 7964 7962 ] final   15.47 input  175.53 | X-H torsion
[ 8008 7997 7996 7995 ] final -118.96 input   59.86 | X-H torsion
[ 10167 10162 10161 10158 ] final  -48.82 input  -65.29 | X-H torsion
[ 10718 10713 10712 10709 ] final   24.86 input   66.30 | X-H torsion
[ 10763 10752 10751 10750 ] final  -25.67 input  -60.55 | X-H torsion
[ 11005 11000 10999 10996 ] final -121.27 input  -57.11 | X-H torsion

> <Gold.Protein.ActiveResidues>
 VAL166  LYS551  ARG553  GLY616  TRP617  ASP618  TYR619  PRO620  LYS621  CYS622 
 ASP623  PHE694  ASN695  SER759  ASP760  ASP761  ALA762  ILE779  LEU786  VAL792 
 PHE793  MET794  SER795  GLU796  ALA797  LYS798  CYS799  TRP800  GLU811  SER814 

> <Gold.Protein.RotatedAtoms>
  150.8616  134.7969  159.7086 H   0  0  0  0  0  0  0  0  0  0  0  0  # atno 6907 bound_to 6896
  152.4651  134.5091  159.9758 H   0  0  0  0  0  0  0  0  0  0  0  0  # atno 6908 bound_to 6896
  151.5194  133.3431  159.2934 H   0  0  0  0  0  0  0  0  0  0  0  0  # atno 6909 bound_to 6896
  146.2277  139.8889  142.8558 H   0  0  0  0  0  0  0  0  0  0  0  0  # atno 7974 bound_to 7965
  155.1081  140.0397  157.2716 H   0  0  0  0  0  0  0  0  0  0  0  0  # atno 8008 bound_to 7997
  154.6706  140.2611  155.6985 H   0  0  0  0  0  0  0  0  0  0  0  0  # atno 8009 bound_to 7997
  156.2657  140.2798  156.1214 H   0  0  0  0  0  0  0  0  0  0  0  0  # atno 8010 bound_to 7997
  140.6714  143.2724  151.4126 H   0  0  0  0  0  0  0  0  0  0  0  0  # atno 10167 bound_to 10162
  157.1855  130.6822  149.6129 H   0  0  0  0  0  0  0  0  0  0  0  0  # atno 10718 bound_to 10713
  153.7035  135.6955  153.5056 H   0  0  0  0  0  0  0  0  0  0  0  0  # atno 10763 bound_to 10752
  153.2325  135.4333  155.0609 H   0  0  0  0  0  0  0  0  0  0  0  0  # atno 10764 bound_to 10752
  154.8337  135.3487  154.6574 H   0  0  0  0  0  0  0  0  0  0  0  0  # atno 10765 bound_to 10752
  141.0082  134.0303  157.3449 H   0  0  0  0  0  0  0  0  0  0  0  0  # atno 11005 bound_to 11000
  145.2437  141.0019  143.3921 LP  0  0  0  0  0  0  0  0  0  0  0  0  # atno 17320 bound_to 7965
  144.9431  139.4167  143.6439 LP  0  0  0  0  0  0  0  0  0  0  0  0  # atno 17321 bound_to 7965
  139.5984  144.1349  152.2170 LP  0  0  0  0  0  0  0  0  0  0  0  0  # atno 17342 bound_to 10162
  140.0725  144.5767  150.7181 LP  0  0  0  0  0  0  0  0  0  0  0  0  # atno 17343 bound_to 10162
  155.9718  130.4632  150.6173 LP  0  0  0  0  0  0  0  0  0  0  0  0  # atno 17370 bound_to 10713
  157.3911  131.0796  151.1393 LP  0  0  0  0  0  0  0  0  0  0  0  0  # atno 17371 bound_to 10713
  139.9075  135.0183  156.7549 LP  0  0  0  0  0  0  0  0  0  0  0  0  # atno 17394 bound_to 11000
  140.6777  133.9502  155.7892 LP  0  0  0  0  0  0  0  0  0  0  0  0  # atno 17395 bound_to 11000

$$$$
