#       Name:                AV-unprocessed.smi:102
#       Creating user name   scv26
#       Creation time:       Thu Mar 26 17:50:01 2020


#       File generated by GOLD software.
#

@<TRIPOS>MOLECULE
AV-unprocessed.smi:102
    56    57     1
SMALL
NO_CHARGES


@<TRIPOS>ATOM
      1 ****        -4.3459   3.4322   1.8459 C.3            1 S1                 0.0000
      2 ****        -3.7191   2.2336   1.1463 C.2            1 S1                 0.0000
      3 ****        -3.7806   1.1029   1.6300 O.2            1 S1                 0.0000
      4 ****        -3.1213   2.5702  -0.0113 O.3            1 S1                 0.0000
      5 ****        -2.4729   1.5818  -0.7997 C.3            1 S1                 0.0000
      6 ****        -0.9847   1.4602  -0.4187 C.3            1 S1                 0.0000
      7 ****        -0.8499   0.7721   0.8209 O.3            1 S1                 0.0000
      8 ****        -0.7859  -0.6048   0.6034 C.3            1 S1                 0.0000
      9 ****         0.2836  -1.1809   1.5057 N.am           1 S1                 0.0000
     10 ****         1.4470  -0.4740   1.7793 C.2            1 S1                 0.0000
     11 ****         2.4370  -0.9609   2.5637 C.2            1 S1                 0.0000
     12 ****         3.5365  -0.2195   2.7814 F              1 S1                 0.0000
     13 ****         2.3237  -2.2845   3.1694 C.2            1 S1                 0.0000
     14 ****         3.1643  -2.8096   3.8965 O.2            1 S1                 0.0000
     15 ****         1.1422  -2.9635   2.8567 N.am           1 S1                 0.0000
     16 ****         0.1165  -2.4755   2.0453 C.2            1 S1                 0.0000
     17 ****        -0.8717  -3.1720   1.8183 O.2            1 S1                 0.0000
     18 ****        -0.4914  -0.8338  -0.8931 C.3            1 S1                 0.0000
     19 ****         0.5839  -1.7417  -1.1229 O.3            1 S1                 0.0000
     20 ****         0.7049  -2.3609  -2.3069 C.2            1 S1                 0.0000
     21 ****         1.9085  -3.2924  -2.3521 C.3            1 S1                 0.0000
     22 ****        -0.0388  -2.2206  -3.2775 O.2            1 S1                 0.0000
     23 ****        -0.2065   0.5773  -1.3998 C.3            1 S1                 0.0000
     24 ****         1.1834   0.8806  -1.3132 O.3            1 S1                 0.0000
     25 ****         1.7311   1.8129  -2.1100 C.2            1 S1                 0.0000
     26 ****         3.2261   1.9724  -1.8694 C.3            1 S1                 0.0000
     27 ****         1.1369   2.4904  -2.9485 O.2            1 S1                 0.0000
     28 ****         1.0241  -3.8874   3.2462 H              1 S1                 0.0000
     29 ****        -4.9760   3.9903   1.1533 H              1 S1                 0.0000
     30 ****        -3.5695   4.0980   2.2227 H              1 S1                 0.0000
     31 ****        -4.9600   3.1072   2.6860 H              1 S1                 0.0000
     32 ****        -2.9842   0.6197  -0.7410 H              1 S1                 0.0000
     33 ****        -2.5476   1.9049  -1.8382 H              1 S1                 0.0000
     34 ****        -0.5496   2.4580  -0.3485 H              1 S1                 0.0000
     35 ****        -1.7375  -1.0378   0.9157 H              1 S1                 0.0000
     36 ****         1.5845   0.5074   1.3503 H              1 S1                 0.0000
     37 ****        -1.4141  -1.2063  -1.3411 H              1 S1                 0.0000
     38 ****         1.9734  -3.8764  -1.4338 H              1 S1                 0.0000
     39 ****         2.8269  -2.7157  -2.4624 H              1 S1                 0.0000
     40 ****         1.8280  -3.9805  -3.1939 H              1 S1                 0.0000
     41 ****        -0.5549   0.6927  -2.4275 H              1 S1                 0.0000
     42 ****         3.7430   1.0328  -2.0650 H              1 S1                 0.0000
     43 ****         3.4143   2.2635  -0.8358 H              1 S1                 0.0000
     44 ****         3.6404   2.7383  -2.5254 H              1 S1                 0.0000
     45 ****        -4.2498   0.9564   2.5008 LP             1 S1                 0.0000
     46 ****        -3.3612   0.3311   1.1520 LP             1 S1                 0.0000
     47 ****        -1.6380   0.9786   1.4007 LP             1 S1                 0.0000
     48 ****        -0.0125   1.0737   1.2767 LP             1 S1                 0.0000
     49 ****         4.0099  -2.3229   4.1157 LP             1 S1                 0.0000
     50 ****         3.0026  -3.7235   4.2688 LP             1 S1                 0.0000
     51 ****        -1.6017  -2.8270   1.2284 LP             1 S1                 0.0000
     52 ****        -0.9449  -4.0832   2.2236 LP             1 S1                 0.0000
     53 ****        -0.8188  -1.5972  -3.2238 LP             1 S1                 0.0000
     54 ****         0.1370  -2.7301  -4.1199 LP             1 S1                 0.0000
     55 ****         0.1535   2.3692  -3.0835 LP             1 S1                 0.0000
     56 ****         1.6376   3.1619  -3.4947 LP             1 S1                 0.0000
@<TRIPOS>BOND
    1    1    2 1     
    2    1   29 1     
    3    1   30 1     
    4    1   31 1     
    5    2    3 2     
    6    2    4 1     
    7    4    5 1     
    8    5    6 1     
    9    5   32 1     
   10    5   33 1     
   11    6   23 1     
   12    6    7 1     
   13    6   34 1     
   14    7    8 1     
   15    8    9 1     
   16    8   18 1     
   17    8   35 1     
   18    9   16 1     
   19    9   10 1     
   20   10   11 2     
   21   10   36 1     
   22   11   12 1     
   23   11   13 1     
   24   13   14 2     
   25   13   15 1     
   26   15   28 1     
   27   15   16 1     
   28   16   17 2     
   29   18   19 1     
   30   18   23 1     
   31   18   37 1     
   32   19   20 1     
   33   20   21 1     
   34   20   22 2     
   35   21   38 1     
   36   21   39 1     
   37   21   40 1     
   38   23   24 1     
   39   23   41 1     
   40   24   25 1     
   41   25   26 1     
   42   25   27 2     
   43   26   42 1     
   44   26   43 1     
   45   26   44 1     
   46    3   45 1     
   47    3   46 1     
   48    7   47 1     
   49    7   48 1     
   50   14   49 1     
   51   14   50 1     
   52   17   51 1     
   53   17   52 1     
   54   22   53 1     
   55   22   54 1     
   56   27   55 1     
   57   27   56 1     
@<TRIPOS>SUBSTRUCTURE
      1 S1             1
@<TRIPOS>SET
LONE_PAIRS      STATIC     ATOMS    <user>   **** ""
12 45 46 47 48 49 50 51 52 53 54 55 56
DONOR_HYDROGENS      STATIC     ATOMS    <user>   **** ""
1 28
ATOM$BLUE        STATIC     ATOMS    COLORGROUP SYSTEM
12 45 46 47 48 49 50 51 52 53 54 55 56
ATOM$RED        STATIC     ATOMS    COLORGROUP SYSTEM
1 28
