AV-unprocessed.smi:572|AV-procd|sdf|2965|dock3
  -GOLD-   2262023473D 1   1.00000     0.00000
 Structure written by MMmdl.
 44 46  0  0  0  0  0  0  0  0  1 V2000
  153.8233  137.9528  159.2524 C   0  0  0  0  0  0  0  0  0  0  0  0
  154.1149  139.2096  158.6692 O   0  0  0  0  0  0  0  0  0  0  0  0
  153.5293  140.2897  159.3774 C   0  0  0  0  0  0  0  0  0  0  0  0
  152.0389  140.3929  159.0250 C   0  0  0  0  0  0  0  0  0  0  0  0
  151.6649  141.7452  158.6381 N   0  0  0  0  0  0  0  0  0  0  0  0
  151.1054  142.1519  157.4708 C   0  0  0  0  0  0  0  0  0  0  0  0
  150.7734  141.2539  156.3762 C   0  0  0  0  0  0  0  0  0  0  0  0
  151.6407  140.1943  156.0525 C   0  0  0  0  0  0  0  0  0  0  0  0
  151.3217  139.3044  154.9985 C   0  0  0  0  0  0  0  0  0  0  0  0
  152.1135  138.2350  154.6326 O   0  0  0  0  0  0  0  0  0  0  0  0
  153.3739  138.0843  155.2696 C   0  0  0  0  0  0  0  0  0  0  0  0
  150.1268  139.5086  154.2725 C   0  0  0  0  0  0  0  0  0  0  0  0
  149.8131  138.6552  153.2524 O   0  0  0  0  0  0  0  0  0  0  0  0
  149.2513  140.5743  154.5811 C   0  0  0  0  0  0  0  0  0  0  0  0
  148.1067  140.6989  153.8204 O   0  0  0  0  0  0  0  0  0  0  0  0
  147.2502  141.8038  154.0695 C   0  0  0  0  0  0  0  0  0  0  0  0
  149.5871  141.4478  155.6438 C   0  0  0  0  0  0  0  0  0  0  0  0
  150.8768  143.4636  157.3793 N   0  0  0  0  0  0  0  0  0  0  0  0
  151.3287  143.9460  158.5917 C   0  0  0  0  0  0  0  0  0  0  0  0
  151.3616  145.2629  159.1040 C   0  0  0  0  0  0  0  0  0  0  0  0
  151.8836  145.5149  160.3898 C   0  0  0  0  0  0  0  0  0  0  0  0
  152.3782  144.4569  161.1798 C   0  0  0  0  0  0  0  0  0  0  0  0
  152.3528  143.1376  160.6885 C   0  0  0  0  0  0  0  0  0  0  0  0
  151.8305  142.8927  159.4047 C   0  0  0  0  0  0  0  0  0  0  0  0
  154.2968  137.1620  158.6712 H   0  0  0  0  0  0  0  0  0  0  0  0
  152.7491  137.7648  159.2666 H   0  0  0  0  0  0  0  0  0  0  0  0
  154.2038  137.8939  160.2729 H   0  0  0  0  0  0  0  0  0  0  0  0
  153.6460  140.1392  160.4515 H   0  0  0  0  0  0  0  0  0  0  0  0
  154.0370  141.2211  159.1217 H   0  0  0  0  0  0  0  0  0  0  0  0
  151.7938  139.7010  158.2192 H   0  0  0  0  0  0  0  0  0  0  0  0
  151.4304  140.0967  159.8801 H   0  0  0  0  0  0  0  0  0  0  0  0
  152.5421  140.0791  156.6353 H   0  0  0  0  0  0  0  0  0  0  0  0
  153.8658  137.1904  154.8861 H   0  0  0  0  0  0  0  0  0  0  0  0
  153.2637  137.9626  156.3481 H   0  0  0  0  0  0  0  0  0  0  0  0
  154.0282  138.9330  155.0658 H   0  0  0  0  0  0  0  0  0  0  0  0
  149.7276  139.0985  152.4221 H   0  0  0  0  0  0  0  0  0  0  0  0
  146.4019  141.7620  153.3865 H   0  0  0  0  0  0  0  0  0  0  0  0
  147.7628  142.7517  153.8999 H   0  0  0  0  0  0  0  0  0  0  0  0
  146.8560  141.7818  155.0862 H   0  0  0  0  0  0  0  0  0  0  0  0
  148.9485  142.2734  155.9193 H   0  0  0  0  0  0  0  0  0  0  0  0
  150.9861  146.0801  158.5063 H   0  0  0  0  0  0  0  0  0  0  0  0
  151.9052  146.5250  160.7715 H   0  0  0  0  0  0  0  0  0  0  0  0
  152.7773  144.6587  162.1633 H   0  0  0  0  0  0  0  0  0  0  0  0
  152.7315  142.3242  161.2896 H   0  0  0  0  0  0  0  0  0  0  0  0
  1  2  1  0  0  0  0
  1 25  1  0  0  0  0
  1 26  1  0  0  0  0
  1 27  1  0  0  0  0
  2  3  1  0  0  0  0
  3  4  1  0  0  0  0
  3 28  1  0  0  0  0
  3 29  1  0  0  0  0
  4  5  1  0  0  0  0
  4 30  1  0  0  0  0
  4 31  1  0  0  0  0
  5 24  1  0  0  0  0
  5  6  1  0  0  0  0
  6  7  1  0  0  0  0
  6 18  2  0  0  0  0
  7 17  1  0  0  0  0
  7  8  2  0  0  0  0
  8  9  1  0  0  0  0
  8 32  1  0  0  0  0
  9 10  1  0  0  0  0
  9 12  2  0  0  0  0
 10 11  1  0  0  0  0
 11 33  1  0  0  0  0
 11 34  1  0  0  0  0
 11 35  1  0  0  0  0
 12 13  1  0  0  0  0
 12 14  1  0  0  0  0
 13 36  1  0  0  0  0
 14 15  1  0  0  0  0
 14 17  2  0  0  0  0
 15 16  1  0  0  0  0
 16 37  1  0  0  0  0
 16 38  1  0  0  0  0
 16 39  1  0  0  0  0
 17 40  1  0  0  0  0
 18 19  1  0  0  0  0
 19 24  2  0  0  0  0
 19 20  1  0  0  0  0
 20 21  2  0  0  0  0
 20 41  1  0  0  0  0
 21 22  1  0  0  0  0
 21 42  1  0  0  0  0
 22 23  2  0  0  0  0
 22 43  1  0  0  0  0
 23 24  1  0  0  0  0
 23 44  1  0  0  0  0
M  END
> <s_m_source_file>
AV-unprocessed.smi

> <i_m_source_file_index>
572

> <i_lp_mmshare_version>
43012

> <i_f3d_flags>
0

> <s_epik_input>
W2NIXTFbY0hdW2NIXVtjSF1jKGMxMiluKFtDSDJdW0NIMl1PW0NIM10pYyhuMiktYzNbY0hdYyhPW0NIM10pYyhbT0hdKWMoW2NIXTMpT1tDSDNd

> <s_epik_cmdline>
J2VwaWtfcHl0aG9uJywgJy1waCcsICc3LjAnLCAnLXRuJywgJzgnLCAnLW1hJywgJzIwMCcsICctbWV0YWxfYmluZGluZycsICctaW1hZScsICc8aW5maWxlLm1hZT4nLCAnLW9tYWUnLCAnPG91dGZpbGUubWFlPic=

> <r_lp_tautomer_probability>
1

> <r_epik_Ionization_Penalty>
0.264233

> <r_epik_Ionization_Penalty_Charging>
0

> <r_epik_Ionization_Penalty_Neutral>
0.264233

> <r_epik_State_Penalty>
0.193741

> <r_epik_Charging_Adjusted_Penalty>
0.193741

> <i_epik_Tot_Q>
0

> <i_epik_Tot_abs_Q>
0

> <r_epik_Metal_State_Penalty>
0.000227182

> <b_epik_Metal_Only>
0

> <s_lp_Force_Field>
OPLS_2005

> <r_lp_Energy>
21.3559

> <b_lp_Chiralities_Consistent>
1

> <s_lp_Variant>
AV-unprocessed.smi:572-1

> <Gold.Version>
5.8.1

> <Gold.Id.Protein>
6NUR|6NUR_protein|mol2

> <Gold.PLP.Fitness>
57.3484

> <Gold.PLP.PLP>
-52.3241

> <Gold.PLP.part.hbond>
-2.9027

> <Gold.PLP.part.metal>
0.0000

> <Gold.PLP.part.buried>
-3.9048

> <Gold.PLP.part.nonpolar>
-46.6708

> <Gold.PLP.part.repulsive>
1.9134

> <Gold.PLP.ligand.clash>
0.0000

> <Gold.PLP.ligand.torsion>
1.0844

> <Gold.PLP.Chemscore.Hbond>
2.0000

> <Gold.PLP.Chemscore.CHOScore>
0.0000

> <Gold.PLP.Chemscore.Metal>
0.0000

> <Gold.Chemscore.Hbonds>
donor molecule, donor type, donor heavy atom, donor atom, acceptor molecule, acceptor atom, score
      L1  H    13    36       P1  7957  1.00
      P1  H  7997  8010       L1     2  1.00

> <Gold.PLP.Chemscore.Internal.Correction>
1.1930

> <Gold.Rescore>
     Score         DG    S(hbond)    S(metal)    S(lipo)     H(rot)  DE(clash)    DE(int)     intcor
     19.19     -23.01       1.83        0.00     146.03       2.21       1.58       2.24       ----

> <Gold.Chemscore.Fitness>
19.1907

> <Gold.Chemscore.DG>
-23.0117

> <Gold.Chemscore.ZeroCoef>
-5.4800

> <Gold.Chemscore.Hbond>
1.8275

> <Gold.Chemscore.Metal>
0.0000

> <Gold.Chemscore.Lipo>
146.0266

> <Gold.Chemscore.Internal_Hbond>
0.0000

> <Gold.Chemscore.DEClash>
1.5809

> <Gold.Chemscore.DEInternal>
2.2401

> <Gold.Chemscore.Rot>
2.2099

> <Gold.Chemscore.Internal.Correction>
   9.000000E+99

> <Gold.Chemscore.Hbonds>
donor molecule, donor type, donor heavy atom, donor atom, acceptor molecule, acceptor atom, score
      L1  H    13    36       P1  7957  0.79
      P1  H  7997  8010       L1     2  0.40

> <Gold.Chemscore.Hbond.Weighted>
-6.1040

> <Gold.Chemscore.Metal.Weighted>
-0.0000

> <Gold.Chemscore.Lipo.Weighted>
-17.0851

> <Gold.Chemscore.Internal_Hbond.Weighted>
0.0000

> <Gold.Chemscore.DEClash.Weighted>
1.5809

> <Gold.Chemscore.DEInternal.Weighted>
2.2401

> <Gold.Chemscore.Rot.Weighted>
5.6574

> <Gold.Chemscore.Internal.Correction.Weighted>
   9.000000E+99

> <Gold.Protein.RotatedTorsions>
[ 6907 6896 6895 6894 ] final  166.60 input  -60.11 | X-H torsion
[ 7974 7965 7964 7962 ] final   10.96 input  175.53 | X-H torsion
[ 8008 7997 7996 7995 ] final   23.70 input   59.86 | X-H torsion
[ 10167 10162 10161 10158 ] final -147.22 input  -65.29 | X-H torsion
[ 10718 10713 10712 10709 ] final   58.71 input   66.30 | X-H torsion
[ 10763 10752 10751 10750 ] final  -94.43 input  -60.55 | X-H torsion
[ 11005 11000 10999 10996 ] final  -62.94 input  -57.11 | X-H torsion

> <Gold.Protein.ActiveResidues>
 VAL166  LYS551  ARG553  GLY616  TRP617  ASP618  TYR619  PRO620  LYS621  CYS622 
 ASP623  PHE694  ASN695  SER759  ASP760  ASP761  ALA762  ILE779  LEU786  VAL792 
 PHE793  MET794  SER795  GLU796  ALA797  LYS798  CYS799  TRP800  GLU811  SER814 

> <Gold.Protein.RotatedAtoms>
  151.8764  133.3486  159.3751 H   0  0  0  0  0  0  0  0  0  0  0  0  # atno 6907 bound_to 6896
  150.7139  134.5062  159.5594 H   0  0  0  0  0  0  0  0  0  0  0  0  # atno 6908 bound_to 6896
  152.2605  134.8039  160.0482 H   0  0  0  0  0  0  0  0  0  0  0  0  # atno 6909 bound_to 6896
  146.2379  139.9556  142.8465 H   0  0  0  0  0  0  0  0  0  0  0  0  # atno 7974 bound_to 7965
  154.9850  140.3106  155.4930 H   0  0  0  0  0  0  0  0  0  0  0  0  # atno 8008 bound_to 7997
  156.2948  140.2259  156.4891 H   0  0  0  0  0  0  0  0  0  0  0  0  # atno 8009 bound_to 7997
  154.7755  140.0449  157.1074 H   0  0  0  0  0  0  0  0  0  0  0  0  # atno 8010 bound_to 7997
  139.7642  143.8332  152.2613 H   0  0  0  0  0  0  0  0  0  0  0  0  # atno 10167 bound_to 10162
  157.5618  130.8841  149.9123 H   0  0  0  0  0  0  0  0  0  0  0  0  # atno 10718 bound_to 10713
  154.7054  135.5158  153.8587 H   0  0  0  0  0  0  0  0  0  0  0  0  # atno 10763 bound_to 10752
  153.0737  135.6609  154.0201 H   0  0  0  0  0  0  0  0  0  0  0  0  # atno 10764 bound_to 10752
  154.0053  135.3007  155.3378 H   0  0  0  0  0  0  0  0  0  0  0  0  # atno 10765 bound_to 10752
  141.1377  133.6646  156.5605 H   0  0  0  0  0  0  0  0  0  0  0  0  # atno 11005 bound_to 11000
  145.1820  140.9771  143.4261 LP  0  0  0  0  0  0  0  0  0  0  0  0  # atno 17320 bound_to 7965
  144.9934  139.3667  143.6203 LP  0  0  0  0  0  0  0  0  0  0  0  0  # atno 17321 bound_to 7965
  139.8347  144.7237  150.9405 LP  0  0  0  0  0  0  0  0  0  0  0  0  # atno 17342 bound_to 10162
  140.7809  143.4037  151.1106 LP  0  0  0  0  0  0  0  0  0  0  0  0  # atno 17343 bound_to 10162
  156.0670  130.3691  150.0857 LP  0  0  0  0  0  0  0  0  0  0  0  0  # atno 17370 bound_to 10713
  156.9020  130.9623  151.3575 LP  0  0  0  0  0  0  0  0  0  0  0  0  # atno 17371 bound_to 10713
  140.3992  134.7371  157.4769 LP  0  0  0  0  0  0  0  0  0  0  0  0  # atno 17394 bound_to 11000
  140.0508  134.6133  155.8864 LP  0  0  0  0  0  0  0  0  0  0  0  0  # atno 17395 bound_to 11000

$$$$
