#       Name:                AV-unprocessed.smi:745
#       Creating user name   scv26
#       Creation time:       Fri Mar 27 00:56:54 2020


#       File generated by GOLD software.
#

@<TRIPOS>MOLECULE
AV-unprocessed.smi:745
    45    46     1
SMALL
NO_CHARGES


@<TRIPOS>ATOM
      1 ****        -1.3925  -1.8632   2.2563 C.3            1 S1                 0.0000
      2 ****        -0.9525  -1.0561   1.0225 C.3            1 S1                 0.0000
      3 ****         0.5069  -0.9543   1.0573 N.am           1 S1                 0.0000
      4 ****         1.2217   0.1783   0.9697 C.2            1 S1                 0.0000
      5 ****         0.7171   1.2921   0.8244 O.2            1 S1                 0.0000
      6 ****         2.5399  -0.0718   1.0569 N.am           1 S1                 0.0000
      7 ****         3.6158   0.8502   0.9577 C.ar           1 S1                 0.0000
      8 ****         4.9013   0.2924   1.1410 C.ar           1 S1                 0.0000
      9 ****         6.0355   1.1226   1.0551 C.ar           1 S1                 0.0000
     10 ****         5.8548   2.4909   0.7855 C.ar           1 S1                 0.0000
     11 ****         4.5414   2.9656   0.6151 C.ar           1 S1                 0.0000
     12 ****         3.4527   2.1718   0.6976 N.ar           1 S1                 0.0000
     13 ****        -1.4315  -1.6786  -0.3228 C.3            1 S1                 0.0000
     14 ****        -0.9251  -0.9350  -1.5810 C.3            1 S1                 0.0000
     15 ****        -1.6185   0.4271  -1.7672 C.3            1 S1                 0.0000
     16 ****        -3.0923   0.2701  -1.8369 N.4            1 S1                 1.0000
     17 ****        -3.7825   1.5492  -2.1078 C.3            1 S1                 0.0000
     18 ****        -3.6417  -0.4265  -0.6474 C.3            1 S1                 0.0000
     19 ****        -2.9670  -1.7960  -0.4469 C.3            1 S1                 0.0000
     20 ****        -2.4740  -1.8521   2.3857 H              1 S1                 0.0000
     21 ****        -0.9652  -1.4451   3.1687 H              1 S1                 0.0000
     22 ****        -1.0717  -2.9032   2.1879 H              1 S1                 0.0000
     23 ****        -1.3844  -0.0607   1.1283 H              1 S1                 0.0000
     24 ****         1.0133  -1.8201   1.1732 H              1 S1                 0.0000
     25 ****         2.8064  -1.0346   1.1999 H              1 S1                 0.0000
     26 ****         5.0224  -0.7614   1.3459 H              1 S1                 0.0000
     27 ****         7.0264   0.7156   1.1927 H              1 S1                 0.0000
     28 ****         6.7003   3.1588   0.7113 H              1 S1                 0.0000
     29 ****         4.3596   4.0095   0.4058 H              1 S1                 0.0000
     30 ****        -1.0244  -2.6901  -0.3626 H              1 S1                 0.0000
     31 ****         0.1565  -0.8058  -1.5615 H              1 S1                 0.0000
     32 ****        -1.1231  -1.5507  -2.4595 H              1 S1                 0.0000
     33 ****        -1.3598   1.1052  -0.9537 H              1 S1                 0.0000
     34 ****        -1.2606   0.8919  -2.6868 H              1 S1                 0.0000
     35 ****        -3.6344   2.2544  -1.2888 H              1 S1                 0.0000
     36 ****        -4.8539   1.3892  -2.2327 H              1 S1                 0.0000
     37 ****        -3.4054   2.0041  -3.0242 H              1 S1                 0.0000
     38 ****        -3.5159   0.1978   0.2381 H              1 S1                 0.0000
     39 ****        -4.7151  -0.5690  -0.7779 H              1 S1                 0.0000
     40 ****        -3.2037  -2.4288  -1.3033 H              1 S1                 0.0000
     41 ****        -3.3988  -2.3064   0.4126 H              1 S1                 0.0000
     42 ****        -3.2780  -0.3283  -2.6293 H              1 S1                 0.0000
     43 ****        -0.2766   1.3870   0.7655 LP             1 S1                 0.0000
     44 ****         1.3011   2.1018   0.7654 LP             1 S1                 0.0000
     45 ****         2.5373   2.5531   0.5686 LP             1 S1                 0.0000
@<TRIPOS>BOND
    1    1    2 1     
    2    1   20 1     
    3    1   21 1     
    4    1   22 1     
    5    2    3 1     
    6    2   13 1     
    7    2   23 1     
    8    3    4 am    
    9    3   24 1     
   10    4    5 2     
   11    4    6 am    
   12    6    7 1     
   13    6   25 1     
   14    7   12 ar    
   15    7    8 ar    
   16    8    9 ar    
   17    8   26 1     
   18    9   10 ar    
   19    9   27 1     
   20   10   11 ar    
   21   10   28 1     
   22   11   12 ar    
   23   11   29 1     
   24   13   19 1     
   25   13   14 1     
   26   13   30 1     
   27   14   15 1     
   28   14   31 1     
   29   14   32 1     
   30   15   16 1     
   31   15   33 1     
   32   15   34 1     
   33   16   17 1     
   34   16   18 1     
   35   16   42 1     
   36   17   35 1     
   37   17   36 1     
   38   17   37 1     
   39   18   19 1     
   40   18   38 1     
   41   18   39 1     
   42   19   40 1     
   43   19   41 1     
   44    5   43 1     
   45    5   44 1     
   46   12   45 1     
@<TRIPOS>SUBSTRUCTURE
      1 S1             1
@<TRIPOS>SET
LONE_PAIRS      STATIC     ATOMS    <user>   **** ""
3 43 44 45
DONOR_HYDROGENS      STATIC     ATOMS    <user>   **** ""
3 24 25 42
ATOM$BLUE        STATIC     ATOMS    COLORGROUP SYSTEM
3 43 44 45
ATOM$RED        STATIC     ATOMS    COLORGROUP SYSTEM
3 24 25 42
