AV-unprocessed.smi:2780|AV-procd|sdf|10714|dock1
  -GOLD-   2272015153D 1   1.00000     0.00000
 Structure written by MMmdl.
 47 49  0  0  0  0  0  0  0  0  2 V2000
  151.6793  140.3535  158.7012 C   0  0  0  0  0  0  0  0  0  0  0  0
  151.9876  141.6399  159.4496 C   0  0  0  0  0  0  0  0  0  0  0  0
  152.8752  141.6265  160.4624 C   0  0  0  0  0  0  0  0  0  0  0  0
  153.2066  142.8246  161.3218 C   0  0  0  0  0  0  0  0  0  0  0  0
  152.0963  143.8752  161.2514 C   0  0  0  0  0  0  0  0  0  0  0  0
  151.7087  144.1884  159.7968 C   0  0  2  0  0  0  0  0  0  0  0  0
  150.6547  145.3129  159.7802 C   0  0  0  0  0  0  0  0  0  0  0  0
  151.2390  142.9189  159.0208 C   0  0  1  0  0  0  0  0  0  0  0  0
  151.3105  143.1718  157.4913 C   0  0  0  0  0  0  0  0  0  0  0  0
  150.3691  142.3297  156.7248 N   0  3  0  0  0  0  0  0  0  0  0  0
  151.0180  141.2745  155.9239 C   0  0  0  0  0  0  0  0  0  0  0  0
  149.9842  140.2654  155.4062 C   0  0  0  0  0  0  0  0  0  0  0  0
  150.5460  138.9313  155.2989 N   0  0  0  0  0  0  0  0  0  0  0  0
  151.5465  138.5108  154.5094 C   0  0  0  0  0  0  0  0  0  0  0  0
  151.8621  137.2230  154.6361 N   0  0  0  0  0  0  0  0  0  0  0  0
  150.9979  136.7472  155.6021 N   0  0  0  0  0  0  0  0  0  0  0  0
  150.2365  137.7910  155.9504 C   0  0  0  0  0  0  0  0  0  0  0  0
  149.1796  137.7283  157.0068 C   0  0  0  0  0  0  0  0  0  0  0  0
  149.1742  138.6947  158.1709 C   0  0  0  0  0  0  0  0  0  0  0  0
  149.4986  137.2422  158.4035 C   0  0  0  0  0  0  0  0  0  0  0  0
  150.6030  140.1861  158.6551 H   0  0  0  0  0  0  0  0  0  0  0  0
  152.1257  139.4904  159.1966 H   0  0  0  0  0  0  0  0  0  0  0  0
  152.0787  140.3868  157.6877 H   0  0  0  0  0  0  0  0  0  0  0  0
  153.3935  140.7122  160.7137 H   0  0  0  0  0  0  0  0  0  0  0  0
  153.3404  142.4989  162.3538 H   0  0  0  0  0  0  0  0  0  0  0  0
  154.1584  143.2408  160.9904 H   0  0  0  0  0  0  0  0  0  0  0  0
  151.2203  143.5151  161.7931 H   0  0  0  0  0  0  0  0  0  0  0  0
  152.4238  144.7808  161.7638 H   0  0  0  0  0  0  0  0  0  0  0  0
  152.6067  144.5697  159.3079 H   0  0  0  0  0  0  0  0  0  0  0  0
  149.7243  144.9889  160.2476 H   0  0  0  0  0  0  0  0  0  0  0  0
  150.4183  145.6494  158.7720 H   0  0  0  0  0  0  0  0  0  0  0  0
  151.0086  146.1863  160.3287 H   0  0  0  0  0  0  0  0  0  0  0  0
  150.1957  142.7465  159.2900 H   0  0  0  0  0  0  0  0  0  0  0  0
  151.0744  144.2074  157.2519 H   0  0  0  0  0  0  0  0  0  0  0  0
  152.3285  143.0014  157.1379 H   0  0  0  0  0  0  0  0  0  0  0  0
  149.7351  141.8902  157.3771 H   0  0  0  0  0  0  0  0  0  0  0  0
  151.5496  141.7326  155.0897 H   0  0  0  0  0  0  0  0  0  0  0  0
  151.7615  140.7663  156.5396 H   0  0  0  0  0  0  0  0  0  0  0  0
  149.1282  140.2207  156.0809 H   0  0  0  0  0  0  0  0  0  0  0  0
  149.6002  140.5719  154.4328 H   0  0  0  0  0  0  0  0  0  0  0  0
  152.0627  139.1669  153.8238 H   0  0  0  0  0  0  0  0  0  0  0  0
  148.2208  137.4489  156.5746 H   0  0  0  0  0  0  0  0  0  0  0  0
  149.9930  139.4081  158.2449 H   0  0  0  0  0  0  0  0  0  0  0  0
  148.2085  139.0565  158.5175 H   0  0  0  0  0  0  0  0  0  0  0  0
  148.7502  136.6331  158.9060 H   0  0  0  0  0  0  0  0  0  0  0  0
  150.5328  137.0000  158.6387 H   0  0  0  0  0  0  0  0  0  0  0  0
  149.8353  142.9245  156.1072 H   0  0  0  0  0  0  0  0  0  0  0  0
  1  2  1  0  0  0  0
  1 21  1  0  0  0  0
  1 22  1  0  0  0  0
  1 23  1  0  0  0  0
  2  8  1  0  0  0  0
  2  3  2  0  0  0  0
  3  4  1  0  0  0  0
  3 24  1  0  0  0  0
  4  5  1  0  0  0  0
  4 25  1  0  0  0  0
  4 26  1  0  0  0  0
  5  6  1  0  0  0  0
  5 27  1  0  0  0  0
  5 28  1  0  0  0  0
  6  7  1  0  0  0  0
  6  8  1  0  0  0  0
  6 29  1  0  0  0  0
  7 30  1  0  0  0  0
  7 31  1  0  0  0  0
  7 32  1  0  0  0  0
  8  9  1  0  0  0  0
  8 33  1  0  0  0  0
  9 10  1  0  0  0  0
  9 34  1  0  0  0  0
  9 35  1  0  0  0  0
 10 11  1  0  0  0  0
 10 36  1  0  0  0  0
 10 47  1  0  0  0  0
 11 12  1  0  0  0  0
 11 37  1  0  0  0  0
 11 38  1  0  0  0  0
 12 13  1  0  0  0  0
 12 39  1  0  0  0  0
 12 40  1  0  0  0  0
 13 17  1  0  0  0  0
 13 14  1  0  0  0  0
 14 15  2  0  0  0  0
 14 41  1  0  0  0  0
 15 16  1  0  0  0  0
 16 17  2  0  0  0  0
 17 18  1  0  0  0  0
 18 20  1  0  0  0  0
 18 19  1  0  0  0  0
 18 42  1  0  0  0  0
 19 20  1  0  0  0  0
 19 43  1  0  0  0  0
 19 44  1  0  0  0  0
 20 45  1  0  0  0  0
 20 46  1  0  0  0  0
M  CHG  1  10   1
M  END
> <s_m_source_file>
AV-unprocessed.smi

> <i_m_source_file_index>
2780

> <i_lp_mmshare_version>
43012

> <i_f3d_flags>
0

> <s_epik_input>
W0NIM11DMT1bQ0hdW0NIMl1bQ0gyXVtDQEBIXShbQ0gzXSlbQ0BIXTFbQ0gyXVtOSF1bQ0gyXVtDSDJdbjJbY0hdbm5jMltDSF0zW0NIMl1bQ0gyXTM=

> <s_epik_cmdline>
J2VwaWtfcHl0aG9uJywgJy1waCcsICc3LjAnLCAnLXRuJywgJzgnLCAnLW1hJywgJzIwMCcsICctbWV0YWxfYmluZGluZycsICctaW1hZScsICc8aW5maWxlLm1hZT4nLCAnLW9tYWUnLCAnPG91dGZpbGUubWFlPic=

> <r_lp_tautomer_probability>
1

> <r_epik_Ionization_Penalty>
0.00176214

> <r_epik_Ionization_Penalty_Charging>
0.00175191

> <r_epik_Ionization_Penalty_Neutral>
1.02377e-05

> <r_epik_State_Penalty>
-0

> <r_epik_Charging_Adjusted_Penalty>
0.00175191

> <i_epik_Tot_Q>
1

> <i_epik_Tot_abs_Q>
1

> <r_epik_Metal_State_Penalty>
-0

> <b_epik_Metal_Only>
0

> <s_lp_Force_Field>
OPLS_2005

> <r_lp_Energy>
22.2191

> <b_lp_Chiralities_Consistent>
1

> <s_lp_Variant>
AV-unprocessed.smi:2780-2

> <Gold.Version>
5.8.1

> <Gold.Id.Protein>
6NUR|6NUR_protein|mol2

> <Gold.PLP.Fitness>
49.3318

> <Gold.PLP.PLP>
-41.6045

> <Gold.PLP.part.hbond>
-2.0000

> <Gold.PLP.part.metal>
0.0000

> <Gold.PLP.part.buried>
-6.9643

> <Gold.PLP.part.nonpolar>
-32.4676

> <Gold.PLP.part.repulsive>
0.2970

> <Gold.PLP.ligand.clash>
0.0075

> <Gold.PLP.ligand.torsion>
0.9028

> <Gold.PLP.Chemscore.Hbond>
3.0000

> <Gold.PLP.Chemscore.CHOScore>
0.0000

> <Gold.PLP.Chemscore.Metal>
0.0000

> <Gold.Chemscore.Hbonds>
donor molecule, donor type, donor heavy atom, donor atom, acceptor molecule, acceptor atom, score
      L1  H    10    47       P1  8028  1.76
      P1  H 10752 10765       L1    15  0.94

> <Gold.PLP.Chemscore.Internal.Correction>
0.5404

> <Gold.Rescore>
     Score         DG    S(hbond)    S(metal)    S(lipo)     H(rot)  DE(clash)    DE(int)     intcor
     17.36     -18.67       1.67        0.00     108.25       1.98       0.30       1.01       ----

> <Gold.Chemscore.Fitness>
17.3608

> <Gold.Chemscore.DG>
-18.6685

> <Gold.Chemscore.ZeroCoef>
-5.4800

> <Gold.Chemscore.Hbond>
1.6743

> <Gold.Chemscore.Metal>
0.0000

> <Gold.Chemscore.Lipo>
108.2465

> <Gold.Chemscore.Internal_Hbond>
0.0000

> <Gold.Chemscore.DEClash>
0.2978

> <Gold.Chemscore.DEInternal>
1.0099

> <Gold.Chemscore.Rot>
1.9799

> <Gold.Chemscore.Internal.Correction>
   9.000000E+99

> <Gold.Chemscore.Hbonds>
donor molecule, donor type, donor heavy atom, donor atom, acceptor molecule, acceptor atom, score
      L1  H    10    47       P1  8028  0.82
      P1  H 10752 10765       L1    15  0.40

> <Gold.Chemscore.Hbond.Weighted>
-5.5922

> <Gold.Chemscore.Metal.Weighted>
-0.0000

> <Gold.Chemscore.Lipo.Weighted>
-12.6648

> <Gold.Chemscore.Internal_Hbond.Weighted>
0.0000

> <Gold.Chemscore.DEClash.Weighted>
0.2978

> <Gold.Chemscore.DEInternal.Weighted>
1.0099

> <Gold.Chemscore.Rot.Weighted>
5.0685

> <Gold.Chemscore.Internal.Correction.Weighted>
   9.000000E+99

> <Gold.Protein.RotatedTorsions>
[ 6907 6896 6895 6894 ] final -120.45 input  -60.11 | X-H torsion
[ 7974 7965 7964 7962 ] final   64.60 input  175.53 | X-H torsion
[ 8008 7997 7996 7995 ] final -160.13 input   59.86 | X-H torsion
[ 10167 10162 10161 10158 ] final   35.34 input  -65.29 | X-H torsion
[ 10718 10713 10712 10709 ] final   40.47 input   66.30 | X-H torsion
[ 10763 10752 10751 10750 ] final  156.90 input  -60.55 | X-H torsion
[ 11005 11000 10999 10996 ] final -148.95 input  -57.11 | X-H torsion

> <Gold.Protein.ActiveResidues>
 VAL166  LYS551  ARG553  GLY616  TRP617  ASP618  TYR619  PRO620  LYS621  CYS622 
 ASP623  PHE694  ASN695  SER759  ASP760  ASP761  ALA762  ILE779  LEU786  VAL792 
 PHE793  MET794  SER795  GLU796  ALA797  LYS798  CYS799  TRP800  GLU811  SER814 

> <Gold.Protein.RotatedAtoms>
  150.8394  133.7960  159.3066 H   0  0  0  0  0  0  0  0  0  0  0  0  # atno 6907 bound_to 6896
  151.5666  135.1062  159.9995 H   0  0  0  0  0  0  0  0  0  0  0  0  # atno 6908 bound_to 6896
  152.4461  133.7496  159.6743 H   0  0  0  0  0  0  0  0  0  0  0  0  # atno 6909 bound_to 6896
  145.8482  139.3238  143.0891 H   0  0  0  0  0  0  0  0  0  0  0  0  # atno 7974 bound_to 7965
  155.7729  140.0854  157.2098 H   0  0  0  0  0  0  0  0  0  0  0  0  # atno 8008 bound_to 7997
  154.3995  140.1522  156.3020 H   0  0  0  0  0  0  0  0  0  0  0  0  # atno 8009 bound_to 7997
  155.8729  140.3424  155.5836 H   0  0  0  0  0  0  0  0  0  0  0  0  # atno 8010 bound_to 7997
  140.4230  144.1432  150.6150 H   0  0  0  0  0  0  0  0  0  0  0  0  # atno 10167 bound_to 10162
  157.3825  130.7761  149.7204 H   0  0  0  0  0  0  0  0  0  0  0  0  # atno 10718 bound_to 10713
  154.1917  135.2794  155.3019 H   0  0  0  0  0  0  0  0  0  0  0  0  # atno 10763 bound_to 10752
  154.5923  135.5556  153.7294 H   0  0  0  0  0  0  0  0  0  0  0  0  # atno 10764 bound_to 10752
  153.0110  135.6371  154.2056 H   0  0  0  0  0  0  0  0  0  0  0  0  # atno 10765 bound_to 10752
  140.7559  134.3354  157.5114 H   0  0  0  0  0  0  0  0  0  0  0  0  # atno 11005 bound_to 11000
  145.9387  140.8995  143.0319 LP  0  0  0  0  0  0  0  0  0  0  0  0  # atno 17320 bound_to 7965
  144.6730  140.1519  143.7429 LP  0  0  0  0  0  0  0  0  0  0  0  0  # atno 17321 bound_to 7965
  140.4512  143.2486  151.9345 LP  0  0  0  0  0  0  0  0  0  0  0  0  # atno 17342 bound_to 10162
  139.4783  144.5560  151.8313 LP  0  0  0  0  0  0  0  0  0  0  0  0  # atno 17343 bound_to 10162
  155.9779  130.4057  150.3682 LP  0  0  0  0  0  0  0  0  0  0  0  0  # atno 17370 bound_to 10713
  157.1788  131.0387  151.2759 LP  0  0  0  0  0  0  0  0  0  0  0  0  # atno 17371 bound_to 10713
  139.8779  134.9171  156.3171 LP  0  0  0  0  0  0  0  0  0  0  0  0  # atno 17394 bound_to 11000
  140.9708  133.7328  156.0532 LP  0  0  0  0  0  0  0  0  0  0  0  0  # atno 17395 bound_to 11000

$$$$
