#       Name:                AV-unprocessed.smi:1260
#       Creating user name   scv26
#       Creation time:       Fri Mar 27 04:41:42 2020


#       File generated by GOLD software.
#

@<TRIPOS>MOLECULE
AV-unprocessed.smi:1260
    42    44     1
SMALL
NO_CHARGES


@<TRIPOS>ATOM
      1 ****        -0.3931   3.2349  -0.7500 O.2            1 S1                 0.0000
      2 ****         0.5503   2.4831  -0.9911 C.2            1 S1                 0.0000
      3 ****         1.9870   2.9910  -0.8572 C.3            1 S1                 0.0000
      4 ****         2.7008   2.2624   0.1769 N.pl3          1 S1                 0.0000
      5 ****         3.6360   1.3141   0.0938 C.2            1 S1                 0.0000
      6 ****         4.0033   0.8833   1.2909 N.2            1 S1                 0.0000
      7 ****         3.2293   1.6442   2.1510 N.2            1 S1                 0.0000
      8 ****         2.4569   2.4667   1.4962 N.2            1 S1                 0.0000
      9 ****         0.3997   1.1957  -1.3427 N.am           1 S1                 0.0000
     10 ****        -0.8693   0.4726  -1.3758 C.3            1 S1                 0.0000
     11 ****        -0.8916  -0.6599  -2.4202 C.3            1 S1                 0.0000
     12 ****        -1.6061  -1.8199  -1.7182 C.3            1 S1                 0.0000
     13 ****        -1.1994  -1.6554  -0.3179 N.4            1 S1                 1.0000
     14 ****        -1.8852  -2.4542   0.7178 C.3            1 S1                 0.0000
     15 ****        -1.1517  -2.2433   2.0600 C.3            1 S1                 0.0000
     16 ****        -0.9896  -0.7464   2.4103 C.3            1 S1                 0.0000
     17 ****        -0.3894   0.0568   1.2364 C.3            1 S1                 0.0000
     18 ****        -1.2217  -0.2107  -0.0320 C.3            1 S1                 0.0000
     19 ****         2.5117   2.8724  -1.8061 H              1 S1                 0.0000
     20 ****         1.9934   4.0538  -0.6107 H              1 S1                 0.0000
     21 ****         4.0350   0.9337  -0.8350 H              1 S1                 0.0000
     22 ****         1.2335   0.6599  -1.5359 H              1 S1                 0.0000
     23 ****        -1.6710   1.1707  -1.6256 H              1 S1                 0.0000
     24 ****        -1.3851  -0.3668  -3.3475 H              1 S1                 0.0000
     25 ****         0.1257  -0.9644  -2.6719 H              1 S1                 0.0000
     26 ****        -2.6889  -1.7135  -1.8029 H              1 S1                 0.0000
     27 ****        -1.3200  -2.7943  -2.1151 H              1 S1                 0.0000
     28 ****        -2.9316  -2.1542   0.7935 H              1 S1                 0.0000
     29 ****        -1.8687  -3.5090   0.4416 H              1 S1                 0.0000
     30 ****        -1.6818  -2.7591   2.8613 H              1 S1                 0.0000
     31 ****        -0.1639  -2.7027   2.0027 H              1 S1                 0.0000
     32 ****        -1.9653  -0.3314   2.6669 H              1 S1                 0.0000
     33 ****        -0.3661  -0.6344   3.2979 H              1 S1                 0.0000
     34 ****        -0.3913   1.1193   1.4812 H              1 S1                 0.0000
     35 ****         0.6512  -0.2317   1.0798 H              1 S1                 0.0000
     36 ****        -2.2560   0.0639   0.1861 H              1 S1                 0.0000
     37 ****        -0.2275  -1.9288  -0.2894 H              1 S1                 0.0000
     38 ****        -0.2208   4.1783  -0.4664 LP             1 S1                 0.0000
     39 ****        -1.3322   2.9027  -0.8376 LP             1 S1                 0.0000
     40 ****         4.6762   0.1795   1.5186 LP             1 S1                 0.0000
     41 ****         3.2588   1.5723   3.1480 LP             1 S1                 0.0000
     42 ****         1.8108   3.1206   1.8899 LP             1 S1                 0.0000
@<TRIPOS>BOND
    1    1    2 2     
    2    2    3 1     
    3    2    9 am    
    4    3    4 1     
    5    3   19 1     
    6    3   20 1     
    7    4    8 1     
    8    4    5 1     
    9    5    6 2     
   10    5   21 1     
   11    6    7 1     
   12    7    8 2     
   13    9   10 1     
   14    9   22 1     
   15   10   18 1     
   16   10   11 1     
   17   10   23 1     
   18   11   12 1     
   19   11   24 1     
   20   11   25 1     
   21   12   13 1     
   22   12   26 1     
   23   12   27 1     
   24   13   18 1     
   25   13   14 1     
   26   13   37 1     
   27   14   15 1     
   28   14   28 1     
   29   14   29 1     
   30   15   16 1     
   31   15   30 1     
   32   15   31 1     
   33   16   17 1     
   34   16   32 1     
   35   16   33 1     
   36   17   18 1     
   37   17   34 1     
   38   17   35 1     
   39   18   36 1     
   40    1   38 1     
   41    1   39 1     
   42    6   40 1     
   43    7   41 1     
   44    8   42 1     
@<TRIPOS>SUBSTRUCTURE
      1 S1             1
@<TRIPOS>SET
LONE_PAIRS      STATIC     ATOMS    <user>   **** ""
5 38 39 40 41 42
DONOR_HYDROGENS      STATIC     ATOMS    <user>   **** ""
2 22 37
ATOM$BLUE        STATIC     ATOMS    COLORGROUP SYSTEM
5 38 39 40 41 42
ATOM$RED        STATIC     ATOMS    COLORGROUP SYSTEM
2 22 37
