#       Name:                AV-unprocessed.smi:389
#       Creating user name   scv26
#       Creation time:       Thu Mar 26 22:41:49 2020


#       File generated by GOLD software.
#

@<TRIPOS>MOLECULE
AV-unprocessed.smi:389
    40    40     1
SMALL
NO_CHARGES


@<TRIPOS>ATOM
      1 ****        -1.4359   3.8463   2.2470 C.3            1 S1                 0.0000
      2 ****        -1.8217   3.0192   1.0090 C.3            1 S1                 0.0000
      3 ****        -3.3482   2.9968   0.8356 C.3            1 S1                 0.0000
      4 ****        -1.2564   1.5851   1.0577 C.3            1 S1                 0.0000
      5 ****         0.2791   1.5133   0.9545 C.3            1 S1                 0.0000
      6 ****         0.7558   0.1354   0.9616 N.am           1 S1                 0.0000
      7 ****         0.7453  -0.6901  -0.0959 C.2            1 S1                 0.0000
      8 ****         0.3041  -0.3652  -1.1994 O.2            1 S1                 0.0000
      9 ****         1.2933  -2.1029   0.1497 C.3            1 S1                 0.0000
     10 ****         1.7352  -2.7763  -1.0822 N.am           1 S1                 0.0000
     11 ****         0.8287  -3.6486  -1.7102 C.2            1 S1                 0.0000
     12 ****         1.1429  -4.3046  -2.8434 C.2            1 S1                 0.0000
     13 ****         2.4646  -4.0918  -3.4202 C.2            1 S1                 0.0000
     14 ****         2.7707  -4.6866  -4.4518 O.2            1 S1                 0.0000
     15 ****         3.3068  -3.2312  -2.7767 N.pl3          1 S1                -1.0000
     16 ****         2.9720  -2.5677  -1.6265 C.2            1 S1                 0.0000
     17 ****         3.7457  -1.7917  -1.0643 O.2            1 S1                 0.0000
     18 ****        -1.7897   3.3742   3.1641 H              1 S1                 0.0000
     19 ****        -1.8698   4.8456   2.2011 H              1 S1                 0.0000
     20 ****        -0.3566   3.9711   2.3293 H              1 S1                 0.0000
     21 ****        -1.4061   3.5154   0.1310 H              1 S1                 0.0000
     22 ****        -3.8369   2.5129   1.6819 H              1 S1                 0.0000
     23 ****        -3.6348   2.4570  -0.0674 H              1 S1                 0.0000
     24 ****        -3.7495   4.0072   0.7527 H              1 S1                 0.0000
     25 ****        -1.5884   1.0890   1.9709 H              1 S1                 0.0000
     26 ****        -1.6869   1.0143   0.2338 H              1 S1                 0.0000
     27 ****         0.6284   2.0231   0.0549 H              1 S1                 0.0000
     28 ****         0.7417   2.0210   1.8002 H              1 S1                 0.0000
     29 ****         1.1344  -0.2132   1.8304 H              1 S1                 0.0000
     30 ****         2.1141  -2.0565   0.8680 H              1 S1                 0.0000
     31 ****         0.5155  -2.6880   0.6421 H              1 S1                 0.0000
     32 ****        -0.1303  -3.7438  -1.2225 H              1 S1                 0.0000
     33 ****         0.4334  -4.9681  -3.3156 H              1 S1                 0.0000
     34 ****        -0.0693   0.5520  -1.3383 LP             1 S1                 0.0000
     35 ****         0.3193  -1.0187  -1.9561 LP             1 S1                 0.0000
     36 ****         2.1163  -5.3069  -4.8842 LP             1 S1                 0.0000
     37 ****         3.6740  -4.5501  -4.8584 LP             1 S1                 0.0000
     38 ****         4.2152  -3.0774  -3.1654 LP             1 S1                 0.0000
     39 ****         3.4651  -1.3268  -0.2245 LP             1 S1                 0.0000
     40 ****         4.6544  -1.6265  -1.4476 LP             1 S1                 0.0000
@<TRIPOS>BOND
    1    1    2 1     
    2    1   18 1     
    3    1   19 1     
    4    1   20 1     
    5    2    3 1     
    6    2    4 1     
    7    2   21 1     
    8    3   22 1     
    9    3   23 1     
   10    3   24 1     
   11    4    5 1     
   12    4   25 1     
   13    4   26 1     
   14    5    6 1     
   15    5   27 1     
   16    5   28 1     
   17    6    7 am    
   18    6   29 1     
   19    7    8 2     
   20    7    9 1     
   21    9   10 1     
   22    9   30 1     
   23    9   31 1     
   24   10   16 am    
   25   10   11 1     
   26   11   12 2     
   27   11   32 1     
   28   12   13 1     
   29   12   33 1     
   30   13   14 2     
   31   13   15 1     
   32   15   16 1     
   33   16   17 2     
   34    8   34 1     
   35    8   35 1     
   36   14   36 1     
   37   14   37 1     
   38   15   38 1     
   39   17   39 1     
   40   17   40 1     
@<TRIPOS>SUBSTRUCTURE
      1 S1             1
@<TRIPOS>SET
LONE_PAIRS      STATIC     ATOMS    <user>   **** ""
7 34 35 36 37 38 39 40
DONOR_HYDROGENS      STATIC     ATOMS    <user>   **** ""
1 29
ATOM$BLUE        STATIC     ATOMS    COLORGROUP SYSTEM
7 34 35 36 37 38 39 40
ATOM$RED        STATIC     ATOMS    COLORGROUP SYSTEM
1 29
