AV-unprocessed.smi:1803|AV-procd|sdf|7287|dock1
  -GOLD-   22720 8543D 1   1.00000     0.00000
 Structure written by MMmdl.
 35 37  0  0  0  0  0  0  0  0  3 V2000
  147.7307  135.0140  156.1013 O   0  0  0  0  0  0  0  0  0  0  0  0
  147.9955  135.6540  155.0846 C   0  0  0  0  0  0  0  0  0  0  0  0
  148.4191  136.9446  155.1027 N   0  5  0  0  0  0  0  0  0  0  0  0
  149.7107  137.2868  154.9403 C   0  0  0  0  0  0  0  0  0  0  0  0
  150.7189  136.4334  155.1821 N   0  0  0  0  0  0  0  0  0  0  0  0
  151.9701  136.9856  154.9443 N   0  0  0  0  0  0  0  0  0  0  0  0
  151.8737  138.2524  154.5414 C   0  0  0  0  0  0  0  0  0  0  0  0
  150.2455  138.8818  154.4043 S   0  0  0  0  0  0  0  0  0  0  0  0
  147.8635  135.0543  153.8867 N   0  0  0  0  0  0  0  0  0  0  0  0
  147.4123  133.6866  153.6617 C   0  0  2  0  0  0  0  0  0  0  0  0
  148.2525  132.6228  154.3859 C   0  0  0  0  0  0  0  0  0  0  0  0
  148.3759  131.4529  153.3903 C   0  0  0  0  0  0  0  0  0  0  0  0
  147.5496  131.8068  152.2131 N   0  3  1  0  0  0  0  0  0  0  0  0
  146.1982  131.1849  152.2700 C   0  0  0  0  0  0  0  0  0  0  0  0
  145.2626  131.7345  151.1851 C   0  0  0  0  0  0  0  0  0  0  0  0
  145.1326  133.2539  151.3190 C   0  0  0  0  0  0  0  0  0  0  0  0
  146.5193  133.8974  151.2114 C   0  0  0  0  0  0  0  0  0  0  0  0
  147.5487  133.2891  152.1901 C   0  0  1  0  0  0  0  0  0  0  0  0
  152.7663  138.8188  154.3216 H   0  0  0  0  0  0  0  0  0  0  0  0
  148.0953  135.5992  153.0689 H   0  0  0  0  0  0  0  0  0  0  0  0
  146.3693  133.5924  153.9685 H   0  0  0  0  0  0  0  0  0  0  0  0
  149.2443  132.9998  154.6407 H   0  0  0  0  0  0  0  0  0  0  0  0
  147.7714  132.3149  155.3149 H   0  0  0  0  0  0  0  0  0  0  0  0
  149.4125  131.3604  153.0641 H   0  0  0  0  0  0  0  0  0  0  0  0
  148.0903  130.4968  153.8312 H   0  0  0  0  0  0  0  0  0  0  0  0
  146.3002  130.1049  152.1581 H   0  0  0  0  0  0  0  0  0  0  0  0
  145.7516  131.3548  153.2511 H   0  0  0  0  0  0  0  0  0  0  0  0
  145.6450  131.4770  150.1963 H   0  0  0  0  0  0  0  0  0  0  0  0
  144.2805  131.2689  151.2710 H   0  0  0  0  0  0  0  0  0  0  0  0
  144.4765  133.6464  150.5417 H   0  0  0  0  0  0  0  0  0  0  0  0
  144.6710  133.5085  152.2737 H   0  0  0  0  0  0  0  0  0  0  0  0
  146.8850  133.7621  150.1927 H   0  0  0  0  0  0  0  0  0  0  0  0
  146.4470  134.9749  151.3627 H   0  0  0  0  0  0  0  0  0  0  0  0
  148.5415  133.5952  151.8532 H   0  0  0  0  0  0  0  0  0  0  0  0
  148.0003  131.4709  151.3743 H   0  0  0  0  0  0  0  0  0  0  0  0
  1  2  2  0  0  0  0
  2  3  1  0  0  0  0
  2  9  1  0  0  0  0
  3  4  1  0  0  0  0
  4  8  1  0  0  0  0
  4  5  2  0  0  0  0
  5  6  1  0  0  0  0
  6  7  2  0  0  0  0
  7  8  1  0  0  0  0
  7 19  1  0  0  0  0
  9 10  1  0  0  0  0
  9 20  1  0  0  0  0
 10 18  1  0  0  0  0
 10 11  1  0  0  0  0
 10 21  1  0  0  0  0
 11 12  1  0  0  0  0
 11 22  1  0  0  0  0
 11 23  1  0  0  0  0
 12 13  1  0  0  0  0
 12 24  1  0  0  0  0
 12 25  1  0  0  0  0
 13 18  1  0  0  0  0
 13 14  1  0  0  0  0
 13 35  1  0  0  0  0
 14 15  1  0  0  0  0
 14 26  1  0  0  0  0
 14 27  1  0  0  0  0
 15 16  1  0  0  0  0
 15 28  1  0  0  0  0
 15 29  1  0  0  0  0
 16 17  1  0  0  0  0
 16 30  1  0  0  0  0
 16 31  1  0  0  0  0
 17 18  1  0  0  0  0
 17 32  1  0  0  0  0
 17 33  1  0  0  0  0
 18 34  1  0  0  0  0
M  CHG  1   3  -1
M  CHG  1  13   1
M  END
> <s_m_source_file>
AV-unprocessed.smi

> <i_m_source_file_index>
1803

> <i_lp_mmshare_version>
43012

> <i_f3d_flags>
0

> <s_epik_input>
czFbY0hdbm5jMVtOSF1DKD1PKVtOSF1bQ0BIXShbQ0gyXVtDSDJdMilbQ0BASF0oTjIzKVtDSDJdW0NIMl1bQ0gyXVtDSDJdMw==

> <s_epik_cmdline>
J2VwaWtfcHl0aG9uJywgJy1waCcsICc3LjAnLCAnLXRuJywgJzgnLCAnLW1hJywgJzIwMCcsICctbWV0YWxfYmluZGluZycsICctaW1hZScsICc8aW5maWxlLm1hZT4nLCAnLW9tYWUnLCAnPG91dGZpbGUubWFlPic=

> <r_lp_tautomer_probability>
1

> <r_epik_Ionization_Penalty>
3.78828

> <r_epik_Ionization_Penalty_Charging>
3.7591

> <r_epik_Ionization_Penalty_Neutral>
0.0291838

> <r_epik_State_Penalty>
3.757

> <r_epik_Charging_Adjusted_Penalty>
7.51609

> <i_epik_Tot_Q>
0

> <i_epik_Tot_abs_Q>
2

> <r_epik_Metal_State_Penalty>
0.558016

> <b_epik_Metal_Only>
1

> <s_lp_Force_Field>
OPLS_2005

> <r_lp_Energy>
31.4386

> <b_lp_Chiralities_Consistent>
1

> <s_lp_Variant>
AV-unprocessed.smi:1803-9

> <Gold.Version>
5.8.1

> <Gold.Id.Protein>
6NUR|6NUR_protein|mol2

> <Gold.PLP.Fitness>
34.7565

> <Gold.PLP.PLP>
-27.4604

> <Gold.PLP.part.hbond>
-3.0000

> <Gold.PLP.part.metal>
0.0000

> <Gold.PLP.part.buried>
-4.2493

> <Gold.PLP.part.nonpolar>
-21.0286

> <Gold.PLP.part.repulsive>
0.3672

> <Gold.PLP.ligand.clash>
0.0000

> <Gold.PLP.ligand.torsion>
0.8554

> <Gold.PLP.Chemscore.Hbond>
2.9920

> <Gold.PLP.Chemscore.CHOScore>
0.0000

> <Gold.PLP.Chemscore.Metal>
0.0000

> <Gold.Chemscore.Hbonds>
donor molecule, donor type, donor heavy atom, donor atom, acceptor molecule, acceptor atom, score
      L1  H     9    20       P1  7948  1.00
      L1  H    13    35       P1 10747  1.00
      P1  H 10752 10764       L1     6  0.99

> <Gold.PLP.Chemscore.Internal.Correction>
0.0309

> <Gold.Rescore>
     Score         DG    S(hbond)    S(metal)    S(lipo)     H(rot)  DE(clash)    DE(int)     intcor
     19.22     -20.05       2.90        0.00      63.71       1.00       0.00       0.83       ----

> <Gold.Chemscore.Fitness>
19.2174

> <Gold.Chemscore.DG>
-20.0471

> <Gold.Chemscore.ZeroCoef>
-5.4800

> <Gold.Chemscore.Hbond>
2.8960

> <Gold.Chemscore.Metal>
0.0000

> <Gold.Chemscore.Lipo>
63.7141

> <Gold.Chemscore.Internal_Hbond>
0.0000

> <Gold.Chemscore.DEClash>
0.0015

> <Gold.Chemscore.DEInternal>
0.8283

> <Gold.Chemscore.Rot>
1.0000

> <Gold.Chemscore.Internal.Correction>
   9.000000E+99

> <Gold.Chemscore.Hbonds>
donor molecule, donor type, donor heavy atom, donor atom, acceptor molecule, acceptor atom, score
      L1  H     9    20       P1  7948  0.98
      L1  H    13    35       P1 10747  0.98
      P1  H 10752 10764       L1     6  0.42

> <Gold.Chemscore.Hbond.Weighted>
-9.6726

> <Gold.Chemscore.Metal.Weighted>
-0.0000

> <Gold.Chemscore.Lipo.Weighted>
-7.4545

> <Gold.Chemscore.Internal_Hbond.Weighted>
0.0000

> <Gold.Chemscore.DEClash.Weighted>
0.0015

> <Gold.Chemscore.DEInternal.Weighted>
0.8283

> <Gold.Chemscore.Rot.Weighted>
2.5600

> <Gold.Chemscore.Internal.Correction.Weighted>
   9.000000E+99

> <Gold.Protein.RotatedTorsions>
[ 6907 6896 6895 6894 ] final  120.34 input  -60.11 | X-H torsion
[ 7974 7965 7964 7962 ] final -115.12 input  175.53 | X-H torsion
[ 8008 7997 7996 7995 ] final  153.99 input   59.86 | X-H torsion
[ 10167 10162 10161 10158 ] final  136.44 input  -65.29 | X-H torsion
[ 10718 10713 10712 10709 ] final  -77.17 input   66.30 | X-H torsion
[ 10763 10752 10751 10750 ] final  -67.25 input  -60.55 | X-H torsion
[ 11005 11000 10999 10996 ] final -119.15 input  -57.11 | X-H torsion

> <Gold.Protein.ActiveResidues>
 VAL166  LYS551  ARG553  GLY616  TRP617  ASP618  TYR619  PRO620  LYS621  CYS622 
 ASP623  PHE694  ASN695  SER759  ASP760  ASP761  ALA762  ILE779  LEU786  VAL792 
 PHE793  MET794  SER795  GLU796  ALA797  LYS798  CYS799  TRP800  GLU811  SER814 

> <Gold.Protein.RotatedAtoms>
  152.4405  133.7440  159.6656 H   0  0  0  0  0  0  0  0  0  0  0  0  # atno 6907 bound_to 6896
  150.8296  133.8104  159.3110 H   0  0  0  0  0  0  0  0  0  0  0  0  # atno 6908 bound_to 6896
  151.5762  135.1063  160.0058 H   0  0  0  0  0  0  0  0  0  0  0  0  # atno 6909 bound_to 6896
  145.1121  140.8618  143.3864 H   0  0  0  0  0  0  0  0  0  0  0  0  # atno 7974 bound_to 7965
  156.2554  140.1978  156.6577 H   0  0  0  0  0  0  0  0  0  0  0  0  # atno 8008 bound_to 7997
  154.6488  140.0574  156.9957 H   0  0  0  0  0  0  0  0  0  0  0  0  # atno 8009 bound_to 7997
  155.1449  140.3246  155.4446 H   0  0  0  0  0  0  0  0  0  0  0  0  # atno 8010 bound_to 7997
  139.5180  144.6464  151.5427 H   0  0  0  0  0  0  0  0  0  0  0  0  # atno 10167 bound_to 10162
  156.0153  130.4484  150.3304 H   0  0  0  0  0  0  0  0  0  0  0  0  # atno 10718 bound_to 10713
  154.3717  135.6094  153.5743 H   0  0  0  0  0  0  0  0  0  0  0  0  # atno 10763 bound_to 10752
  152.9790  135.5839  154.4514 H   0  0  0  0  0  0  0  0  0  0  0  0  # atno 10764 bound_to 10752
  154.4269  135.2847  155.1916 H   0  0  0  0  0  0  0  0  0  0  0  0  # atno 10765 bound_to 10752
  141.0236  134.0087  157.3247 H   0  0  0  0  0  0  0  0  0  0  0  0  # atno 11005 bound_to 11000
  145.0835  139.2942  143.5771 LP  0  0  0  0  0  0  0  0  0  0  0  0  # atno 17320 bound_to 7965
  146.3526  140.0349  142.8647 LP  0  0  0  0  0  0  0  0  0  0  0  0  # atno 17321 bound_to 7965
  140.6251  143.9185  150.6558 LP  0  0  0  0  0  0  0  0  0  0  0  0  # atno 17342 bound_to 10162
  140.2471  143.3621  152.1438 LP  0  0  0  0  0  0  0  0  0  0  0  0  # atno 17343 bound_to 10162
  157.1402  131.0294  151.2931 LP  0  0  0  0  0  0  0  0  0  0  0  0  # atno 17370 bound_to 10713
  157.4478  130.7581  149.7124 LP  0  0  0  0  0  0  0  0  0  0  0  0  # atno 17371 bound_to 10713
  139.9161  135.0197  156.7888 LP  0  0  0  0  0  0  0  0  0  0  0  0  # atno 17394 bound_to 11000
  140.6530  133.9714  155.7765 LP  0  0  0  0  0  0  0  0  0  0  0  0  # atno 17395 bound_to 11000

$$$$
