AV-unprocessed.smi:1131|AV-procd|sdf|4852|dock2
  -GOLD-   22720 3423D 1   1.00000     0.00000
 Structure written by MMmdl.
 32 33  0  0  0  0  0  0  0  0  2 V2000
  149.7331  142.1372  158.4115 O   0  0  0  0  0  0  0  0  0  0  0  0
  150.6065  142.6317  157.6978 C   0  0  0  0  0  0  0  0  0  0  0  0
  151.5614  143.6922  158.2593 C   0  0  0  0  0  0  0  0  0  0  0  0
  152.0555  143.3452  159.6008 N   0  0  0  0  0  0  0  0  0  0  0  0
  151.9502  144.3170  160.6114 C   0  0  0  0  0  0  0  0  0  0  0  0
  152.3789  144.0853  161.8668 C   0  0  0  0  0  0  0  0  0  0  0  0
  152.9658  142.7852  162.1672 C   0  0  0  0  0  0  0  0  0  0  0  0
  153.3590  142.5548  163.3090 O   0  0  0  0  0  0  0  0  0  0  0  0
  153.0498  141.8769  161.1515 N   0  5  0  0  0  0  0  0  0  0  0  0
  152.6111  142.1269  159.8789 C   0  0  0  0  0  0  0  0  0  0  0  0
  152.6980  141.2930  158.9764 O   0  0  0  0  0  0  0  0  0  0  0  0
  150.7984  142.2812  156.4177 N   0  0  0  0  0  0  0  0  0  0  0  0
  149.9775  141.3334  155.6731 C   0  0  0  0  0  0  0  0  0  0  0  0
  150.4937  139.8881  155.8159 C   0  0  2  0  0  0  0  0  0  0  0  0
  152.0005  139.7610  155.7294 C   0  0  0  0  0  0  0  0  0  0  0  0
  152.1624  138.2780  155.4203 C   0  0  0  0  0  0  0  0  0  0  0  0
  151.0741  137.9620  154.5603 O   0  0  0  0  0  0  0  0  0  0  0  0
  150.0342  138.9258  154.7149 C   0  0  0  0  0  0  0  0  0  0  0  0
  152.3906  143.8061  157.5601 H   0  0  0  0  0  0  0  0  0  0  0  0
  151.0709  144.6673  158.2846 H   0  0  0  0  0  0  0  0  0  0  0  0
  151.5097  145.2544  160.3050 H   0  0  0  0  0  0  0  0  0  0  0  0
  152.2930  144.8435  162.6313 H   0  0  0  0  0  0  0  0  0  0  0  0
  151.5430  142.7374  155.9107 H   0  0  0  0  0  0  0  0  0  0  0  0
  148.9571  141.4061  156.0504 H   0  0  0  0  0  0  0  0  0  0  0  0
  149.9394  141.6209  154.6212 H   0  0  0  0  0  0  0  0  0  0  0  0
  150.1779  139.4825  156.7788 H   0  0  0  0  0  0  0  0  0  0  0  0
  152.3908  140.3596  154.9048 H   0  0  0  0  0  0  0  0  0  0  0  0
  152.5100  140.0626  156.6451 H   0  0  0  0  0  0  0  0  0  0  0  0
  153.1212  138.0458  154.9564 H   0  0  0  0  0  0  0  0  0  0  0  0
  152.0725  137.6871  156.3327 H   0  0  0  0  0  0  0  0  0  0  0  0
  149.0866  138.4464  154.9634 H   0  0  0  0  0  0  0  0  0  0  0  0
  149.9075  139.4464  153.7650 H   0  0  0  0  0  0  0  0  0  0  0  0
  1  2  2  0  0  0  0
  2  3  1  0  0  0  0
  2 12  1  0  0  0  0
  3  4  1  0  0  0  0
  3 19  1  0  0  0  0
  3 20  1  0  0  0  0
  4 10  1  0  0  0  0
  4  5  1  0  0  0  0
  5  6  2  0  0  0  0
  5 21  1  0  0  0  0
  6  7  1  0  0  0  0
  6 22  1  0  0  0  0
  7  8  2  0  0  0  0
  7  9  1  0  0  0  0
  9 10  1  0  0  0  0
 10 11  2  0  0  0  0
 12 13  1  0  0  0  0
 12 23  1  0  0  0  0
 13 14  1  0  0  0  0
 13 24  1  0  0  0  0
 13 25  1  0  0  0  0
 14 18  1  0  0  0  0
 14 15  1  0  0  0  0
 14 26  1  0  0  0  0
 15 16  1  0  0  0  0
 15 27  1  0  0  0  0
 15 28  1  0  0  0  0
 16 17  1  0  0  0  0
 16 29  1  0  0  0  0
 16 30  1  0  0  0  0
 17 18  1  0  0  0  0
 18 31  1  0  0  0  0
 18 32  1  0  0  0  0
M  CHG  1   9  -1
M  END
> <s_m_source_file>
AV-unprocessed.smi

> <i_m_source_file_index>
1131

> <i_lp_mmshare_version>
43012

> <i_f3d_flags>
0

> <s_epik_input>
W0NIMl0xT1tDSDJdW0NIMl1bQ0BIXTFbQ0gyXVtOSF1DKD1PKVtDSDJdbjJbY0hdW2NIXWMoPU8pW25IXWMyPU8=

> <s_epik_cmdline>
J2VwaWtfcHl0aG9uJywgJy1waCcsICc3LjAnLCAnLXRuJywgJzgnLCAnLW1hJywgJzIwMCcsICctbWV0YWxfYmluZGluZycsICctaW1hZScsICc8aW5maWxlLm1hZT4nLCAnLW9tYWUnLCAnPG91dGZpbGUubWFlPic=

> <r_lp_tautomer_probability>
0.999537

> <r_epik_Ionization_Penalty>
3.07866

> <r_epik_Ionization_Penalty_Charging>
2.6898e-08

> <r_epik_Ionization_Penalty_Neutral>
3.07866

> <r_epik_State_Penalty>
3.07769

> <r_epik_Charging_Adjusted_Penalty>
3.07769

> <i_epik_Tot_Q>
-1

> <i_epik_Tot_abs_Q>
1

> <r_epik_Metal_State_Penalty>
0.459839

> <b_epik_Metal_Only>
1

> <s_lp_Force_Field>
OPLS_2005

> <r_lp_Energy>
26.4243

> <b_lp_Chiralities_Consistent>
1

> <s_lp_Variant>
AV-unprocessed.smi:1131-3

> <Gold.Version>
5.8.1

> <Gold.Id.Protein>
6NUR|6NUR_protein|mol2

> <Gold.PLP.Fitness>
39.7920

> <Gold.PLP.PLP>
-41.0765

> <Gold.PLP.part.hbond>
-0.5493

> <Gold.PLP.part.metal>
0.0000

> <Gold.PLP.part.buried>
-5.8718

> <Gold.PLP.part.nonpolar>
-33.9669

> <Gold.PLP.part.repulsive>
0.4505

> <Gold.PLP.ligand.clash>
0.0000

> <Gold.PLP.ligand.torsion>
0.6496

> <Gold.PLP.Chemscore.Hbond>
0.0000

> <Gold.PLP.Chemscore.CHOScore>
0.0000

> <Gold.PLP.Chemscore.Metal>
0.0000

> <Gold.PLP.Chemscore.Internal.Correction>
0.0146

> <Gold.Rescore>
     Score         DG    S(hbond)    S(metal)    S(lipo)     H(rot)  DE(clash)    DE(int)     intcor
      7.04      -8.82       0.00        0.00      73.33       2.05       0.08       1.70       ----

> <Gold.Chemscore.Fitness>
7.0393

> <Gold.Chemscore.DG>
-8.8205

> <Gold.Chemscore.ZeroCoef>
-5.4800

> <Gold.Chemscore.Hbond>
0.0000

> <Gold.Chemscore.Metal>
0.0000

> <Gold.Chemscore.Lipo>
73.3256

> <Gold.Chemscore.Internal_Hbond>
0.0000

> <Gold.Chemscore.DEClash>
0.0803

> <Gold.Chemscore.DEInternal>
1.7010

> <Gold.Chemscore.Rot>
2.0463

> <Gold.Chemscore.Internal.Correction>
   9.000000E+99

> <Gold.Chemscore.Hbond.Weighted>
-0.0000

> <Gold.Chemscore.Metal.Weighted>
-0.0000

> <Gold.Chemscore.Lipo.Weighted>
-8.5791

> <Gold.Chemscore.Internal_Hbond.Weighted>
0.0000

> <Gold.Chemscore.DEClash.Weighted>
0.0803

> <Gold.Chemscore.DEInternal.Weighted>
1.7010

> <Gold.Chemscore.Rot.Weighted>
5.2386

> <Gold.Chemscore.Internal.Correction.Weighted>
   9.000000E+99

> <Gold.Protein.RotatedTorsions>
[ 6907 6896 6895 6894 ] final   50.96 input  -60.11 | X-H torsion
[ 7974 7965 7964 7962 ] final  -22.60 input  175.53 | X-H torsion
[ 8008 7997 7996 7995 ] final  -86.84 input   59.86 | X-H torsion
[ 10167 10162 10161 10158 ] final   33.05 input  -65.29 | X-H torsion
[ 10718 10713 10712 10709 ] final    9.60 input   66.30 | X-H torsion
[ 10763 10752 10751 10750 ] final   65.54 input  -60.55 | X-H torsion
[ 11005 11000 10999 10996 ] final -148.67 input  -57.11 | X-H torsion

> <Gold.Protein.ActiveResidues>
 VAL166  LYS551  ARG553  GLY616  TRP617  ASP618  TYR619  PRO620  LYS621  CYS622 
 ASP623  PHE694  ASN695  SER759  ASP760  ASP761  ALA762  ILE779  LEU786  VAL792 
 PHE793  MET794  SER795  GLU796  ALA797  LYS798  CYS799  TRP800  GLU811  SER814 

> <Gold.Protein.RotatedAtoms>
  152.3075  134.7538  160.0343 H   0  0  0  0  0  0  0  0  0  0  0  0  # atno 6907 bound_to 6896
  151.8030  133.3367  159.3541 H   0  0  0  0  0  0  0  0  0  0  0  0  # atno 6908 bound_to 6896
  150.7303  134.5666  159.5913 H   0  0  0  0  0  0  0  0  0  0  0  0  # atno 6909 bound_to 6896
  146.1666  140.4502  142.8549 H   0  0  0  0  0  0  0  0  0  0  0  0  # atno 7974 bound_to 7965
  154.6565  140.0573  157.0014 H   0  0  0  0  0  0  0  0  0  0  0  0  # atno 8008 bound_to 7997
  155.1293  140.3255  155.4459 H   0  0  0  0  0  0  0  0  0  0  0  0  # atno 8009 bound_to 7997
  156.2599  140.1983  156.6412 H   0  0  0  0  0  0  0  0  0  0  0  0  # atno 8010 bound_to 7997
  140.4443  144.1142  150.6179 H   0  0  0  0  0  0  0  0  0  0  0  0  # atno 10167 bound_to 10162
  156.9687  130.5961  149.5667 H   0  0  0  0  0  0  0  0  0  0  0  0  # atno 10718 bound_to 10713
  153.0101  135.5353  154.6684 H   0  0  0  0  0  0  0  0  0  0  0  0  # atno 10763 bound_to 10752
  154.5875  135.2855  155.0672 H   0  0  0  0  0  0  0  0  0  0  0  0  # atno 10764 bound_to 10752
  154.1778  135.6521  153.5078 H   0  0  0  0  0  0  0  0  0  0  0  0  # atno 10765 bound_to 10752
  140.7588  134.3322  157.5107 H   0  0  0  0  0  0  0  0  0  0  0  0  # atno 11005 bound_to 11000
  144.8101  140.6370  143.6421 LP  0  0  0  0  0  0  0  0  0  0  0  0  # atno 17320 bound_to 7965
  145.4452  139.1530  143.3948 LP  0  0  0  0  0  0  0  0  0  0  0  0  # atno 17321 bound_to 7965
  140.4282  143.2580  151.9629 LP  0  0  0  0  0  0  0  0  0  0  0  0  # atno 17342 bound_to 10162
  139.4791  144.5768  151.7998 LP  0  0  0  0  0  0  0  0  0  0  0  0  # atno 17343 bound_to 10162
  156.0291  130.5384  150.8488 LP  0  0  0  0  0  0  0  0  0  0  0  0  # atno 17370 bound_to 10713
  157.5607  131.0946  150.9563 LP  0  0  0  0  0  0  0  0  0  0  0  0  # atno 17371 bound_to 10713
  139.8774  134.9189  156.3213 LP  0  0  0  0  0  0  0  0  0  0  0  0  # atno 17394 bound_to 11000
  140.9682  133.7344  156.0497 LP  0  0  0  0  0  0  0  0  0  0  0  0  # atno 17395 bound_to 11000

$$$$
