#       Name:                AV-unprocessed.smi:65
#       Creating user name   scv26
#       Creation time:       Thu Mar 26 16:50:41 2020


#       File generated by GOLD software.
#

@<TRIPOS>MOLECULE
AV-unprocessed.smi:65
    30    31     1
SMALL
NO_CHARGES


@<TRIPOS>ATOM
      1 ****        -3.0632   1.8343  -0.1036 N.pl3          1 S1                 0.0000
      2 ****        -2.5007   0.5804  -0.1084 C.ar           1 S1                 0.0000
      3 ****        -3.3098  -0.4859  -0.1912 N.pl3          1 S1                 1.0000
      4 ****        -2.7750  -1.7317  -0.1972 C.ar           1 S1                 0.0000
      5 ****        -1.3814  -1.9066  -0.1145 C.ar           1 S1                 0.0000
      6 ****        -0.5971  -0.7434  -0.0252 C.ar           1 S1                 0.0000
      7 ****         0.8003  -0.8504   0.0463 N.3            1 S1                 0.0000
      8 ****         1.4953  -0.3922  -1.1544 C.3            1 S1                 0.0000
      9 ****         2.4400   0.7265  -0.7116 C.3            1 S1                 0.0000
     10 ****         2.7521   0.3401   0.7285 C.3            1 S1                 0.0000
     11 ****         3.1804   1.4390   1.5038 O.3            1 S1                 0.0000
     12 ****         1.4181  -0.2257   1.2144 C.3            1 S1                 0.0000
     13 ****        -1.1690   0.4829  -0.0304 N.ar           1 S1                 0.0000
     14 ****        -2.4784   2.6555  -0.0425 H              1 S1                 0.0000
     15 ****        -4.0663   1.9484  -0.1199 H              1 S1                 0.0000
     16 ****        -3.4798  -2.5471  -0.2691 H              1 S1                 0.0000
     17 ****        -0.9362  -2.8912  -0.1200 H              1 S1                 0.0000
     18 ****         2.0660  -1.2309  -1.5544 H              1 S1                 0.0000
     19 ****         0.8175  -0.0546  -1.9402 H              1 S1                 0.0000
     20 ****         3.3288   0.8075  -1.3382 H              1 S1                 0.0000
     21 ****         1.9135   1.6820  -0.7421 H              1 S1                 0.0000
     22 ****         3.5148  -0.4399   0.7453 H              1 S1                 0.0000
     23 ****         3.9970   1.7572   1.1499 H              1 S1                 0.0000
     24 ****         0.7917   0.5739   1.6126 H              1 S1                 0.0000
     25 ****         1.5638  -0.9542   2.0124 H              1 S1                 0.0000
     26 ****        -4.3222  -0.3732  -0.2503 H              1 S1                 0.0000
     27 ****         0.9182  -1.8394   0.1354 LP             1 S1                 0.0000
     28 ****         3.3136   1.1509   2.4521 LP             1 S1                 0.0000
     29 ****         2.4928   2.1642   1.4692 LP             1 S1                 0.0000
     30 ****        -0.6032   1.3057   0.0234 LP             1 S1                 0.0000
@<TRIPOS>BOND
    1    1    2 1     
    2    1   14 1     
    3    1   15 1     
    4    2   13 ar    
    5    2    3 ar    
    6    3    4 ar    
    7    3   26 1     
    8    4    5 ar    
    9    4   16 1     
   10    5    6 ar    
   11    5   17 1     
   12    6    7 1     
   13    6   13 ar    
   14    7   12 1     
   15    7    8 1     
   16    8    9 1     
   17    8   18 1     
   18    8   19 1     
   19    9   10 1     
   20    9   20 1     
   21    9   21 1     
   22   10   11 1     
   23   10   12 1     
   24   10   22 1     
   25   11   23 1     
   26   12   24 1     
   27   12   25 1     
   28    7   27 1     
   29   11   28 1     
   30   11   29 1     
   31   13   30 1     
@<TRIPOS>SUBSTRUCTURE
      1 S1             1
@<TRIPOS>SET
LONE_PAIRS      STATIC     ATOMS    <user>   **** ""
4 27 28 29 30
DONOR_HYDROGENS      STATIC     ATOMS    <user>   **** ""
4 14 15 26 23
ATOM$BLUE        STATIC     ATOMS    COLORGROUP SYSTEM
4 27 28 29 30
ATOM$RED        STATIC     ATOMS    COLORGROUP SYSTEM
4 14 15 26 23
