AV-unprocessed.smi:694|AV-procd|sdf|3381|dock1
  -GOLD-   22720 0363D 1   1.00000     0.00000
 Structure written by MMmdl.
 42 43  0  0  0  0  0  0  0  0  1 V2000
  151.2502  142.6328  156.5803 C   0  0  0  0  0  0  0  0  0  0  0  0
  150.8973  141.3059  157.0749 N   0  0  0  0  0  0  0  0  0  0  0  0
  151.2774  140.9089  158.4248 C   0  0  0  0  0  0  0  0  0  0  0  0
  150.1325  140.4341  156.2666 C   0  0  0  0  0  0  0  0  0  0  0  0
  149.0045  139.7483  156.7808 C   0  0  0  0  0  0  0  0  0  0  0  0
  148.2769  138.8908  155.9346 C   0  0  0  0  0  0  0  0  0  0  0  0
  148.6877  138.7260  154.5983 C   0  0  0  0  0  0  0  0  0  0  0  0
  147.9197  137.8642  153.7689 N   0  0  0  0  0  0  0  0  0  0  0  0
  146.5851  137.7166  153.7142 C   0  0  0  0  0  0  0  0  0  0  0  0
  145.7686  138.3576  154.3749 O   0  0  0  0  0  0  0  0  0  0  0  0
  146.2408  136.7750  152.8241 N   0  0  0  0  0  0  0  0  0  0  0  0
  144.8761  136.3511  152.5256 C   0  0  0  0  0  0  0  0  0  0  0  0
  144.8082  134.8484  152.1821 C   0  0  1  0  0  0  0  0  0  0  0  0
  143.3999  134.2392  152.1382 C   0  0  0  0  0  0  0  0  0  0  0  0
  143.5204  132.9740  151.2752 C   0  0  0  0  0  0  0  0  0  0  0  0
  144.8993  133.0349  150.5986 C   0  0  0  0  0  0  0  0  0  0  0  0
  145.4208  134.4572  150.8294 C   0  0  1  0  0  0  0  0  0  0  0  0
  144.9516  135.2918  149.7864 O   0  0  0  0  0  0  0  0  0  0  0  0
  149.8190  139.4585  154.1677 C   0  0  0  0  0  0  0  0  0  0  0  0
  150.5184  140.2822  154.9762 N   0  0  0  0  0  0  0  0  0  0  0  0
  150.3528  143.2235  156.3940 H   0  0  0  0  0  0  0  0  0  0  0  0
  151.8156  142.5584  155.6508 H   0  0  0  0  0  0  0  0  0  0  0  0
  151.8642  143.1751  157.2993 H   0  0  0  0  0  0  0  0  0  0  0  0
  151.9253  140.0324  158.3986 H   0  0  0  0  0  0  0  0  0  0  0  0
  150.3938  140.6737  159.0187 H   0  0  0  0  0  0  0  0  0  0  0  0
  151.8174  141.7056  158.9363 H   0  0  0  0  0  0  0  0  0  0  0  0
  148.6839  139.8608  157.8052 H   0  0  0  0  0  0  0  0  0  0  0  0
  147.4133  138.3638  156.3135 H   0  0  0  0  0  0  0  0  0  0  0  0
  148.4521  137.3154  153.1098 H   0  0  0  0  0  0  0  0  0  0  0  0
  146.9801  136.3051  152.3225 H   0  0  0  0  0  0  0  0  0  0  0  0
  144.2078  136.5941  153.3532 H   0  0  0  0  0  0  0  0  0  0  0  0
  144.5275  136.9340  151.6727 H   0  0  0  0  0  0  0  0  0  0  0  0
  145.3678  134.3088  152.9487 H   0  0  0  0  0  0  0  0  0  0  0  0
  143.0125  134.0236  153.1343 H   0  0  0  0  0  0  0  0  0  0  0  0
  142.7082  134.9360  151.6628 H   0  0  0  0  0  0  0  0  0  0  0  0
  143.4332  132.0722  151.8821 H   0  0  0  0  0  0  0  0  0  0  0  0
  142.7218  132.9451  150.5331 H   0  0  0  0  0  0  0  0  0  0  0  0
  145.5667  132.3265  151.0912 H   0  0  0  0  0  0  0  0  0  0  0  0
  144.8633  132.7597  149.5435 H   0  0  0  0  0  0  0  0  0  0  0  0
  146.5105  134.4942  150.8472 H   0  0  0  0  0  0  0  0  0  0  0  0
  145.2344  134.9302  148.9605 H   0  0  0  0  0  0  0  0  0  0  0  0
  150.1809  139.4170  153.1527 H   0  0  0  0  0  0  0  0  0  0  0  0
  1  2  1  0  0  0  0
  1 21  1  0  0  0  0
  1 22  1  0  0  0  0
  1 23  1  0  0  0  0
  2  3  1  0  0  0  0
  2  4  1  0  0  0  0
  3 24  1  0  0  0  0
  3 25  1  0  0  0  0
  3 26  1  0  0  0  0
  4 20  1  0  0  0  0
  4  5  2  0  0  0  0
  5  6  1  0  0  0  0
  5 27  1  0  0  0  0
  6  7  2  0  0  0  0
  6 28  1  0  0  0  0
  7  8  1  0  0  0  0
  7 19  1  0  0  0  0
  8  9  1  0  0  0  0
  8 29  1  0  0  0  0
  9 10  2  0  0  0  0
  9 11  1  0  0  0  0
 11 12  1  0  0  0  0
 11 30  1  0  0  0  0
 12 13  1  0  0  0  0
 12 31  1  0  0  0  0
 12 32  1  0  0  0  0
 13 17  1  0  0  0  0
 13 14  1  0  0  0  0
 13 33  1  0  0  0  0
 14 15  1  0  0  0  0
 14 34  1  0  0  0  0
 14 35  1  0  0  0  0
 15 16  1  0  0  0  0
 15 36  1  0  0  0  0
 15 37  1  0  0  0  0
 16 17  1  0  0  0  0
 16 38  1  0  0  0  0
 16 39  1  0  0  0  0
 17 18  1  0  0  0  0
 17 40  1  0  0  0  0
 18 41  1  0  0  0  0
 19 20  2  0  0  0  0
 19 42  1  0  0  0  0
M  END
> <s_m_source_file>
AV-unprocessed.smi

> <i_m_source_file_index>
694

> <i_lp_mmshare_version>
43012

> <i_f3d_flags>
0

> <s_epik_input>
W0NIM11OKFtDSDNdKWMxW2NIXVtjSF1jKFtjSF1uMSlbTkhdQyg9TylbTkhdW0NIMl1bQ0BASF0yW0NIMl1bQ0gyXVtDSDJdW0NASF0yW09IXQ==

> <s_epik_cmdline>
J2VwaWtfcHl0aG9uJywgJy1waCcsICc3LjAnLCAnLXRuJywgJzgnLCAnLW1hJywgJzIwMCcsICctbWV0YWxfYmluZGluZycsICctaW1hZScsICc8aW5maWxlLm1hZT4nLCAnLW9tYWUnLCAnPG91dGZpbGUubWFlPic=

> <r_lp_tautomer_probability>
1

> <r_epik_Ionization_Penalty>
0.60335

> <r_epik_Ionization_Penalty_Charging>
0

> <r_epik_Ionization_Penalty_Neutral>
0.60335

> <r_epik_State_Penalty>
0.616805

> <r_epik_Charging_Adjusted_Penalty>
0.616805

> <i_epik_Tot_Q>
0

> <i_epik_Tot_abs_Q>
0

> <r_epik_Metal_State_Penalty>
0.301709

> <b_epik_Metal_Only>
0

> <s_lp_Force_Field>
OPLS_2005

> <r_lp_Energy>
27.6446

> <b_lp_Chiralities_Consistent>
1

> <s_lp_Variant>
AV-unprocessed.smi:694-6

> <Gold.Version>
5.8.1

> <Gold.Id.Protein>
6NUR|6NUR_protein|mol2

> <Gold.PLP.Fitness>
39.8935

> <Gold.PLP.PLP>
-28.8127

> <Gold.PLP.part.hbond>
-3.8676

> <Gold.PLP.part.metal>
0.0000

> <Gold.PLP.part.buried>
-5.1734

> <Gold.PLP.part.nonpolar>
-20.0886

> <Gold.PLP.part.repulsive>
0.1896

> <Gold.PLP.ligand.clash>
0.0000

> <Gold.PLP.ligand.torsion>
1.3450

> <Gold.PLP.Chemscore.Hbond>
3.5760

> <Gold.PLP.Chemscore.CHOScore>
1.0000

> <Gold.PLP.Chemscore.Metal>
0.0000

> <Gold.Chemscore.Hbonds>
donor molecule, donor type, donor heavy atom, donor atom, acceptor molecule, acceptor atom, score
      L1  H     8    29       P1  7948  1.00
      L1  H    11    30       P1  7948  0.96
      L1  H    18    41       P1  7921  1.00
      P1  H  7989  7998       L1    20  0.60
      L1  C    19    42       P1  7957  1.00

> <Gold.PLP.Chemscore.Internal.Correction>
0.0427

> <Gold.Rescore>
     Score         DG    S(hbond)    S(metal)    S(lipo)     H(rot)  DE(clash)    DE(int)     intcor
     15.69     -18.11       2.93        0.00      62.07       1.73       0.14       2.29       ----

> <Gold.Chemscore.Fitness>
15.6873

> <Gold.Chemscore.DG>
-18.1127

> <Gold.Chemscore.ZeroCoef>
-5.4800

> <Gold.Chemscore.Hbond>
2.9306

> <Gold.Chemscore.Metal>
0.0000

> <Gold.Chemscore.Lipo>
62.0742

> <Gold.Chemscore.Internal_Hbond>
0.0000

> <Gold.Chemscore.DEClash>
0.1393

> <Gold.Chemscore.DEInternal>
2.2860

> <Gold.Chemscore.Rot>
1.7259

> <Gold.Chemscore.Internal.Correction>
   9.000000E+99

> <Gold.Chemscore.Hbonds>
donor molecule, donor type, donor heavy atom, donor atom, acceptor molecule, acceptor atom, score
      L1  H     8    29       P1  7948  1.00
      L1  H    11    30       P1  7948  0.88
      L1  H    18    41       P1  7921  0.97
      P1  H  7989  7998       L1    20  0.04

> <Gold.Chemscore.Hbond.Weighted>
-9.7883

> <Gold.Chemscore.Metal.Weighted>
-0.0000

> <Gold.Chemscore.Lipo.Weighted>
-7.2627

> <Gold.Chemscore.Internal_Hbond.Weighted>
0.0000

> <Gold.Chemscore.DEClash.Weighted>
0.1393

> <Gold.Chemscore.DEInternal.Weighted>
2.2860

> <Gold.Chemscore.Rot.Weighted>
4.4184

> <Gold.Chemscore.Internal.Correction.Weighted>
   9.000000E+99

> <Gold.Protein.RotatedTorsions>
[ 6907 6896 6895 6894 ] final   -3.19 input  -60.11 | X-H torsion
[ 7974 7965 7964 7962 ] final   57.62 input  175.53 | X-H torsion
[ 8008 7997 7996 7995 ] final  -14.67 input   59.86 | X-H torsion
[ 10167 10162 10161 10158 ] final  147.09 input  -65.29 | X-H torsion
[ 10718 10713 10712 10709 ] final  -57.20 input   66.30 | X-H torsion
[ 10763 10752 10751 10750 ] final   64.48 input  -60.55 | X-H torsion
[ 11005 11000 10999 10996 ] final -134.42 input  -57.11 | X-H torsion

> <Gold.Protein.ActiveResidues>
 VAL166  LYS551  ARG553  GLY616  TRP617  ASP618  TYR619  PRO620  LYS621  CYS622 
 ASP623  PHE694  ASN695  SER759  ASP760  ASP761  ALA762  ILE779  LEU786  VAL792 
 PHE793  MET794  SER795  GLU796  ALA797  LYS798  CYS799  TRP800  GLU811  SER814 

> <Gold.Protein.RotatedAtoms>
  151.5178  135.1066  159.9870 H   0  0  0  0  0  0  0  0  0  0  0  0  # atno 6907 bound_to 6896
  152.4634  133.7866  159.6890 H   0  0  0  0  0  0  0  0  0  0  0  0  # atno 6908 bound_to 6896
  150.8606  133.7585  159.3019 H   0  0  0  0  0  0  0  0  0  0  0  0  # atno 6909 bound_to 6896
  145.9271  139.3776  143.0443 H   0  0  0  0  0  0  0  0  0  0  0  0  # atno 7974 bound_to 7965
  154.5192  140.2217  155.9008 H   0  0  0  0  0  0  0  0  0  0  0  0  # atno 8008 bound_to 7997
  156.1642  140.3135  155.8825 H   0  0  0  0  0  0  0  0  0  0  0  0  # atno 8009 bound_to 7997
  155.3690  140.0465  157.3036 H   0  0  0  0  0  0  0  0  0  0  0  0  # atno 8010 bound_to 7997
  139.4896  144.5781  151.6925 H   0  0  0  0  0  0  0  0  0  0  0  0  # atno 10167 bound_to 10162
  156.1229  130.4165  150.0408 H   0  0  0  0  0  0  0  0  0  0  0  0  # atno 10718 bound_to 10713
  153.0057  135.5391  154.6517 H   0  0  0  0  0  0  0  0  0  0  0  0  # atno 10763 bound_to 10752
  154.5747  135.2844  155.0794 H   0  0  0  0  0  0  0  0  0  0  0  0  # atno 10764 bound_to 10752
  154.1946  135.6494  153.5122 H   0  0  0  0  0  0  0  0  0  0  0  0  # atno 10765 bound_to 10752
  140.8992  134.1713  157.4473 H   0  0  0  0  0  0  0  0  0  0  0  0  # atno 11005 bound_to 11000
  145.8475  140.9547  143.0767 LP  0  0  0  0  0  0  0  0  0  0  0  0  # atno 17320 bound_to 7965
  144.6760  140.0364  143.7481 LP  0  0  0  0  0  0  0  0  0  0  0  0  # atno 17321 bound_to 7965
  140.5382  144.0622  150.6078 LP  0  0  0  0  0  0  0  0  0  0  0  0  # atno 17342 bound_to 10162
  140.3635  143.2894  152.0357 LP  0  0  0  0  0  0  0  0  0  0  0  0  # atno 17343 bound_to 10162
  156.8341  130.9403  151.3635 LP  0  0  0  0  0  0  0  0  0  0  0  0  # atno 17370 bound_to 10713
  157.6412  130.8807  149.9452 LP  0  0  0  0  0  0  0  0  0  0  0  0  # atno 17371 bound_to 10713
  139.8740  134.9891  156.5441 LP  0  0  0  0  0  0  0  0  0  0  0  0  # atno 17394 bound_to 11000
  140.8251  133.8322  155.8932 LP  0  0  0  0  0  0  0  0  0  0  0  0  # atno 17395 bound_to 11000

$$$$
