AV-unprocessed.smi:295|AV-procd|sdf|2255|dock2
  -GOLD-   2262022143D 1   1.00000     0.00000
 Structure written by MMmdl.
 35 36  0  0  0  0  0  0  0  0  1 V2000
  146.2111  137.4390  152.5487 C   0  0  0  0  0  0  0  0  0  0  0  0
  145.2705  136.3074  152.1005 C   0  0  1  0  0  0  0  0  0  0  0  0
  145.4093  136.0183  150.5916 C   0  0  0  0  0  0  0  0  0  0  0  0
  144.4253  134.9307  150.1311 C   0  0  0  0  0  0  0  0  0  0  0  0
  144.5899  133.6422  150.9509 C   0  0  0  0  0  0  0  0  0  0  0  0
  144.4551  133.9199  152.4585 C   0  0  0  0  0  0  0  0  0  0  0  0
  145.4305  135.0136  152.9391 C   0  0  1  0  0  0  0  0  0  0  0  0
  146.8004  134.5008  152.8938 N   0  0  0  0  0  0  0  0  0  0  0  0
  147.2090  133.2846  153.2898 C   0  0  0  0  0  0  0  0  0  0  0  0
  146.4660  132.4467  153.7993 O   0  0  0  0  0  0  0  0  0  0  0  0
  148.6907  132.9667  153.0809 C   0  0  0  0  0  0  0  0  0  0  0  0
  149.4806  133.3669  154.2318 N   0  0  0  0  0  0  0  0  0  0  0  0
  149.7500  134.5824  154.7207 C   0  0  0  0  0  0  0  0  0  0  0  0
  150.5356  134.5720  155.7902 N   0  0  0  0  0  0  0  0  0  0  0  0
  150.7179  133.2242  155.9055 C   0  0  0  0  0  0  0  0  0  0  0  0
  151.5411  132.6568  156.9599 C   0  0  0  0  0  0  0  0  0  0  0  0
  152.1965  132.2047  157.7998 N   0  0  0  0  0  0  0  0  0  0  0  0
  150.1125  132.4514  155.0063 N   0  0  0  0  0  0  0  0  0  0  0  0
  147.2569  137.1930  152.3631 H   0  0  0  0  0  0  0  0  0  0  0  0
  146.1000  137.6422  153.6141 H   0  0  0  0  0  0  0  0  0  0  0  0
  145.9919  138.3632  152.0134 H   0  0  0  0  0  0  0  0  0  0  0  0
  144.2536  136.6673  152.2655 H   0  0  0  0  0  0  0  0  0  0  0  0
  145.2321  136.9306  150.0210 H   0  0  0  0  0  0  0  0  0  0  0  0
  146.4298  135.7084  150.3634 H   0  0  0  0  0  0  0  0  0  0  0  0
  143.4032  135.2984  150.2316 H   0  0  0  0  0  0  0  0  0  0  0  0
  144.5741  134.7193  149.0718 H   0  0  0  0  0  0  0  0  0  0  0  0
  143.8444  132.9090  150.6417 H   0  0  0  0  0  0  0  0  0  0  0  0
  145.5629  133.1962  150.7413 H   0  0  0  0  0  0  0  0  0  0  0  0
  143.4325  134.2337  152.6720 H   0  0  0  0  0  0  0  0  0  0  0  0
  144.6122  132.9996  153.0226 H   0  0  0  0  0  0  0  0  0  0  0  0
  145.1685  135.2457  153.9728 H   0  0  0  0  0  0  0  0  0  0  0  0
  147.4934  135.1199  152.4995 H   0  0  0  0  0  0  0  0  0  0  0  0
  148.8192  131.8961  152.9177 H   0  0  0  0  0  0  0  0  0  0  0  0
  149.0662  133.4764  152.1922 H   0  0  0  0  0  0  0  0  0  0  0  0
  149.3698  135.4926  154.2802 H   0  0  0  0  0  0  0  0  0  0  0  0
  1  2  1  0  0  0  0
  1 19  1  0  0  0  0
  1 20  1  0  0  0  0
  1 21  1  0  0  0  0
  2  7  1  0  0  0  0
  2  3  1  0  0  0  0
  2 22  1  0  0  0  0
  3  4  1  0  0  0  0
  3 23  1  0  0  0  0
  3 24  1  0  0  0  0
  4  5  1  0  0  0  0
  4 25  1  0  0  0  0
  4 26  1  0  0  0  0
  5  6  1  0  0  0  0
  5 27  1  0  0  0  0
  5 28  1  0  0  0  0
  6  7  1  0  0  0  0
  6 29  1  0  0  0  0
  6 30  1  0  0  0  0
  7  8  1  0  0  0  0
  7 31  1  0  0  0  0
  8  9  1  0  0  0  0
  8 32  1  0  0  0  0
  9 10  2  0  0  0  0
  9 11  1  0  0  0  0
 11 12  1  0  0  0  0
 11 33  1  0  0  0  0
 11 34  1  0  0  0  0
 12 18  1  0  0  0  0
 12 13  1  0  0  0  0
 13 14  2  0  0  0  0
 13 35  1  0  0  0  0
 14 15  1  0  0  0  0
 15 16  1  0  0  0  0
 15 18  2  0  0  0  0
 16 17  3  0  0  0  0
M  END
> <s_m_source_file>
AV-unprocessed.smi

> <i_m_source_file_index>
295

> <i_lp_mmshare_version>
43012

> <i_f3d_flags>
0

> <s_epik_input>
W0NIM11bQ0BASF0xW0NIMl1bQ0gyXVtDSDJdW0NIMl1bQ0BIXTFbTkhdQyg9TylbQ0gyXW4yW2NIXW5jKG4yKUMjTg==

> <s_epik_cmdline>
J2VwaWtfcHl0aG9uJywgJy1waCcsICc3LjAnLCAnLXRuJywgJzgnLCAnLW1hJywgJzIwMCcsICctbWV0YWxfYmluZGluZycsICctaW1hZScsICc8aW5maWxlLm1hZT4nLCAnLW9tYWUnLCAnPG91dGZpbGUubWFlPic=

> <r_lp_tautomer_probability>
1

> <r_epik_Ionization_Penalty>
5.31112e-08

> <r_epik_Ionization_Penalty_Charging>
0

> <r_epik_Ionization_Penalty_Neutral>
5.31112e-08

> <r_epik_State_Penalty>
-0

> <r_epik_Charging_Adjusted_Penalty>
0

> <i_epik_Tot_Q>
0

> <i_epik_Tot_abs_Q>
0

> <r_epik_Metal_State_Penalty>
-0

> <b_epik_Metal_Only>
0

> <s_lp_Force_Field>
OPLS_2005

> <r_lp_Energy>
13.099

> <b_lp_Chiralities_Consistent>
1

> <s_lp_Variant>
AV-unprocessed.smi:295-2

> <Gold.Version>
5.8.1

> <Gold.Id.Protein>
6NUR|6NUR_protein|mol2

> <Gold.PLP.Fitness>
35.5121

> <Gold.PLP.PLP>
-27.7203

> <Gold.PLP.part.hbond>
-2.0000

> <Gold.PLP.part.metal>
0.0000

> <Gold.PLP.part.buried>
0.3857

> <Gold.PLP.part.nonpolar>
-25.4157

> <Gold.PLP.part.repulsive>
0.1702

> <Gold.PLP.ligand.clash>
0.0000

> <Gold.PLP.ligand.torsion>
0.6086

> <Gold.PLP.Chemscore.Hbond>
2.0000

> <Gold.PLP.Chemscore.CHOScore>
1.0000

> <Gold.PLP.Chemscore.Metal>
0.0000

> <Gold.Chemscore.Hbonds>
donor molecule, donor type, donor heavy atom, donor atom, acceptor molecule, acceptor atom, score
      L1  H     8    32       P1  7948  1.00
      P1  H  6896  6908       L1    17  1.00
      L1  C    13    35       P1  7948  1.00

> <Gold.PLP.Chemscore.Internal.Correction>
0.0091

> <Gold.Rescore>
     Score         DG    S(hbond)    S(metal)    S(lipo)     H(rot)  DE(clash)    DE(int)     intcor
      9.58     -12.43       1.90        0.00      47.82       1.95       0.69       2.15       ----

> <Gold.Chemscore.Fitness>
9.5798

> <Gold.Chemscore.DG>
-12.4251

> <Gold.Chemscore.ZeroCoef>
-5.4800

> <Gold.Chemscore.Hbond>
1.8968

> <Gold.Chemscore.Metal>
0.0000

> <Gold.Chemscore.Lipo>
47.8197

> <Gold.Chemscore.Internal_Hbond>
0.0000

> <Gold.Chemscore.DEClash>
0.6943

> <Gold.Chemscore.DEInternal>
2.1510

> <Gold.Chemscore.Rot>
1.9474

> <Gold.Chemscore.Internal.Correction>
   9.000000E+99

> <Gold.Chemscore.Hbonds>
donor molecule, donor type, donor heavy atom, donor atom, acceptor molecule, acceptor atom, score
      L1  H     8    32       P1  7948  0.99
      P1  H  6896  6908       L1    17  0.40

> <Gold.Chemscore.Hbond.Weighted>
-6.3355

> <Gold.Chemscore.Metal.Weighted>
-0.0000

> <Gold.Chemscore.Lipo.Weighted>
-5.5949

> <Gold.Chemscore.Internal_Hbond.Weighted>
0.0000

> <Gold.Chemscore.DEClash.Weighted>
0.6943

> <Gold.Chemscore.DEInternal.Weighted>
2.1510

> <Gold.Chemscore.Rot.Weighted>
4.9852

> <Gold.Chemscore.Internal.Correction.Weighted>
   9.000000E+99

> <Gold.Protein.RotatedTorsions>
[ 6907 6896 6895 6894 ] final   54.08 input  -60.11 | X-H torsion
[ 7974 7965 7964 7962 ] final  -44.58 input  175.53 | X-H torsion
[ 8008 7997 7996 7995 ] final  166.55 input   59.86 | X-H torsion
[ 10167 10162 10161 10158 ] final   -0.60 input  -65.29 | X-H torsion
[ 10718 10713 10712 10709 ] final -158.85 input   66.30 | X-H torsion
[ 10763 10752 10751 10750 ] final   24.77 input  -60.55 | X-H torsion
[ 11005 11000 10999 10996 ] final  -52.29 input  -57.11 | X-H torsion

> <Gold.Protein.ActiveResidues>
 VAL166  LYS551  ARG553  GLY616  TRP617  ASP618  TYR619  PRO620  LYS621  CYS622 
 ASP623  PHE694  ASN695  SER759  ASP760  ASP761  ALA762  ILE779  LEU786  VAL792 
 PHE793  MET794  SER795  GLU796  ALA797  LYS798  CYS799  TRP800  GLU811  SER814 

> <Gold.Protein.RotatedAtoms>
  152.3402  134.7144  160.0265 H   0  0  0  0  0  0  0  0  0  0  0  0  # atno 6907 bound_to 6896
  151.7531  133.3323  159.3405 H   0  0  0  0  0  0  0  0  0  0  0  0  # atno 6908 bound_to 6896
  150.7475  134.6106  159.6129 H   0  0  0  0  0  0  0  0  0  0  0  0  # atno 6909 bound_to 6896
  145.9906  140.7185  142.9319 H   0  0  0  0  0  0  0  0  0  0  0  0  # atno 7974 bound_to 7965
  156.1708  140.1640  156.8450 H   0  0  0  0  0  0  0  0  0  0  0  0  # atno 8008 bound_to 7997
  154.5255  140.0768  156.8285 H   0  0  0  0  0  0  0  0  0  0  0  0  # atno 8009 bound_to 7997
  155.3515  140.3390  155.4241 H   0  0  0  0  0  0  0  0  0  0  0  0  # atno 8010 bound_to 7997
  140.6774  143.6874  150.8055 H   0  0  0  0  0  0  0  0  0  0  0  0  # atno 10167 bound_to 10162
  156.5599  130.8642  151.2806 H   0  0  0  0  0  0  0  0  0  0  0  0  # atno 10718 bound_to 10713
  153.0740  135.6598  154.0186 H   0  0  0  0  0  0  0  0  0  0  0  0  # atno 10763 bound_to 10752
  153.9825  135.2954  155.3420 H   0  0  0  0  0  0  0  0  0  0  0  0  # atno 10764 bound_to 10752
  154.7122  135.5200  153.8754 H   0  0  0  0  0  0  0  0  0  0  0  0  # atno 10765 bound_to 10752
  141.0916  133.6631  156.4002 H   0  0  0  0  0  0  0  0  0  0  0  0  # atno 11005 bound_to 11000
  144.6888  140.3063  143.7255 LP  0  0  0  0  0  0  0  0  0  0  0  0  # atno 17320 bound_to 7965
  145.7636  139.1833  143.2253 LP  0  0  0  0  0  0  0  0  0  0  0  0  # atno 17321 bound_to 7965
  140.0570  143.5193  152.2646 LP  0  0  0  0  0  0  0  0  0  0  0  0  # atno 17342 bound_to 10162
  139.6075  144.7600  151.3027 LP  0  0  0  0  0  0  0  0  0  0  0  0  # atno 17343 bound_to 10162
  157.7370  130.9789  150.2171 LP  0  0  0  0  0  0  0  0  0  0  0  0  # atno 17370 bound_to 10713
  156.2808  130.3733  149.7937 LP  0  0  0  0  0  0  0  0  0  0  0  0  # atno 17371 bound_to 10713
  140.5238  134.6279  157.5327 LP  0  0  0  0  0  0  0  0  0  0  0  0  # atno 17394 bound_to 11000
  139.9744  134.7240  155.9979 LP  0  0  0  0  0  0  0  0  0  0  0  0  # atno 17395 bound_to 11000

$$$$
