AV-unprocessed.smi:96|AV-procd|sdf|859|dock4
  -GOLD-   2262017303D 1   1.00000     0.00000
 Structure written by MMmdl.
 43 46  0  0  0  0  0  0  0  0  1 V2000
  151.1916  135.5967  155.7778 O   0  0  0  0  0  0  0  0  0  0  0  0
  150.9882  136.7961  155.9706 C   0  0  0  0  0  0  0  0  0  0  0  0
  151.7137  137.8570  155.1274 C   0  0  0  0  0  0  0  0  0  0  0  0
  151.1483  139.2176  155.2652 N   0  0  0  0  0  0  0  0  0  0  0  0
  149.9593  139.5337  154.5616 C   0  0  0  0  0  0  0  0  0  0  0  0
  149.4088  138.7065  153.8333 O   0  0  0  0  0  0  0  0  0  0  0  0
  149.4425  140.8810  154.7719 C   0  0  0  0  0  0  0  0  0  0  0  0
  148.3106  141.2639  154.1570 F   0  0  0  0  0  0  0  0  0  0  0  0
  150.0821  141.7514  155.5796 C   0  0  0  0  0  0  0  0  0  0  0  0
  151.2523  141.4387  156.2430 N   0  0  0  0  0  0  0  0  0  0  0  0
  151.8728  142.4615  157.1664 C   0  0  2  0  0  0  0  0  0  0  0  0
  152.0192  141.9721  158.6198 C   0  0  0  0  0  0  0  0  0  0  0  0
  151.2261  143.0026  159.4068 C   0  0  0  0  0  0  0  0  0  0  0  0
  151.1875  144.1973  158.4602 C   0  0  0  0  0  0  0  0  0  0  0  0
  151.0636  143.5967  157.1807 O   0  0  0  0  0  0  0  0  0  0  0  0
  151.7967  140.1391  156.1223 C   0  0  0  0  0  0  0  0  0  0  0  0
  152.8045  139.8117  156.7511 O   0  0  0  0  0  0  0  0  0  0  0  0
  150.1670  137.2880  156.9166 N   0  0  0  0  0  0  0  0  0  0  0  0
  149.3582  136.5826  157.8484 C   0  0  0  0  0  0  0  0  0  0  0  0
  148.8780  135.2594  157.6263 C   0  0  0  0  0  0  0  0  0  0  0  0
  148.0600  134.6158  158.5827 C   0  0  0  0  0  0  0  0  0  0  0  0
  147.7295  135.3251  159.7480 C   0  0  0  0  0  0  0  0  0  0  0  0
  148.1779  136.6112  159.9622 C   0  0  0  0  0  0  0  0  0  0  0  0
  148.9915  137.2734  159.0286 C   0  0  0  0  0  0  0  0  0  0  0  0
  147.7092  137.0637  161.1533 O   0  0  0  0  0  0  0  0  0  0  0  0
  146.9462  136.0136  161.6894 C   0  0  0  0  0  0  0  0  0  0  0  0
  146.9654  134.9288  160.7975 O   0  0  0  0  0  0  0  0  0  0  0  0
  152.7717  137.8480  155.3949 H   0  0  0  0  0  0  0  0  0  0  0  0
  151.7043  137.5337  154.0853 H   0  0  0  0  0  0  0  0  0  0  0  0
  149.6544  142.7354  155.7055 H   0  0  0  0  0  0  0  0  0  0  0  0
  152.8389  142.7163  156.7282 H   0  0  0  0  0  0  0  0  0  0  0  0
  151.6532  140.9547  158.7594 H   0  0  0  0  0  0  0  0  0  0  0  0
  153.0753  141.9986  158.8902 H   0  0  0  0  0  0  0  0  0  0  0  0
  150.2138  142.6404  159.5883 H   0  0  0  0  0  0  0  0  0  0  0  0
  151.6761  143.2408  160.3709 H   0  0  0  0  0  0  0  0  0  0  0  0
  150.3593  144.8748  158.6690 H   0  0  0  0  0  0  0  0  0  0  0  0
  152.1189  144.7638  158.5095 H   0  0  0  0  0  0  0  0  0  0  0  0
  150.1712  138.2921  157.0221 H   0  0  0  0  0  0  0  0  0  0  0  0
  149.1128  134.7230  156.7200 H   0  0  0  0  0  0  0  0  0  0  0  0
  147.6949  133.6126  158.4188 H   0  0  0  0  0  0  0  0  0  0  0  0
  149.3298  138.2823  159.2152 H   0  0  0  0  0  0  0  0  0  0  0  0
  147.3686  135.7072  162.6470 H   0  0  0  0  0  0  0  0  0  0  0  0
  145.9185  136.3471  161.8371 H   0  0  0  0  0  0  0  0  0  0  0  0
  1  2  2  0  0  0  0
  2  3  1  0  0  0  0
  2 18  1  0  0  0  0
  3  4  1  0  0  0  0
  3 28  1  0  0  0  0
  3 29  1  0  0  0  0
  4 16  1  0  0  0  0
  4  5  1  0  0  0  0
  5  6  2  0  0  0  0
  5  7  1  0  0  0  0
  7  8  1  0  0  0  0
  7  9  2  0  0  0  0
  9 10  1  0  0  0  0
  9 30  1  0  0  0  0
 10 11  1  0  0  0  0
 10 16  1  0  0  0  0
 11 15  1  0  0  0  0
 11 12  1  0  0  0  0
 11 31  1  0  0  0  0
 12 13  1  0  0  0  0
 12 32  1  0  0  0  0
 12 33  1  0  0  0  0
 13 14  1  0  0  0  0
 13 34  1  0  0  0  0
 13 35  1  0  0  0  0
 14 15  1  0  0  0  0
 14 36  1  0  0  0  0
 14 37  1  0  0  0  0
 16 17  2  0  0  0  0
 18 19  1  0  0  0  0
 18 38  1  0  0  0  0
 19 24  1  0  0  0  0
 19 20  2  0  0  0  0
 20 21  1  0  0  0  0
 20 39  1  0  0  0  0
 21 22  2  0  0  0  0
 21 40  1  0  0  0  0
 22 27  1  0  0  0  0
 22 23  1  0  0  0  0
 23 24  2  0  0  0  0
 23 25  1  0  0  0  0
 24 41  1  0  0  0  0
 25 26  1  0  0  0  0
 26 27  1  0  0  0  0
 26 42  1  0  0  0  0
 26 43  1  0  0  0  0
M  END
> <s_m_source_file>
AV-unprocessed.smi

> <i_m_source_file_index>
96

> <i_lp_mmshare_version>
43012

> <i_f3d_flags>
0

> <s_epik_input>
TzFbQ0gyXU9jKGMxMilbY0hdYyhbY0hdW2NIXTIpW05IXUMoPU8pW0NIMl1uM2MoPU8pYyhGKVtjSF1uKGMzPU8pW0NAQEhdNFtDSDJdW0NIMl1bQ0gyXU80

> <s_epik_cmdline>
J2VwaWtfcHl0aG9uJywgJy1waCcsICc3LjAnLCAnLXRuJywgJzgnLCAnLW1hJywgJzIwMCcsICctbWV0YWxfYmluZGluZycsICctaW1hZScsICc8aW5maWxlLm1hZT4nLCAnLW9tYWUnLCAnPG91dGZpbGUubWFlPic=

> <r_lp_tautomer_probability>
1

> <r_epik_Ionization_Penalty>
1.04778e-05

> <r_epik_Ionization_Penalty_Charging>
3.88729e-08

> <r_epik_Ionization_Penalty_Neutral>
1.04389e-05

> <r_epik_State_Penalty>
-0

> <r_epik_Charging_Adjusted_Penalty>
3.88729e-08

> <i_epik_Tot_Q>
0

> <i_epik_Tot_abs_Q>
0

> <r_epik_Metal_State_Penalty>
-0

> <b_epik_Metal_Only>
0

> <s_epik_Chemistry_Notes>
This compound contains an acetal/aminal-like group ( X-CH(R)-Y where X, Y are N, S, or O) that may be acid/base labile, releasing an aldehyde.

> <s_lp_Force_Field>
OPLS_2005

> <r_lp_Energy>
41.3846

> <b_lp_Chiralities_Consistent>
1

> <s_lp_Variant>
AV-unprocessed.smi:96-1

> <Gold.Version>
5.8.1

> <Gold.Id.Protein>
6NUR|6NUR_protein|mol2

> <Gold.PLP.Fitness>
53.0499

> <Gold.PLP.PLP>
-40.1317

> <Gold.PLP.part.hbond>
-4.0000

> <Gold.PLP.part.metal>
0.0000

> <Gold.PLP.part.buried>
-6.5105

> <Gold.PLP.part.nonpolar>
-31.3756

> <Gold.PLP.part.repulsive>
2.1726

> <Gold.PLP.ligand.clash>
0.0000

> <Gold.PLP.ligand.torsion>
0.5820

> <Gold.PLP.Chemscore.Hbond>
3.6800

> <Gold.PLP.Chemscore.CHOScore>
1.0000

> <Gold.PLP.Chemscore.Metal>
0.0000

> <Gold.Chemscore.Hbonds>
donor molecule, donor type, donor heavy atom, donor atom, acceptor molecule, acceptor atom, score
      P1  H  6931  6943       L1    25  0.99
      P1  H  6934  6947       L1    25  0.87
      P1  H  7997  8008       L1    17  0.77
      P1  H 10752 10765       L1     1  0.98
      L1  C     9    30       P1  8028  1.00

> <Gold.PLP.Chemscore.Internal.Correction>
0.0424

> <Gold.Rescore>
     Score         DG    S(hbond)    S(metal)    S(lipo)     H(rot)  DE(clash)    DE(int)     intcor
     12.17     -17.21       2.39        0.00      72.65       1.85       2.22       2.82       ----

> <Gold.Chemscore.Fitness>
12.1712

> <Gold.Chemscore.DG>
-17.2135

> <Gold.Chemscore.ZeroCoef>
-5.4800

> <Gold.Chemscore.Hbond>
2.3857

> <Gold.Chemscore.Metal>
0.0000

> <Gold.Chemscore.Lipo>
72.6543

> <Gold.Chemscore.Internal_Hbond>
0.0000

> <Gold.Chemscore.DEClash>
2.2237

> <Gold.Chemscore.DEInternal>
2.8185

> <Gold.Chemscore.Rot>
1.8497

> <Gold.Chemscore.Internal.Correction>
   9.000000E+99

> <Gold.Chemscore.Hbonds>
donor molecule, donor type, donor heavy atom, donor atom, acceptor molecule, acceptor atom, score
      P1  H  6931  6943       L1    25  0.61
      P1  H  6934  6947       L1    25  0.52
      P1  H  7997  8008       L1    17  0.76
      P1  H 10752 10765       L1     1  0.46

> <Gold.Chemscore.Hbond.Weighted>
-7.9683

> <Gold.Chemscore.Metal.Weighted>
-0.0000

> <Gold.Chemscore.Lipo.Weighted>
-8.5006

> <Gold.Chemscore.Internal_Hbond.Weighted>
0.0000

> <Gold.Chemscore.DEClash.Weighted>
2.2237

> <Gold.Chemscore.DEInternal.Weighted>
2.8185

> <Gold.Chemscore.Rot.Weighted>
4.7354

> <Gold.Chemscore.Internal.Correction.Weighted>
   9.000000E+99

> <Gold.Protein.RotatedTorsions>
[ 6907 6896 6895 6894 ] final    7.84 input  -60.11 | X-H torsion
[ 7974 7965 7964 7962 ] final -170.20 input  175.53 | X-H torsion
[ 8008 7997 7996 7995 ] final  -80.35 input   59.86 | X-H torsion
[ 10167 10162 10161 10158 ] final -111.77 input  -65.29 | X-H torsion
[ 10718 10713 10712 10709 ] final -151.71 input   66.30 | X-H torsion
[ 10763 10752 10751 10750 ] final -167.08 input  -60.55 | X-H torsion
[ 11005 11000 10999 10996 ] final -177.80 input  -57.11 | X-H torsion

> <Gold.Protein.ActiveResidues>
 VAL166  LYS551  ARG553  GLY616  TRP617  ASP618  TYR619  PRO620  LYS621  CYS622 
 ASP623  PHE694  ASN695  SER759  ASP760  ASP761  ALA762  ILE779  LEU786  VAL792 
 PHE793  MET794  SER795  GLU796  ALA797  LYS798  CYS799  TRP800  GLU811  SER814 

> <Gold.Protein.RotatedAtoms>
  151.6964  135.0937  160.0242 H   0  0  0  0  0  0  0  0  0  0  0  0  # atno 6907 bound_to 6896
  152.3747  133.6461  159.6123 H   0  0  0  0  0  0  0  0  0  0  0  0  # atno 6908 bound_to 6896
  150.7700  133.9129  159.3416 H   0  0  0  0  0  0  0  0  0  0  0  0  # atno 6909 bound_to 6896
  144.7173  140.2107  143.6327 H   0  0  0  0  0  0  0  0  0  0  0  0  # atno 7974 bound_to 7965
  154.5874  140.0664  156.9191 H   0  0  0  0  0  0  0  0  0  0  0  0  # atno 8008 bound_to 7997
  155.2354  140.3340  155.4280 H   0  0  0  0  0  0  0  0  0  0  0  0  # atno 8009 bound_to 7997
  156.2232  140.1808  156.7410 H   0  0  0  0  0  0  0  0  0  0  0  0  # atno 8010 bound_to 7997
  140.1300  143.4369  152.1634 H   0  0  0  0  0  0  0  0  0  0  0  0  # atno 10167 bound_to 10162
  156.4629  130.8222  151.2452 H   0  0  0  0  0  0  0  0  0  0  0  0  # atno 10718 bound_to 10713
  154.6768  135.2948  154.9668 H   0  0  0  0  0  0  0  0  0  0  0  0  # atno 10763 bound_to 10752
  154.0676  135.6622  153.4824 H   0  0  0  0  0  0  0  0  0  0  0  0  # atno 10764 bound_to 10752
  153.0521  135.5167  154.7791 H   0  0  0  0  0  0  0  0  0  0  0  0  # atno 10765 bound_to 10752
  140.4369  134.6467  157.4739 H   0  0  0  0  0  0  0  0  0  0  0  0  # atno 11005 bound_to 11000
  145.8593  139.2214  143.1726 LP  0  0  0  0  0  0  0  0  0  0  0  0  # atno 17320 bound_to 7965
  146.0188  140.8367  142.9933 LP  0  0  0  0  0  0  0  0  0  0  0  0  # atno 17321 bound_to 7965
  139.5524  144.7348  151.4394 LP  0  0  0  0  0  0  0  0  0  0  0  0  # atno 17342 bound_to 10162
  140.6822  143.8055  150.7137 LP  0  0  0  0  0  0  0  0  0  0  0  0  # atno 17343 bound_to 10162
  157.7496  131.0101  150.3294 LP  0  0  0  0  0  0  0  0  0  0  0  0  # atno 17370 bound_to 10713
  156.3698  130.3861  149.7184 LP  0  0  0  0  0  0  0  0  0  0  0  0  # atno 17371 bound_to 10713
  140.0096  134.6710  155.9401 LP  0  0  0  0  0  0  0  0  0  0  0  0  # atno 17394 bound_to 11000
  141.1722  133.6538  156.4694 LP  0  0  0  0  0  0  0  0  0  0  0  0  # atno 17395 bound_to 11000

$$$$
