AV-unprocessed.smi:1504|AV-procd|sdf|6073|dock7
  -GOLD-   22720 6193D 1   1.00000     0.00000
 Structure written by MMmdl.
 40 41  0  0  0  0  0  0  0  0  2 V2000
  146.9127  139.4200  154.4305 O   0  0  0  0  0  0  0  0  0  0  0  0
  147.6475  139.5991  153.4591 C   0  0  0  0  0  0  0  0  0  0  0  0
  147.3884  139.1394  152.2271 N   0  0  0  0  0  0  0  0  0  0  0  0
  146.2080  138.3672  151.8572 C   0  0  0  0  0  0  0  0  0  0  0  0
  146.0169  137.1498  152.7775 C   0  0  0  0  0  0  0  0  0  0  0  0
  145.6254  135.9028  152.0091 C   0  0  0  0  0  0  0  0  0  0  0  0
  144.2908  135.6430  151.6285 C   0  0  0  0  0  0  0  0  0  0  0  0
  143.9956  134.4638  150.9132 C   0  0  0  0  0  0  0  0  0  0  0  0
  145.0394  133.5709  150.5926 C   0  0  0  0  0  0  0  0  0  0  0  0
  146.3545  133.8813  150.9953 C   0  0  0  0  0  0  0  0  0  0  0  0
  146.5970  135.0209  151.6797 N   0  3  0  0  0  0  0  0  0  0  0  0
  148.8029  140.2735  153.5072 N   0  0  0  0  0  0  0  0  0  0  0  0
  149.3442  140.8901  154.7114 C   0  0  0  0  0  0  0  0  0  0  0  0
  150.5464  140.0952  155.2490 C   0  0  2  0  0  0  0  0  0  0  0  0
  150.3687  138.5738  155.0792 C   0  0  0  0  0  0  0  0  0  0  0  0
  151.4706  137.8638  155.8713 C   0  0  0  0  0  0  0  0  0  0  0  0
  151.7497  138.8986  157.3556 S   0  0  0  0  0  0  0  0  0  0  0  0
  151.0078  138.3338  158.4929 O   0  0  0  0  0  0  0  0  0  0  0  0
  153.1839  139.2057  157.4639 O   0  0  0  0  0  0  0  0  0  0  0  0
  150.8501  140.3704  156.7328 C   0  0  0  0  0  0  0  0  0  0  0  0
  148.0530  139.3395  151.4937 H   0  0  0  0  0  0  0  0  0  0  0  0
  145.3229  139.0055  151.8790 H   0  0  0  0  0  0  0  0  0  0  0  0
  146.3299  138.0403  150.8242 H   0  0  0  0  0  0  0  0  0  0  0  0
  146.9364  136.9499  153.3297 H   0  0  0  0  0  0  0  0  0  0  0  0
  145.2494  137.3577  153.5244 H   0  0  0  0  0  0  0  0  0  0  0  0
  143.5021  136.3374  151.8800 H   0  0  0  0  0  0  0  0  0  0  0  0
  142.9806  134.2470  150.6139 H   0  0  0  0  0  0  0  0  0  0  0  0
  144.8341  132.6622  150.0457 H   0  0  0  0  0  0  0  0  0  0  0  0
  147.2129  133.2576  150.7929 H   0  0  0  0  0  0  0  0  0  0  0  0
  149.3419  140.3699  152.6590 H   0  0  0  0  0  0  0  0  0  0  0  0
  149.6391  141.9170  154.4893 H   0  0  0  0  0  0  0  0  0  0  0  0
  148.5629  140.9391  155.4716 H   0  0  0  0  0  0  0  0  0  0  0  0
  151.4306  140.3794  154.6761 H   0  0  0  0  0  0  0  0  0  0  0  0
  149.3992  138.2778  155.4824 H   0  0  0  0  0  0  0  0  0  0  0  0
  150.3810  138.2793  154.0295 H   0  0  0  0  0  0  0  0  0  0  0  0
  151.2049  136.8473  156.1614 H   0  0  0  0  0  0  0  0  0  0  0  0
  152.3991  137.8346  155.3006 H   0  0  0  0  0  0  0  0  0  0  0  0
  151.4501  141.2674  156.8862 H   0  0  0  0  0  0  0  0  0  0  0  0
  149.9306  140.4656  157.3114 H   0  0  0  0  0  0  0  0  0  0  0  0
  147.5563  135.2251  151.9610 H   0  0  0  0  0  0  0  0  0  0  0  0
  1  2  2  0  0  0  0
  2  3  1  0  0  0  0
  2 12  1  0  0  0  0
  3  4  1  0  0  0  0
  3 21  1  0  0  0  0
  4  5  1  0  0  0  0
  4 22  1  0  0  0  0
  4 23  1  0  0  0  0
  5  6  1  0  0  0  0
  5 24  1  0  0  0  0
  5 25  1  0  0  0  0
  6 11  1  0  0  0  0
  6  7  2  0  0  0  0
  7  8  1  0  0  0  0
  7 26  1  0  0  0  0
  8  9  2  0  0  0  0
  8 27  1  0  0  0  0
  9 10  1  0  0  0  0
  9 28  1  0  0  0  0
 10 11  2  0  0  0  0
 10 29  1  0  0  0  0
 11 40  1  0  0  0  0
 12 13  1  0  0  0  0
 12 30  1  0  0  0  0
 13 14  1  0  0  0  0
 13 31  1  0  0  0  0
 13 32  1  0  0  0  0
 14 20  1  0  0  0  0
 14 15  1  0  0  0  0
 14 33  1  0  0  0  0
 15 16  1  0  0  0  0
 15 34  1  0  0  0  0
 15 35  1  0  0  0  0
 16 17  1  0  0  0  0
 16 36  1  0  0  0  0
 16 37  1  0  0  0  0
 17 18  2  0  0  0  0
 17 19  2  0  0  0  0
 17 20  1  0  0  0  0
 20 38  1  0  0  0  0
 20 39  1  0  0  0  0
M  CHG  1  11   1
M  END
> <s_m_source_file>
AV-unprocessed.smi

> <i_m_source_file_index>
1504

> <i_lp_mmshare_version>
43012

> <i_f3d_flags>
0

> <s_epik_input>
Tz1TMSg9TylbQ0gyXVtDSDJdW0NASF0oW0NIMl0xKVtDSDJdW05IXUMoPU8pW05IXVtDSDJdW0NIMl1jMltjSF1bY0hdW2NIXVtjSF1uMg==

> <s_epik_cmdline>
J2VwaWtfcHl0aG9uJywgJy1waCcsICc3LjAnLCAnLXRuJywgJzgnLCAnLW1hJywgJzIwMCcsICctbWV0YWxfYmluZGluZycsICctaW1hZScsICc8aW5maWxlLm1hZT4nLCAnLW9tYWUnLCAnPG91dGZpbGUubWFlPic=

> <r_epik_Ionization_Penalty>
1.57393

> <r_epik_Ionization_Penalty_Charging>
1.57388

> <r_epik_Ionization_Penalty_Neutral>
4.82054e-05

> <r_epik_State_Penalty>
1.66991

> <r_epik_Charging_Adjusted_Penalty>
3.24379

> <i_epik_Tot_Q>
1

> <i_epik_Tot_abs_Q>
1

> <r_epik_Metal_State_Penalty>
1.71052

> <b_epik_Metal_Only>
0

> <s_lp_Force_Field>
OPLS_2005

> <r_lp_Energy>
6.68719

> <b_lp_Chiralities_Consistent>
1

> <s_lp_Variant>
AV-unprocessed.smi:1504-3

> <Gold.Version>
5.8.1

> <Gold.Id.Protein>
6NUR|6NUR_protein|mol2

> <Gold.PLP.Fitness>
44.5854

> <Gold.PLP.PLP>
-31.7439

> <Gold.PLP.part.hbond>
-4.0202

> <Gold.PLP.part.metal>
0.0000

> <Gold.PLP.part.buried>
-2.5004

> <Gold.PLP.part.nonpolar>
-26.4997

> <Gold.PLP.part.repulsive>
0.4056

> <Gold.PLP.ligand.clash>
0.0000

> <Gold.PLP.ligand.torsion>
0.9465

> <Gold.PLP.Chemscore.Hbond>
4.9040

> <Gold.PLP.Chemscore.CHOScore>
0.0000

> <Gold.PLP.Chemscore.Metal>
0.0000

> <Gold.Chemscore.Hbonds>
donor molecule, donor type, donor heavy atom, donor atom, acceptor molecule, acceptor atom, score
      L1  H     3    21       P1  7957  0.93
      L1  H    11    40       P1  7948  1.98
      L1  H    12    30       P1  7957  1.00
      P1  H  7997  8008       L1    19  0.99

> <Gold.PLP.Chemscore.Internal.Correction>
0.0224

> <Gold.Rescore>
     Score         DG    S(hbond)    S(metal)    S(lipo)     H(rot)  DE(clash)    DE(int)     intcor
     19.51     -21.46       3.82        0.00      71.52       2.01       0.06       1.90       ----

> <Gold.Chemscore.Fitness>
19.5072

> <Gold.Chemscore.DG>
-21.4629

> <Gold.Chemscore.ZeroCoef>
-5.4800

> <Gold.Chemscore.Hbond>
3.8241

> <Gold.Chemscore.Metal>
0.0000

> <Gold.Chemscore.Lipo>
71.5177

> <Gold.Chemscore.Internal_Hbond>
0.0000

> <Gold.Chemscore.DEClash>
0.0553

> <Gold.Chemscore.DEInternal>
1.9004

> <Gold.Chemscore.Rot>
2.0146

> <Gold.Chemscore.Internal.Correction>
   9.000000E+99

> <Gold.Chemscore.Hbonds>
donor molecule, donor type, donor heavy atom, donor atom, acceptor molecule, acceptor atom, score
      L1  H     3    21       P1  7957  0.86
      L1  H    11    40       P1  7948  0.89
      L1  H    12    30       P1  7957  0.92
      P1  H  7997  8008       L1    19  0.93

> <Gold.Chemscore.Hbond.Weighted>
-12.7726

> <Gold.Chemscore.Metal.Weighted>
-0.0000

> <Gold.Chemscore.Lipo.Weighted>
-8.3676

> <Gold.Chemscore.Internal_Hbond.Weighted>
0.0000

> <Gold.Chemscore.DEClash.Weighted>
0.0553

> <Gold.Chemscore.DEInternal.Weighted>
1.9004

> <Gold.Chemscore.Rot.Weighted>
5.1573

> <Gold.Chemscore.Internal.Correction.Weighted>
   9.000000E+99

> <Gold.Protein.RotatedTorsions>
[ 6907 6896 6895 6894 ] final   95.70 input  -60.11 | X-H torsion
[ 7974 7965 7964 7962 ] final -152.40 input  175.53 | X-H torsion
[ 8008 7997 7996 7995 ] final  -51.97 input   59.86 | X-H torsion
[ 10167 10162 10161 10158 ] final   20.34 input  -65.29 | X-H torsion
[ 10718 10713 10712 10709 ] final -121.86 input   66.30 | X-H torsion
[ 10763 10752 10751 10750 ] final  117.68 input  -60.55 | X-H torsion
[ 11005 11000 10999 10996 ] final -152.07 input  -57.11 | X-H torsion

> <Gold.Protein.ActiveResidues>
 VAL166  LYS551  ARG553  GLY616  TRP617  ASP618  TYR619  PRO620  LYS621  CYS622 
 ASP623  PHE694  ASN695  SER759  ASP760  ASP761  ALA762  ILE779  LEU786  VAL792 
 PHE793  MET794  SER795  GLU796  ALA797  LYS798  CYS799  TRP800  GLU811  SER814 

> <Gold.Protein.RotatedAtoms>
  152.5441  134.0999  159.8313 H   0  0  0  0  0  0  0  0  0  0  0  0  # atno 6907 bound_to 6896
  151.1078  133.5188  159.2614 H   0  0  0  0  0  0  0  0  0  0  0  0  # atno 6908 bound_to 6896
  151.1918  135.0415  159.8890 H   0  0  0  0  0  0  0  0  0  0  0  0  # atno 6909 bound_to 6896
  144.7796  140.4667  143.5849 H   0  0  0  0  0  0  0  0  0  0  0  0  # atno 7974 bound_to 7965
  154.4095  140.1235  156.4916 H   0  0  0  0  0  0  0  0  0  0  0  0  # atno 8008 bound_to 7997
  155.6984  140.3495  155.4903 H   0  0  0  0  0  0  0  0  0  0  0  0  # atno 8009 bound_to 7997
  155.9407  140.1086  157.1048 H   0  0  0  0  0  0  0  0  0  0  0  0  # atno 8010 bound_to 7997
  140.5511  143.9508  150.6578 H   0  0  0  0  0  0  0  0  0  0  0  0  # atno 10167 bound_to 10162
  156.1371  130.6438  150.9713 H   0  0  0  0  0  0  0  0  0  0  0  0  # atno 10718 bound_to 10713
  153.5560  135.3530  155.2779 H   0  0  0  0  0  0  0  0  0  0  0  0  # atno 10763 bound_to 10752
  154.8701  135.4125  154.2884 H   0  0  0  0  0  0  0  0  0  0  0  0  # atno 10764 bound_to 10752
  153.3620  135.7060  153.6774 H   0  0  0  0  0  0  0  0  0  0  0  0  # atno 10765 bound_to 10752
  140.7228  134.3708  157.5180 H   0  0  0  0  0  0  0  0  0  0  0  0  # atno 11005 bound_to 11000
  145.6088  139.1511  143.3088 LP  0  0  0  0  0  0  0  0  0  0  0  0  # atno 17320 bound_to 7965
  146.1996  140.6205  142.9108 LP  0  0  0  0  0  0  0  0  0  0  0  0  # atno 17321 bound_to 7965
  140.2934  143.3309  152.1041 LP  0  0  0  0  0  0  0  0  0  0  0  0  # atno 17342 bound_to 10162
  139.5027  144.6741  151.6171 LP  0  0  0  0  0  0  0  0  0  0  0  0  # atno 17343 bound_to 10162
  157.6542  131.0892  150.7984 LP  0  0  0  0  0  0  0  0  0  0  0  0  # atno 17370 bound_to 10713
  156.8062  130.4937  149.5362 LP  0  0  0  0  0  0  0  0  0  0  0  0  # atno 17371 bound_to 10713
  139.8844  134.8966  156.2705 LP  0  0  0  0  0  0  0  0  0  0  0  0  # atno 17394 bound_to 11000
  140.9988  133.7164  156.0928 LP  0  0  0  0  0  0  0  0  0  0  0  0  # atno 17395 bound_to 11000

$$$$
