#       Name:                AV-unprocessed.smi:1952
#       Creating user name   scv26
#       Creation time:       Fri Mar 27 10:04:22 2020


#       File generated by GOLD software.
#

@<TRIPOS>MOLECULE
AV-unprocessed.smi:1952
    47    48     1
SMALL
NO_CHARGES


@<TRIPOS>ATOM
      1 ****        -5.1407   3.5525  -0.1582 C.3            1 S1                 0.0000
      2 ****        -4.1746   2.4292  -0.3175 C.2            1 S1                 0.0000
      3 ****        -3.2883   2.0972  -1.3026 C.2            1 S1                 0.0000
      4 ****        -2.6826   0.9107  -0.8075 C.2            1 S1                 0.0000
      5 ****        -1.7378   0.1896  -1.4305 N.pl3          1 S1                -1.0000
      6 ****        -0.4303   0.4428  -1.2009 C.2            1 S1                 0.0000
      7 ****         0.0242   1.3202  -0.4635 O.2            1 S1                 0.0000
      8 ****         0.4005  -0.3949  -1.8400 N.am           1 S1                 0.0000
      9 ****         1.8587  -0.4456  -1.7166 C.3            1 S1                 0.0000
     10 ****         2.4715  -0.7768  -3.0838 C.3            1 S1                 0.0000
     11 ****         2.2814  -1.4737  -0.6424 C.3            1 S1                 0.0000
     12 ****         1.6395  -1.2223   0.6722 N.4            1 S1                 1.0000
     13 ****         1.4600  -2.4445   1.4883 C.3            1 S1                 0.0000
     14 ****         0.6900  -2.1058   2.7763 C.3            1 S1                 0.0000
     15 ****         1.3841  -1.0942   3.4977 O.3            1 S1                 0.0000
     16 ****         1.5020   0.1107   2.7492 C.3            1 S1                 0.0000
     17 ****         2.3027  -0.1602   1.4652 C.3            1 S1                 0.0000
     18 ****        -3.1685   0.5460   0.3678 N.2            1 S1                 0.0000
     19 ****        -4.1213   1.5193   0.6921 O.3            1 S1                 0.0000
     20 ****        -6.1250   3.1800   0.1254 H              1 S1                 0.0000
     21 ****        -5.2458   4.1101  -1.0889 H              1 S1                 0.0000
     22 ****        -4.8043   4.2439   0.6144 H              1 S1                 0.0000
     23 ****        -3.1006   2.6200  -2.2285 H              1 S1                 0.0000
     24 ****        -0.0250  -1.0860  -2.4408 H              1 S1                 0.0000
     25 ****         2.2334   0.5387  -1.4326 H              1 S1                 0.0000
     26 ****         3.5604  -0.7953  -3.0313 H              1 S1                 0.0000
     27 ****         2.1911  -0.0325  -3.8300 H              1 S1                 0.0000
     28 ****         2.1389  -1.7508  -3.4447 H              1 S1                 0.0000
     29 ****         1.9911  -2.4651  -0.9936 H              1 S1                 0.0000
     30 ****         3.3663  -1.4976  -0.5294 H              1 S1                 0.0000
     31 ****         0.9070  -3.1934   0.9200 H              1 S1                 0.0000
     32 ****         2.4338  -2.8736   1.7292 H              1 S1                 0.0000
     33 ****        -0.3242  -1.7740   2.5470 H              1 S1                 0.0000
     34 ****         0.6009  -2.9915   3.4056 H              1 S1                 0.0000
     35 ****         0.5129   0.5082   2.5150 H              1 S1                 0.0000
     36 ****         2.0102   0.8578   3.3589 H              1 S1                 0.0000
     37 ****         3.3198  -0.4665   1.7142 H              1 S1                 0.0000
     38 ****         2.3793   0.7572   0.8823 H              1 S1                 0.0000
     39 ****         0.7078  -0.8901   0.4626 H              1 S1                 0.0000
     40 ****        -2.0016  -0.5363  -2.0657 LP             1 S1                 0.0000
     41 ****        -0.5964   1.9270   0.0331 LP             1 S1                 0.0000
     42 ****         1.0135   1.4251  -0.3620 LP             1 S1                 0.0000
     43 ****         2.3006  -1.4272   3.7194 LP             1 S1                 0.0000
     44 ****         0.8860  -0.9014   4.3431 LP             1 S1                 0.0000
     45 ****        -2.9103  -0.2542   0.9091 LP             1 S1                 0.0000
     46 ****        -5.0169   1.0892   0.8053 LP             1 S1                 0.0000
     47 ****        -3.8605   1.9754   1.5430 LP             1 S1                 0.0000
@<TRIPOS>BOND
    1    1    2 1     
    2    1   20 1     
    3    1   21 1     
    4    1   22 1     
    5    2   19 1     
    6    2    3 2     
    7    3    4 1     
    8    3   23 1     
    9    4    5 1     
   10    4   18 2     
   11    5    6 1     
   12    6    7 2     
   13    6    8 am    
   14    8    9 1     
   15    8   24 1     
   16    9   10 1     
   17    9   11 1     
   18    9   25 1     
   19   10   26 1     
   20   10   27 1     
   21   10   28 1     
   22   11   12 1     
   23   11   29 1     
   24   11   30 1     
   25   12   17 1     
   26   12   13 1     
   27   12   39 1     
   28   13   14 1     
   29   13   31 1     
   30   13   32 1     
   31   14   15 1     
   32   14   33 1     
   33   14   34 1     
   34   15   16 1     
   35   16   17 1     
   36   16   35 1     
   37   16   36 1     
   38   17   37 1     
   39   17   38 1     
   40   18   19 1     
   41    5   40 1     
   42    7   41 1     
   43    7   42 1     
   44   15   43 1     
   45   15   44 1     
   46   18   45 1     
   47   19   46 1     
   48   19   47 1     
@<TRIPOS>SUBSTRUCTURE
      1 S1             1
@<TRIPOS>SET
LONE_PAIRS      STATIC     ATOMS    <user>   **** ""
8 40 41 42 43 44 45 46 47
DONOR_HYDROGENS      STATIC     ATOMS    <user>   **** ""
2 24 39
ATOM$BLUE        STATIC     ATOMS    COLORGROUP SYSTEM
8 40 41 42 43 44 45 46 47
ATOM$RED        STATIC     ATOMS    COLORGROUP SYSTEM
2 24 39
