AV-unprocessed.smi:2036|AV-procd|sdf|8275|dock3
  -GOLD-   2272010543D 1   1.00000     0.00000
 Structure written by MMmdl.
 41 42  0  0  0  0  0  0  0  0  1 V2000
  145.6139  136.8810  151.4917 C   0  0  0  0  0  0  0  0  0  0  0  0
  146.2145  137.4907  152.6206 O   0  0  0  0  0  0  0  0  0  0  0  0
  146.7725  138.7611  152.3200 C   0  0  0  0  0  0  0  0  0  0  0  0
  147.2162  139.4527  153.6113 C   0  0  0  0  0  0  0  0  0  0  0  0
  146.3964  139.6968  154.4965 O   0  0  0  0  0  0  0  0  0  0  0  0
  148.5229  139.7692  153.6689 N   0  0  0  0  0  0  0  0  0  0  0  0
  149.2431  140.4071  154.7158 C   0  0  0  0  0  0  0  0  0  0  0  0
  150.6145  140.1922  154.9936 C   0  0  0  0  0  0  0  0  0  0  0  0
  151.2147  140.9031  156.0507 C   0  0  0  0  0  0  0  0  0  0  0  0
  150.4315  141.8108  156.7923 C   0  0  0  0  0  0  0  0  0  0  0  0
  151.0260  142.5207  157.8449 N   0  0  0  0  0  0  0  0  0  0  0  0
  152.0176  141.7496  158.5815 C   0  0  0  0  0  0  0  0  0  0  0  0
  152.4824  142.5380  159.8184 C   0  0  1  0  0  0  0  0  0  0  0  0
  153.6035  141.8129  160.5698 C   0  0  0  0  0  0  0  0  0  0  0  0
  152.9760  143.8144  159.4094 O   0  0  0  0  0  0  0  0  0  0  0  0
  152.0451  144.6120  158.6722 C   0  0  2  0  0  0  0  0  0  0  0  0
  150.9227  145.1657  159.5678 C   0  0  0  0  0  0  0  0  0  0  0  0
  151.5276  143.8301  157.4479 C   0  0  0  0  0  0  0  0  0  0  0  0
  149.1224  142.0303  156.5254 N   0  0  0  0  0  0  0  0  0  0  0  0
  148.5536  141.3460  155.5109 C   0  0  0  0  0  0  0  0  0  0  0  0
  145.2000  135.9134  151.7752 H   0  0  0  0  0  0  0  0  0  0  0  0
  146.3440  136.7161  150.6982 H   0  0  0  0  0  0  0  0  0  0  0  0
  144.8009  137.4932  151.0989 H   0  0  0  0  0  0  0  0  0  0  0  0
  147.6333  138.6496  151.6588 H   0  0  0  0  0  0  0  0  0  0  0  0
  146.0365  139.3865  151.8121 H   0  0  0  0  0  0  0  0  0  0  0  0
  149.0585  139.5745  152.8355 H   0  0  0  0  0  0  0  0  0  0  0  0
  151.2210  139.5132  154.4153 H   0  0  0  0  0  0  0  0  0  0  0  0
  152.2594  140.7558  156.2823 H   0  0  0  0  0  0  0  0  0  0  0  0
  151.5898  140.7929  158.8836 H   0  0  0  0  0  0  0  0  0  0  0  0
  152.8700  141.5332  157.9354 H   0  0  0  0  0  0  0  0  0  0  0  0
  151.6451  142.6698  160.5044 H   0  0  0  0  0  0  0  0  0  0  0  0
  153.2764  140.8301  160.9098 H   0  0  0  0  0  0  0  0  0  0  0  0
  153.9151  142.3809  161.4465 H   0  0  0  0  0  0  0  0  0  0  0  0
  154.4783  141.6737  159.9339 H   0  0  0  0  0  0  0  0  0  0  0  0
  152.6058  145.4713  158.3032 H   0  0  0  0  0  0  0  0  0  0  0  0
  150.2987  145.8674  159.0141 H   0  0  0  0  0  0  0  0  0  0  0  0
  151.3365  145.6980  160.4246 H   0  0  0  0  0  0  0  0  0  0  0  0
  150.2684  144.3803  159.9455 H   0  0  0  0  0  0  0  0  0  0  0  0
  152.3406  143.6994  156.7321 H   0  0  0  0  0  0  0  0  0  0  0  0
  150.7439  144.3936  156.9400 H   0  0  0  0  0  0  0  0  0  0  0  0
  147.5091  141.5548  155.3312 H   0  0  0  0  0  0  0  0  0  0  0  0
  1  2  1  0  0  0  0
  1 21  1  0  0  0  0
  1 22  1  0  0  0  0
  1 23  1  0  0  0  0
  2  3  1  0  0  0  0
  3  4  1  0  0  0  0
  3 24  1  0  0  0  0
  3 25  1  0  0  0  0
  4  5  2  0  0  0  0
  4  6  1  0  0  0  0
  6  7  1  0  0  0  0
  6 26  1  0  0  0  0
  7 20  1  0  0  0  0
  7  8  2  0  0  0  0
  8  9  1  0  0  0  0
  8 27  1  0  0  0  0
  9 10  2  0  0  0  0
  9 28  1  0  0  0  0
 10 11  1  0  0  0  0
 10 19  1  0  0  0  0
 11 18  1  0  0  0  0
 11 12  1  0  0  0  0
 12 13  1  0  0  0  0
 12 29  1  0  0  0  0
 12 30  1  0  0  0  0
 13 14  1  0  0  0  0
 13 15  1  0  0  0  0
 13 31  1  0  0  0  0
 14 32  1  0  0  0  0
 14 33  1  0  0  0  0
 14 34  1  0  0  0  0
 15 16  1  0  0  0  0
 16 17  1  0  0  0  0
 16 18  1  0  0  0  0
 16 35  1  0  0  0  0
 17 36  1  0  0  0  0
 17 37  1  0  0  0  0
 17 38  1  0  0  0  0
 18 39  1  0  0  0  0
 18 40  1  0  0  0  0
 19 20  2  0  0  0  0
 20 41  1  0  0  0  0
M  END
> <s_m_source_file>
AV-unprocessed.smi

> <i_m_source_file_index>
2036

> <i_lp_mmshare_version>
43012

> <i_f3d_flags>
0

> <s_epik_input>
W0NIM11PW0NIMl1DKD1PKVtOSF1jMVtjSF1bY0hdYyhuW2NIXTEpTjJbQ0gyXVtDQEBIXShbQ0gzXSlPW0NAQEhdKFtDSDNdKVtDSDJdMg==

> <s_epik_cmdline>
J2VwaWtfcHl0aG9uJywgJy1waCcsICc3LjAnLCAnLXRuJywgJzgnLCAnLW1hJywgJzIwMCcsICctbWV0YWxfYmluZGluZycsICctaW1hZScsICc8aW5maWxlLm1hZT4nLCAnLW9tYWUnLCAnPG91dGZpbGUubWFlPic=

> <r_lp_tautomer_probability>
1

> <r_epik_Ionization_Penalty>
0.000662619

> <r_epik_Ionization_Penalty_Charging>
0

> <r_epik_Ionization_Penalty_Neutral>
0.000662619

> <r_epik_State_Penalty>
0.000419321

> <r_epik_Charging_Adjusted_Penalty>
0.000419321

> <i_epik_Tot_Q>
0

> <i_epik_Tot_abs_Q>
0

> <r_epik_Metal_State_Penalty>
-0

> <b_epik_Metal_Only>
0

> <s_lp_Force_Field>
OPLS_2005

> <r_lp_Energy>
28.2221

> <b_lp_Chiralities_Consistent>
1

> <s_lp_Variant>
AV-unprocessed.smi:2036-3

> <Gold.Version>
5.8.1

> <Gold.Id.Protein>
6NUR|6NUR_protein|mol2

> <Gold.PLP.Fitness>
42.8789

> <Gold.PLP.PLP>
-41.7114

> <Gold.PLP.part.hbond>
-1.0000

> <Gold.PLP.part.metal>
0.0000

> <Gold.PLP.part.buried>
-3.5048

> <Gold.PLP.part.nonpolar>
-40.2061

> <Gold.PLP.part.repulsive>
2.6772

> <Gold.PLP.ligand.clash>
0.0000

> <Gold.PLP.ligand.torsion>
0.9107

> <Gold.PLP.Chemscore.Hbond>
0.9600

> <Gold.PLP.Chemscore.CHOScore>
0.0000

> <Gold.PLP.Chemscore.Metal>
0.0000

> <Gold.Chemscore.Hbonds>
donor molecule, donor type, donor heavy atom, donor atom, acceptor molecule, acceptor atom, score
      L1  H     6    26       P1  7957  1.00

> <Gold.PLP.Chemscore.Internal.Correction>
0.1090

> <Gold.Rescore>
     Score         DG    S(hbond)    S(metal)    S(lipo)     H(rot)  DE(clash)    DE(int)     intcor
     14.03     -17.66       0.97        0.00     107.10       1.41       1.53       2.10       ----

> <Gold.Chemscore.Fitness>
14.0317

> <Gold.Chemscore.DG>
-17.6578

> <Gold.Chemscore.ZeroCoef>
-5.4800

> <Gold.Chemscore.Hbond>
0.9734

> <Gold.Chemscore.Metal>
0.0000

> <Gold.Chemscore.Lipo>
107.0967

> <Gold.Chemscore.Internal_Hbond>
0.0000

> <Gold.Chemscore.DEClash>
1.5259

> <Gold.Chemscore.DEInternal>
2.1002

> <Gold.Chemscore.Rot>
1.4077

> <Gold.Chemscore.Internal.Correction>
   9.000000E+99

> <Gold.Chemscore.Hbonds>
donor molecule, donor type, donor heavy atom, donor atom, acceptor molecule, acceptor atom, score
      L1  H     6    26       P1  7957  0.95

> <Gold.Chemscore.Hbond.Weighted>
-3.2511

> <Gold.Chemscore.Metal.Weighted>
-0.0000

> <Gold.Chemscore.Lipo.Weighted>
-12.5303

> <Gold.Chemscore.Internal_Hbond.Weighted>
0.0000

> <Gold.Chemscore.DEClash.Weighted>
1.5259

> <Gold.Chemscore.DEInternal.Weighted>
2.1002

> <Gold.Chemscore.Rot.Weighted>
3.6036

> <Gold.Chemscore.Internal.Correction.Weighted>
   9.000000E+99

> <Gold.Protein.RotatedTorsions>
[ 6907 6896 6895 6894 ] final  165.59 input  -60.11 | X-H torsion
[ 7974 7965 7964 7962 ] final  -62.76 input  175.53 | X-H torsion
[ 8008 7997 7996 7995 ] final  -58.70 input   59.86 | X-H torsion
[ 10167 10162 10161 10158 ] final -163.03 input  -65.29 | X-H torsion
[ 10718 10713 10712 10709 ] final -162.57 input   66.30 | X-H torsion
[ 10763 10752 10751 10750 ] final  -73.72 input  -60.55 | X-H torsion
[ 11005 11000 10999 10996 ] final -114.46 input  -57.11 | X-H torsion

> <Gold.Protein.ActiveResidues>
 VAL166  LYS551  ARG553  GLY616  TRP617  ASP618  TYR619  PRO620  LYS621  CYS622 
 ASP623  PHE694  ASN695  SER759  ASP760  ASP761  ALA762  ILE779  LEU786  VAL792 
 PHE793  MET794  SER795  GLU796  ALA797  LYS798  CYS799  TRP800  GLU811  SER814 

> <Gold.Protein.RotatedAtoms>
  151.8921  133.3518  159.3801 H   0  0  0  0  0  0  0  0  0  0  0  0  # atno 6907 bound_to 6896
  150.7101  134.4914  159.5526 H   0  0  0  0  0  0  0  0  0  0  0  0  # atno 6908 bound_to 6896
  152.2486  134.8156  160.0500 H   0  0  0  0  0  0  0  0  0  0  0  0  # atno 6909 bound_to 6896
  145.7874  140.8729  143.0299 H   0  0  0  0  0  0  0  0  0  0  0  0  # atno 7974 bound_to 7965
  154.4320  140.1078  156.5999 H   0  0  0  0  0  0  0  0  0  0  0  0  # atno 8008 bound_to 7997
  155.5922  140.3492  155.4551 H   0  0  0  0  0  0  0  0  0  0  0  0  # atno 8009 bound_to 7997
  156.0237  140.1245  157.0320 H   0  0  0  0  0  0  0  0  0  0  0  0  # atno 8010 bound_to 7997
  139.6350  144.0367  152.2047 H   0  0  0  0  0  0  0  0  0  0  0  0  # atno 10167 bound_to 10162
  156.6124  130.8856  151.2939 H   0  0  0  0  0  0  0  0  0  0  0  0  # atno 10718 bound_to 10713
  154.4633  135.5888  153.6270 H   0  0  0  0  0  0  0  0  0  0  0  0  # atno 10763 bound_to 10752
  152.9826  135.6049  154.3459 H   0  0  0  0  0  0  0  0  0  0  0  0  # atno 10764 bound_to 10752
  154.3333  135.2842  155.2439 H   0  0  0  0  0  0  0  0  0  0  0  0  # atno 10765 bound_to 10752
  141.0550  133.9626  157.2769 H   0  0  0  0  0  0  0  0  0  0  0  0  # atno 11005 bound_to 11000
  144.6787  140.0074  143.7484 LP  0  0  0  0  0  0  0  0  0  0  0  0  # atno 17320 bound_to 7965
  146.0012  139.3093  143.0926 LP  0  0  0  0  0  0  0  0  0  0  0  0  # atno 17321 bound_to 7965
  140.0042  144.6271  150.7703 LP  0  0  0  0  0  0  0  0  0  0  0  0  # atno 17342 bound_to 10162
  140.7460  143.2884  151.3398 LP  0  0  0  0  0  0  0  0  0  0  0  0  # atno 17343 bound_to 10162
  157.7250  130.9611  150.1598 LP  0  0  0  0  0  0  0  0  0  0  0  0  # atno 17370 bound_to 10713
  156.2379  130.3688  149.8370 LP  0  0  0  0  0  0  0  0  0  0  0  0  # atno 17371 bound_to 10713
  139.9383  135.0194  156.8626 LP  0  0  0  0  0  0  0  0  0  0  0  0  # atno 17394 bound_to 11000
  140.5981  134.0198  155.7526 LP  0  0  0  0  0  0  0  0  0  0  0  0  # atno 17395 bound_to 11000

$$$$
