AV-unprocessed.smi:2700|AV-procd|sdf|10426|dock7
  -GOLD-   2272014463D 1   1.00000     0.00000
 Structure written by MMmdl.
 20 21  0  0  0  0  0  0  0  0  2 V2000
  151.0892  140.4321  155.1372 O   0  0  0  0  0  0  0  0  0  0  0  0
  151.7401  140.1526  156.1677 C   0  0  0  0  0  0  0  0  0  0  0  0
  152.8157  139.5156  156.2006 O   0  5  0  0  0  0  0  0  0  0  0  0
  151.1581  140.6106  157.5075 C   0  0  0  0  0  0  0  0  0  0  0  0
  151.6320  141.9434  158.0045 C   0  0  0  0  0  0  0  0  0  0  0  0
  152.5445  142.0405  159.0760 C   0  0  0  0  0  0  0  0  0  0  0  0
  152.9537  143.3141  159.5157 C   0  0  0  0  0  0  0  0  0  0  0  0
  152.4282  144.4468  158.8642 C   0  0  0  0  0  0  0  0  0  0  0  0
  151.5515  144.3721  157.8405 N   0  0  0  0  0  0  0  0  0  0  0  0
  151.1644  143.1449  157.4294 C   0  0  0  0  0  0  0  0  0  0  0  0
  149.7291  140.1789  157.7817 C   0  0  0  0  0  0  0  0  0  0  0  0
  150.8654  139.5039  158.5042 C   0  0  0  0  0  0  0  0  0  0  0  0
  152.9241  141.1503  159.5557 H   0  0  0  0  0  0  0  0  0  0  0  0
  153.6507  143.4194  160.3337 H   0  0  0  0  0  0  0  0  0  0  0  0
  152.7183  145.4395  159.1754 H   0  0  0  0  0  0  0  0  0  0  0  0
  150.4582  143.1201  156.6124 H   0  0  0  0  0  0  0  0  0  0  0  0
  149.0973  140.8457  158.3649 H   0  0  0  0  0  0  0  0  0  0  0  0
  149.2083  139.5851  157.0325 H   0  0  0  0  0  0  0  0  0  0  0  0
  151.0781  138.4745  158.2212 H   0  0  0  0  0  0  0  0  0  0  0  0
  150.9838  139.7268  159.5625 H   0  0  0  0  0  0  0  0  0  0  0  0
  1  2  2  0  0  0  0
  2  3  1  0  0  0  0
  2  4  1  0  0  0  0
  4 12  1  0  0  0  0
  4  5  1  0  0  0  0
  4 11  1  0  0  0  0
  5 10  1  0  0  0  0
  5  6  2  0  0  0  0
  6  7  1  0  0  0  0
  6 13  1  0  0  0  0
  7  8  2  0  0  0  0
  7 14  1  0  0  0  0
  8  9  1  0  0  0  0
  8 15  1  0  0  0  0
  9 10  2  0  0  0  0
 10 16  1  0  0  0  0
 11 12  1  0  0  0  0
 11 17  1  0  0  0  0
 11 18  1  0  0  0  0
 12 19  1  0  0  0  0
 12 20  1  0  0  0  0
M  CHG  1   3  -1
M  END
> <s_m_source_file>
AV-unprocessed.smi

> <i_m_source_file_index>
2700

> <i_lp_mmshare_version>
43012

> <i_f3d_flags>
0

> <s_epik_input>
Tz1DKFtPSF0pQzEoW0NIMl1bQ0gyXTEpYzJbY0hdW2NIXVtjSF1uW2NIXTI=

> <s_epik_cmdline>
J2VwaWtfcHl0aG9uJywgJy1waCcsICc3LjAnLCAnLXRuJywgJzgnLCAnLW1hJywgJzIwMCcsICctbWV0YWxfYmluZGluZycsICctaW1hZScsICc8aW5maWxlLm1hZT4nLCAnLW9tYWUnLCAnPG91dGZpbGUubWFlPic=

> <r_epik_Ionization_Penalty>
0.0484924

> <r_epik_Ionization_Penalty_Charging>
0.000756486

> <r_epik_Ionization_Penalty_Neutral>
0.0477359

> <r_epik_State_Penalty>
0.04067

> <r_epik_Charging_Adjusted_Penalty>
0.0414265

> <i_epik_Tot_Q>
-1

> <i_epik_Tot_abs_Q>
1

> <r_epik_Metal_State_Penalty>
4.20968e-05

> <b_epik_Metal_Only>
0

> <s_lp_Force_Field>
OPLS_2005

> <r_lp_Energy>
7.44883

> <b_lp_Chiralities_Consistent>
1

> <s_lp_Variant>
AV-unprocessed.smi:2700-1

> <Gold.Version>
5.8.1

> <Gold.Id.Protein>
6NUR|6NUR_protein|mol2

> <Gold.PLP.Fitness>
38.2755

> <Gold.PLP.PLP>
-26.5928

> <Gold.PLP.part.hbond>
-2.0000

> <Gold.PLP.part.metal>
0.0000

> <Gold.PLP.part.buried>
-4.1403

> <Gold.PLP.part.nonpolar>
-20.6909

> <Gold.PLP.part.repulsive>
0.1799

> <Gold.PLP.ligand.clash>
0.0000

> <Gold.PLP.ligand.torsion>
0.9768

> <Gold.PLP.Chemscore.Hbond>
3.0000

> <Gold.PLP.Chemscore.CHOScore>
1.0000

> <Gold.PLP.Chemscore.Metal>
0.0000

> <Gold.Chemscore.Hbonds>
donor molecule, donor type, donor heavy atom, donor atom, acceptor molecule, acceptor atom, score
      P1  H  7989  7998       L1     1  1.00
      P1  H  7997  8008       L1     3  2.00
      L1  C    10    16       P1  8028  1.00

> <Gold.PLP.Chemscore.Internal.Correction>
1.6363

> <Gold.Rescore>
     Score         DG    S(hbond)    S(metal)    S(lipo)     H(rot)  DE(clash)    DE(int)     intcor
     15.82     -16.68       1.92        0.00      70.65       1.36       0.01       0.85       ----

> <Gold.Chemscore.Fitness>
15.8151

> <Gold.Chemscore.DG>
-16.6793

> <Gold.Chemscore.ZeroCoef>
-5.4800

> <Gold.Chemscore.Hbond>
1.9242

> <Gold.Chemscore.Metal>
0.0000

> <Gold.Chemscore.Lipo>
70.6507

> <Gold.Chemscore.Internal_Hbond>
0.0000

> <Gold.Chemscore.DEClash>
0.0098

> <Gold.Chemscore.DEInternal>
0.8545

> <Gold.Chemscore.Rot>
1.3647

> <Gold.Chemscore.Internal.Correction>
   9.000000E+99

> <Gold.Chemscore.Hbonds>
donor molecule, donor type, donor heavy atom, donor atom, acceptor molecule, acceptor atom, score
      P1  H  7989  7998       L1     1  0.95
      P1  H  7997  8008       L1     3  1.00

> <Gold.Chemscore.Hbond.Weighted>
-6.4268

> <Gold.Chemscore.Metal.Weighted>
-0.0000

> <Gold.Chemscore.Lipo.Weighted>
-8.2661

> <Gold.Chemscore.Internal_Hbond.Weighted>
0.0000

> <Gold.Chemscore.DEClash.Weighted>
0.0098

> <Gold.Chemscore.DEInternal.Weighted>
0.8545

> <Gold.Chemscore.Rot.Weighted>
3.4936

> <Gold.Chemscore.Internal.Correction.Weighted>
   9.000000E+99

> <Gold.Protein.RotatedTorsions>
[ 6907 6896 6895 6894 ] final  -77.05 input  -60.11 | X-H torsion
[ 7974 7965 7964 7962 ] final -119.16 input  175.53 | X-H torsion
[ 8008 7997 7996 7995 ] final  -42.44 input   59.86 | X-H torsion
[ 10167 10162 10161 10158 ] final   70.89 input  -65.29 | X-H torsion
[ 10718 10713 10712 10709 ] final   95.60 input   66.30 | X-H torsion
[ 10763 10752 10751 10750 ] final -165.32 input  -60.55 | X-H torsion
[ 11005 11000 10999 10996 ] final -104.82 input  -57.11 | X-H torsion

> <Gold.Protein.ActiveResidues>
 VAL166  LYS551  ARG553  GLY616  TRP617  ASP618  TYR619  PRO620  LYS621  CYS622 
 ASP623  PHE694  ASN695  SER759  ASP760  ASP761  ALA762  ILE779  LEU786  VAL792 
 PHE793  MET794  SER795  GLU796  ALA797  LYS798  CYS799  TRP800  GLU811  SER814 

> <Gold.Protein.RotatedAtoms>
  150.7010  134.4481  159.5323 H   0  0  0  0  0  0  0  0  0  0  0  0  # atno 6907 bound_to 6896
  152.2178  134.8438  160.0499 H   0  0  0  0  0  0  0  0  0  0  0  0  # atno 6908 bound_to 6896
  151.9299  133.3573  159.3964 H   0  0  0  0  0  0  0  0  0  0  0  0  # atno 6909 bound_to 6896
  145.0657  140.8322  143.4126 H   0  0  0  0  0  0  0  0  0  0  0  0  # atno 7974 bound_to 7965
  154.3999  140.1473  156.3356 H   0  0  0  0  0  0  0  0  0  0  0  0  # atno 8008 bound_to 7997
  155.8403  140.3462  155.5607 H   0  0  0  0  0  0  0  0  0  0  0  0  # atno 8009 bound_to 7997
  155.8094  140.0881  157.1903 H   0  0  0  0  0  0  0  0  0  0  0  0  # atno 8010 bound_to 7997
  140.0520  144.5304  150.7356 H   0  0  0  0  0  0  0  0  0  0  0  0  # atno 10167 bound_to 10162
  157.6937  131.0551  150.4363 H   0  0  0  0  0  0  0  0  0  0  0  0  # atno 10718 bound_to 10713
  154.6943  135.2976  154.9434 H   0  0  0  0  0  0  0  0  0  0  0  0  # atno 10763 bound_to 10752
  154.0387  135.6660  153.4792 H   0  0  0  0  0  0  0  0  0  0  0  0  # atno 10764 bound_to 10752
  153.0634  135.5102  154.8052 H   0  0  0  0  0  0  0  0  0  0  0  0  # atno 10765 bound_to 10752
  141.1082  133.8756  157.1658 H   0  0  0  0  0  0  0  0  0  0  0  0  # atno 11005 bound_to 11000
  145.1354  139.2605  143.5517 LP  0  0  0  0  0  0  0  0  0  0  0  0  # atno 17320 bound_to 7965
  146.3526  140.1017  142.8607 LP  0  0  0  0  0  0  0  0  0  0  0  0  # atno 17321 bound_to 7965
  140.7212  143.2591  151.4271 LP  0  0  0  0  0  0  0  0  0  0  0  0  # atno 17342 bound_to 10162
  139.5947  144.1423  152.2130 LP  0  0  0  0  0  0  0  0  0  0  0  0  # atno 17343 bound_to 10162
  156.4726  130.4056  149.6509 LP  0  0  0  0  0  0  0  0  0  0  0  0  # atno 17370 bound_to 10713
  156.3584  130.7468  151.2437 LP  0  0  0  0  0  0  0  0  0  0  0  0  # atno 17371 bound_to 10713
  139.9963  135.0045  157.0089 LP  0  0  0  0  0  0  0  0  0  0  0  0  # atno 17394 bound_to 11000
  140.4845  134.1256  155.7222 LP  0  0  0  0  0  0  0  0  0  0  0  0  # atno 17395 bound_to 11000

$$$$
