AV-unprocessed.smi:3057|AV-procd|sdf|11662|dock8
  -GOLD-   2272017 63D 1   1.00000     0.00000
 Structure written by MMmdl.
 40 42  0  0  0  0  0  0  0  0  1 V2000
  152.5950  144.0586  158.3085 C   0  0  0  0  0  0  0  0  0  0  0  0
  151.9123  143.0036  159.2037 C   0  0  2  0  0  0  0  0  0  0  0  0
  151.8287  143.4800  160.6627 C   0  0  0  0  0  0  0  0  0  0  0  0
  153.1190  142.9443  161.3025 C   0  0  0  0  0  0  0  0  0  0  0  0
  153.4687  141.7674  160.4031 C   0  0  0  0  0  0  0  0  0  0  0  0
  154.2845  140.9008  160.7141 O   0  0  0  0  0  0  0  0  0  0  0  0
  152.7173  141.7995  159.2910 N   0  0  0  0  0  0  0  0  0  0  0  0
  152.4280  140.7347  158.3179 C   0  0  1  0  0  0  0  0  0  0  0  0
  152.1223  139.3705  158.9649 C   0  0  0  0  0  0  0  0  0  0  0  0
  152.9493  138.8281  159.6990 O   0  0  0  0  0  0  0  0  0  0  0  0
  150.9177  138.8431  158.7038 N   0  0  0  0  0  0  0  0  0  0  0  0
  150.4448  137.5725  159.2350 C   0  0  0  0  0  0  0  0  0  0  0  0
  148.9120  137.5039  159.1893 C   0  0  0  0  0  0  0  0  0  0  0  0
  148.3444  136.6007  160.2680 C   0  0  0  0  0  0  0  0  0  0  0  0
  148.2532  135.2068  160.0656 C   0  0  0  0  0  0  0  0  0  0  0  0
  147.7113  134.4136  161.0956 C   0  0  0  0  0  0  0  0  0  0  0  0
  147.2825  135.0413  162.2810 C   0  0  0  0  0  0  0  0  0  0  0  0
  147.4150  136.4405  162.3842 C   0  0  0  0  0  0  0  0  0  0  0  0
  147.9331  137.2102  161.4027 N   0  0  0  0  0  0  0  0  0  0  0  0
  151.2500  141.2359  157.4539 C   0  0  0  0  0  0  0  0  0  0  0  0
  150.3591  142.4358  158.4815 S   0  0  0  0  0  0  0  0  0  0  0  0
  153.5613  144.3621  158.7123 H   0  0  0  0  0  0  0  0  0  0  0  0
  151.9793  144.9545  158.2255 H   0  0  0  0  0  0  0  0  0  0  0  0
  152.7690  143.6866  157.2991 H   0  0  0  0  0  0  0  0  0  0  0  0
  151.7388  144.5635  160.7486 H   0  0  0  0  0  0  0  0  0  0  0  0
  150.9647  143.0382  161.1617 H   0  0  0  0  0  0  0  0  0  0  0  0
  153.9217  143.6812  161.2624 H   0  0  0  0  0  0  0  0  0  0  0  0
  152.9713  142.6365  162.3379 H   0  0  0  0  0  0  0  0  0  0  0  0
  153.3079  140.6216  157.6822 H   0  0  0  0  0  0  0  0  0  0  0  0
  150.2922  139.3512  158.0955 H   0  0  0  0  0  0  0  0  0  0  0  0
  150.8762  136.7550  158.6545 H   0  0  0  0  0  0  0  0  0  0  0  0
  150.7930  137.4591  160.2630 H   0  0  0  0  0  0  0  0  0  0  0  0
  148.4898  138.5038  159.3019 H   0  0  0  0  0  0  0  0  0  0  0  0
  148.5828  137.1405  158.2145 H   0  0  0  0  0  0  0  0  0  0  0  0
  148.5875  134.7548  159.1433 H   0  0  0  0  0  0  0  0  0  0  0  0
  147.6252  133.3435  160.9775 H   0  0  0  0  0  0  0  0  0  0  0  0
  146.8615  134.4647  163.0914 H   0  0  0  0  0  0  0  0  0  0  0  0
  147.0957  136.9551  163.2784 H   0  0  0  0  0  0  0  0  0  0  0  0
  151.6229  141.7456  156.5653 H   0  0  0  0  0  0  0  0  0  0  0  0
  150.5848  140.4395  157.1176 H   0  0  0  0  0  0  0  0  0  0  0  0
  1  2  1  0  0  0  0
  1 22  1  0  0  0  0
  1 23  1  0  0  0  0
  1 24  1  0  0  0  0
  2  7  1  0  0  0  0
  2 21  1  0  0  0  0
  2  3  1  0  0  0  0
  3  4  1  0  0  0  0
  3 25  1  0  0  0  0
  3 26  1  0  0  0  0
  4  5  1  0  0  0  0
  4 27  1  0  0  0  0
  4 28  1  0  0  0  0
  5  6  2  0  0  0  0
  5  7  1  0  0  0  0
  7  8  1  0  0  0  0
  8  9  1  0  0  0  0
  8 20  1  0  0  0  0
  8 29  1  0  0  0  0
  9 10  2  0  0  0  0
  9 11  1  0  0  0  0
 11 12  1  0  0  0  0
 11 30  1  0  0  0  0
 12 13  1  0  0  0  0
 12 31  1  0  0  0  0
 12 32  1  0  0  0  0
 13 14  1  0  0  0  0
 13 33  1  0  0  0  0
 13 34  1  0  0  0  0
 14 19  1  0  0  0  0
 14 15  2  0  0  0  0
 15 16  1  0  0  0  0
 15 35  1  0  0  0  0
 16 17  2  0  0  0  0
 16 36  1  0  0  0  0
 17 18  1  0  0  0  0
 17 37  1  0  0  0  0
 18 19  2  0  0  0  0
 18 38  1  0  0  0  0
 20 21  1  0  0  0  0
 20 39  1  0  0  0  0
 20 40  1  0  0  0  0
M  END
> <s_m_source_file>
AV-unprocessed.smi

> <i_m_source_file_index>
3057

> <i_lp_mmshare_version>
43012

> <i_f3d_flags>
0

> <s_epik_input>
W0NIMl0xW0NIMl1DKD1PKU4oW0NAQF0xMltDSDNdKVtDQEhdKFtDSDJdUzIpQyg9TylbTkhdW0NIMl1bQ0gyXWMzW2NIXVtjSF1bY0hdW2NIXW4z

> <s_epik_cmdline>
J2VwaWtfcHl0aG9uJywgJy1waCcsICc3LjAnLCAnLXRuJywgJzgnLCAnLW1hJywgJzIwMCcsICctbWV0YWxfYmluZGluZycsICctaW1hZScsICc8aW5maWxlLm1hZT4nLCAnLW9tYWUnLCAnPG91dGZpbGUubWFlPic=

> <r_epik_Ionization_Penalty>
0.0249631

> <r_epik_Ionization_Penalty_Charging>
0

> <r_epik_Ionization_Penalty_Neutral>
0.0249631

> <r_epik_State_Penalty>
0.0202943

> <r_epik_Charging_Adjusted_Penalty>
0.0202943

> <i_epik_Tot_Q>
0

> <i_epik_Tot_abs_Q>
0

> <r_epik_Metal_State_Penalty>
0.0194661

> <b_epik_Metal_Only>
0

> <s_lp_Force_Field>
OPLS_2005

> <r_lp_Energy>
25.2027

> <b_lp_Chiralities_Consistent>
1

> <s_lp_Variant>
AV-unprocessed.smi:3057-2

> <Gold.Version>
5.8.1

> <Gold.Id.Protein>
6NUR|6NUR_protein|mol2

> <Gold.PLP.Fitness>
49.5462

> <Gold.PLP.PLP>
-46.7755

> <Gold.PLP.part.hbond>
-2.0000

> <Gold.PLP.part.metal>
0.0000

> <Gold.PLP.part.buried>
-5.5716

> <Gold.PLP.part.nonpolar>
-38.8756

> <Gold.PLP.part.repulsive>
0.1417

> <Gold.PLP.ligand.clash>
1.0877

> <Gold.PLP.ligand.torsion>
0.6544

> <Gold.PLP.Chemscore.Hbond>
1.7200

> <Gold.PLP.Chemscore.CHOScore>
0.0000

> <Gold.PLP.Chemscore.Metal>
0.0000

> <Gold.Chemscore.Hbonds>
donor molecule, donor type, donor heavy atom, donor atom, acceptor molecule, acceptor atom, score
      P1  H  6931  6943       L1    19  1.00
      P1  H  6934  6947       L1    19  0.69

> <Gold.PLP.Chemscore.Internal.Correction>
0.0074

> <Gold.Rescore>
     Score         DG    S(hbond)    S(metal)    S(lipo)     H(rot)  DE(clash)    DE(int)     intcor
     16.47     -18.50       1.25        0.00     109.05       1.53       0.01       2.02       ----

> <Gold.Chemscore.Fitness>
16.4700

> <Gold.Chemscore.DG>
-18.4985

> <Gold.Chemscore.ZeroCoef>
-5.4800

> <Gold.Chemscore.Hbond>
1.2535

> <Gold.Chemscore.Metal>
0.0000

> <Gold.Chemscore.Lipo>
109.0468

> <Gold.Chemscore.Internal_Hbond>
0.0000

> <Gold.Chemscore.DEClash>
0.0073

> <Gold.Chemscore.DEInternal>
2.0212

> <Gold.Chemscore.Rot>
1.5339

> <Gold.Chemscore.Internal.Correction>
   9.000000E+99

> <Gold.Chemscore.Hbonds>
donor molecule, donor type, donor heavy atom, donor atom, acceptor molecule, acceptor atom, score
      P1  H  6931  6943       L1    19  0.66
      P1  H  6934  6947       L1    19  0.45

> <Gold.Chemscore.Hbond.Weighted>
-4.1868

> <Gold.Chemscore.Metal.Weighted>
-0.0000

> <Gold.Chemscore.Lipo.Weighted>
-12.7585

> <Gold.Chemscore.Internal_Hbond.Weighted>
0.0000

> <Gold.Chemscore.DEClash.Weighted>
0.0073

> <Gold.Chemscore.DEInternal.Weighted>
2.0212

> <Gold.Chemscore.Rot.Weighted>
3.9267

> <Gold.Chemscore.Internal.Correction.Weighted>
   9.000000E+99

> <Gold.Protein.RotatedTorsions>
[ 6907 6896 6895 6894 ] final   45.91 input  -60.11 | X-H torsion
[ 7974 7965 7964 7962 ] final  -27.31 input  175.53 | X-H torsion
[ 8008 7997 7996 7995 ] final  114.59 input   59.86 | X-H torsion
[ 10167 10162 10161 10158 ] final  -53.58 input  -65.29 | X-H torsion
[ 10718 10713 10712 10709 ] final -109.46 input   66.30 | X-H torsion
[ 10763 10752 10751 10750 ] final  164.99 input  -60.55 | X-H torsion
[ 11005 11000 10999 10996 ] final -129.46 input  -57.11 | X-H torsion

> <Gold.Protein.ActiveResidues>
 VAL166  LYS551  ARG553  GLY616  TRP617  ASP618  TYR619  PRO620  LYS621  CYS622 
 ASP623  PHE694  ASN695  SER759  ASP760  ASP761  ALA762  ILE779  LEU786  VAL792 
 PHE793  MET794  SER795  GLU796  ALA797  LYS798  CYS799  TRP800  GLU811  SER814 

> <Gold.Protein.RotatedAtoms>
  152.2501  134.8141  160.0446 H   0  0  0  0  0  0  0  0  0  0  0  0  # atno 6907 bound_to 6896
  151.8824  133.3493  159.3779 H   0  0  0  0  0  0  0  0  0  0  0  0  # atno 6908 bound_to 6896
  150.7081  134.4932  159.5570 H   0  0  0  0  0  0  0  0  0  0  0  0  # atno 6909 bound_to 6896
  146.1366  140.5135  142.8670 H   0  0  0  0  0  0  0  0  0  0  0  0  # atno 7974 bound_to 7965
  156.2330  140.2956  156.0239 H   0  0  0  0  0  0  0  0  0  0  0  0  # atno 8008 bound_to 7997
  155.2170  140.0414  157.2959 H   0  0  0  0  0  0  0  0  0  0  0  0  # atno 8009 bound_to 7997
  154.6029  140.2432  155.7776 H   0  0  0  0  0  0  0  0  0  0  0  0  # atno 8010 bound_to 7997
  140.6477  143.2545  151.4813 H   0  0  0  0  0  0  0  0  0  0  0  0  # atno 10167 bound_to 10162
  156.0538  130.5765  150.8103 H   0  0  0  0  0  0  0  0  0  0  0  0  # atno 10718 bound_to 10713
  154.3172  135.2756  155.2537 H   0  0  0  0  0  0  0  0  0  0  0  0  # atno 10763 bound_to 10752
  154.4906  135.5834  153.6460 H   0  0  0  0  0  0  0  0  0  0  0  0  # atno 10764 bound_to 10752
  152.9881  135.6133  154.3354 H   0  0  0  0  0  0  0  0  0  0  0  0  # atno 10765 bound_to 10752
  140.9429  134.1168  157.4134 H   0  0  0  0  0  0  0  0  0  0  0  0  # atno 11005 bound_to 11000
  144.7747  140.5713  143.6646 LP  0  0  0  0  0  0  0  0  0  0  0  0  # atno 17320 bound_to 7965
  145.5141  139.1478  143.3588 LP  0  0  0  0  0  0  0  0  0  0  0  0  # atno 17321 bound_to 7965
  139.5689  144.1976  152.1806 LP  0  0  0  0  0  0  0  0  0  0  0  0  # atno 17342 bound_to 10162
  140.1266  144.5326  150.6829 LP  0  0  0  0  0  0  0  0  0  0  0  0  # atno 17343 bound_to 10162
  157.5490  131.0943  150.9722 LP  0  0  0  0  0  0  0  0  0  0  0  0  # atno 17370 bound_to 10713
  156.9987  130.5591  149.5309 LP  0  0  0  0  0  0  0  0  0  0  0  0  # atno 17371 bound_to 10713
  139.8825  135.0042  156.6236 LP  0  0  0  0  0  0  0  0  0  0  0  0  # atno 17394 bound_to 11000
  140.7709  133.8739  155.8491 LP  0  0  0  0  0  0  0  0  0  0  0  0  # atno 17395 bound_to 11000

$$$$
