AV-unprocessed.smi:2132|AV-procd|sdf|8691|dock8
  -GOLD-   2272011443D 1   1.00000     0.00000
 Structure written by MMmdl.
 38 39  0  0  0  0  0  0  0  0  1 V2000
  153.2380  142.2143  160.3439 C   0  0  0  0  0  0  0  0  0  0  0  0
  152.9207  142.9395  159.1692 O   0  0  0  0  0  0  0  0  0  0  0  0
  151.8317  142.3735  158.4584 C   0  0  0  0  0  0  0  0  0  0  0  0
  151.3251  143.3856  157.4218 C   0  0  0  0  0  0  0  0  0  0  0  0
  150.3025  142.8020  156.5626 N   0  0  0  0  0  0  0  0  0  0  0  0
  150.3414  141.5664  156.0385 C   0  0  0  0  0  0  0  0  0  0  0  0
  151.2765  140.7852  156.2143 O   0  0  0  0  0  0  0  0  0  0  0  0
  149.1940  141.1952  155.1347 C   0  0  0  0  0  0  0  0  0  0  0  0
  148.2744  142.2041  154.7689 C   0  0  0  0  0  0  0  0  0  0  0  0
  147.1873  141.8872  153.9358 C   0  0  0  0  0  0  0  0  0  0  0  0
  147.0593  140.5622  153.4866 C   0  0  0  0  0  0  0  0  0  0  0  0
  147.9352  139.5889  153.8064 N   0  0  0  0  0  0  0  0  0  0  0  0
  148.9913  139.8842  154.6044 C   0  0  0  0  0  0  0  0  0  0  0  0
  149.9011  138.8354  154.8466 N   0  0  0  0  0  0  0  0  0  0  0  0
  150.9011  138.6633  153.8003 C   0  0  0  0  0  0  0  0  0  0  0  0
  152.0084  137.7138  154.2888 C   0  0  0  0  0  0  0  0  0  0  0  0
  151.4327  136.4801  154.7111 O   0  0  0  0  0  0  0  0  0  0  0  0
  150.5121  136.6558  155.7847 C   0  0  0  0  0  0  0  0  0  0  0  0
  149.3611  137.5701  155.3319 C   0  0  0  0  0  0  0  0  0  0  0  0
  154.0752  142.6912  160.8534 H   0  0  0  0  0  0  0  0  0  0  0  0
  153.5277  141.1895  160.1083 H   0  0  0  0  0  0  0  0  0  0  0  0
  152.3935  142.1903  161.0335 H   0  0  0  0  0  0  0  0  0  0  0  0
  152.1328  141.4444  157.9713 H   0  0  0  0  0  0  0  0  0  0  0  0
  151.0278  142.1300  159.1547 H   0  0  0  0  0  0  0  0  0  0  0  0
  150.9309  144.2712  157.9227 H   0  0  0  0  0  0  0  0  0  0  0  0
  152.1510  143.7268  156.7974 H   0  0  0  0  0  0  0  0  0  0  0  0
  149.5068  143.3837  156.3429 H   0  0  0  0  0  0  0  0  0  0  0  0
  148.3894  143.2152  155.1323 H   0  0  0  0  0  0  0  0  0  0  0  0
  146.4683  142.6407  153.6510 H   0  0  0  0  0  0  0  0  0  0  0  0
  146.2366  140.2772  152.8479 H   0  0  0  0  0  0  0  0  0  0  0  0
  150.4203  138.2527  152.9115 H   0  0  0  0  0  0  0  0  0  0  0  0
  151.3332  139.6227  153.5150 H   0  0  0  0  0  0  0  0  0  0  0  0
  152.7181  137.5188  153.4849 H   0  0  0  0  0  0  0  0  0  0  0  0
  152.5705  138.1639  155.1088 H   0  0  0  0  0  0  0  0  0  0  0  0
  150.1240  135.6824  156.0843 H   0  0  0  0  0  0  0  0  0  0  0  0
  151.0246  137.0767  156.6515 H   0  0  0  0  0  0  0  0  0  0  0  0
  148.6769  137.7517  156.1616 H   0  0  0  0  0  0  0  0  0  0  0  0
  148.7924  137.0827  154.5388 H   0  0  0  0  0  0  0  0  0  0  0  0
  1  2  1  0  0  0  0
  1 20  1  0  0  0  0
  1 21  1  0  0  0  0
  1 22  1  0  0  0  0
  2  3  1  0  0  0  0
  3  4  1  0  0  0  0
  3 23  1  0  0  0  0
  3 24  1  0  0  0  0
  4  5  1  0  0  0  0
  4 25  1  0  0  0  0
  4 26  1  0  0  0  0
  5  6  1  0  0  0  0
  5 27  1  0  0  0  0
  6  7  2  0  0  0  0
  6  8  1  0  0  0  0
  8 13  1  0  0  0  0
  8  9  2  0  0  0  0
  9 10  1  0  0  0  0
  9 28  1  0  0  0  0
 10 11  2  0  0  0  0
 10 29  1  0  0  0  0
 11 12  1  0  0  0  0
 11 30  1  0  0  0  0
 12 13  2  0  0  0  0
 13 14  1  0  0  0  0
 14 19  1  0  0  0  0
 14 15  1  0  0  0  0
 15 16  1  0  0  0  0
 15 31  1  0  0  0  0
 15 32  1  0  0  0  0
 16 17  1  0  0  0  0
 16 33  1  0  0  0  0
 16 34  1  0  0  0  0
 17 18  1  0  0  0  0
 18 19  1  0  0  0  0
 18 35  1  0  0  0  0
 18 36  1  0  0  0  0
 19 37  1  0  0  0  0
 19 38  1  0  0  0  0
M  END
> <s_m_source_file>
AV-unprocessed.smi

> <i_m_source_file_index>
2132

> <i_lp_mmshare_version>
43012

> <i_f3d_flags>
0

> <s_epik_input>
W0NIM11PW0NIMl1bQ0gyXVtOSF1DKD1PKWMxW2NIXVtjSF1bY0hdbmMxTjJbQ0gyXVtDSDJdT1tDSDJdW0NIMl0y

> <s_epik_cmdline>
J2VwaWtfcHl0aG9uJywgJy1waCcsICc3LjAnLCAnLXRuJywgJzgnLCAnLW1hJywgJzIwMCcsICctbWV0YWxfYmluZGluZycsICctaW1hZScsICc8aW5maWxlLm1hZT4nLCAnLW9tYWUnLCAnPG91dGZpbGUubWFlPic=

> <r_lp_tautomer_probability>
1

> <r_epik_Ionization_Penalty>
1.38099e-05

> <r_epik_Ionization_Penalty_Charging>
0

> <r_epik_Ionization_Penalty_Neutral>
1.38099e-05

> <r_epik_State_Penalty>
-0

> <r_epik_Charging_Adjusted_Penalty>
0

> <i_epik_Tot_Q>
0

> <i_epik_Tot_abs_Q>
0

> <r_epik_Metal_State_Penalty>
-0

> <b_epik_Metal_Only>
0

> <s_lp_Force_Field>
OPLS_2005

> <r_lp_Energy>
24.8445

> <b_lp_Chiralities_Consistent>
1

> <s_lp_Variant>
AV-unprocessed.smi:2132-1

> <Gold.Version>
5.8.1

> <Gold.Id.Protein>
6NUR|6NUR_protein|mol2

> <Gold.PLP.Fitness>
38.6713

> <Gold.PLP.PLP>
-31.2822

> <Gold.PLP.part.hbond>
-1.8431

> <Gold.PLP.part.metal>
0.0000

> <Gold.PLP.part.buried>
-1.8069

> <Gold.PLP.part.nonpolar>
-27.9641

> <Gold.PLP.part.repulsive>
0.5371

> <Gold.PLP.ligand.clash>
0.0000

> <Gold.PLP.ligand.torsion>
0.6369

> <Gold.PLP.Chemscore.Hbond>
1.9420

> <Gold.PLP.Chemscore.CHOScore>
0.8607

> <Gold.PLP.Chemscore.Metal>
0.0000

> <Gold.Chemscore.Hbonds>
donor molecule, donor type, donor heavy atom, donor atom, acceptor molecule, acceptor atom, score
      L1  H     5    27       P1  8028  1.00
      P1  H 10752 10764       L1    17  0.80
      L1  C    11    30       P1 10175  0.87

> <Gold.PLP.Chemscore.Internal.Correction>
0.2547

> <Gold.Rescore>
     Score         DG    S(hbond)    S(metal)    S(lipo)     H(rot)  DE(clash)    DE(int)     intcor
      9.95     -14.12       0.95        0.00      82.08       1.62       0.95       3.22       ----

> <Gold.Chemscore.Fitness>
9.9493

> <Gold.Chemscore.DG>
-14.1182

> <Gold.Chemscore.ZeroCoef>
-5.4800

> <Gold.Chemscore.Hbond>
0.9536

> <Gold.Chemscore.Metal>
0.0000

> <Gold.Chemscore.Lipo>
82.0750

> <Gold.Chemscore.Internal_Hbond>
0.0000

> <Gold.Chemscore.DEClash>
0.9526

> <Gold.Chemscore.DEInternal>
3.2163

> <Gold.Chemscore.Rot>
1.6209

> <Gold.Chemscore.Internal.Correction>
   9.000000E+99

> <Gold.Chemscore.Hbonds>
donor molecule, donor type, donor heavy atom, donor atom, acceptor molecule, acceptor atom, score
      L1  H     5    27       P1  8028  0.94
      P1  H 10752 10764       L1    17  0.11

> <Gold.Chemscore.Hbond.Weighted>
-3.1850

> <Gold.Chemscore.Metal.Weighted>
-0.0000

> <Gold.Chemscore.Lipo.Weighted>
-9.6028

> <Gold.Chemscore.Internal_Hbond.Weighted>
0.0000

> <Gold.Chemscore.DEClash.Weighted>
0.9526

> <Gold.Chemscore.DEInternal.Weighted>
3.2163

> <Gold.Chemscore.Rot.Weighted>
4.1496

> <Gold.Chemscore.Internal.Correction.Weighted>
   9.000000E+99

> <Gold.Protein.RotatedTorsions>
[ 6907 6896 6895 6894 ] final  -63.80 input  -60.11 | X-H torsion
[ 7974 7965 7964 7962 ] final   -3.64 input  175.53 | X-H torsion
[ 8008 7997 7996 7995 ] final  117.11 input   59.86 | X-H torsion
[ 10167 10162 10161 10158 ] final   47.04 input  -65.29 | X-H torsion
[ 10718 10713 10712 10709 ] final -133.14 input   66.30 | X-H torsion
[ 10763 10752 10751 10750 ] final  -46.05 input  -60.55 | X-H torsion
[ 11005 11000 10999 10996 ] final  -24.36 input  -57.11 | X-H torsion

> <Gold.Protein.ActiveResidues>
 VAL166  LYS551  ARG553  GLY616  TRP617  ASP618  TYR619  PRO620  LYS621  CYS622 
 ASP623  PHE694  ASN695  SER759  ASP760  ASP761  ALA762  ILE779  LEU786  VAL792 
 PHE793  MET794  SER795  GLU796  ALA797  LYS798  CYS799  TRP800  GLU811  SER814 

> <Gold.Protein.RotatedAtoms>
  150.7626  134.6385  159.6224 H   0  0  0  0  0  0  0  0  0  0  0  0  # atno 6907 bound_to 6896
  152.3641  134.6827  160.0206 H   0  0  0  0  0  0  0  0  0  0  0  0  # atno 6908 bound_to 6896
  151.7207  133.3278  159.3351 H   0  0  0  0  0  0  0  0  0  0  0  0  # atno 6909 bound_to 6896
  146.2386  140.1752  142.8332 H   0  0  0  0  0  0  0  0  0  0  0  0  # atno 7974 bound_to 7965
  156.2476  140.2903  156.0627 H   0  0  0  0  0  0  0  0  0  0  0  0  # atno 8008 bound_to 7997
  155.1758  140.0403  157.2889 H   0  0  0  0  0  0  0  0  0  0  0  0  # atno 8009 bound_to 7997
  154.6294  140.2495  155.7459 H   0  0  0  0  0  0  0  0  0  0  0  0  # atno 8010 bound_to 7997
  140.3077  144.2858  150.6206 H   0  0  0  0  0  0  0  0  0  0  0  0  # atno 10167 bound_to 10162
  156.2418  130.7100  151.0965 H   0  0  0  0  0  0  0  0  0  0  0  0  # atno 10718 bound_to 10713
  154.0387  135.6647  153.4788 H   0  0  0  0  0  0  0  0  0  0  0  0  # atno 10763 bound_to 10752
  153.0510  135.5084  154.7863 H   0  0  0  0  0  0  0  0  0  0  0  0  # atno 10764 bound_to 10752
  154.6832  135.3048  154.9549 H   0  0  0  0  0  0  0  0  0  0  0  0  # atno 10765 bound_to 10752
  140.8838  133.7635  156.0335 H   0  0  0  0  0  0  0  0  0  0  0  0  # atno 11005 bound_to 11000
  144.9979  140.8606  143.5299 LP  0  0  0  0  0  0  0  0  0  0  0  0  # atno 17320 bound_to 7965
  145.1767  139.2374  143.5314 LP  0  0  0  0  0  0  0  0  0  0  0  0  # atno 17321 bound_to 7965
  140.5596  143.2194  151.7788 LP  0  0  0  0  0  0  0  0  0  0  0  0  # atno 17342 bound_to 10162
  139.4901  144.4367  151.9811 LP  0  0  0  0  0  0  0  0  0  0  0  0  # atno 17343 bound_to 10162
  157.7178  131.0699  150.6256 LP  0  0  0  0  0  0  0  0  0  0  0  0  # atno 17370 bound_to 10713
  156.6330  130.4437  149.5780 LP  0  0  0  0  0  0  0  0  0  0  0  0  # atno 17371 bound_to 10713
  140.8429  134.3045  157.5306 LP  0  0  0  0  0  0  0  0  0  0  0  0  # atno 17394 bound_to 11000
  139.8722  134.9426  156.3830 LP  0  0  0  0  0  0  0  0  0  0  0  0  # atno 17395 bound_to 11000

$$$$
