AV-unprocessed.smi:244|AV-procd|sdf|1865|dock3
  -GOLD-   2262020503D 1   1.00000     0.00000
 Structure written by MMmdl.
 57 61  0  0  0  0  0  0  0  0  2 V2000
  151.7164  144.3878  157.5004 C   0  0  0  0  0  0  0  0  0  0  0  0
  150.9829  143.7838  158.6369 N   0  3  2  0  0  0  0  0  0  0  0  0
  151.3667  144.3453  159.9581 C   0  0  0  0  0  0  0  0  0  0  0  0
  152.7174  143.7953  160.4522 C   0  0  0  0  0  0  0  0  0  0  0  0
  152.6974  142.2621  160.4755 C   0  0  2  0  0  0  0  0  0  0  0  0
  153.9720  141.7742  160.8789 O   0  0  0  0  0  0  0  0  0  0  0  0
  153.9825  140.3544  160.9850 C   0  0  0  0  0  0  0  0  0  0  0  0
  153.6614  139.7394  159.6136 C   0  0  0  0  0  0  0  0  0  0  0  0
  152.3878  140.2500  159.1109 N   0  0  0  0  0  0  0  0  0  0  0  0
  151.9869  139.6421  157.9708 C   0  0  0  0  0  0  0  0  0  0  0  0
  152.4536  140.0675  156.7674 N   0  0  0  0  0  0  0  0  0  0  0  0
  152.0366  139.4749  155.6441 C   0  0  0  0  0  0  0  0  0  0  0  0
  151.1700  138.4692  155.5026 N   0  0  0  0  0  0  0  0  0  0  0  0
  150.6970  138.0468  156.7105 C   0  0  0  0  0  0  0  0  0  0  0  0
  151.0488  138.5773  157.9822 C   0  0  0  0  0  0  0  0  0  0  0  0
  150.3582  137.9131  158.9871 N   0  0  0  0  0  0  0  0  0  0  0  0
  149.6395  137.0328  158.3447 C   0  0  0  0  0  0  0  0  0  0  0  0
  149.7888  137.0368  156.9752 N   0  0  0  0  0  0  0  0  0  0  0  0
  149.1165  136.1670  156.0221 C   0  0  0  0  0  0  0  0  0  0  0  0
  149.9844  134.9829  155.5273 C   0  0  0  0  0  0  0  0  0  0  0  0
  151.1118  135.5220  154.8594 O   0  0  0  0  0  0  0  0  0  0  0  0
  150.4844  134.0878  156.6826 C   0  0  0  0  0  0  0  0  0  0  0  0
  151.1604  132.8035  156.1707 C   0  0  0  0  0  0  0  0  0  0  0  0
  150.2787  132.0969  155.3069 O   0  0  0  0  0  0  0  0  0  0  0  0
  149.9469  132.8361  154.1380 C   0  0  0  0  0  0  0  0  0  0  0  0
  149.1919  134.1205  154.5244 C   0  0  0  0  0  0  0  0  0  0  0  0
  152.3515  141.7143  159.0737 C   0  0  1  0  0  0  0  0  0  0  0  0
  150.9867  142.2974  158.6229 C   0  0  0  0  0  0  0  0  0  0  0  0
  152.7823  144.1634  157.5381 H   0  0  0  0  0  0  0  0  0  0  0  0
  151.5987  145.4717  157.5023 H   0  0  0  0  0  0  0  0  0  0  0  0
  151.3258  144.0166  156.5524 H   0  0  0  0  0  0  0  0  0  0  0  0
  151.3908  145.4346  159.9101 H   0  0  0  0  0  0  0  0  0  0  0  0
  150.5877  144.0880  160.6770 H   0  0  0  0  0  0  0  0  0  0  0  0
  153.5262  144.1481  159.8115 H   0  0  0  0  0  0  0  0  0  0  0  0
  152.9283  144.1784  161.4510 H   0  0  0  0  0  0  0  0  0  0  0  0
  151.9475  141.9342  161.1987 H   0  0  0  0  0  0  0  0  0  0  0  0
  154.9669  140.0297  161.3219 H   0  0  0  0  0  0  0  0  0  0  0  0
  153.2637  140.0264  161.7376 H   0  0  0  0  0  0  0  0  0  0  0  0
  154.4625  139.9811  158.9133 H   0  0  0  0  0  0  0  0  0  0  0  0
  153.6198  138.6520  159.6938 H   0  0  0  0  0  0  0  0  0  0  0  0
  152.4557  139.8620  154.7269 H   0  0  0  0  0  0  0  0  0  0  0  0
  148.9806  136.3459  158.8559 H   0  0  0  0  0  0  0  0  0  0  0  0
  148.2086  135.7912  156.4961 H   0  0  0  0  0  0  0  0  0  0  0  0
  148.7868  136.7741  155.1774 H   0  0  0  0  0  0  0  0  0  0  0  0
  150.8320  136.2671  154.3497 H   0  0  0  0  0  0  0  0  0  0  0  0
  151.1778  134.6316  157.3249 H   0  0  0  0  0  0  0  0  0  0  0  0
  149.6382  133.8073  157.3112 H   0  0  0  0  0  0  0  0  0  0  0  0
  152.0929  133.0302  155.6517 H   0  0  0  0  0  0  0  0  0  0  0  0
  151.4180  132.1594  157.0117 H   0  0  0  0  0  0  0  0  0  0  0  0
  150.8497  133.0649  153.5696 H   0  0  0  0  0  0  0  0  0  0  0  0
  149.3209  132.2151  153.4972 H   0  0  0  0  0  0  0  0  0  0  0  0
  148.2368  133.8368  154.9687 H   0  0  0  0  0  0  0  0  0  0  0  0
  148.9521  134.6969  153.6297 H   0  0  0  0  0  0  0  0  0  0  0  0
  153.1220  142.0389  158.3727 H   0  0  0  0  0  0  0  0  0  0  0  0
  150.1979  141.9443  159.2887 H   0  0  0  0  0  0  0  0  0  0  0  0
  150.7176  141.9588  157.6216 H   0  0  0  0  0  0  0  0  0  0  0  0
  150.0204  144.0556  158.4949 H   0  0  0  0  0  0  0  0  0  0  0  0
  1  2  1  0  0  0  0
  1 29  1  0  0  0  0
  1 30  1  0  0  0  0
  1 31  1  0  0  0  0
  2 28  1  0  0  0  0
  2  3  1  0  0  0  0
  2 57  1  0  0  0  0
  3  4  1  0  0  0  0
  3 32  1  0  0  0  0
  3 33  1  0  0  0  0
  4  5  1  0  0  0  0
  4 34  1  0  0  0  0
  4 35  1  0  0  0  0
  5 27  1  0  0  0  0
  5  6  1  0  0  0  0
  5 36  1  0  0  0  0
  6  7  1  0  0  0  0
  7  8  1  0  0  0  0
  7 37  1  0  0  0  0
  7 38  1  0  0  0  0
  8  9  1  0  0  0  0
  8 39  1  0  0  0  0
  8 40  1  0  0  0  0
  9 10  1  0  0  0  0
  9 27  1  0  0  0  0
 10 15  1  0  0  0  0
 10 11  2  0  0  0  0
 11 12  1  0  0  0  0
 12 13  2  0  0  0  0
 12 41  1  0  0  0  0
 13 14  1  0  0  0  0
 14 18  1  0  0  0  0
 14 15  2  0  0  0  0
 15 16  1  0  0  0  0
 16 17  2  0  0  0  0
 17 18  1  0  0  0  0
 17 42  1  0  0  0  0
 18 19  1  0  0  0  0
 19 20  1  0  0  0  0
 19 43  1  0  0  0  0
 19 44  1  0  0  0  0
 20 26  1  0  0  0  0
 20 21  1  0  0  0  0
 20 22  1  0  0  0  0
 21 45  1  0  0  0  0
 22 23  1  0  0  0  0
 22 46  1  0  0  0  0
 22 47  1  0  0  0  0
 23 24  1  0  0  0  0
 23 48  1  0  0  0  0
 23 49  1  0  0  0  0
 24 25  1  0  0  0  0
 25 26  1  0  0  0  0
 25 50  1  0  0  0  0
 25 51  1  0  0  0  0
 26 52  1  0  0  0  0
 26 53  1  0  0  0  0
 27 28  1  0  0  0  0
 27 54  1  0  0  0  0
 28 55  1  0  0  0  0
 28 56  1  0  0  0  0
M  CHG  1   2   1
M  END
> <s_m_source_file>
AV-unprocessed.smi

> <i_m_source_file_index>
244

> <i_lp_mmshare_version>
43012

> <i_f3d_flags>
0

> <s_epik_input>
W0NIMl0xW0NIMl1OKFtDSDNdKVtDSDJdW0NAQEhdKFtDQEhdMTIpTihbQ0gyXVtDSDJdTzIpYyhuW2NIXW4zKWMoYzM0KW5bY0hdbjRbQ0gyXUM1KFtPSF0pW0NIMl1bQ0gyXU9bQ0gyXVtDSDJdNQ==

> <s_epik_cmdline>
J2VwaWtfcHl0aG9uJywgJy1waCcsICc3LjAnLCAnLXRuJywgJzgnLCAnLW1hJywgJzIwMCcsICctbWV0YWxfYmluZGluZycsICctaW1hZScsICc8aW5maWxlLm1hZT4nLCAnLW9tYWUnLCAnPG91dGZpbGUubWFlPic=

> <r_lp_tautomer_probability>
1

> <r_epik_Ionization_Penalty>
0.0136215

> <r_epik_Ionization_Penalty_Charging>
0.0131385

> <r_epik_Ionization_Penalty_Neutral>
0.000483022

> <r_epik_State_Penalty>
0.0104001

> <r_epik_Charging_Adjusted_Penalty>
0.0235387

> <i_epik_Tot_Q>
1

> <i_epik_Tot_abs_Q>
1

> <r_epik_Metal_State_Penalty>
0.0104469

> <b_epik_Metal_Only>
0

> <s_lp_Force_Field>
OPLS_2005

> <r_lp_Energy>
43.138

> <b_lp_Chiralities_Consistent>
1

> <s_lp_Variant>
AV-unprocessed.smi:244-2

> <Gold.Version>
5.8.1

> <Gold.Id.Protein>
6NUR|6NUR_protein|mol2

> <Gold.PLP.Fitness>
49.0501

> <Gold.PLP.PLP>
-44.4150

> <Gold.PLP.part.hbond>
-2.0083

> <Gold.PLP.part.metal>
0.0000

> <Gold.PLP.part.buried>
-7.8836

> <Gold.PLP.part.nonpolar>
-32.8433

> <Gold.PLP.part.repulsive>
0.0735

> <Gold.PLP.ligand.clash>
0.0000

> <Gold.PLP.ligand.torsion>
0.7489

> <Gold.PLP.Chemscore.Hbond>
2.0000

> <Gold.PLP.Chemscore.CHOScore>
0.0000

> <Gold.PLP.Chemscore.Metal>
0.0000

> <Gold.Chemscore.Hbonds>
donor molecule, donor type, donor heavy atom, donor atom, acceptor molecule, acceptor atom, score
      P1  H  7997  8008       L1    11  1.00
      P1  H 10752 10764       L1    21  1.00

> <Gold.PLP.Chemscore.Internal.Correction>
0.1329

> <Gold.Rescore>
     Score         DG    S(hbond)    S(metal)    S(lipo)     H(rot)  DE(clash)    DE(int)     intcor
     16.79     -17.90       1.37        0.00     112.74       2.09       0.36       0.75       ----

> <Gold.Chemscore.Fitness>
16.7879

> <Gold.Chemscore.DG>
-17.9044

> <Gold.Chemscore.ZeroCoef>
-5.4800

> <Gold.Chemscore.Hbond>
1.3732

> <Gold.Chemscore.Metal>
0.0000

> <Gold.Chemscore.Lipo>
112.7436

> <Gold.Chemscore.Internal_Hbond>
0.0000

> <Gold.Chemscore.DEClash>
0.3618

> <Gold.Chemscore.DEInternal>
0.7547

> <Gold.Chemscore.Rot>
2.0911

> <Gold.Chemscore.Internal.Correction>
   9.000000E+99

> <Gold.Chemscore.Hbonds>
donor molecule, donor type, donor heavy atom, donor atom, acceptor molecule, acceptor atom, score
      P1  H  7997  8008       L1    11  0.25
      P1  H 10752 10764       L1    21  0.39

> <Gold.Chemscore.Hbond.Weighted>
-4.5865

> <Gold.Chemscore.Metal.Weighted>
-0.0000

> <Gold.Chemscore.Lipo.Weighted>
-13.1910

> <Gold.Chemscore.Internal_Hbond.Weighted>
0.0000

> <Gold.Chemscore.DEClash.Weighted>
0.3618

> <Gold.Chemscore.DEInternal.Weighted>
0.7547

> <Gold.Chemscore.Rot.Weighted>
5.3531

> <Gold.Chemscore.Internal.Correction.Weighted>
   9.000000E+99

> <Gold.Protein.RotatedTorsions>
[ 6907 6896 6895 6894 ] final  -39.46 input  -60.11 | X-H torsion
[ 7974 7965 7964 7962 ] final   37.64 input  175.53 | X-H torsion
[ 8008 7997 7996 7995 ] final  -47.13 input   59.86 | X-H torsion
[ 10167 10162 10161 10158 ] final   13.05 input  -65.29 | X-H torsion
[ 10718 10713 10712 10709 ] final  -86.88 input   66.30 | X-H torsion
[ 10763 10752 10751 10750 ] final  -56.43 input  -60.55 | X-H torsion
[ 11005 11000 10999 10996 ] final -140.41 input  -57.11 | X-H torsion

> <Gold.Protein.ActiveResidues>
 VAL166  LYS551  ARG553  GLY616  TRP617  ASP618  TYR619  PRO620  LYS621  CYS622 
 ASP623  PHE694  ASN695  SER759  ASP760  ASP761  ALA762  ILE779  LEU786  VAL792 
 PHE793  MET794  SER795  GLU796  ALA797  LYS798  CYS799  TRP800  GLU811  SER814 

> <Gold.Protein.RotatedAtoms>
  150.9901  134.9237  159.7894 H   0  0  0  0  0  0  0  0  0  0  0  0  # atno 6907 bound_to 6896
  152.5248  134.3294  159.9187 H   0  0  0  0  0  0  0  0  0  0  0  0  # atno 6908 bound_to 6896
  151.3300  133.3963  159.2696 H   0  0  0  0  0  0  0  0  0  0  0  0  # atno 6909 bound_to 6896
  146.1122  139.5869  142.9344 H   0  0  0  0  0  0  0  0  0  0  0  0  # atno 7974 bound_to 7965
  154.4013  140.1354  156.4124 H   0  0  0  0  0  0  0  0  0  0  0  0  # atno 8008 bound_to 7997
  155.7721  140.3483  155.5232 H   0  0  0  0  0  0  0  0  0  0  0  0  # atno 8009 bound_to 7997
  155.8757  140.0979  157.1510 H   0  0  0  0  0  0  0  0  0  0  0  0  # atno 8010 bound_to 7997
  140.6028  143.8569  150.6983 H   0  0  0  0  0  0  0  0  0  0  0  0  # atno 10167 bound_to 10162
  155.9987  130.4780  150.4783 H   0  0  0  0  0  0  0  0  0  0  0  0  # atno 10718 bound_to 10713
  154.2065  135.6402  153.5102 H   0  0  0  0  0  0  0  0  0  0  0  0  # atno 10763 bound_to 10752
  153.0000  135.5464  154.6260 H   0  0  0  0  0  0  0  0  0  0  0  0  # atno 10764 bound_to 10752
  154.5686  135.2915  155.0822 H   0  0  0  0  0  0  0  0  0  0  0  0  # atno 10765 bound_to 10752
  140.8425  134.2385  157.4803 H   0  0  0  0  0  0  0  0  0  0  0  0  # atno 11005 bound_to 11000
  145.5639  141.0401  143.2211 LP  0  0  0  0  0  0  0  0  0  0  0  0  # atno 17320 bound_to 7965
  144.7522  139.7166  143.7268 LP  0  0  0  0  0  0  0  0  0  0  0  0  # atno 17321 bound_to 7965
  140.2119  143.3877  152.1711 LP  0  0  0  0  0  0  0  0  0  0  0  0  # atno 17342 bound_to 10162
  139.5303  144.7151  151.5079 LP  0  0  0  0  0  0  0  0  0  0  0  0  # atno 17343 bound_to 10162
  157.2791  131.0603  151.2210 LP  0  0  0  0  0  0  0  0  0  0  0  0  # atno 17370 bound_to 10713
  157.3263  130.6962  149.6298 LP  0  0  0  0  0  0  0  0  0  0  0  0  # atno 17371 bound_to 10713
  139.8703  134.9642  156.4489 LP  0  0  0  0  0  0  0  0  0  0  0  0  # atno 17394 bound_to 11000
  140.8880  133.7869  155.9540 LP  0  0  0  0  0  0  0  0  0  0  0  0  # atno 17395 bound_to 11000

$$$$
