AV-unprocessed.smi:1406|AV-procd|sdf|5723|dock5
  -GOLD-   22720 5353D 1   1.00000     0.00000
 Structure written by MMmdl.
 41 43  0  0  0  0  0  0  0  0  2 V2000
  149.5560  134.5332  155.0044 C   0  0  0  0  0  0  0  0  0  0  0  0
  149.3967  133.3792  153.9939 C   0  0  2  0  0  0  0  0  0  0  0  0
  147.9776  133.2815  153.4094 C   0  0  0  0  0  0  0  0  0  0  0  0
  147.3578  132.2176  153.4240 O   0  0  0  0  0  0  0  0  0  0  0  0
  147.4724  134.4113  152.8902 N   0  0  0  0  0  0  0  0  0  0  0  0
  146.1726  134.5220  152.2391 C   0  0  1  0  0  0  0  0  0  0  0  0
  145.7734  135.9461  151.8643 C   0  0  0  0  0  0  0  0  0  0  0  0
  144.6988  135.7062  150.8019 C   0  0  0  0  0  0  0  0  0  0  0  0
  145.1107  134.4820  150.0774 N   0  3  2  0  0  0  0  0  0  0  0  0
  143.9912  133.6281  149.6109 C   0  0  0  0  0  0  0  0  0  0  0  0
  144.5274  132.3899  148.8680 C   0  0  0  0  0  0  0  0  0  0  0  0
  145.6056  131.6245  149.6648 C   0  0  0  0  0  0  0  0  0  0  0  0
  145.8973  132.2705  151.0283 C   0  0  0  0  0  0  0  0  0  0  0  0
  146.1489  133.7885  150.8910 C   0  0  2  0  0  0  0  0  0  0  0  0
  149.7991  132.0976  154.5614 N   0  0  0  0  0  0  0  0  0  0  0  0
  149.7963  130.8786  154.0170 C   0  0  0  0  0  0  0  0  0  0  0  0
  150.1812  129.9179  154.8451 N   0  0  0  0  0  0  0  0  0  0  0  0
  150.4207  130.6638  155.9643 C   0  0  0  0  0  0  0  0  0  0  0  0
  150.1969  131.9728  155.8522 N   0  0  0  0  0  0  0  0  0  0  0  0
  149.3128  135.4930  154.5474 H   0  0  0  0  0  0  0  0  0  0  0  0
  150.5835  134.5951  155.3634 H   0  0  0  0  0  0  0  0  0  0  0  0
  148.9098  134.4081  155.8745 H   0  0  0  0  0  0  0  0  0  0  0  0
  150.0696  133.5859  153.1602 H   0  0  0  0  0  0  0  0  0  0  0  0
  148.0432  135.2436  152.9205 H   0  0  0  0  0  0  0  0  0  0  0  0
  145.4013  134.1043  152.8902 H   0  0  0  0  0  0  0  0  0  0  0  0
  145.4072  136.5244  152.7134 H   0  0  0  0  0  0  0  0  0  0  0  0
  146.6203  136.4788  151.4286 H   0  0  0  0  0  0  0  0  0  0  0  0
  143.7385  135.5419  151.2939 H   0  0  0  0  0  0  0  0  0  0  0  0
  144.5849  136.5522  150.1237 H   0  0  0  0  0  0  0  0  0  0  0  0
  143.3810  133.3207  150.4619 H   0  0  0  0  0  0  0  0  0  0  0  0
  143.3427  134.2074  148.9528 H   0  0  0  0  0  0  0  0  0  0  0  0
  143.6996  131.7223  148.6269 H   0  0  0  0  0  0  0  0  0  0  0  0
  144.9479  132.7014  147.9110 H   0  0  0  0  0  0  0  0  0  0  0  0
  145.3022  130.5867  149.8067 H   0  0  0  0  0  0  0  0  0  0  0  0
  146.5258  131.5918  149.0801 H   0  0  0  0  0  0  0  0  0  0  0  0
  145.0531  132.0896  151.6953 H   0  0  0  0  0  0  0  0  0  0  0  0
  146.7569  131.7884  151.4956 H   0  0  0  0  0  0  0  0  0  0  0  0
  147.0948  133.9492  150.3709 H   0  0  0  0  0  0  0  0  0  0  0  0
  149.4987  130.6886  152.9963 H   0  0  0  0  0  0  0  0  0  0  0  0
  150.7619  130.2280  156.8918 H   0  0  0  0  0  0  0  0  0  0  0  0
  145.5905  134.7930  149.2448 H   0  0  0  0  0  0  0  0  0  0  0  0
  1  2  1  0  0  0  0
  1 20  1  0  0  0  0
  1 21  1  0  0  0  0
  1 22  1  0  0  0  0
  2  3  1  0  0  0  0
  2 15  1  0  0  0  0
  2 23  1  0  0  0  0
  3  4  2  0  0  0  0
  3  5  1  0  0  0  0
  5  6  1  0  0  0  0
  5 24  1  0  0  0  0
  6 14  1  0  0  0  0
  6  7  1  0  0  0  0
  6 25  1  0  0  0  0
  7  8  1  0  0  0  0
  7 26  1  0  0  0  0
  7 27  1  0  0  0  0
  8  9  1  0  0  0  0
  8 28  1  0  0  0  0
  8 29  1  0  0  0  0
  9 14  1  0  0  0  0
  9 10  1  0  0  0  0
  9 41  1  0  0  0  0
 10 11  1  0  0  0  0
 10 30  1  0  0  0  0
 10 31  1  0  0  0  0
 11 12  1  0  0  0  0
 11 32  1  0  0  0  0
 11 33  1  0  0  0  0
 12 13  1  0  0  0  0
 12 34  1  0  0  0  0
 12 35  1  0  0  0  0
 13 14  1  0  0  0  0
 13 36  1  0  0  0  0
 13 37  1  0  0  0  0
 14 38  1  0  0  0  0
 15 19  1  0  0  0  0
 15 16  1  0  0  0  0
 16 17  2  0  0  0  0
 16 39  1  0  0  0  0
 17 18  1  0  0  0  0
 18 19  2  0  0  0  0
 18 40  1  0  0  0  0
M  CHG  1   9   1
M  END
> <s_m_source_file>
AV-unprocessed.smi

> <i_m_source_file_index>
1406

> <i_lp_mmshare_version>
43012

> <i_f3d_flags>
0

> <s_epik_input>
bjFbY0hdbltjSF1uMVtDQEhdKFtDSDNdKUMoPU8pW05IXVtDQEhdKFtDSDJdW0NIMl0yKVtDQEBIXShOMjMpW0NIMl1bQ0gyXVtDSDJdW0NIMl0z

> <s_epik_cmdline>
J2VwaWtfcHl0aG9uJywgJy1waCcsICc3LjAnLCAnLXRuJywgJzgnLCAnLW1hJywgJzIwMCcsICctbWV0YWxfYmluZGluZycsICctaW1hZScsICc8aW5maWxlLm1hZT4nLCAnLW9tYWUnLCAnPG91dGZpbGUubWFlPic=

> <r_lp_tautomer_probability>
1

> <r_epik_Ionization_Penalty>
0.00197066

> <r_epik_Ionization_Penalty_Charging>
0.00196223

> <r_epik_Ionization_Penalty_Neutral>
8.43107e-06

> <r_epik_State_Penalty>
0.00133866

> <r_epik_Charging_Adjusted_Penalty>
0.00330089

> <i_epik_Tot_Q>
1

> <i_epik_Tot_abs_Q>
1

> <r_epik_Metal_State_Penalty>
-0

> <b_epik_Metal_Only>
0

> <s_lp_Force_Field>
OPLS_2005

> <r_lp_Energy>
45.2549

> <b_lp_Chiralities_Consistent>
1

> <s_lp_Variant>
AV-unprocessed.smi:1406-15

> <Gold.Version>
5.8.1

> <Gold.Id.Protein>
6NUR|6NUR_protein|mol2

> <Gold.PLP.Fitness>
39.3839

> <Gold.PLP.PLP>
-33.4154

> <Gold.PLP.part.hbond>
-1.9918

> <Gold.PLP.part.metal>
0.0000

> <Gold.PLP.part.buried>
-0.5688

> <Gold.PLP.part.nonpolar>
-29.6882

> <Gold.PLP.part.repulsive>
0.2089

> <Gold.PLP.ligand.clash>
0.0000

> <Gold.PLP.ligand.torsion>
0.1687

> <Gold.PLP.Chemscore.Hbond>
1.7680

> <Gold.PLP.Chemscore.CHOScore>
0.2979

> <Gold.PLP.Chemscore.Metal>
0.0000

> <Gold.Chemscore.Hbonds>
donor molecule, donor type, donor heavy atom, donor atom, acceptor molecule, acceptor atom, score
      L1  H     5    24       P1  7948  0.77
      L1  H     9    41       P1  7921  1.00
      L1  C    16    39       P1 10747  0.30

> <Gold.PLP.Chemscore.Internal.Correction>
0.1082

> <Gold.Rescore>
     Score         DG    S(hbond)    S(metal)    S(lipo)     H(rot)  DE(clash)    DE(int)     intcor
     12.75     -15.77       1.85        0.00      76.44       1.89       0.21       2.80       ----

> <Gold.Chemscore.Fitness>
12.7509

> <Gold.Chemscore.DG>
-15.7652

> <Gold.Chemscore.ZeroCoef>
-5.4800

> <Gold.Chemscore.Hbond>
1.8478

> <Gold.Chemscore.Metal>
0.0000

> <Gold.Chemscore.Lipo>
76.4361

> <Gold.Chemscore.Internal_Hbond>
0.0000

> <Gold.Chemscore.DEClash>
0.2137

> <Gold.Chemscore.DEInternal>
2.8006

> <Gold.Chemscore.Rot>
1.8865

> <Gold.Chemscore.Internal.Correction>
   9.000000E+99

> <Gold.Chemscore.Hbonds>
donor molecule, donor type, donor heavy atom, donor atom, acceptor molecule, acceptor atom, score
      L1  H     5    24       P1  7948  0.75
      L1  H     9    41       P1  7921  0.98

> <Gold.Chemscore.Hbond.Weighted>
-6.1717

> <Gold.Chemscore.Metal.Weighted>
-0.0000

> <Gold.Chemscore.Lipo.Weighted>
-8.9430

> <Gold.Chemscore.Internal_Hbond.Weighted>
0.0000

> <Gold.Chemscore.DEClash.Weighted>
0.2137

> <Gold.Chemscore.DEInternal.Weighted>
2.8006

> <Gold.Chemscore.Rot.Weighted>
4.8295

> <Gold.Chemscore.Internal.Correction.Weighted>
   9.000000E+99

> <Gold.Protein.RotatedTorsions>
[ 6907 6896 6895 6894 ] final  -55.22 input  -60.11 | X-H torsion
[ 7974 7965 7964 7962 ] final  -70.42 input  175.53 | X-H torsion
[ 8008 7997 7996 7995 ] final -107.18 input   59.86 | X-H torsion
[ 10167 10162 10161 10158 ] final  -37.94 input  -65.29 | X-H torsion
[ 10718 10713 10712 10709 ] final  -72.05 input   66.30 | X-H torsion
[ 10763 10752 10751 10750 ] final  152.24 input  -60.55 | X-H torsion
[ 11005 11000 10999 10996 ] final -127.30 input  -57.11 | X-H torsion

> <Gold.Protein.ActiveResidues>
 VAL166  LYS551  ARG553  GLY616  TRP617  ASP618  TYR619  PRO620  LYS621  CYS622 
 ASP623  PHE694  ASN695  SER759  ASP760  ASP761  ALA762  ILE779  LEU786  VAL792 
 PHE793  MET794  SER795  GLU796  ALA797  LYS798  CYS799  TRP800  GLU811  SER814 

> <Gold.Protein.RotatedAtoms>
  150.8270  134.7505  159.6820 H   0  0  0  0  0  0  0  0  0  0  0  0  # atno 6907 bound_to 6896
  152.4379  134.5646  159.9913 H   0  0  0  0  0  0  0  0  0  0  0  0  # atno 6908 bound_to 6896
  151.5816  133.3339  159.3045 H   0  0  0  0  0  0  0  0  0  0  0  0  # atno 6909 bound_to 6896
  145.6912  140.9152  143.0781 H   0  0  0  0  0  0  0  0  0  0  0  0  # atno 7974 bound_to 7965
  154.9255  140.0406  157.2020 H   0  0  0  0  0  0  0  0  0  0  0  0  # atno 8008 bound_to 7997
  154.8212  140.2884  155.5764 H   0  0  0  0  0  0  0  0  0  0  0  0  # atno 8009 bound_to 7997
  156.2980  140.2518  156.3119 H   0  0  0  0  0  0  0  0  0  0  0  0  # atno 8010 bound_to 7997
  140.7105  143.3309  151.2571 H   0  0  0  0  0  0  0  0  0  0  0  0  # atno 10167 bound_to 10162
  156.0336  130.4364  150.2535 H   0  0  0  0  0  0  0  0  0  0  0  0  # atno 10718 bound_to 10713
  154.1168  135.2835  155.3218 H   0  0  0  0  0  0  0  0  0  0  0  0  # atno 10763 bound_to 10752
  154.6451  135.5389  153.7838 H   0  0  0  0  0  0  0  0  0  0  0  0  # atno 10764 bound_to 10752
  153.0326  135.6496  154.1324 H   0  0  0  0  0  0  0  0  0  0  0  0  # atno 10765 bound_to 10752
  140.9610  134.0936  157.3968 H   0  0  0  0  0  0  0  0  0  0  0  0  # atno 11005 bound_to 11000
  144.6996  139.8824  143.7448 LP  0  0  0  0  0  0  0  0  0  0  0  0  # atno 17320 bound_to 7965
  146.0880  139.3869  143.0423 LP  0  0  0  0  0  0  0  0  0  0  0  0  # atno 17321 bound_to 7965
  139.6791  143.9886  152.2798 LP  0  0  0  0  0  0  0  0  0  0  0  0  # atno 17342 bound_to 10162
  139.9510  144.6620  150.8172 LP  0  0  0  0  0  0  0  0  0  0  0  0  # atno 17343 bound_to 10162
  157.0636  131.0097  151.3214 LP  0  0  0  0  0  0  0  0  0  0  0  0  # atno 17370 bound_to 10713
  157.5052  130.7904  149.7646 LP  0  0  0  0  0  0  0  0  0  0  0  0  # atno 17371 bound_to 10713
  139.8878  135.0093  156.6583 LP  0  0  0  0  0  0  0  0  0  0  0  0  # atno 17394 bound_to 11000
  140.7467  133.8932  155.8317 LP  0  0  0  0  0  0  0  0  0  0  0  0  # atno 17395 bound_to 11000

$$$$
