AV-unprocessed.smi:1002|AV-procd|sdf|4358|dock4
  -GOLD-   22720 2263D 1   1.00000     0.00000
 Structure written by MMmdl.
 36 37  0  0  0  0  0  0  0  0  2 V2000
  146.6047  132.7227  154.0887 O   0  0  0  0  0  0  0  0  0  0  0  0
  146.8911  133.6568  153.3402 C   0  0  0  0  0  0  0  0  0  0  0  0
  145.7930  134.3410  152.5209 C   0  0  0  0  0  0  0  0  0  0  0  0
  145.4665  133.5545  151.2617 C   0  0  0  0  0  0  0  0  0  0  0  0
  144.2530  133.7640  150.5733 C   0  0  0  0  0  0  0  0  0  0  0  0
  143.9996  133.0081  149.4112 C   0  0  0  0  0  0  0  0  0  0  0  0
  144.8599  132.0895  148.9214 N   0  0  0  0  0  0  0  0  0  0  0  0
  146.0185  131.8919  149.5864 C   0  0  0  0  0  0  0  0  0  0  0  0
  146.3687  132.5942  150.7569 C   0  0  0  0  0  0  0  0  0  0  0  0
  148.1419  134.1168  153.1755 N   0  0  0  0  0  0  0  0  0  0  0  0
  149.3341  133.6010  153.8405 C   0  0  2  0  0  0  0  0  0  0  0  0
  149.2797  132.0617  153.8633 C   0  0  0  0  0  0  0  0  0  0  0  0
  150.4689  131.4651  154.6331 C   0  0  0  0  0  0  0  0  0  0  0  0
  150.5385  132.0275  156.0677 C   0  0  1  0  0  0  0  0  0  0  0  0
  151.7385  131.4334  156.8187 C   0  0  0  0  0  0  0  0  0  0  0  0
  151.9329  131.8080  157.9968 O   0  0  0  0  0  0  0  0  0  0  0  0
  152.4467  130.6125  156.1957 O   0  5  0  0  0  0  0  0  0  0  0  0
  150.6215  133.5682  156.0383 C   0  0  0  0  0  0  0  0  0  0  0  0
  149.4358  134.1727  155.2692 C   0  0  0  0  0  0  0  0  0  0  0  0
  144.8997  134.4490  153.1371 H   0  0  0  0  0  0  0  0  0  0  0  0
  146.1091  135.3484  152.2459 H   0  0  0  0  0  0  0  0  0  0  0  0
  143.5333  134.4888  150.9246 H   0  0  0  0  0  0  0  0  0  0  0  0
  143.0809  133.1454  148.8605 H   0  0  0  0  0  0  0  0  0  0  0  0
  146.6878  131.1518  149.1732 H   0  0  0  0  0  0  0  0  0  0  0  0
  147.3089  132.3992  151.2519 H   0  0  0  0  0  0  0  0  0  0  0  0
  148.2797  134.8875  152.5376 H   0  0  0  0  0  0  0  0  0  0  0  0
  150.2221  133.8976  153.2788 H   0  0  0  0  0  0  0  0  0  0  0  0
  148.3496  131.7300  154.3272 H   0  0  0  0  0  0  0  0  0  0  0  0
  149.2716  131.6734  152.8441 H   0  0  0  0  0  0  0  0  0  0  0  0
  150.3792  130.3783  154.6584 H   0  0  0  0  0  0  0  0  0  0  0  0
  151.3917  131.6867  154.0943 H   0  0  0  0  0  0  0  0  0  0  0  0
  149.6292  131.7392  156.5984 H   0  0  0  0  0  0  0  0  0  0  0  0
  150.6363  133.9631  157.0550 H   0  0  0  0  0  0  0  0  0  0  0  0
  151.5522  133.8900  155.5682 H   0  0  0  0  0  0  0  0  0  0  0  0
  149.5395  135.2577  155.2327 H   0  0  0  0  0  0  0  0  0  0  0  0
  148.5132  133.9692  155.8148 H   0  0  0  0  0  0  0  0  0  0  0  0
  1  2  2  0  0  0  0
  2  3  1  0  0  0  0
  2 10  1  0  0  0  0
  3  4  1  0  0  0  0
  3 20  1  0  0  0  0
  3 21  1  0  0  0  0
  4  9  1  0  0  0  0
  4  5  2  0  0  0  0
  5  6  1  0  0  0  0
  5 22  1  0  0  0  0
  6  7  2  0  0  0  0
  6 23  1  0  0  0  0
  7  8  1  0  0  0  0
  8  9  2  0  0  0  0
  8 24  1  0  0  0  0
  9 25  1  0  0  0  0
 10 11  1  0  0  0  0
 10 26  1  0  0  0  0
 11 19  1  0  0  0  0
 11 12  1  0  0  0  0
 11 27  1  0  0  0  0
 12 13  1  0  0  0  0
 12 28  1  0  0  0  0
 12 29  1  0  0  0  0
 13 14  1  0  0  0  0
 13 30  1  0  0  0  0
 13 31  1  0  0  0  0
 14 15  1  0  0  0  0
 14 18  1  0  0  0  0
 14 32  1  0  0  0  0
 15 16  2  0  0  0  0
 15 17  1  0  0  0  0
 18 19  1  0  0  0  0
 18 33  1  0  0  0  0
 18 34  1  0  0  0  0
 19 35  1  0  0  0  0
 19 36  1  0  0  0  0
M  CHG  1  17  -1
M  END
> <s_m_source_file>
AV-unprocessed.smi

> <i_m_source_file_index>
1002

> <i_lp_mmshare_version>
43012

> <i_f3d_flags>
0

> <s_epik_input>
Tz1DKFtPSF0pW0NAQEhdKFtDSDJdW0NIMl0xKVtDSDJdW0NIMl1bQ0BIXTFbTkhdQyg9TylbQ0gyXWMyW2NIXVtjSF1uW2NIXVtjSF0y

> <s_epik_cmdline>
J2VwaWtfcHl0aG9uJywgJy1waCcsICc3LjAnLCAnLXRuJywgJzgnLCAnLW1hJywgJzIwMCcsICctbWV0YWxfYmluZGluZycsICctaW1hZScsICc8aW5maWxlLm1hZT4nLCAnLW9tYWUnLCAnPG91dGZpbGUubWFlPic=

> <r_lp_tautomer_probability>
1

> <r_epik_Ionization_Penalty>
0.0065671

> <r_epik_Ionization_Penalty_Charging>
0.00222897

> <r_epik_Ionization_Penalty_Neutral>
0.00433813

> <r_epik_State_Penalty>
-0

> <r_epik_Charging_Adjusted_Penalty>
0.00222897

> <i_epik_Tot_Q>
-1

> <i_epik_Tot_abs_Q>
1

> <r_epik_Metal_State_Penalty>
-0

> <b_epik_Metal_Only>
0

> <s_lp_Force_Field>
OPLS_2005

> <r_lp_Energy>
12.3295

> <b_lp_Chiralities_Consistent>
1

> <s_lp_Variant>
AV-unprocessed.smi:1002-1

> <Gold.Version>
5.8.1

> <Gold.Id.Protein>
6NUR|6NUR_protein|mol2

> <Gold.PLP.Fitness>
45.6850

> <Gold.PLP.PLP>
-33.0949

> <Gold.PLP.part.hbond>
-2.6618

> <Gold.PLP.part.metal>
0.0000

> <Gold.PLP.part.buried>
-3.4396

> <Gold.PLP.part.nonpolar>
-26.9342

> <Gold.PLP.part.repulsive>
0.2830

> <Gold.PLP.ligand.clash>
0.0000

> <Gold.PLP.ligand.torsion>
0.8475

> <Gold.PLP.Chemscore.Hbond>
3.0000

> <Gold.PLP.Chemscore.CHOScore>
1.7559

> <Gold.PLP.Chemscore.Metal>
0.0000

> <Gold.Chemscore.Hbonds>
donor molecule, donor type, donor heavy atom, donor atom, acceptor molecule, acceptor atom, score
      L1  H    10    26       P1  7948  1.00
      P1  H  6896  6908       L1    16  2.00
      L1  C     6    23       P1 10186  0.98
      L1  C     8    24       P1 10747  0.78

> <Gold.PLP.Chemscore.Internal.Correction>
0.0174

> <Gold.Rescore>
     Score         DG    S(hbond)    S(metal)    S(lipo)     H(rot)  DE(clash)    DE(int)     intcor
     13.56     -15.86       1.93        0.00      74.83       1.88       0.01       2.29       ----

> <Gold.Chemscore.Fitness>
13.5634

> <Gold.Chemscore.DG>
-15.8627

> <Gold.Chemscore.ZeroCoef>
-5.4800

> <Gold.Chemscore.Hbond>
1.9303

> <Gold.Chemscore.Metal>
0.0000

> <Gold.Chemscore.Lipo>
74.8306

> <Gold.Chemscore.Internal_Hbond>
0.0000

> <Gold.Chemscore.DEClash>
0.0118

> <Gold.Chemscore.DEInternal>
2.2875

> <Gold.Chemscore.Rot>
1.8828

> <Gold.Chemscore.Internal.Correction>
   9.000000E+99

> <Gold.Chemscore.Hbonds>
donor molecule, donor type, donor heavy atom, donor atom, acceptor molecule, acceptor atom, score
      L1  H    10    26       P1  7948  0.54
      P1  H  6896  6908       L1    16  0.98

> <Gold.Chemscore.Hbond.Weighted>
-6.4474

> <Gold.Chemscore.Metal.Weighted>
-0.0000

> <Gold.Chemscore.Lipo.Weighted>
-8.7552

> <Gold.Chemscore.Internal_Hbond.Weighted>
0.0000

> <Gold.Chemscore.DEClash.Weighted>
0.0118

> <Gold.Chemscore.DEInternal.Weighted>
2.2875

> <Gold.Chemscore.Rot.Weighted>
4.8199

> <Gold.Chemscore.Internal.Correction.Weighted>
   9.000000E+99

> <Gold.Protein.RotatedTorsions>
[ 6907 6896 6895 6894 ] final   54.25 input  -60.11 | X-H torsion
[ 7974 7965 7964 7962 ] final -155.77 input  175.53 | X-H torsion
[ 8008 7997 7996 7995 ] final -145.59 input   59.86 | X-H torsion
[ 10167 10162 10161 10158 ] final   98.80 input  -65.29 | X-H torsion
[ 10718 10713 10712 10709 ] final  144.54 input   66.30 | X-H torsion
[ 10763 10752 10751 10750 ] final  -92.91 input  -60.55 | X-H torsion
[ 11005 11000 10999 10996 ] final  -44.72 input  -57.11 | X-H torsion

> <Gold.Protein.ActiveResidues>
 VAL166  LYS551  ARG553  GLY616  TRP617  ASP618  TYR619  PRO620  LYS621  CYS622 
 ASP623  PHE694  ASN695  SER759  ASP760  ASP761  ALA762  ILE779  LEU786  VAL792 
 PHE793  MET794  SER795  GLU796  ALA797  LYS798  CYS799  TRP800  GLU811  SER814 

> <Gold.Protein.RotatedAtoms>
  152.3419  134.7122  160.0260 H   0  0  0  0  0  0  0  0  0  0  0  0  # atno 6907 bound_to 6896
  151.7505  133.3321  159.3398 H   0  0  0  0  0  0  0  0  0  0  0  0  # atno 6908 bound_to 6896
  150.7485  134.6129  159.6140 H   0  0  0  0  0  0  0  0  0  0  0  0  # atno 6909 bound_to 6896
  144.7624  140.4203  143.5966 H   0  0  0  0  0  0  0  0  0  0  0  0  # atno 7974 bound_to 7965
  155.5456  140.0612  157.2861 H   0  0  0  0  0  0  0  0  0  0  0  0  # atno 8008 bound_to 7997
  154.4437  140.1911  156.0679 H   0  0  0  0  0  0  0  0  0  0  0  0  # atno 8009 bound_to 7997
  156.0553  140.3279  155.7402 H   0  0  0  0  0  0  0  0  0  0  0  0  # atno 8010 bound_to 7997
  139.7675  144.6933  151.0203 H   0  0  0  0  0  0  0  0  0  0  0  0  # atno 10167 bound_to 10162
  157.3560  131.0958  151.0958 H   0  0  0  0  0  0  0  0  0  0  0  0  # atno 10718 bound_to 10713
  154.6908  135.5213  153.8389 H   0  0  0  0  0  0  0  0  0  0  0  0  # atno 10763 bound_to 10752
  153.0631  135.6575  154.0427 H   0  0  0  0  0  0  0  0  0  0  0  0  # atno 10764 bound_to 10752
  154.0301  135.2986  155.3349 H   0  0  0  0  0  0  0  0  0  0  0  0  # atno 10765 bound_to 10752
  141.0469  133.6758  156.2913 H   0  0  0  0  0  0  0  0  0  0  0  0  # atno 11005 bound_to 11000
  145.6576  139.1576  143.2826 LP  0  0  0  0  0  0  0  0  0  0  0  0  # atno 17320 bound_to 7965
  146.1700  140.6660  142.9237 LP  0  0  0  0  0  0  0  0  0  0  0  0  # atno 17321 bound_to 7965
  140.7812  143.4626  151.0257 LP  0  0  0  0  0  0  0  0  0  0  0  0  # atno 17342 bound_to 10162
  139.8310  143.7691  152.3180 LP  0  0  0  0  0  0  0  0  0  0  0  0  # atno 17343 bound_to 10162
  157.2116  130.6440  149.5776 LP  0  0  0  0  0  0  0  0  0  0  0  0  # atno 17370 bound_to 10713
  155.9729  130.4658  150.6266 LP  0  0  0  0  0  0  0  0  0  0  0  0  # atno 17371 bound_to 10713
  140.6129  134.5440  157.5536 LP  0  0  0  0  0  0  0  0  0  0  0  0  # atno 17394 bound_to 11000
  139.9319  134.7948  156.0908 LP  0  0  0  0  0  0  0  0  0  0  0  0  # atno 17395 bound_to 11000

$$$$
