AV-unprocessed.smi:2226|AV-procd|sdf|9003|dock2
  -GOLD-   2272012213D 1   1.00000     0.00000
 Structure written by MMmdl.
 40 42  0  0  0  0  0  0  0  0  2 V2000
  147.9429  141.0044  157.0528 C   0  0  0  0  0  0  0  0  0  0  0  0
  147.6391  140.2254  155.8288 N   0  3  2  0  0  0  0  0  0  0  0  0
  148.4295  140.6083  154.6336 C   0  0  2  0  0  0  0  0  0  0  0  0
  148.0074  142.0015  154.1017 C   0  0  0  0  0  0  0  0  0  0  0  0
  146.4916  142.1534  153.8728 C   0  0  0  0  0  0  0  0  0  0  0  0
  145.6569  141.5108  154.9969 C   0  0  0  0  0  0  0  0  0  0  0  0
  146.1993  140.1426  155.4833 C   0  0  1  0  0  0  0  0  0  0  0  0
  145.9896  138.9724  154.4945 C   0  0  0  0  0  0  0  0  0  0  0  0
  146.9103  139.0116  153.2506 C   0  0  2  0  0  0  0  0  0  0  0  0
  146.9567  137.6817  152.6438 N   0  0  0  0  0  0  0  0  0  0  0  0
  145.8999  136.8970  152.3832 C   0  0  0  0  0  0  0  0  0  0  0  0
  144.7363  137.2136  152.6310 O   0  0  0  0  0  0  0  0  0  0  0  0
  146.2821  135.7370  151.8233 N   0  0  0  0  0  0  0  0  0  0  0  0
  145.4523  134.6637  151.4118 C   0  0  0  0  0  0  0  0  0  0  0  0
  144.1283  134.6984  151.2550 N   0  0  0  0  0  0  0  0  0  0  0  0
  143.7911  133.4165  150.8460 C   0  0  0  0  0  0  0  0  0  0  0  0
  144.9412  132.6729  150.7782 C   0  0  0  0  0  0  0  0  0  0  0  0
  146.0073  133.4541  151.1357 O   0  0  0  0  0  0  0  0  0  0  0  0
  148.3496  139.4653  153.5951 C   0  0  0  0  0  0  0  0  0  0  0  0
  147.6830  142.0573  156.9487 H   0  0  0  0  0  0  0  0  0  0  0  0
  149.0054  140.9409  157.2889 H   0  0  0  0  0  0  0  0  0  0  0  0
  147.3918  140.6035  157.9039 H   0  0  0  0  0  0  0  0  0  0  0  0
  149.4756  140.6794  154.9347 H   0  0  0  0  0  0  0  0  0  0  0  0
  148.3248  142.7612  154.8164 H   0  0  0  0  0  0  0  0  0  0  0  0
  148.5438  142.2301  153.1804 H   0  0  0  0  0  0  0  0  0  0  0  0
  146.2406  143.2117  153.7941 H   0  0  0  0  0  0  0  0  0  0  0  0
  146.2112  141.7380  152.9087 H   0  0  0  0  0  0  0  0  0  0  0  0
  145.6313  142.1989  155.8422 H   0  0  0  0  0  0  0  0  0  0  0  0
  144.6201  141.4107  154.6747 H   0  0  0  0  0  0  0  0  0  0  0  0
  145.6533  139.8815  156.3909 H   0  0  0  0  0  0  0  0  0  0  0  0
  146.1813  138.0470  155.0403 H   0  0  0  0  0  0  0  0  0  0  0  0
  144.9451  138.9204  154.1848 H   0  0  0  0  0  0  0  0  0  0  0  0
  146.4906  139.7114  152.5331 H   0  0  0  0  0  0  0  0  0  0  0  0
  147.8710  137.3287  152.4018 H   0  0  0  0  0  0  0  0  0  0  0  0
  147.2714  135.6047  151.6744 H   0  0  0  0  0  0  0  0  0  0  0  0
  142.7691  133.1365  150.6372 H   0  0  0  0  0  0  0  0  0  0  0  0
  145.1573  131.6487  150.5124 H   0  0  0  0  0  0  0  0  0  0  0  0
  148.8820  139.7428  152.6845 H   0  0  0  0  0  0  0  0  0  0  0  0
  148.8941  138.6135  154.0064 H   0  0  0  0  0  0  0  0  0  0  0  0
  147.9211  139.2815  156.0514 H   0  0  0  0  0  0  0  0  0  0  0  0
  1  2  1  0  0  0  0
  1 20  1  0  0  0  0
  1 21  1  0  0  0  0
  1 22  1  0  0  0  0
  2  7  1  0  0  0  0
  2  3  1  0  0  0  0
  2 40  1  0  0  0  0
  3 19  1  0  0  0  0
  3  4  1  0  0  0  0
  3 23  1  0  0  0  0
  4  5  1  0  0  0  0
  4 24  1  0  0  0  0
  4 25  1  0  0  0  0
  5  6  1  0  0  0  0
  5 26  1  0  0  0  0
  5 27  1  0  0  0  0
  6  7  1  0  0  0  0
  6 28  1  0  0  0  0
  6 29  1  0  0  0  0
  7  8  1  0  0  0  0
  7 30  1  0  0  0  0
  8  9  1  0  0  0  0
  8 31  1  0  0  0  0
  8 32  1  0  0  0  0
  9 10  1  0  0  0  0
  9 19  1  0  0  0  0
  9 33  1  0  0  0  0
 10 11  1  0  0  0  0
 10 34  1  0  0  0  0
 11 12  2  0  0  0  0
 11 13  1  0  0  0  0
 13 14  1  0  0  0  0
 13 35  1  0  0  0  0
 14 18  1  0  0  0  0
 14 15  2  0  0  0  0
 15 16  1  0  0  0  0
 16 17  2  0  0  0  0
 16 36  1  0  0  0  0
 17 18  1  0  0  0  0
 17 37  1  0  0  0  0
 19 38  1  0  0  0  0
 19 39  1  0  0  0  0
M  CHG  1   2   1
M  END
> <s_m_source_file>
AV-unprocessed.smi

> <i_m_source_file_index>
2226

> <i_lp_mmshare_version>
43012

> <i_f3d_flags>
0

> <s_epik_input>
W0NIMl0xW0NIMl1bQ0gyXVtDQEhdKE4oW0NIM10pW0NIXTEyKVtDSDJdW0NASF0oW0NIMl0yKVtOSF1DKD1PKVtOSF1jM25bY0hdW2NIXW8z

> <s_epik_cmdline>
J2VwaWtfcHl0aG9uJywgJy1waCcsICc3LjAnLCAnLXRuJywgJzgnLCAnLW1hJywgJzIwMCcsICctbWV0YWxfYmluZGluZycsICctaW1hZScsICc8aW5maWxlLm1hZT4nLCAnLW9tYWUnLCAnPG91dGZpbGUubWFlPic=

> <r_lp_tautomer_probability>
0.785861

> <r_epik_Ionization_Penalty>
0.000929358

> <r_epik_Ionization_Penalty_Charging>
0.000890041

> <r_epik_Ionization_Penalty_Neutral>
3.93161e-05

> <r_epik_State_Penalty>
0.0312137

> <r_epik_Charging_Adjusted_Penalty>
0.0321037

> <i_epik_Tot_Q>
1

> <i_epik_Tot_abs_Q>
1

> <r_epik_Metal_State_Penalty>
0.0605703

> <b_epik_Metal_Only>
0

> <s_lp_Force_Field>
OPLS_2005

> <r_lp_Energy>
34.3269

> <b_lp_Chiralities_Consistent>
1

> <s_lp_Variant>
AV-unprocessed.smi:2226-3

> <Gold.Version>
5.8.1

> <Gold.Id.Protein>
6NUR|6NUR_protein|mol2

> <Gold.PLP.Fitness>
34.0848

> <Gold.PLP.PLP>
-25.4123

> <Gold.PLP.part.hbond>
-2.0000

> <Gold.PLP.part.metal>
0.0000

> <Gold.PLP.part.buried>
-1.0037

> <Gold.PLP.part.nonpolar>
-22.5440

> <Gold.PLP.part.repulsive>
0.6525

> <Gold.PLP.ligand.clash>
0.0000

> <Gold.PLP.ligand.torsion>
0.1643

> <Gold.PLP.Chemscore.Hbond>
2.0000

> <Gold.PLP.Chemscore.CHOScore>
0.9984

> <Gold.PLP.Chemscore.Metal>
0.0000

> <Gold.Chemscore.Hbonds>
donor molecule, donor type, donor heavy atom, donor atom, acceptor molecule, acceptor atom, score
      L1  H    10    34       P1  7948  1.00
      L1  H    13    35       P1  7948  1.00
      L1  C    16    36       P1 10186  0.99

> <Gold.PLP.Chemscore.Internal.Correction>
0.0057

> <Gold.Rescore>
     Score         DG    S(hbond)    S(metal)    S(lipo)     H(rot)  DE(clash)    DE(int)     intcor
     12.89     -15.68       1.97        0.00      52.87       1.00       0.10       2.69       ----

> <Gold.Chemscore.Fitness>
12.8898

> <Gold.Chemscore.DG>
-15.6805

> <Gold.Chemscore.ZeroCoef>
-5.4800

> <Gold.Chemscore.Hbond>
1.9685

> <Gold.Chemscore.Metal>
0.0000

> <Gold.Chemscore.Lipo>
52.8697

> <Gold.Chemscore.Internal_Hbond>
0.0000

> <Gold.Chemscore.DEClash>
0.1032

> <Gold.Chemscore.DEInternal>
2.6875

> <Gold.Chemscore.Rot>
1.0000

> <Gold.Chemscore.Internal.Correction>
   9.000000E+99

> <Gold.Chemscore.Hbonds>
donor molecule, donor type, donor heavy atom, donor atom, acceptor molecule, acceptor atom, score
      L1  H    10    34       P1  7948  0.98
      L1  H    13    35       P1  7948  0.94

> <Gold.Chemscore.Hbond.Weighted>
-6.5748

> <Gold.Chemscore.Metal.Weighted>
-0.0000

> <Gold.Chemscore.Lipo.Weighted>
-6.1858

> <Gold.Chemscore.Internal_Hbond.Weighted>
0.0000

> <Gold.Chemscore.DEClash.Weighted>
0.1032

> <Gold.Chemscore.DEInternal.Weighted>
2.6875

> <Gold.Chemscore.Rot.Weighted>
2.5600

> <Gold.Chemscore.Internal.Correction.Weighted>
   9.000000E+99

> <Gold.Protein.RotatedTorsions>
[ 6907 6896 6895 6894 ] final  -13.82 input  -60.11 | X-H torsion
[ 7974 7965 7964 7962 ] final   44.91 input  175.53 | X-H torsion
[ 8008 7997 7996 7995 ] final -118.16 input   59.86 | X-H torsion
[ 10167 10162 10161 10158 ] final   65.74 input  -65.29 | X-H torsion
[ 10718 10713 10712 10709 ] final -101.29 input   66.30 | X-H torsion
[ 10763 10752 10751 10750 ] final  167.51 input  -60.55 | X-H torsion
[ 11005 11000 10999 10996 ] final  -29.19 input  -57.11 | X-H torsion

> <Gold.Protein.ActiveResidues>
 VAL166  LYS551  ARG553  GLY616  TRP617  ASP618  TYR619  PRO620  LYS621  CYS622 
 ASP623  PHE694  ASN695  SER759  ASP760  ASP761  ALA762  ILE779  LEU786  VAL792 
 PHE793  MET794  SER795  GLU796  ALA797  LYS798  CYS799  TRP800  GLU811  SER814 

> <Gold.Protein.RotatedAtoms>
  151.3490  135.0880  159.9396 H   0  0  0  0  0  0  0  0  0  0  0  0  # atno 6907 bound_to 6896
  152.5192  133.9371  159.7619 H   0  0  0  0  0  0  0  0  0  0  0  0  # atno 6908 bound_to 6896
  150.9743  133.6258  159.2762 H   0  0  0  0  0  0  0  0  0  0  0  0  # atno 6909 bound_to 6896
  146.0527  139.5022  142.9708 H   0  0  0  0  0  0  0  0  0  0  0  0  # atno 7974 bound_to 7965
  155.0952  140.0395  157.2680 H   0  0  0  0  0  0  0  0  0  0  0  0  # atno 8008 bound_to 7997
  154.6800  140.2631  155.6893 H   0  0  0  0  0  0  0  0  0  0  0  0  # atno 8009 bound_to 7997
  156.2691  140.2780  156.1341 H   0  0  0  0  0  0  0  0  0  0  0  0  # atno 8010 bound_to 7997
  140.1080  144.4844  150.6996 H   0  0  0  0  0  0  0  0  0  0  0  0  # atno 10167 bound_to 10162
  156.0190  130.5367  150.6942 H   0  0  0  0  0  0  0  0  0  0  0  0  # atno 10718 bound_to 10713
  154.3549  135.2753  155.2352 H   0  0  0  0  0  0  0  0  0  0  0  0  # atno 10763 bound_to 10752
  154.4565  135.5918  153.6230 H   0  0  0  0  0  0  0  0  0  0  0  0  # atno 10764 bound_to 10752
  152.9847  135.6054  154.3763 H   0  0  0  0  0  0  0  0  0  0  0  0  # atno 10765 bound_to 10752
  140.9275  133.7359  156.0888 H   0  0  0  0  0  0  0  0  0  0  0  0  # atno 11005 bound_to 11000
  145.6697  141.0219  143.1664 LP  0  0  0  0  0  0  0  0  0  0  0  0  # atno 17320 bound_to 7965
  144.7131  139.8296  143.7408 LP  0  0  0  0  0  0  0  0  0  0  0  0  # atno 17321 bound_to 7965
  140.6941  143.2393  151.5049 LP  0  0  0  0  0  0  0  0  0  0  0  0  # atno 17342 bound_to 10162
  139.5635  144.2099  152.1728 LP  0  0  0  0  0  0  0  0  0  0  0  0  # atno 17343 bound_to 10162
  157.4617  131.0884  151.0739 LP  0  0  0  0  0  0  0  0  0  0  0  0  # atno 17370 bound_to 10713
  157.1224  130.6067  149.5508 LP  0  0  0  0  0  0  0  0  0  0  0  0  # atno 17371 bound_to 10713
  140.7907  134.3621  157.5465 LP  0  0  0  0  0  0  0  0  0  0  0  0  # atno 17394 bound_to 11000
  139.8789  134.9138  156.3092 LP  0  0  0  0  0  0  0  0  0  0  0  0  # atno 17395 bound_to 11000

$$$$
