AV-unprocessed.smi:1254|AV-procd|sdf|5270|dock7
  -GOLD-   22720 4383D 1   1.00000     0.00000
 Structure written by MMmdl.
 46 47  0  0  0  0  0  0  0  0  2 V2000
  143.7477  132.8769  150.4240 C   0  0  0  0  0  0  0  0  0  0  0  0
  144.3282  134.1500  150.9365 C   0  0  0  0  0  0  0  0  0  0  0  0
  145.5705  134.7118  150.8409 C   0  0  0  0  0  0  0  0  0  0  0  0
  145.4287  135.9266  151.5628 C   0  0  0  0  0  0  0  0  0  0  0  0
  146.5211  136.8197  151.7076 N   0  0  0  0  0  0  0  0  0  0  0  0
  146.4717  138.1331  151.9875 C   0  0  0  0  0  0  0  0  0  0  0  0
  145.4402  138.7890  152.1351 O   0  0  0  0  0  0  0  0  0  0  0  0
  147.7019  138.6558  152.0957 N   0  0  0  0  0  0  0  0  0  0  0  0
  147.9957  140.0488  152.4185 C   0  0  0  0  0  0  0  0  0  0  0  0
  148.3737  140.2234  153.9004 C   0  0  1  0  0  0  0  0  0  0  0  0
  148.7994  141.6731  154.2155 C   0  0  0  0  0  0  0  0  0  0  0  0
  149.1045  141.8468  155.6573 N   0  3  2  0  0  0  0  0  0  0  0  0
  150.4305  141.3021  156.0571 C   0  0  0  0  0  0  0  0  0  0  0  0
  150.8362  141.7014  157.4922 C   0  0  0  0  0  0  0  0  0  0  0  0
  151.3191  143.1596  157.5670 C   0  0  0  0  0  0  0  0  0  0  0  0
  151.9165  140.7524  158.0322 C   0  0  0  0  0  0  0  0  0  0  0  0
  147.9646  141.3814  156.4884 C   0  0  0  0  0  0  0  0  0  0  0  0
  147.5233  139.9585  156.0964 C   0  0  0  0  0  0  0  0  0  0  0  0
  147.2402  139.9117  154.7045 O   0  0  0  0  0  0  0  0  0  0  0  0
  144.2096  136.0927  152.0526 N   0  0  0  0  0  0  0  0  0  0  0  0
  143.4981  134.9552  151.6535 O   0  0  0  0  0  0  0  0  0  0  0  0
  144.4839  132.3176  149.8460 H   0  0  0  0  0  0  0  0  0  0  0  0
  142.8905  133.0741  149.7802 H   0  0  0  0  0  0  0  0  0  0  0  0
  143.4145  132.2456  151.2479 H   0  0  0  0  0  0  0  0  0  0  0  0
  146.4389  134.3135  150.3375 H   0  0  0  0  0  0  0  0  0  0  0  0
  147.4376  136.4099  151.6060 H   0  0  0  0  0  0  0  0  0  0  0  0
  148.4929  138.0450  151.9530 H   0  0  0  0  0  0  0  0  0  0  0  0
  148.8308  140.3573  151.7892 H   0  0  0  0  0  0  0  0  0  0  0  0
  147.1571  140.6957  152.1538 H   0  0  0  0  0  0  0  0  0  0  0  0
  149.1898  139.5381  154.1362 H   0  0  0  0  0  0  0  0  0  0  0  0
  149.6547  141.9706  153.6076 H   0  0  0  0  0  0  0  0  0  0  0  0
  147.9890  142.3550  153.9539 H   0  0  0  0  0  0  0  0  0  0  0  0
  150.4345  140.2175  155.9488 H   0  0  0  0  0  0  0  0  0  0  0  0
  151.1966  141.6726  155.3743 H   0  0  0  0  0  0  0  0  0  0  0  0
  149.9732  141.6008  158.1497 H   0  0  0  0  0  0  0  0  0  0  0  0
  152.1936  143.3213  156.9359 H   0  0  0  0  0  0  0  0  0  0  0  0
  151.5927  143.4290  158.5877 H   0  0  0  0  0  0  0  0  0  0  0  0
  150.5437  143.8558  157.2466 H   0  0  0  0  0  0  0  0  0  0  0  0
  152.8231  140.7959  157.4277 H   0  0  0  0  0  0  0  0  0  0  0  0
  151.5677  139.7191  158.0348 H   0  0  0  0  0  0  0  0  0  0  0  0
  152.1879  141.0081  159.0570 H   0  0  0  0  0  0  0  0  0  0  0  0
  148.2001  141.4301  157.5506 H   0  0  0  0  0  0  0  0  0  0  0  0
  147.1309  142.0669  156.3319 H   0  0  0  0  0  0  0  0  0  0  0  0
  148.2814  139.2175  156.3518 H   0  0  0  0  0  0  0  0  0  0  0  0
  146.6217  139.6847  156.6445 H   0  0  0  0  0  0  0  0  0  0  0  0
  149.1796  142.8437  155.8030 H   0  0  0  0  0  0  0  0  0  0  0  0
  1  2  1  0  0  0  0
  1 22  1  0  0  0  0
  1 23  1  0  0  0  0
  1 24  1  0  0  0  0
  2 21  1  0  0  0  0
  2  3  2  0  0  0  0
  3  4  1  0  0  0  0
  3 25  1  0  0  0  0
  4  5  1  0  0  0  0
  4 20  2  0  0  0  0
  5  6  1  0  0  0  0
  5 26  1  0  0  0  0
  6  7  2  0  0  0  0
  6  8  1  0  0  0  0
  8  9  1  0  0  0  0
  8 27  1  0  0  0  0
  9 10  1  0  0  0  0
  9 28  1  0  0  0  0
  9 29  1  0  0  0  0
 10 19  1  0  0  0  0
 10 11  1  0  0  0  0
 10 30  1  0  0  0  0
 11 12  1  0  0  0  0
 11 31  1  0  0  0  0
 11 32  1  0  0  0  0
 12 13  1  0  0  0  0
 12 17  1  0  0  0  0
 12 46  1  0  0  0  0
 13 14  1  0  0  0  0
 13 33  1  0  0  0  0
 13 34  1  0  0  0  0
 14 15  1  0  0  0  0
 14 16  1  0  0  0  0
 14 35  1  0  0  0  0
 15 36  1  0  0  0  0
 15 37  1  0  0  0  0
 15 38  1  0  0  0  0
 16 39  1  0  0  0  0
 16 40  1  0  0  0  0
 16 41  1  0  0  0  0
 17 18  1  0  0  0  0
 17 42  1  0  0  0  0
 17 43  1  0  0  0  0
 18 19  1  0  0  0  0
 18 44  1  0  0  0  0
 18 45  1  0  0  0  0
 20 21  1  0  0  0  0
M  CHG  1  12   1
M  END
> <s_m_source_file>
AV-unprocessed.smi

> <i_m_source_file_index>
1254

> <i_lp_mmshare_version>
43012

> <i_f3d_flags>
0

> <s_epik_input>
W0NIM11jMVtjSF1jKG5vMSlbTkhdQyg9TylbTkhdW0NIMl1bQ0BASF0yW0NIMl1OKFtDSDJdW0NIMl1PMilbQ0gyXVtDSF0oW0NIM10pW0NIM10=

> <s_epik_cmdline>
J2VwaWtfcHl0aG9uJywgJy1waCcsICc3LjAnLCAnLXRuJywgJzgnLCAnLW1hJywgJzIwMCcsICctbWV0YWxfYmluZGluZycsICctaW1hZScsICc8aW5maWxlLm1hZT4nLCAnLW9tYWUnLCAnPG91dGZpbGUubWFlPic=

> <r_epik_Ionization_Penalty>
0.0986825

> <r_epik_Ionization_Penalty_Charging>
0.0986478

> <r_epik_Ionization_Penalty_Neutral>
3.46838e-05

> <r_epik_State_Penalty>
0.0887259

> <r_epik_Charging_Adjusted_Penalty>
0.187374

> <i_epik_Tot_Q>
1

> <i_epik_Tot_abs_Q>
1

> <r_epik_Metal_State_Penalty>
0.103424

> <b_epik_Metal_Only>
0

> <s_lp_Force_Field>
OPLS_2005

> <r_lp_Energy>
18.2179

> <b_lp_Chiralities_Consistent>
1

> <s_lp_Variant>
AV-unprocessed.smi:1254-2

> <Gold.Version>
5.8.1

> <Gold.Id.Protein>
6NUR|6NUR_protein|mol2

> <Gold.PLP.Fitness>
40.1948

> <Gold.PLP.PLP>
-29.4485

> <Gold.PLP.part.hbond>
-4.0000

> <Gold.PLP.part.metal>
0.0000

> <Gold.PLP.part.buried>
-1.8811

> <Gold.PLP.part.nonpolar>
-28.8965

> <Gold.PLP.part.repulsive>
5.7448

> <Gold.PLP.ligand.clash>
0.0000

> <Gold.PLP.ligand.torsion>
0.4388

> <Gold.PLP.Chemscore.Hbond>
3.8640

> <Gold.PLP.Chemscore.CHOScore>
0.0000

> <Gold.PLP.Chemscore.Metal>
0.0000

> <Gold.Chemscore.Hbonds>
donor molecule, donor type, donor heavy atom, donor atom, acceptor molecule, acceptor atom, score
      L1  H     5    26       P1  7948  0.96
      L1  H     8    27       P1  7948  0.86
      L1  H    12    46       P1  8028  2.00

> <Gold.PLP.Chemscore.Internal.Correction>
0.0317

> <Gold.Rescore>
     Score         DG    S(hbond)    S(metal)    S(lipo)     H(rot)  DE(clash)    DE(int)     intcor
     15.06     -19.54       2.89        0.00      75.46       1.73       3.04       1.43       ----

> <Gold.Chemscore.Fitness>
15.0631

> <Gold.Chemscore.DG>
-19.5398

> <Gold.Chemscore.ZeroCoef>
-5.4800

> <Gold.Chemscore.Hbond>
2.8916

> <Gold.Chemscore.Metal>
0.0000

> <Gold.Chemscore.Lipo>
75.4562

> <Gold.Chemscore.Internal_Hbond>
0.0000

> <Gold.Chemscore.DEClash>
3.0440

> <Gold.Chemscore.DEInternal>
1.4328

> <Gold.Chemscore.Rot>
1.7291

> <Gold.Chemscore.Internal.Correction>
   9.000000E+99

> <Gold.Chemscore.Hbonds>
donor molecule, donor type, donor heavy atom, donor atom, acceptor molecule, acceptor atom, score
      L1  H     5    26       P1  7948  0.91
      L1  H     8    27       P1  7948  0.85
      L1  H    12    46       P1  8028  1.00

> <Gold.Chemscore.Hbond.Weighted>
-9.6579

> <Gold.Chemscore.Metal.Weighted>
-0.0000

> <Gold.Chemscore.Lipo.Weighted>
-8.8284

> <Gold.Chemscore.Internal_Hbond.Weighted>
0.0000

> <Gold.Chemscore.DEClash.Weighted>
3.0440

> <Gold.Chemscore.DEInternal.Weighted>
1.4328

> <Gold.Chemscore.Rot.Weighted>
4.4265

> <Gold.Chemscore.Internal.Correction.Weighted>
   9.000000E+99

> <Gold.Protein.RotatedTorsions>
[ 6907 6896 6895 6894 ] final   80.27 input  -60.11 | X-H torsion
[ 7974 7965 7964 7962 ] final  122.74 input  175.53 | X-H torsion
[ 8008 7997 7996 7995 ] final   57.32 input   59.86 | X-H torsion
[ 10167 10162 10161 10158 ] final  142.85 input  -65.29 | X-H torsion
[ 10718 10713 10712 10709 ] final   85.62 input   66.30 | X-H torsion
[ 10763 10752 10751 10750 ] final  -25.48 input  -60.55 | X-H torsion
[ 11005 11000 10999 10996 ] final   74.26 input  -57.11 | X-H torsion

> <Gold.Protein.ActiveResidues>
 VAL166  LYS551  ARG553  GLY616  TRP617  ASP618  TYR619  PRO620  LYS621  CYS622 
 ASP623  PHE694  ASN695  SER759  ASP760  ASP761  ALA762  ILE779  LEU786  VAL792 
 PHE793  MET794  SER795  GLU796  ALA797  LYS798  CYS799  TRP800  GLU811  SER814 

> <Gold.Protein.RotatedAtoms>
  152.5229  134.3383  159.9207 H   0  0  0  0  0  0  0  0  0  0  0  0  # atno 6907 bound_to 6896
  151.3333  133.3985  159.2672 H   0  0  0  0  0  0  0  0  0  0  0  0  # atno 6908 bound_to 6896
  150.9863  134.9225  159.7931 H   0  0  0  0  0  0  0  0  0  0  0  0  # atno 6909 bound_to 6896
  145.1041  139.3498  143.4797 H   0  0  0  0  0  0  0  0  0  0  0  0  # atno 7974 bound_to 7965
  155.5318  140.3482  155.4428 H   0  0  0  0  0  0  0  0  0  0  0  0  # atno 8008 bound_to 7997
  156.0713  140.1364  156.9852 H   0  0  0  0  0  0  0  0  0  0  0  0  # atno 8009 bound_to 7997
  154.4529  140.0965  156.6648 H   0  0  0  0  0  0  0  0  0  0  0  0  # atno 8010 bound_to 7997
  139.4984  144.6080  151.6336 H   0  0  0  0  0  0  0  0  0  0  0  0  # atno 10167 bound_to 10162
  157.6917  131.0182  150.2850 H   0  0  0  0  0  0  0  0  0  0  0  0  # atno 10718 bound_to 10713
  153.7005  135.6956  153.5064 H   0  0  0  0  0  0  0  0  0  0  0  0  # atno 10763 bound_to 10752
  153.2346  135.4326  155.0631 H   0  0  0  0  0  0  0  0  0  0  0  0  # atno 10764 bound_to 10752
  154.8346  135.3492  154.6544 H   0  0  0  0  0  0  0  0  0  0  0  0  # atno 10765 bound_to 10752
  139.9400  134.7417  156.1126 H   0  0  0  0  0  0  0  0  0  0  0  0  # atno 11005 bound_to 11000
  146.3529  140.0931  142.8611 LP  0  0  0  0  0  0  0  0  0  0  0  0  # atno 17320 bound_to 7965
  145.0922  140.9292  143.4762 LP  0  0  0  0  0  0  0  0  0  0  0  0  # atno 17321 bound_to 7965
  140.5746  144.0050  150.6235 LP  0  0  0  0  0  0  0  0  0  0  0  0  # atno 17342 bound_to 10162
  140.3179  143.3156  152.0814 LP  0  0  0  0  0  0  0  0  0  0  0  0  # atno 17343 bound_to 10162
  156.3390  130.3812  149.7425 LP  0  0  0  0  0  0  0  0  0  0  0  0  # atno 17370 bound_to 10713
  156.4940  130.8098  151.3106 LP  0  0  0  0  0  0  0  0  0  0  0  0  # atno 17371 bound_to 10713
  141.1030  133.6670  156.2798 LP  0  0  0  0  0  0  0  0  0  0  0  0  # atno 17394 bound_to 11000
  140.5977  134.5586  157.5512 LP  0  0  0  0  0  0  0  0  0  0  0  0  # atno 17395 bound_to 11000

$$$$
