AV-unprocessed.smi:3116|AV-procd|sdf|11865|dock4
  -GOLD-   2272017243D 1   1.00000     0.00000
 Structure written by MMmdl.
 34 34  0  0  0  0  0  0  0  0  2 V2000
  146.4592  138.1723  154.4869 C   0  0  0  0  0  0  0  0  0  0  0  0
  147.0898  138.9555  153.3254 C   0  0  1  0  0  0  0  0  0  0  0  0
  148.5519  138.7153  153.2999 N   0  3  0  0  0  0  0  0  0  0  0  0
  149.2699  138.9179  154.5831 C   0  0  1  0  0  0  0  0  0  0  0  0
  150.7892  138.8495  154.3369 C   0  0  0  0  0  0  0  0  0  0  0  0
  148.8297  140.2581  155.2290 C   0  0  2  0  0  0  0  0  0  0  0  0
  148.6468  141.4001  154.2109 C   0  0  0  0  0  0  0  0  0  0  0  0
  149.7712  140.6651  156.2672 N   0  0  0  0  0  0  0  0  0  0  0  0
  150.4714  141.8497  156.3894 C   0  0  0  0  0  0  0  0  0  0  0  0
  151.2591  141.7472  157.4997 C   0  0  0  0  0  0  0  0  0  0  0  0
  150.9810  140.4422  157.9920 C   0  0  0  0  0  0  0  0  0  0  0  0
  150.0979  139.7952  157.2487 N   0  0  0  0  0  0  0  0  0  0  0  0
  146.4298  138.5485  152.0002 C   0  0  0  0  0  0  0  0  0  0  0  0
  145.0972  138.4619  151.9844 N   0  0  0  0  0  0  0  0  0  0  0  0
  147.1119  138.3018  151.0073 O   0  0  0  0  0  0  0  0  0  0  0  0
  145.3838  138.3458  154.5452 H   0  0  0  0  0  0  0  0  0  0  0  0
  146.8890  138.4766  155.4419 H   0  0  0  0  0  0  0  0  0  0  0  0
  146.6174  137.0981  154.3801 H   0  0  0  0  0  0  0  0  0  0  0  0
  146.9091  140.0170  153.4997 H   0  0  0  0  0  0  0  0  0  0  0  0
  148.7258  137.7694  152.9921 H   0  0  0  0  0  0  0  0  0  0  0  0
  148.9962  138.1141  155.2684 H   0  0  0  0  0  0  0  0  0  0  0  0
  151.3511  138.8938  155.2694 H   0  0  0  0  0  0  0  0  0  0  0  0
  151.1248  139.6726  153.7052 H   0  0  0  0  0  0  0  0  0  0  0  0
  151.0763  137.9199  153.8459 H   0  0  0  0  0  0  0  0  0  0  0  0
  147.8612  140.1033  155.7091 H   0  0  0  0  0  0  0  0  0  0  0  0
  147.8129  141.2082  153.5362 H   0  0  0  0  0  0  0  0  0  0  0  0
  149.5404  141.5437  153.6029 H   0  0  0  0  0  0  0  0  0  0  0  0
  148.4326  142.3432  154.7152 H   0  0  0  0  0  0  0  0  0  0  0  0
  150.3559  142.6592  155.6838 H   0  0  0  0  0  0  0  0  0  0  0  0
  151.9362  142.4891  157.8966 H   0  0  0  0  0  0  0  0  0  0  0  0
  151.3956  139.9473  158.8579 H   0  0  0  0  0  0  0  0  0  0  0  0
  144.6134  138.2061  151.1357 H   0  0  0  0  0  0  0  0  0  0  0  0
  144.5736  138.6619  152.8249 H   0  0  0  0  0  0  0  0  0  0  0  0
  148.9441  139.3484  152.6162 H   0  0  0  0  0  0  0  0  0  0  0  0
  1  2  1  0  0  0  0
  1 16  1  0  0  0  0
  1 17  1  0  0  0  0
  1 18  1  0  0  0  0
  2  3  1  0  0  0  0
  2 13  1  0  0  0  0
  2 19  1  0  0  0  0
  3  4  1  0  0  0  0
  3 20  1  0  0  0  0
  3 34  1  0  0  0  0
  4  5  1  0  0  0  0
  4  6  1  0  0  0  0
  4 21  1  0  0  0  0
  5 22  1  0  0  0  0
  5 23  1  0  0  0  0
  5 24  1  0  0  0  0
  6  7  1  0  0  0  0
  6  8  1  0  0  0  0
  6 25  1  0  0  0  0
  7 26  1  0  0  0  0
  7 27  1  0  0  0  0
  7 28  1  0  0  0  0
  8 12  1  0  0  0  0
  8  9  1  0  0  0  0
  9 10  2  0  0  0  0
  9 29  1  0  0  0  0
 10 11  1  0  0  0  0
 10 30  1  0  0  0  0
 11 12  2  0  0  0  0
 11 31  1  0  0  0  0
 13 14  1  0  0  0  0
 13 15  2  0  0  0  0
 14 32  1  0  0  0  0
 14 33  1  0  0  0  0
M  CHG  1   3   1
M  END
> <s_m_source_file>
AV-unprocessed.smi

> <i_m_source_file_index>
3116

> <i_lp_mmshare_version>
43012

> <i_f3d_flags>
0

> <s_epik_input>
W05IMl1DKD1PKVtDQEhdKFtDSDNdKVtOSF1bQ0BIXShbQ0gzXSlbQ0BIXShbQ0gzXSluMVtjSF1bY0hdW2NIXW4x

> <s_epik_cmdline>
J2VwaWtfcHl0aG9uJywgJy1waCcsICc3LjAnLCAnLXRuJywgJzgnLCAnLW1hJywgJzIwMCcsICctbWV0YWxfYmluZGluZycsICctaW1hZScsICc8aW5maWxlLm1hZT4nLCAnLW9tYWUnLCAnPG91dGZpbGUubWFlPic=

> <r_lp_tautomer_probability>
1

> <r_epik_Ionization_Penalty>
0.15658

> <r_epik_Ionization_Penalty_Charging>
0.156568

> <r_epik_Ionization_Penalty_Neutral>
1.19778e-05

> <r_epik_State_Penalty>
0.145866

> <r_epik_Charging_Adjusted_Penalty>
0.302434

> <i_epik_Tot_Q>
1

> <i_epik_Tot_abs_Q>
1

> <r_epik_Metal_State_Penalty>
0.146064

> <b_epik_Metal_Only>
0

> <s_lp_Force_Field>
OPLS_2005

> <r_lp_Energy>
9.00386

> <b_lp_Chiralities_Consistent>
1

> <s_lp_Variant>
AV-unprocessed.smi:3116-4

> <Gold.Version>
5.8.1

> <Gold.Id.Protein>
6NUR|6NUR_protein|mol2

> <Gold.PLP.Fitness>
43.6263

> <Gold.PLP.PLP>
-26.8813

> <Gold.PLP.part.hbond>
-4.7712

> <Gold.PLP.part.metal>
0.0000

> <Gold.PLP.part.buried>
-3.7032

> <Gold.PLP.part.nonpolar>
-21.4268

> <Gold.PLP.part.repulsive>
2.9425

> <Gold.PLP.ligand.clash>
0.0000

> <Gold.PLP.ligand.torsion>
0.8171

> <Gold.PLP.Chemscore.Hbond>
5.0856

> <Gold.PLP.Chemscore.CHOScore>
1.0000

> <Gold.PLP.Chemscore.Metal>
0.0000

> <Gold.Chemscore.Hbonds>
donor molecule, donor type, donor heavy atom, donor atom, acceptor molecule, acceptor atom, score
      L1  H     3    20       P1  7948  2.00
      L1  H     3    34       P1  7957  1.00
      L1  H    14    32       P1 10171  1.00
      L1  H    14    33       P1 10175  0.10
      P1  H  7954  7966       L1    15  1.00
      L1  C     9    29       P1  8028  1.00

> <Gold.PLP.Chemscore.Internal.Correction>
0.1225

> <Gold.Rescore>
     Score         DG    S(hbond)    S(metal)    S(lipo)     H(rot)  DE(clash)    DE(int)     intcor
     18.20     -18.91       4.02        0.00      53.46       2.45       0.24       0.47       ----

> <Gold.Chemscore.Fitness>
18.2004

> <Gold.Chemscore.DG>
-18.9133

> <Gold.Chemscore.ZeroCoef>
-5.4800

> <Gold.Chemscore.Hbond>
4.0244

> <Gold.Chemscore.Metal>
0.0000

> <Gold.Chemscore.Lipo>
53.4605

> <Gold.Chemscore.Internal_Hbond>
0.0000

> <Gold.Chemscore.DEClash>
0.2391

> <Gold.Chemscore.DEInternal>
0.4738

> <Gold.Chemscore.Rot>
2.4465

> <Gold.Chemscore.Internal.Correction>
   9.000000E+99

> <Gold.Chemscore.Hbonds>
donor molecule, donor type, donor heavy atom, donor atom, acceptor molecule, acceptor atom, score
      L1  H     3    20       P1  7948  1.00
      L1  H     3    34       P1  7957  1.00
      L1  H    14    32       P1 10171  0.92
      L1  H    14    33       P1 10175  0.11
      P1  H  7954  7966       L1    15  0.97

> <Gold.Chemscore.Hbond.Weighted>
-13.4416

> <Gold.Chemscore.Metal.Weighted>
-0.0000

> <Gold.Chemscore.Lipo.Weighted>
-6.2549

> <Gold.Chemscore.Internal_Hbond.Weighted>
0.0000

> <Gold.Chemscore.DEClash.Weighted>
0.2391

> <Gold.Chemscore.DEInternal.Weighted>
0.4738

> <Gold.Chemscore.Rot.Weighted>
6.2631

> <Gold.Chemscore.Internal.Correction.Weighted>
   9.000000E+99

> <Gold.Protein.RotatedTorsions>
[ 6907 6896 6895 6894 ] final   37.95 input  -60.11 | X-H torsion
[ 7974 7965 7964 7962 ] final  116.70 input  175.53 | X-H torsion
[ 8008 7997 7996 7995 ] final  103.11 input   59.86 | X-H torsion
[ 10167 10162 10161 10158 ] final  -38.08 input  -65.29 | X-H torsion
[ 10718 10713 10712 10709 ] final  161.07 input   66.30 | X-H torsion
[ 10763 10752 10751 10750 ] final  151.67 input  -60.55 | X-H torsion
[ 11005 11000 10999 10996 ] final -110.08 input  -57.11 | X-H torsion

> <Gold.Protein.ActiveResidues>
 VAL166  LYS551  ARG553  GLY616  TRP617  ASP618  TYR619  PRO620  LYS621  CYS622 
 ASP623  PHE694  ASN695  SER759  ASP760  ASP761  ALA762  ILE779  LEU786  VAL792 
 PHE793  MET794  SER795  GLU796  ALA797  LYS798  CYS799  TRP800  GLU811  SER814 

> <Gold.Protein.RotatedAtoms>
  152.1499  134.8996  160.0548 H   0  0  0  0  0  0  0  0  0  0  0  0  # atno 6907 bound_to 6896
  152.0032  133.3828  159.4198 H   0  0  0  0  0  0  0  0  0  0  0  0  # atno 6908 bound_to 6896
  150.6874  134.3733  159.5045 H   0  0  0  0  0  0  0  0  0  0  0  0  # atno 6909 bound_to 6896
  145.1764  139.3073  143.4441 H   0  0  0  0  0  0  0  0  0  0  0  0  # atno 7974 bound_to 7965
  156.1454  140.3170  155.8562 H   0  0  0  0  0  0  0  0  0  0  0  0  # atno 8008 bound_to 7997
  155.4074  140.0503  157.3050 H   0  0  0  0  0  0  0  0  0  0  0  0  # atno 8009 bound_to 7997
  154.5012  140.2130  155.9355 H   0  0  0  0  0  0  0  0  0  0  0  0  # atno 8010 bound_to 7997
  140.7101  143.3300  151.2591 H   0  0  0  0  0  0  0  0  0  0  0  0  # atno 10167 bound_to 10162
  157.1416  131.0542  151.2324 H   0  0  0  0  0  0  0  0  0  0  0  0  # atno 10718 bound_to 10713
  154.1075  135.2841  155.3238 H   0  0  0  0  0  0  0  0  0  0  0  0  # atno 10763 bound_to 10752
  154.6512  135.5368  153.7908 H   0  0  0  0  0  0  0  0  0  0  0  0  # atno 10764 bound_to 10752
  153.0357  135.6510  154.1236 H   0  0  0  0  0  0  0  0  0  0  0  0  # atno 10765 bound_to 10752
  141.0811  133.9217  157.2285 H   0  0  0  0  0  0  0  0  0  0  0  0  # atno 11005 bound_to 11000
  146.3460  140.1928  142.8589 LP  0  0  0  0  0  0  0  0  0  0  0  0  # atno 17320 bound_to 7965
  145.0180  140.8770  143.5184 LP  0  0  0  0  0  0  0  0  0  0  0  0  # atno 17321 bound_to 7965
  139.6779  143.9905  152.2792 LP  0  0  0  0  0  0  0  0  0  0  0  0  # atno 17342 bound_to 10162
  139.9526  144.6611  150.8157 LP  0  0  0  0  0  0  0  0  0  0  0  0  # atno 17343 bound_to 10162
  157.4302  130.7486  149.6984 LP  0  0  0  0  0  0  0  0  0  0  0  0  # atno 17370 bound_to 10713
  155.9787  130.4048  150.3629 LP  0  0  0  0  0  0  0  0  0  0  0  0  # atno 17371 bound_to 10713
  139.9626  135.0150  156.9301 LP  0  0  0  0  0  0  0  0  0  0  0  0  # atno 17394 bound_to 11000
  140.5465  134.0669  155.7356 LP  0  0  0  0  0  0  0  0  0  0  0  0  # atno 17395 bound_to 11000

$$$$
