AV-unprocessed.smi:261|AV-procd|sdf|1988|dock4
  -GOLD-   2262021173D 1   1.00000     0.00000
 Structure written by MMmdl.
 51 54  0  0  0  0  0  0  0  0  1 V2000
  145.6268  143.3594  153.9596 C   0  0  0  0  0  0  0  0  0  0  0  0
  146.9431  142.8555  154.1180 O   0  0  0  0  0  0  0  0  0  0  0  0
  147.1000  141.5232  153.6519 C   0  0  2  0  0  0  0  0  0  0  0  0
  146.2252  140.5092  154.3952 C   0  0  0  0  0  0  0  0  0  0  0  0
  146.9648  139.1713  154.2260 C   0  0  1  0  0  0  0  0  0  0  0  0
  146.4923  138.4108  152.9741 C   0  0  0  0  0  0  0  0  0  0  0  0
  145.5014  138.9667  152.2730 N   0  0  0  0  0  0  0  0  0  0  0  0
  147.0162  137.3506  152.6348 O   0  0  0  0  0  0  0  0  0  0  0  0
  148.3701  139.5739  154.1255 N   0  0  0  0  0  0  0  0  0  0  0  0
  149.4125  138.7488  154.4207 C   0  0  0  0  0  0  0  0  0  0  0  0
  150.6626  139.1272  154.0415 N   0  0  0  0  0  0  0  0  0  0  0  0
  151.7213  138.3583  154.3079 C   0  0  0  0  0  0  0  0  0  0  0  0
  151.7599  137.1831  154.9352 N   0  0  0  0  0  0  0  0  0  0  0  0
  150.5128  136.7904  155.3200 C   0  0  0  0  0  0  0  0  0  0  0  0
  149.2956  137.5020  155.1078 C   0  0  0  0  0  0  0  0  0  0  0  0
  148.2383  136.7755  155.6474 N   0  0  0  0  0  0  0  0  0  0  0  0
  148.7944  135.7052  156.1435 C   0  0  0  0  0  0  0  0  0  0  0  0
  150.1581  135.6306  155.9849 N   0  0  0  0  0  0  0  0  0  0  0  0
  151.0293  134.5575  156.4288 C   0  0  0  0  0  0  0  0  0  0  0  0
  150.4340  133.1532  156.1904 C   0  0  1  0  0  0  0  0  0  0  0  0
  150.0056  133.1032  154.8443 O   0  0  0  0  0  0  0  0  0  0  0  0
  151.4169  131.9902  156.4518 C   0  0  2  0  0  0  0  0  0  0  0  0
  150.7997  130.5963  156.3213 C   0  0  0  0  0  0  0  0  0  0  0  0
  151.7210  129.7197  157.1533 C   0  0  0  0  0  0  0  0  0  0  0  0
  152.4573  130.7123  158.0560 C   0  0  0  0  0  0  0  0  0  0  0  0
  151.8449  131.9693  157.8056 O   0  0  0  0  0  0  0  0  0  0  0  0
  148.5129  141.0113  153.9355 C   0  0  0  0  0  0  0  0  0  0  0  0
  146.9103  141.4645  152.5783 H   0  0  0  0  0  0  0  0  0  0  0  0
  146.7975  138.5556  155.1116 H   0  0  0  0  0  0  0  0  0  0  0  0
  145.5910  144.3953  154.2962 H   0  0  0  0  0  0  0  0  0  0  0  0
  144.9070  142.7928  154.5509 H   0  0  0  0  0  0  0  0  0  0  0  0
  145.3176  143.3359  152.9140 H   0  0  0  0  0  0  0  0  0  0  0  0
  146.1842  140.7668  155.4546 H   0  0  0  0  0  0  0  0  0  0  0  0
  145.1988  140.4878  154.0264 H   0  0  0  0  0  0  0  0  0  0  0  0
  145.1572  138.5126  151.4398 H   0  0  0  0  0  0  0  0  0  0  0  0
  145.1043  139.8436  152.5773 H   0  0  0  0  0  0  0  0  0  0  0  0
  152.6734  138.7396  153.9697 H   0  0  0  0  0  0  0  0  0  0  0  0
  148.2199  134.9333  156.6343 H   0  0  0  0  0  0  0  0  0  0  0  0
  151.9808  134.6577  155.9048 H   0  0  0  0  0  0  0  0  0  0  0  0
  151.2409  134.7030  157.4891 H   0  0  0  0  0  0  0  0  0  0  0  0
  149.5512  133.0226  156.8173 H   0  0  0  0  0  0  0  0  0  0  0  0
  149.1386  132.7282  154.8191 H   0  0  0  0  0  0  0  0  0  0  0  0
  152.2894  132.0728  155.8007 H   0  0  0  0  0  0  0  0  0  0  0  0
  149.7985  130.5880  156.7545 H   0  0  0  0  0  0  0  0  0  0  0  0
  150.7210  130.2630  155.2863 H   0  0  0  0  0  0  0  0  0  0  0  0
  151.1555  128.9845  157.7271 H   0  0  0  0  0  0  0  0  0  0  0  0
  152.4296  129.1819  156.5224 H   0  0  0  0  0  0  0  0  0  0  0  0
  152.3857  130.4510  159.1119 H   0  0  0  0  0  0  0  0  0  0  0  0
  153.5133  130.7661  157.7884 H   0  0  0  0  0  0  0  0  0  0  0  0
  149.1851  141.2521  153.1116 H   0  0  0  0  0  0  0  0  0  0  0  0
  148.9083  141.4532  154.8514 H   0  0  0  0  0  0  0  0  0  0  0  0
  1  2  1  0  0  0  0
  1 30  1  0  0  0  0
  1 31  1  0  0  0  0
  1 32  1  0  0  0  0
  2  3  1  0  0  0  0
  3 28  1  0  0  0  0
  3 27  1  0  0  0  0
  3  4  1  0  0  0  0
  4  5  1  0  0  0  0
  4 33  1  0  0  0  0
  4 34  1  0  0  0  0
  5 29  1  0  0  0  0
  5  6  1  0  0  0  0
  5  9  1  0  0  0  0
  6  7  1  0  0  0  0
  6  8  2  0  0  0  0
  7 35  1  0  0  0  0
  7 36  1  0  0  0  0
  9 10  1  0  0  0  0
  9 27  1  0  0  0  0
 10 15  1  0  0  0  0
 10 11  2  0  0  0  0
 11 12  1  0  0  0  0
 12 13  2  0  0  0  0
 12 37  1  0  0  0  0
 13 14  1  0  0  0  0
 14 18  1  0  0  0  0
 14 15  2  0  0  0  0
 15 16  1  0  0  0  0
 16 17  2  0  0  0  0
 17 18  1  0  0  0  0
 17 38  1  0  0  0  0
 18 19  1  0  0  0  0
 19 20  1  0  0  0  0
 19 39  1  0  0  0  0
 19 40  1  0  0  0  0
 20 21  1  0  0  0  0
 20 22  1  0  0  0  0
 20 41  1  0  0  0  0
 21 42  1  0  0  0  0
 22 26  1  0  0  0  0
 22 23  1  0  0  0  0
 22 43  1  0  0  0  0
 23 24  1  0  0  0  0
 23 44  1  0  0  0  0
 23 45  1  0  0  0  0
 24 25  1  0  0  0  0
 24 46  1  0  0  0  0
 24 47  1  0  0  0  0
 25 26  1  0  0  0  0
 25 48  1  0  0  0  0
 25 49  1  0  0  0  0
 27 50  1  0  0  0  0
 27 51  1  0  0  0  0
M  END
> <s_m_source_file>
AV-unprocessed.smi

> <i_m_source_file_index>
261

> <i_lp_mmshare_version>
43012

> <i_f3d_flags>
0

> <s_epik_input>
W0NIM11PW0NASF0xW0NIMl1bQ0BASF0oQyg9TylbTkgyXSlOKFtDSDJdMSljKG5bY0hdbjIpYyhjMjMpbltjSF1uM1tDSDJdW0NASF0oW09IXSlbQ0BASF00W0NIMl1bQ0gyXVtDSDJdTzQ=

> <s_epik_cmdline>
J2VwaWtfcHl0aG9uJywgJy1waCcsICc3LjAnLCAnLXRuJywgJzgnLCAnLW1hJywgJzIwMCcsICctbWV0YWxfYmluZGluZycsICctaW1hZScsICc8aW5maWxlLm1hZT4nLCAnLW9tYWUnLCAnPG91dGZpbGUubWFlPic=

> <r_lp_tautomer_probability>
1

> <r_epik_Ionization_Penalty>
0.000713824

> <r_epik_Ionization_Penalty_Charging>
0

> <r_epik_Ionization_Penalty_Neutral>
0.000713824

> <r_epik_State_Penalty>
0.000402132

> <r_epik_Charging_Adjusted_Penalty>
0.000402132

> <i_epik_Tot_Q>
0

> <i_epik_Tot_abs_Q>
0

> <r_epik_Metal_State_Penalty>
-0

> <b_epik_Metal_Only>
0

> <s_lp_Force_Field>
OPLS_2005

> <r_lp_Energy>
43.323

> <b_lp_Chiralities_Consistent>
1

> <s_lp_Variant>
AV-unprocessed.smi:261-6

> <Gold.Version>
5.8.1

> <Gold.Id.Protein>
6NUR|6NUR_protein|mol2

> <Gold.PLP.Fitness>
42.3358

> <Gold.PLP.PLP>
-30.5925

> <Gold.PLP.part.hbond>
-4.9091

> <Gold.PLP.part.metal>
0.0000

> <Gold.PLP.part.buried>
-5.0808

> <Gold.PLP.part.nonpolar>
-27.5011

> <Gold.PLP.part.repulsive>
6.7111

> <Gold.PLP.ligand.clash>
1.0289

> <Gold.PLP.ligand.torsion>
0.5106

> <Gold.PLP.Chemscore.Hbond>
4.5529

> <Gold.PLP.Chemscore.CHOScore>
0.0000

> <Gold.PLP.Chemscore.Metal>
0.0000

> <Gold.Chemscore.Hbonds>
donor molecule, donor type, donor heavy atom, donor atom, acceptor molecule, acceptor atom, score
      L1  H     7    35       P1 10171  0.84
      L1  H     7    36       P1 10175  0.67
      P1  H  6896  6907       L1    26  1.00
      P1  H  7989  7998       L1    11  0.90
      P1  H 10752 10763       L1    13  1.00

> <Gold.PLP.Chemscore.Internal.Correction>
0.1348

> <Gold.Rescore>
     Score         DG    S(hbond)    S(metal)    S(lipo)     H(rot)  DE(clash)    DE(int)     intcor
     11.30     -15.45       3.40        0.00      57.88       3.18       2.87       1.28       ----

> <Gold.Chemscore.Fitness>
11.3017

> <Gold.Chemscore.DG>
-15.4536

> <Gold.Chemscore.ZeroCoef>
-5.4800

> <Gold.Chemscore.Hbond>
3.3983

> <Gold.Chemscore.Metal>
0.0000

> <Gold.Chemscore.Lipo>
57.8792

> <Gold.Chemscore.Internal_Hbond>
0.0000

> <Gold.Chemscore.DEClash>
2.8693

> <Gold.Chemscore.DEInternal>
1.2825

> <Gold.Chemscore.Rot>
3.1831

> <Gold.Chemscore.Internal.Correction>
   9.000000E+99

> <Gold.Chemscore.Hbonds>
donor molecule, donor type, donor heavy atom, donor atom, acceptor molecule, acceptor atom, score
      L1  H     7    35       P1 10171  0.79
      L1  H     7    36       P1 10175  0.63
      P1  H  6896  6907       L1    26  0.93
      P1  H  7989  7998       L1    11  0.19
      P1  H 10752 10763       L1    13  0.76

> <Gold.Chemscore.Hbond.Weighted>
-11.3503

> <Gold.Chemscore.Metal.Weighted>
-0.0000

> <Gold.Chemscore.Lipo.Weighted>
-6.7719

> <Gold.Chemscore.Internal_Hbond.Weighted>
0.0000

> <Gold.Chemscore.DEClash.Weighted>
2.8693

> <Gold.Chemscore.DEInternal.Weighted>
1.2825

> <Gold.Chemscore.Rot.Weighted>
8.1486

> <Gold.Chemscore.Internal.Correction.Weighted>
   9.000000E+99

> <Gold.Protein.RotatedTorsions>
[ 6907 6896 6895 6894 ] final  174.44 input  -60.11 | X-H torsion
[ 7974 7965 7964 7962 ] final  -90.41 input  175.53 | X-H torsion
[ 8008 7997 7996 7995 ] final   70.16 input   59.86 | X-H torsion
[ 10167 10162 10161 10158 ] final  135.93 input  -65.29 | X-H torsion
[ 10718 10713 10712 10709 ] final -134.47 input   66.30 | X-H torsion
[ 10763 10752 10751 10750 ] final   56.90 input  -60.55 | X-H torsion
[ 11005 11000 10999 10996 ] final -120.40 input  -57.11 | X-H torsion

> <Gold.Protein.ActiveResidues>
 VAL166  LYS551  ARG553  GLY616  TRP617  ASP618  TYR619  PRO620  LYS621  CYS622 
 ASP623  PHE694  ASN695  SER759  ASP760  ASP761  ALA762  ILE779  LEU786  VAL792 
 PHE793  MET794  SER795  GLU796  ALA797  LYS798  CYS799  TRP800  GLU811  SER814 

> <Gold.Protein.RotatedAtoms>
  151.7522  133.3328  159.3394 H   0  0  0  0  0  0  0  0  0  0  0  0  # atno 6907 bound_to 6896
  150.7531  134.6182  159.6131 H   0  0  0  0  0  0  0  0  0  0  0  0  # atno 6908 bound_to 6896
  152.3461  134.7071  160.0301 H   0  0  0  0  0  0  0  0  0  0  0  0  # atno 6909 bound_to 6896
  145.4268  140.9554  143.2150 H   0  0  0  0  0  0  0  0  0  0  0  0  # atno 7974 bound_to 7965
  155.7346  140.3491  155.5075 H   0  0  0  0  0  0  0  0  0  0  0  0  # atno 8008 bound_to 7997
  155.9150  140.1057  157.1272 H   0  0  0  0  0  0  0  0  0  0  0  0  # atno 8009 bound_to 7997
  154.4061  140.1260  156.4593 H   0  0  0  0  0  0  0  0  0  0  0  0  # atno 8010 bound_to 7997
  139.5198  144.6491  151.5354 H   0  0  0  0  0  0  0  0  0  0  0  0  # atno 10167 bound_to 10162
  156.2558  130.7180  151.1097 H   0  0  0  0  0  0  0  0  0  0  0  0  # atno 10718 bound_to 10713
  152.9840  135.5660  154.5303 H   0  0  0  0  0  0  0  0  0  0  0  0  # atno 10763 bound_to 10752
  154.4776  135.2787  155.1597 H   0  0  0  0  0  0  0  0  0  0  0  0  # atno 10764 bound_to 10752
  154.3120  135.6286  153.5523 H   0  0  0  0  0  0  0  0  0  0  0  0  # atno 10765 bound_to 10752
  141.0146  134.0214  157.3367 H   0  0  0  0  0  0  0  0  0  0  0  0  # atno 11005 bound_to 11000
  144.8209  139.5794  143.6987 LP  0  0  0  0  0  0  0  0  0  0  0  0  # atno 17320 bound_to 7965
  146.2628  139.6450  142.9350 LP  0  0  0  0  0  0  0  0  0  0  0  0  # atno 17321 bound_to 7965
  140.6288  143.9116  150.6588 LP  0  0  0  0  0  0  0  0  0  0  0  0  # atno 17342 bound_to 10162
  140.2413  143.3661  152.1484 LP  0  0  0  0  0  0  0  0  0  0  0  0  # atno 17343 bound_to 10162
  157.7232  131.0668  150.6046 LP  0  0  0  0  0  0  0  0  0  0  0  0  # atno 17370 bound_to 10713
  156.6130  130.4385  149.5852 LP  0  0  0  0  0  0  0  0  0  0  0  0  # atno 17371 bound_to 10713
  139.9109  135.0190  156.7689 LP  0  0  0  0  0  0  0  0  0  0  0  0  # atno 17394 bound_to 11000
  140.6676  133.9589  155.7839 LP  0  0  0  0  0  0  0  0  0  0  0  0  # atno 17395 bound_to 11000

$$$$
