#       Name:                AV-unprocessed.smi:649
#       Creating user name   scv26
#       Creation time:       Fri Mar 27 00:10:32 2020


#       File generated by GOLD software.
#

@<TRIPOS>MOLECULE
AV-unprocessed.smi:649
    41    42     1
SMALL
NO_CHARGES


@<TRIPOS>ATOM
      1 ****        -4.6759  -1.5750   0.4171 C.3            1 S1                 0.0000
      2 ****        -3.6284  -0.5191   0.1309 C.ar           1 S1                 0.0000
      3 ****        -3.9740   0.6435  -0.5828 C.ar           1 S1                 0.0000
      4 ****        -2.9964   1.6171  -0.8562 C.ar           1 S1                 0.0000
      5 ****        -1.6661   1.4435  -0.4181 C.ar           1 S1                 0.0000
      6 ****        -0.6452   2.5173  -0.7542 C.3            1 S1                 0.0000
      7 ****        -1.3126   0.2784   0.3134 C.ar           1 S1                 0.0000
      8 ****         0.1167   0.0408   0.8016 C.3            1 S1                 0.0000
      9 ****         0.1306  -0.5307   2.0957 O.3            1 S1                 0.0000
     10 ****         0.8802  -0.8893  -0.1678 C.3            1 S1                 0.0000
     11 ****         2.3091  -0.6825  -0.1509 N.am           1 S1                 0.0000
     12 ****         2.9328   0.2392  -0.9784 C.2            1 S1                 0.0000
     13 ****         4.2684   0.4662  -0.9654 C.2            1 S1                 0.0000
     14 ****         4.9695   1.6332  -2.0286 Cl             1 S1                 0.0000
     15 ****         5.1276  -0.2769  -0.0446 C.2            1 S1                 0.0000
     16 ****         6.3470  -0.1521   0.0493 O.2            1 S1                 0.0000
     17 ****         4.4562  -1.1898   0.7745 N.am           1 S1                 0.0000
     18 ****         3.0816  -1.4289   0.7685 C.2            1 S1                 0.0000
     19 ****         2.6010  -2.2549   1.5440 O.2            1 S1                 0.0000
     20 ****        -2.3022  -0.6987   0.5708 C.ar           1 S1                 0.0000
     21 ****         5.0142  -1.7207   1.4273 H              1 S1                 0.0000
     22 ****        -5.6564  -1.1197   0.5595 H              1 S1                 0.0000
     23 ****        -4.4295  -2.1344   1.3201 H              1 S1                 0.0000
     24 ****        -4.7399  -2.2760  -0.4153 H              1 S1                 0.0000
     25 ****        -4.9875   0.7897  -0.9270 H              1 S1                 0.0000
     26 ****        -3.2750   2.5014  -1.4104 H              1 S1                 0.0000
     27 ****         0.2245   2.0814  -1.2456 H              1 S1                 0.0000
     28 ****        -0.3165   3.0275   0.1515 H              1 S1                 0.0000
     29 ****        -1.0629   3.2672  -1.4266 H              1 S1                 0.0000
     30 ****         0.6377   0.9935   0.8862 H              1 S1                 0.0000
     31 ****         1.0289  -0.6806   2.3481 H              1 S1                 0.0000
     32 ****         0.6647  -1.9511  -0.0276 H              1 S1                 0.0000
     33 ****         0.5921  -0.6708  -1.1980 H              1 S1                 0.0000
     34 ****         2.3276   0.8091  -1.6690 H              1 S1                 0.0000
     35 ****        -2.0434  -1.5988   1.1093 H              1 S1                 0.0000
     36 ****        -0.3663  -1.3984   2.0865 LP             1 S1                 0.0000
     37 ****        -0.3023   0.0945   2.7451 LP             1 S1                 0.0000
     38 ****         6.8292   0.5011  -0.5346 LP             1 S1                 0.0000
     39 ****         6.8567  -0.7037   0.7095 LP             1 S1                 0.0000
     40 ****         1.6158  -2.4262   1.5444 LP             1 S1                 0.0000
     41 ****         3.1957  -2.7547   2.1737 LP             1 S1                 0.0000
@<TRIPOS>BOND
    1    1    2 1     
    2    1   22 1     
    3    1   23 1     
    4    1   24 1     
    5    2   20 ar    
    6    2    3 ar    
    7    3    4 ar    
    8    3   25 1     
    9    4    5 ar    
   10    4   26 1     
   11    5    6 1     
   12    5    7 ar    
   13    6   27 1     
   14    6   28 1     
   15    6   29 1     
   16    7    8 1     
   17    7   20 ar    
   18    8    9 1     
   19    8   10 1     
   20    8   30 1     
   21    9   31 1     
   22   10   11 1     
   23   10   32 1     
   24   10   33 1     
   25   11   18 1     
   26   11   12 1     
   27   12   13 2     
   28   12   34 1     
   29   13   14 1     
   30   13   15 1     
   31   15   16 2     
   32   15   17 1     
   33   17   21 1     
   34   17   18 1     
   35   18   19 2     
   36   20   35 1     
   37    9   36 1     
   38    9   37 1     
   39   16   38 1     
   40   16   39 1     
   41   19   40 1     
   42   19   41 1     
@<TRIPOS>SUBSTRUCTURE
      1 S1             1
@<TRIPOS>SET
LONE_PAIRS      STATIC     ATOMS    <user>   **** ""
6 36 37 38 39 40 41
DONOR_HYDROGENS      STATIC     ATOMS    <user>   **** ""
2 31 21
ATOM$BLUE        STATIC     ATOMS    COLORGROUP SYSTEM
6 36 37 38 39 40 41
ATOM$RED        STATIC     ATOMS    COLORGROUP SYSTEM
2 31 21
