AV-unprocessed.smi:1435|AV-procd|sdf|5857|dock2
  -GOLD-   22720 5533D 1   1.00000     0.00000
 Structure written by MMmdl.
 43 44  0  0  0  0  0  0  0  0  1 V2000
  150.1964  134.7320  156.4211 O   0  0  0  0  0  0  0  0  0  0  0  0
  149.9576  135.3817  155.4032 C   0  0  0  0  0  0  0  0  0  0  0  0
  150.7464  136.6582  155.1061 C   0  0  0  0  0  0  0  0  0  0  0  0
  150.8702  137.5742  156.3367 C   0  0  0  0  0  0  0  0  0  0  0  0
  151.5032  139.2508  155.8819 S   0  0  0  0  0  0  0  0  0  0  0  0
  152.8635  139.3923  156.4228 O   0  0  0  0  0  0  0  0  0  0  0  0
  151.2798  139.4520  154.4418 O   0  0  0  0  0  0  0  0  0  0  0  0
  150.3675  140.3674  156.8324 C   0  0  0  0  0  0  0  0  0  0  0  0
  150.7067  141.8474  156.6124 C   0  0  0  0  0  0  0  0  0  0  0  0
  151.7501  142.2129  157.6792 C   0  0  0  0  0  0  0  0  0  0  0  0
  151.7378  141.0765  158.7125 C   0  0  0  0  0  0  0  0  0  0  0  0
  150.5514  140.1838  158.3412 C   0  0  0  0  0  0  0  0  0  0  0  0
  149.0082  135.0450  154.5171 N   0  0  0  0  0  0  0  0  0  0  0  0
  148.0942  133.9194  154.6630 C   0  0  0  0  0  0  0  0  0  0  0  0
  148.3590  132.8453  153.5954 C   0  0  0  0  0  0  0  0  0  0  0  0
  147.1868  132.6796  152.6494 C   0  0  0  0  0  0  0  0  0  0  0  0
  146.4146  131.4999  152.6522 C   0  0  0  0  0  0  0  0  0  0  0  0
  145.3321  131.3962  151.7573 C   0  0  0  0  0  0  0  0  0  0  0  0
  145.0682  132.4798  150.8957 C   0  0  0  0  0  0  0  0  0  0  0  0
  145.8013  133.6140  150.8846 N   0  0  0  0  0  0  0  0  0  0  0  0
  146.8375  133.7055  151.7458 C   0  0  0  0  0  0  0  0  0  0  0  0
  151.7424  136.3598  154.7781 H   0  0  0  0  0  0  0  0  0  0  0  0
  150.2998  137.2024  154.2726 H   0  0  0  0  0  0  0  0  0  0  0  0
  149.9140  137.6838  156.8481 H   0  0  0  0  0  0  0  0  0  0  0  0
  151.5694  137.1402  157.0510 H   0  0  0  0  0  0  0  0  0  0  0  0
  149.3473  140.1335  156.5275 H   0  0  0  0  0  0  0  0  0  0  0  0
  151.0577  142.0624  155.6035 H   0  0  0  0  0  0  0  0  0  0  0  0
  149.8089  142.4457  156.7722 H   0  0  0  0  0  0  0  0  0  0  0  0
  152.7421  142.3074  157.2362 H   0  0  0  0  0  0  0  0  0  0  0  0
  151.5085  143.1714  158.1400 H   0  0  0  0  0  0  0  0  0  0  0  0
  152.6649  140.5065  158.6422 H   0  0  0  0  0  0  0  0  0  0  0  0
  151.6626  141.4486  159.7347 H   0  0  0  0  0  0  0  0  0  0  0  0
  149.6587  140.5389  158.8574 H   0  0  0  0  0  0  0  0  0  0  0  0
  150.7025  139.1439  158.6317 H   0  0  0  0  0  0  0  0  0  0  0  0
  148.8804  135.6364  153.7088 H   0  0  0  0  0  0  0  0  0  0  0  0
  148.2320  133.4969  155.6585 H   0  0  0  0  0  0  0  0  0  0  0  0
  147.0604  134.2657  154.6119 H   0  0  0  0  0  0  0  0  0  0  0  0
  149.2464  133.0991  153.0138 H   0  0  0  0  0  0  0  0  0  0  0  0
  148.5699  131.8872  154.0723 H   0  0  0  0  0  0  0  0  0  0  0  0
  146.6450  130.6898  153.3286 H   0  0  0  0  0  0  0  0  0  0  0  0
  144.7182  130.5081  151.7321 H   0  0  0  0  0  0  0  0  0  0  0  0
  144.2458  132.4343  150.1972 H   0  0  0  0  0  0  0  0  0  0  0  0
  147.4020  134.6257  151.7144 H   0  0  0  0  0  0  0  0  0  0  0  0
  1  2  2  0  0  0  0
  2  3  1  0  0  0  0
  2 13  1  0  0  0  0
  3  4  1  0  0  0  0
  3 22  1  0  0  0  0
  3 23  1  0  0  0  0
  4  5  1  0  0  0  0
  4 24  1  0  0  0  0
  4 25  1  0  0  0  0
  5  6  2  0  0  0  0
  5  7  2  0  0  0  0
  5  8  1  0  0  0  0
  8 12  1  0  0  0  0
  8  9  1  0  0  0  0
  8 26  1  0  0  0  0
  9 10  1  0  0  0  0
  9 27  1  0  0  0  0
  9 28  1  0  0  0  0
 10 11  1  0  0  0  0
 10 29  1  0  0  0  0
 10 30  1  0  0  0  0
 11 12  1  0  0  0  0
 11 31  1  0  0  0  0
 11 32  1  0  0  0  0
 12 33  1  0  0  0  0
 12 34  1  0  0  0  0
 13 14  1  0  0  0  0
 13 35  1  0  0  0  0
 14 15  1  0  0  0  0
 14 36  1  0  0  0  0
 14 37  1  0  0  0  0
 15 16  1  0  0  0  0
 15 38  1  0  0  0  0
 15 39  1  0  0  0  0
 16 21  1  0  0  0  0
 16 17  2  0  0  0  0
 17 18  1  0  0  0  0
 17 40  1  0  0  0  0
 18 19  2  0  0  0  0
 18 41  1  0  0  0  0
 19 20  1  0  0  0  0
 19 42  1  0  0  0  0
 20 21  2  0  0  0  0
 21 43  1  0  0  0  0
M  END
> <s_m_source_file>
AV-unprocessed.smi

> <i_m_source_file_index>
1435

> <i_lp_mmshare_version>
43012

> <i_f3d_flags>
0

> <s_epik_input>
W0NIMl0xW0NIMl1bQ0gyXVtDSDJdW0NIXTFTKD1PKSg9TylbQ0gyXVtDSDJdQyg9TylbTkhdW0NIMl1bQ0gyXWMyW2NIXVtjSF1bY0hdbltjSF0y

> <s_epik_cmdline>
J2VwaWtfcHl0aG9uJywgJy1waCcsICc3LjAnLCAnLXRuJywgJzgnLCAnLW1hJywgJzIwMCcsICctbWV0YWxfYmluZGluZycsICctaW1hZScsICc8aW5maWxlLm1hZT4nLCAnLW9tYWUnLCAnPG91dGZpbGUubWFlPic=

> <r_epik_Ionization_Penalty>
0.0127849

> <r_epik_Ionization_Penalty_Charging>
0

> <r_epik_Ionization_Penalty_Neutral>
0.0127849

> <r_epik_State_Penalty>
0.00991539

> <r_epik_Charging_Adjusted_Penalty>
0.00991539

> <i_epik_Tot_Q>
0

> <i_epik_Tot_abs_Q>
0

> <r_epik_Metal_State_Penalty>
0.0097046

> <b_epik_Metal_Only>
0

> <s_lp_Force_Field>
OPLS_2005

> <r_lp_Energy>
9.74061

> <b_lp_Chiralities_Consistent>
1

> <s_lp_Variant>
AV-unprocessed.smi:1435-1

> <Gold.Version>
5.8.1

> <Gold.Id.Protein>
6NUR|6NUR_protein|mol2

> <Gold.PLP.Fitness>
45.8815

> <Gold.PLP.PLP>
-35.5577

> <Gold.PLP.part.hbond>
-3.0000

> <Gold.PLP.part.metal>
0.0000

> <Gold.PLP.part.buried>
-5.2574

> <Gold.PLP.part.nonpolar>
-27.0926

> <Gold.PLP.part.repulsive>
0.3018

> <Gold.PLP.ligand.clash>
0.0000

> <Gold.PLP.ligand.torsion>
1.0170

> <Gold.PLP.Chemscore.Hbond>
3.0000

> <Gold.PLP.Chemscore.CHOScore>
1.0000

> <Gold.PLP.Chemscore.Metal>
0.0000

> <Gold.Chemscore.Hbonds>
donor molecule, donor type, donor heavy atom, donor atom, acceptor molecule, acceptor atom, score
      L1  H    13    35       P1  7948  1.00
      P1  H  7989  7998       L1     7  1.00
      P1  H  7997  8009       L1     6  1.00
      L1  C    21    43       P1  7948  1.00

> <Gold.PLP.Chemscore.Internal.Correction>
0.3578

> <Gold.Rescore>
     Score         DG    S(hbond)    S(metal)    S(lipo)     H(rot)  DE(clash)    DE(int)     intcor
     18.25     -19.94       2.85        0.00      85.94       2.00       0.12       1.58       ----

> <Gold.Chemscore.Fitness>
18.2463

> <Gold.Chemscore.DG>
-19.9439

> <Gold.Chemscore.ZeroCoef>
-5.4800

> <Gold.Chemscore.Hbond>
2.8541

> <Gold.Chemscore.Metal>
0.0000

> <Gold.Chemscore.Lipo>
85.9395

> <Gold.Chemscore.Internal_Hbond>
0.0000

> <Gold.Chemscore.DEClash>
0.1180

> <Gold.Chemscore.DEInternal>
1.5796

> <Gold.Chemscore.Rot>
2.0014

> <Gold.Chemscore.Internal.Correction>
   9.000000E+99

> <Gold.Chemscore.Hbonds>
donor molecule, donor type, donor heavy atom, donor atom, acceptor molecule, acceptor atom, score
      L1  H    13    35       P1  7948  0.92
      P1  H  7989  7998       L1     7  1.00
      P1  H  7997  8009       L1     6  1.00

> <Gold.Chemscore.Hbond.Weighted>
-9.5325

> <Gold.Chemscore.Metal.Weighted>
-0.0000

> <Gold.Chemscore.Lipo.Weighted>
-10.0549

> <Gold.Chemscore.Internal_Hbond.Weighted>
0.0000

> <Gold.Chemscore.DEClash.Weighted>
0.1180

> <Gold.Chemscore.DEInternal.Weighted>
1.5796

> <Gold.Chemscore.Rot.Weighted>
5.1236

> <Gold.Chemscore.Internal.Correction.Weighted>
   9.000000E+99

> <Gold.Protein.RotatedTorsions>
[ 6907 6896 6895 6894 ] final   37.39 input  -60.11 | X-H torsion
[ 7974 7965 7964 7962 ] final  122.97 input  175.53 | X-H torsion
[ 8008 7997 7996 7995 ] final -160.49 input   59.86 | X-H torsion
[ 10167 10162 10161 10158 ] final  143.39 input  -65.29 | X-H torsion
[ 10718 10713 10712 10709 ] final -108.93 input   66.30 | X-H torsion
[ 10763 10752 10751 10750 ] final -143.07 input  -60.55 | X-H torsion
[ 11005 11000 10999 10996 ] final -135.07 input  -57.11 | X-H torsion

> <Gold.Protein.ActiveResidues>
 VAL166  LYS551  ARG553  GLY616  TRP617  ASP618  TYR619  PRO620  LYS621  CYS622 
 ASP623  PHE694  ASN695  SER759  ASP760  ASP761  ALA762  ILE779  LEU786  VAL792 
 PHE793  MET794  SER795  GLU796  ALA797  LYS798  CYS799  TRP800  GLU811  SER814 

> <Gold.Protein.RotatedAtoms>
  152.1425  134.9051  160.0552 H   0  0  0  0  0  0  0  0  0  0  0  0  # atno 6907 bound_to 6896
  152.0114  133.3858  159.4229 H   0  0  0  0  0  0  0  0  0  0  0  0  # atno 6908 bound_to 6896
  150.6866  134.3648  159.5010 H   0  0  0  0  0  0  0  0  0  0  0  0  # atno 6909 bound_to 6896
  145.1013  139.3516  143.4810 H   0  0  0  0  0  0  0  0  0  0  0  0  # atno 7974 bound_to 7965
  155.7782  140.0861  157.2073 H   0  0  0  0  0  0  0  0  0  0  0  0  # atno 8008 bound_to 7997
  154.3992  140.1512  156.3078 H   0  0  0  0  0  0  0  0  0  0  0  0  # atno 8009 bound_to 7997
  155.8680  140.3427  155.5804 H   0  0  0  0  0  0  0  0  0  0  0  0  # atno 8010 bound_to 7997
  139.4971  144.6043  151.6412 H   0  0  0  0  0  0  0  0  0  0  0  0  # atno 10167 bound_to 10162
  156.0510  130.5738  150.8029 H   0  0  0  0  0  0  0  0  0  0  0  0  # atno 10718 bound_to 10713
  154.8484  135.3478  154.6128 H   0  0  0  0  0  0  0  0  0  0  0  0  # atno 10763 bound_to 10752
  153.6737  135.6983  153.5144 H   0  0  0  0  0  0  0  0  0  0  0  0  # atno 10764 bound_to 10752
  153.2722  135.4289  155.0955 H   0  0  0  0  0  0  0  0  0  0  0  0  # atno 10765 bound_to 10752
  140.8931  134.1786  157.4513 H   0  0  0  0  0  0  0  0  0  0  0  0  # atno 11005 bound_to 11000
  146.3529  140.0892  142.8613 LP  0  0  0  0  0  0  0  0  0  0  0  0  # atno 17320 bound_to 7965
  145.0952  140.9310  143.4745 LP  0  0  0  0  0  0  0  0  0  0  0  0  # atno 17321 bound_to 7965
  140.5701  144.0123  150.6212 LP  0  0  0  0  0  0  0  0  0  0  0  0  # atno 17342 bound_to 10162
  140.3238  143.3120  152.0757 LP  0  0  0  0  0  0  0  0  0  0  0  0  # atno 17343 bound_to 10162
  157.5437  131.0941  150.9792 LP  0  0  0  0  0  0  0  0  0  0  0  0  # atno 17370 bound_to 10713
  157.0069  130.5621  149.5317 LP  0  0  0  0  0  0  0  0  0  0  0  0  # atno 17371 bound_to 10713
  139.8732  134.9867  156.5336 LP  0  0  0  0  0  0  0  0  0  0  0  0  # atno 17394 bound_to 11000
  140.8322  133.8270  155.8994 LP  0  0  0  0  0  0  0  0  0  0  0  0  # atno 17395 bound_to 11000

$$$$
