AV-unprocessed.smi:131|AV-procd|sdf|1162|dock5
  -GOLD-   2262018303D 1   1.00000     0.00000
 Structure written by MMmdl.
 55 58  0  0  0  0  0  0  0  0  1 V2000
  151.7444  137.4817  160.6698 O   0  0  0  0  0  0  0  0  0  0  0  0
  151.1867  137.9203  159.6648 C   0  0  0  0  0  0  0  0  0  0  0  0
  151.9849  138.8541  158.7364 C   0  0  0  0  0  0  0  0  0  0  0  0
  152.2760  140.1981  159.2881 N   0  0  0  0  0  0  0  0  0  0  0  0
  153.0215  140.2927  160.4896 C   0  0  0  0  0  0  0  0  0  0  0  0
  153.4312  139.2850  161.0671 O   0  0  0  0  0  0  0  0  0  0  0  0
  153.2710  141.6467  160.9713 C   0  0  0  0  0  0  0  0  0  0  0  0
  153.9723  141.8314  162.1025 F   0  0  0  0  0  0  0  0  0  0  0  0
  152.8123  142.7206  160.2961 C   0  0  0  0  0  0  0  0  0  0  0  0
  152.0856  142.6138  159.1233 N   0  0  0  0  0  0  0  0  0  0  0  0
  151.5894  143.8307  158.3691 C   0  0  1  0  0  0  0  0  0  0  0  0
  150.0510  143.9123  158.4185 C   0  0  0  0  0  0  0  0  0  0  0  0
  149.8037  145.3207  158.9226 C   0  0  0  0  0  0  0  0  0  0  0  0
  151.0482  145.5809  159.7572 C   0  0  0  0  0  0  0  0  0  0  0  0
  152.0777  144.9958  158.9710 O   0  0  0  0  0  0  0  0  0  0  0  0
  151.8134  141.3367  158.5865 C   0  0  0  0  0  0  0  0  0  0  0  0
  151.1929  141.2205  157.5274 O   0  0  0  0  0  0  0  0  0  0  0  0
  149.9075  137.6515  159.3354 N   0  0  0  0  0  0  0  0  0  0  0  0
  148.9726  136.8242  160.0120 C   0  0  0  0  0  0  0  0  0  0  0  0
  148.9854  136.8552  161.4229 C   0  0  0  0  0  0  0  0  0  0  0  0
  148.0772  136.0744  162.1638 C   0  0  0  0  0  0  0  0  0  0  0  0
  147.1397  135.2704  161.4871 C   0  0  0  0  0  0  0  0  0  0  0  0
  145.9935  134.2583  162.4138 S   0  0  0  0  0  0  0  0  0  0  0  0
  146.0896  132.8622  161.9588 O   0  0  0  0  0  0  0  0  0  0  0  0
  146.1619  134.5885  163.8377 O   0  0  0  0  0  0  0  0  0  0  0  0
  144.4554  134.8763  161.9138 N   0  0  0  0  0  0  0  0  0  0  0  0
  143.6737  135.6981  162.8460 C   0  0  0  0  0  0  0  0  0  0  0  0
  142.2453  135.1559  162.7734 C   0  0  0  0  0  0  0  0  0  0  0  0
  142.1557  134.5808  161.3665 C   0  0  0  0  0  0  0  0  0  0  0  0
  143.5574  134.0207  161.1287 C   0  0  0  0  0  0  0  0  0  0  0  0
  147.1039  135.2428  160.0798 C   0  0  0  0  0  0  0  0  0  0  0  0
  148.0152  136.0230  159.3424 C   0  0  0  0  0  0  0  0  0  0  0  0
  152.9082  138.3433  158.4589 H   0  0  0  0  0  0  0  0  0  0  0  0
  151.4428  138.9331  157.7927 H   0  0  0  0  0  0  0  0  0  0  0  0
  153.0368  143.6939  160.7048 H   0  0  0  0  0  0  0  0  0  0  0  0
  152.0008  143.7401  157.3621 H   0  0  0  0  0  0  0  0  0  0  0  0
  149.6183  143.7270  157.4350 H   0  0  0  0  0  0  0  0  0  0  0  0
  149.6543  143.1805  159.1243 H   0  0  0  0  0  0  0  0  0  0  0  0
  149.7632  146.0183  158.0851 H   0  0  0  0  0  0  0  0  0  0  0  0
  148.8792  145.4149  159.4929 H   0  0  0  0  0  0  0  0  0  0  0  0
  151.2283  146.6423  159.9295 H   0  0  0  0  0  0  0  0  0  0  0  0
  150.9794  145.0803  160.7241 H   0  0  0  0  0  0  0  0  0  0  0  0
  149.5432  138.1570  158.5410 H   0  0  0  0  0  0  0  0  0  0  0  0
  149.7007  137.4745  161.9448 H   0  0  0  0  0  0  0  0  0  0  0  0
  148.1035  136.0991  163.2430 H   0  0  0  0  0  0  0  0  0  0  0  0
  144.0736  135.6409  163.8591 H   0  0  0  0  0  0  0  0  0  0  0  0
  143.7170  136.7376  162.5195 H   0  0  0  0  0  0  0  0  0  0  0  0
  142.1141  134.3591  163.5069 H   0  0  0  0  0  0  0  0  0  0  0  0
  141.4922  135.9203  162.9680 H   0  0  0  0  0  0  0  0  0  0  0  0
  141.3755  133.8258  161.2657 H   0  0  0  0  0  0  0  0  0  0  0  0
  141.9481  135.3787  160.6524 H   0  0  0  0  0  0  0  0  0  0  0  0
  143.8380  134.0243  160.0751 H   0  0  0  0  0  0  0  0  0  0  0  0
  143.6183  132.9955  161.4957 H   0  0  0  0  0  0  0  0  0  0  0  0
  146.3780  134.6298  159.5657 H   0  0  0  0  0  0  0  0  0  0  0  0
  147.9531  136.0024  158.2654 H   0  0  0  0  0  0  0  0  0  0  0  0
  1  2  2  0  0  0  0
  2  3  1  0  0  0  0
  2 18  1  0  0  0  0
  3  4  1  0  0  0  0
  3 33  1  0  0  0  0
  3 34  1  0  0  0  0
  4 16  1  0  0  0  0
  4  5  1  0  0  0  0
  5  6  2  0  0  0  0
  5  7  1  0  0  0  0
  7  8  1  0  0  0  0
  7  9  2  0  0  0  0
  9 10  1  0  0  0  0
  9 35  1  0  0  0  0
 10 11  1  0  0  0  0
 10 16  1  0  0  0  0
 11 15  1  0  0  0  0
 11 12  1  0  0  0  0
 11 36  1  0  0  0  0
 12 13  1  0  0  0  0
 12 37  1  0  0  0  0
 12 38  1  0  0  0  0
 13 14  1  0  0  0  0
 13 39  1  0  0  0  0
 13 40  1  0  0  0  0
 14 15  1  0  0  0  0
 14 41  1  0  0  0  0
 14 42  1  0  0  0  0
 16 17  2  0  0  0  0
 18 19  1  0  0  0  0
 18 43  1  0  0  0  0
 19 32  1  0  0  0  0
 19 20  2  0  0  0  0
 20 21  1  0  0  0  0
 20 44  1  0  0  0  0
 21 22  2  0  0  0  0
 21 45  1  0  0  0  0
 22 23  1  0  0  0  0
 22 31  1  0  0  0  0
 23 24  2  0  0  0  0
 23 25  2  0  0  0  0
 23 26  1  0  0  0  0
 26 30  1  0  0  0  0
 26 27  1  0  0  0  0
 27 28  1  0  0  0  0
 27 46  1  0  0  0  0
 27 47  1  0  0  0  0
 28 29  1  0  0  0  0
 28 48  1  0  0  0  0
 28 49  1  0  0  0  0
 29 30  1  0  0  0  0
 29 50  1  0  0  0  0
 29 51  1  0  0  0  0
 30 52  1  0  0  0  0
 30 53  1  0  0  0  0
 31 32  2  0  0  0  0
 31 54  1  0  0  0  0
 32 55  1  0  0  0  0
M  END
> <s_m_source_file>
AV-unprocessed.smi

> <i_m_source_file_index>
131

> <i_lp_mmshare_version>
43012

> <i_f3d_flags>
0

> <s_epik_input>
W0NIMl0xW0NIMl1bQ0gyXVtDSDJdTjFTKD1PKSg9TyljKFtjSF1bY0hdMilbY0hdW2NIXWMyW05IXUMoPU8pW0NIMl1uM2MoPU8pYyhGKVtjSF1uKGMzPU8pW0NAQEhdNFtDSDJdW0NIMl1bQ0gyXU80

> <s_epik_cmdline>
J2VwaWtfcHl0aG9uJywgJy1waCcsICc3LjAnLCAnLXRuJywgJzgnLCAnLW1hJywgJzIwMCcsICctbWV0YWxfYmluZGluZycsICctaW1hZScsICc8aW5maWxlLm1hZT4nLCAnLW9tYWUnLCAnPG91dGZpbGUubWFlPic=

> <r_lp_tautomer_probability>
1

> <r_epik_Ionization_Penalty>
1.92533e-06

> <r_epik_Ionization_Penalty_Charging>
3.88729e-08

> <r_epik_Ionization_Penalty_Neutral>
1.88646e-06

> <r_epik_State_Penalty>
-0

> <r_epik_Charging_Adjusted_Penalty>
3.88729e-08

> <i_epik_Tot_Q>
0

> <i_epik_Tot_abs_Q>
0

> <r_epik_Metal_State_Penalty>
-0

> <b_epik_Metal_Only>
0

> <s_epik_Chemistry_Notes>
This compound contains an acetal/aminal-like group ( X-CH(R)-Y where X, Y are N, S, or O) that may be acid/base labile, releasing an aldehyde.

> <s_lp_Force_Field>
OPLS_2005

> <r_lp_Energy>
42.789

> <b_lp_Chiralities_Consistent>
1

> <s_lp_Variant>
AV-unprocessed.smi:131-2

> <Gold.Version>
5.8.1

> <Gold.Id.Protein>
6NUR|6NUR_protein|mol2

> <Gold.PLP.Fitness>
54.4029

> <Gold.PLP.PLP>
-52.4718

> <Gold.PLP.part.hbond>
-2.0000

> <Gold.PLP.part.metal>
0.0000

> <Gold.PLP.part.buried>
-7.5936

> <Gold.PLP.part.nonpolar>
-42.8566

> <Gold.PLP.part.repulsive>
0.2457

> <Gold.PLP.ligand.clash>
0.0000

> <Gold.PLP.ligand.torsion>
1.8583

> <Gold.PLP.Chemscore.Hbond>
1.0000

> <Gold.PLP.Chemscore.CHOScore>
0.0000

> <Gold.PLP.Chemscore.Metal>
0.0000

> <Gold.PLP.Chemscore.Internal.Correction>
2.6476

> <Gold.Rescore>
     Score         DG    S(hbond)    S(metal)    S(lipo)     H(rot)  DE(clash)    DE(int)     intcor
     10.22     -15.11       0.99        0.00      95.90       1.92       0.15       4.75       ----

> <Gold.Chemscore.Fitness>
10.2173

> <Gold.Chemscore.DG>
-15.1147

> <Gold.Chemscore.ZeroCoef>
-5.4800

> <Gold.Chemscore.Hbond>
0.9944

> <Gold.Chemscore.Metal>
0.0000

> <Gold.Chemscore.Lipo>
95.8956

> <Gold.Chemscore.Internal_Hbond>
0.0000

> <Gold.Chemscore.DEClash>
0.1473

> <Gold.Chemscore.DEInternal>
4.7501

> <Gold.Chemscore.Rot>
1.9166

> <Gold.Chemscore.Internal.Correction>
   9.000000E+99

> <Gold.Chemscore.Hbond.Weighted>
-3.3213

> <Gold.Chemscore.Metal.Weighted>
-0.0000

> <Gold.Chemscore.Lipo.Weighted>
-11.2198

> <Gold.Chemscore.Internal_Hbond.Weighted>
0.0000

> <Gold.Chemscore.DEClash.Weighted>
0.1473

> <Gold.Chemscore.DEInternal.Weighted>
4.7501

> <Gold.Chemscore.Rot.Weighted>
4.9064

> <Gold.Chemscore.Internal.Correction.Weighted>
   9.000000E+99

> <Gold.Protein.RotatedTorsions>
[ 6907 6896 6895 6894 ] final  -23.00 input  -60.11 | X-H torsion
[ 7974 7965 7964 7962 ] final  -93.82 input  175.53 | X-H torsion
[ 8008 7997 7996 7995 ] final   47.45 input   59.86 | X-H torsion
[ 10167 10162 10161 10158 ] final -164.57 input  -65.29 | X-H torsion
[ 10718 10713 10712 10709 ] final  -81.70 input   66.30 | X-H torsion
[ 10763 10752 10751 10750 ] final  150.37 input  -60.55 | X-H torsion
[ 11005 11000 10999 10996 ] final  -64.92 input  -57.11 | X-H torsion

> <Gold.Protein.ActiveResidues>
 VAL166  LYS551  ARG553  GLY616  TRP617  ASP618  TYR619  PRO620  LYS621  CYS622 
 ASP623  PHE694  ASN695  SER759  ASP760  ASP761  ALA762  ILE779  LEU786  VAL792 
 PHE793  MET794  SER795  GLU796  ALA797  LYS798  CYS799  TRP800  GLU811  SER814 

> <Gold.Protein.RotatedAtoms>
  151.2104  135.0479  159.8908 H   0  0  0  0  0  0  0  0  0  0  0  0  # atno 6907 bound_to 6896
  152.5425  134.0751  159.8221 H   0  0  0  0  0  0  0  0  0  0  0  0  # atno 6908 bound_to 6896
  151.0904  133.5272  159.2647 H   0  0  0  0  0  0  0  0  0  0  0  0  # atno 6909 bound_to 6896
  145.3814  140.9518  143.2391 H   0  0  0  0  0  0  0  0  0  0  0  0  # atno 7974 bound_to 7965
  155.3692  140.3423  155.4243 H   0  0  0  0  0  0  0  0  0  0  0  0  # atno 8008 bound_to 7997
  156.1672  140.1620  156.8545 H   0  0  0  0  0  0  0  0  0  0  0  0  # atno 8009 bound_to 7997
  154.5197  140.0770  156.8130 H   0  0  0  0  0  0  0  0  0  0  0  0  # atno 8010 bound_to 7997
  139.6242  144.0566  152.1959 H   0  0  0  0  0  0  0  0  0  0  0  0  # atno 10167 bound_to 10162
  156.0045  130.4612  150.3993 H   0  0  0  0  0  0  0  0  0  0  0  0  # atno 10718 bound_to 10713
  154.0863  135.2855  155.3280 H   0  0  0  0  0  0  0  0  0  0  0  0  # atno 10763 bound_to 10752
  154.6650  135.5320  153.8069 H   0  0  0  0  0  0  0  0  0  0  0  0  # atno 10764 bound_to 10752
  153.0430  135.6543  154.1035 H   0  0  0  0  0  0  0  0  0  0  0  0  # atno 10765 bound_to 10752
  141.1439  133.6673  156.5908 H   0  0  0  0  0  0  0  0  0  0  0  0  # atno 11005 bound_to 11000
  144.8505  139.5329  143.6858 LP  0  0  0  0  0  0  0  0  0  0  0  0  # atno 17320 bound_to 7965
  146.2840  139.6954  142.9208 LP  0  0  0  0  0  0  0  0  0  0  0  0  # atno 17321 bound_to 7965
  140.0215  144.6149  150.7563 LP  0  0  0  0  0  0  0  0  0  0  0  0  # atno 17342 bound_to 10162
  140.7400  143.2799  151.3629 LP  0  0  0  0  0  0  0  0  0  0  0  0  # atno 17343 bound_to 10162
  157.2063  131.0450  151.2623 LP  0  0  0  0  0  0  0  0  0  0  0  0  # atno 17370 bound_to 10713
  157.3930  130.7292  149.6711 LP  0  0  0  0  0  0  0  0  0  0  0  0  # atno 17371 bound_to 10713
  140.3765  134.7561  157.4633 LP  0  0  0  0  0  0  0  0  0  0  0  0  # atno 17394 bound_to 11000
  140.0670  134.5915  155.8684 LP  0  0  0  0  0  0  0  0  0  0  0  0  # atno 17395 bound_to 11000

$$$$
