AV-unprocessed.smi:340|AV-procd|sdf|2381|dock10
  -GOLD-   2262022303D 1   1.00000     0.00000
 Structure written by MMmdl.
 34 35  0  0  0  0  0  0  0  0  2 V2000
  155.2138  135.4691  157.9531 C   0  0  0  0  0  0  0  0  0  0  0  0
  153.8552  136.7058  157.9430 S   0  0  0  0  0  0  0  0  0  0  0  0
  154.4967  138.0036  157.6774 O   0  0  0  0  0  0  0  0  0  0  0  0
  152.8800  136.2222  156.9522 O   0  0  0  0  0  0  0  0  0  0  0  0
  153.3196  136.5718  159.4665 N   0  5  0  0  0  0  0  0  0  0  0  0
  153.9221  137.3907  160.5028 C   0  0  0  0  0  0  0  0  0  0  0  0
  153.6242  138.8680  160.2914 C   0  0  0  0  0  0  0  0  0  0  0  0
  154.2684  139.8599  161.0642 C   0  0  0  0  0  0  0  0  0  0  0  0
  153.9591  141.2144  160.8304 C   0  0  0  0  0  0  0  0  0  0  0  0
  153.0180  141.5335  159.8301 C   0  0  0  0  0  0  0  0  0  0  0  0
  152.7113  142.8803  159.5903 N   0  0  0  0  0  0  0  0  0  0  0  0
  152.0917  143.5447  160.7303 C   0  0  0  0  0  0  0  0  0  0  0  0
  151.9007  145.0408  160.4268 C   0  0  0  0  0  0  0  0  0  0  0  0
  151.1438  145.1940  159.2291 O   0  0  0  0  0  0  0  0  0  0  0  0
  151.7938  144.6050  158.1060 C   0  0  0  0  0  0  0  0  0  0  0  0
  151.9759  143.0976  158.3507 C   0  0  0  0  0  0  0  0  0  0  0  0
  152.3952  140.5890  159.0859 N   0  0  0  0  0  0  0  0  0  0  0  0
  152.6948  139.2916  159.3138 C   0  0  0  0  0  0  0  0  0  0  0  0
  155.6860  135.4447  156.9716 H   0  0  0  0  0  0  0  0  0  0  0  0
  154.8079  134.4850  158.1858 H   0  0  0  0  0  0  0  0  0  0  0  0
  155.9521  135.7465  158.7049 H   0  0  0  0  0  0  0  0  0  0  0  0
  153.5653  137.1146  161.4956 H   0  0  0  0  0  0  0  0  0  0  0  0
  155.0049  137.2659  160.5369 H   0  0  0  0  0  0  0  0  0  0  0  0
  154.9918  139.6054  161.8269 H   0  0  0  0  0  0  0  0  0  0  0  0
  154.4395  141.9913  161.4070 H   0  0  0  0  0  0  0  0  0  0  0  0
  151.1259  143.0852  160.9460 H   0  0  0  0  0  0  0  0  0  0  0  0
  152.7152  143.4183  161.6162 H   0  0  0  0  0  0  0  0  0  0  0  0
  151.3714  145.5264  161.2465 H   0  0  0  0  0  0  0  0  0  0  0  0
  152.8641  145.5435  160.3270 H   0  0  0  0  0  0  0  0  0  0  0  0
  151.1875  144.7713  157.2157 H   0  0  0  0  0  0  0  0  0  0  0  0
  152.7559  145.0899  157.9330 H   0  0  0  0  0  0  0  0  0  0  0  0
  152.5140  142.6437  157.5175 H   0  0  0  0  0  0  0  0  0  0  0  0
  151.0002  142.6130  158.4079 H   0  0  0  0  0  0  0  0  0  0  0  0
  152.1696  138.5839  158.6870 H   0  0  0  0  0  0  0  0  0  0  0  0
  1  2  1  0  0  0  0
  1 19  1  0  0  0  0
  1 20  1  0  0  0  0
  1 21  1  0  0  0  0
  2  3  2  0  0  0  0
  2  4  2  0  0  0  0
  2  5  1  0  0  0  0
  5  6  1  0  0  0  0
  6  7  1  0  0  0  0
  6 22  1  0  0  0  0
  6 23  1  0  0  0  0
  7 18  1  0  0  0  0
  7  8  2  0  0  0  0
  8  9  1  0  0  0  0
  8 24  1  0  0  0  0
  9 10  2  0  0  0  0
  9 25  1  0  0  0  0
 10 11  1  0  0  0  0
 10 17  1  0  0  0  0
 11 16  1  0  0  0  0
 11 12  1  0  0  0  0
 12 13  1  0  0  0  0
 12 26  1  0  0  0  0
 12 27  1  0  0  0  0
 13 14  1  0  0  0  0
 13 28  1  0  0  0  0
 13 29  1  0  0  0  0
 14 15  1  0  0  0  0
 15 16  1  0  0  0  0
 15 30  1  0  0  0  0
 15 31  1  0  0  0  0
 16 32  1  0  0  0  0
 16 33  1  0  0  0  0
 17 18  2  0  0  0  0
 18 34  1  0  0  0  0
M  CHG  1   5  -1
M  END
> <s_m_source_file>
AV-unprocessed.smi

> <i_m_source_file_index>
340

> <i_lp_mmshare_version>
43012

> <i_f3d_flags>
0

> <s_epik_input>
W0NIM11TKD1PKSg9TylbTkhdW0NIMl1jMVtjSF1bY0hdYyhuW2NIXTEpTjJbQ0gyXVtDSDJdT1tDSDJdW0NIMl0y

> <s_epik_cmdline>
J2VwaWtfcHl0aG9uJywgJy1waCcsICc3LjAnLCAnLXRuJywgJzgnLCAnLW1hJywgJzIwMCcsICctbWV0YWxfYmluZGluZycsICctaW1hZScsICc8aW5maWxlLm1hZT4nLCAnLW9tYWUnLCAnPG91dGZpbGUubWFlPic=

> <r_lp_tautomer_probability>
1

> <r_epik_Ionization_Penalty>
5.97683

> <r_epik_Ionization_Penalty_Charging>
5.90424

> <r_epik_Ionization_Penalty_Neutral>
0.0725937

> <r_epik_State_Penalty>
5.9092

> <r_epik_Charging_Adjusted_Penalty>
11.8134

> <i_epik_Tot_Q>
-1

> <i_epik_Tot_abs_Q>
1

> <r_epik_Metal_State_Penalty>
1.87112

> <b_epik_Metal_Only>
1

> <s_lp_Force_Field>
OPLS_2005

> <r_lp_Energy>
14.5027

> <b_lp_Chiralities_Consistent>
1

> <s_lp_Variant>
AV-unprocessed.smi:340-2

> <Gold.Version>
5.8.1

> <Gold.Id.Protein>
6NUR|6NUR_protein|mol2

> <Gold.PLP.Fitness>
45.5577

> <Gold.PLP.PLP>
-35.1493

> <Gold.PLP.part.hbond>
-3.0000

> <Gold.PLP.part.metal>
0.0000

> <Gold.PLP.part.buried>
-6.5726

> <Gold.PLP.part.nonpolar>
-26.6225

> <Gold.PLP.part.repulsive>
0.1395

> <Gold.PLP.ligand.clash>
0.0000

> <Gold.PLP.ligand.torsion>
0.7513

> <Gold.PLP.Chemscore.Hbond>
3.6143

> <Gold.PLP.Chemscore.CHOScore>
0.0000

> <Gold.PLP.Chemscore.Metal>
0.0000

> <Gold.Chemscore.Hbonds>
donor molecule, donor type, donor heavy atom, donor atom, acceptor molecule, acceptor atom, score
      P1  H  6896  6908       L1     5  1.89
      P1  H  7997  8008       L1     3  0.66
      P1  H 10752 10763       L1     4  1.00

> <Gold.PLP.Chemscore.Internal.Correction>
1.0680

> <Gold.Rescore>
     Score         DG    S(hbond)    S(metal)    S(lipo)     H(rot)  DE(clash)    DE(int)     intcor
     16.58     -20.14       2.59        0.00      85.07       1.54       0.00       3.55       ----

> <Gold.Chemscore.Fitness>
16.5830

> <Gold.Chemscore.DG>
-20.1371

> <Gold.Chemscore.ZeroCoef>
-5.4800

> <Gold.Chemscore.Hbond>
2.5922

> <Gold.Chemscore.Metal>
0.0000

> <Gold.Chemscore.Lipo>
85.0733

> <Gold.Chemscore.Internal_Hbond>
0.0000

> <Gold.Chemscore.DEClash>
0.0029

> <Gold.Chemscore.DEInternal>
3.5513

> <Gold.Chemscore.Rot>
1.5448

> <Gold.Chemscore.Internal.Correction>
   9.000000E+99

> <Gold.Chemscore.Hbonds>
donor molecule, donor type, donor heavy atom, donor atom, acceptor molecule, acceptor atom, score
      P1  H  6896  6908       L1     5  0.84
      P1  H  7997  8008       L1     3  0.64
      P1  H 10752 10763       L1     4  0.96

> <Gold.Chemscore.Hbond.Weighted>
-8.6581

> <Gold.Chemscore.Metal.Weighted>
-0.0000

> <Gold.Chemscore.Lipo.Weighted>
-9.9536

> <Gold.Chemscore.Internal_Hbond.Weighted>
0.0000

> <Gold.Chemscore.DEClash.Weighted>
0.0029

> <Gold.Chemscore.DEInternal.Weighted>
3.5513

> <Gold.Chemscore.Rot.Weighted>
3.9546

> <Gold.Chemscore.Internal.Correction.Weighted>
   9.000000E+99

> <Gold.Protein.RotatedTorsions>
[ 6907 6896 6895 6894 ] final  -81.77 input  -60.11 | X-H torsion
[ 7974 7965 7964 7962 ] final  134.41 input  175.53 | X-H torsion
[ 8008 7997 7996 7995 ] final -101.51 input   59.86 | X-H torsion
[ 10167 10162 10161 10158 ] final   74.58 input  -65.29 | X-H torsion
[ 10718 10713 10712 10709 ] final  138.02 input   66.30 | X-H torsion
[ 10763 10752 10751 10750 ] final  117.41 input  -60.55 | X-H torsion
[ 11005 11000 10999 10996 ] final    1.28 input  -57.11 | X-H torsion

> <Gold.Protein.ActiveResidues>
 VAL166  LYS551  ARG553  GLY616  TRP617  ASP618  TYR619  PRO620  LYS621  CYS622 
 ASP623  PHE694  ASN695  SER759  ASP760  ASP761  ALA762  ILE779  LEU786  VAL792 
 PHE793  MET794  SER795  GLU796  ALA797  LYS798  CYS799  TRP800  GLU811  SER814 

> <Gold.Protein.RotatedAtoms>
  150.6907  134.3767  159.5015 H   0  0  0  0  0  0  0  0  0  0  0  0  # atno 6907 bound_to 6896
  152.1575  134.8936  160.0553 H   0  0  0  0  0  0  0  0  0  0  0  0  # atno 6908 bound_to 6896
  152.0010  133.3791  159.4219 H   0  0  0  0  0  0  0  0  0  0  0  0  # atno 6909 bound_to 6896
  144.9767  139.4548  143.5406 H   0  0  0  0  0  0  0  0  0  0  0  0  # atno 7974 bound_to 7965
  154.8436  140.0434  157.1557 H   0  0  0  0  0  0  0  0  0  0  0  0  # atno 8008 bound_to 7997
  154.9020  140.3001  155.5292 H   0  0  0  0  0  0  0  0  0  0  0  0  # atno 8009 bound_to 7997
  156.2993  140.2374  156.4049 H   0  0  0  0  0  0  0  0  0  0  0  0  # atno 8010 bound_to 7997
  140.0122  144.5605  150.7649 H   0  0  0  0  0  0  0  0  0  0  0  0  # atno 10167 bound_to 10162
  157.4298  131.1047  151.0263 H   0  0  0  0  0  0  0  0  0  0  0  0  # atno 10718 bound_to 10713
  153.5520  135.3538  155.2763 H   0  0  0  0  0  0  0  0  0  0  0  0  # atno 10763 bound_to 10752
  154.8705  135.4116  154.2926 H   0  0  0  0  0  0  0  0  0  0  0  0  # atno 10764 bound_to 10752
  153.3654  135.7062  153.6748 H   0  0  0  0  0  0  0  0  0  0  0  0  # atno 10765 bound_to 10752
  140.6172  133.9694  155.8206 H   0  0  0  0  0  0  0  0  0  0  0  0  # atno 11005 bound_to 11000
  146.3397  139.9014  142.8794 LP  0  0  0  0  0  0  0  0  0  0  0  0  # atno 17320 bound_to 7965
  145.2480  141.0033  143.3897 LP  0  0  0  0  0  0  0  0  0  0  0  0  # atno 17321 bound_to 7965
  140.7377  143.2768  151.3717 LP  0  0  0  0  0  0  0  0  0  0  0  0  # atno 17342 bound_to 10162
  139.6197  144.0932  152.2379 LP  0  0  0  0  0  0  0  0  0  0  0  0  # atno 17343 bound_to 10162
  157.1163  130.6043  149.5494 LP  0  0  0  0  0  0  0  0  0  0  0  0  # atno 17370 bound_to 10713
  155.9909  130.4962  150.7277 LP  0  0  0  0  0  0  0  0  0  0  0  0  # atno 17371 bound_to 10713
  141.0767  134.0124  157.3447 LP  0  0  0  0  0  0  0  0  0  0  0  0  # atno 17394 bound_to 11000
  139.9168  135.0197  156.7911 LP  0  0  0  0  0  0  0  0  0  0  0  0  # atno 17395 bound_to 11000

$$$$
