AV-unprocessed.smi:2703|AV-procd|sdf|10440|dock4
  -GOLD-   2272014483D 1   1.00000     0.00000
 Structure written by MMmdl.
 43 45  0  0  0  0  0  0  0  0  4 V2000
  153.7943  143.0874  163.6650 C   0  0  0  0  0  0  0  0  0  0  0  0
  153.2691  142.8492  162.2596 C   0  0  0  0  0  0  0  0  0  0  0  0
  152.3364  143.7654  161.7237 C   0  0  0  0  0  0  0  0  0  0  0  0
  151.8728  143.5191  160.4368 C   0  0  0  0  0  0  0  0  0  0  0  0
  150.9619  144.2202  159.6441 N   0  3  0  0  0  0  0  0  0  0  0  0
  150.8224  143.5890  158.4458 C   0  0  0  0  0  0  0  0  0  0  0  0
  151.6326  142.4961  158.4600 N   0  0  0  0  0  0  0  0  0  0  0  0
  151.8525  141.4808  157.4197 C   0  0  0  0  0  0  0  0  0  0  0  0
  151.6706  140.0420  157.9414 C   0  0  2  0  0  0  0  0  0  0  0  0
  152.9180  139.3743  157.9602 O   0  0  0  0  0  0  0  0  0  0  0  0
  150.6789  139.2428  157.0804 C   0  0  0  0  0  0  0  0  0  0  0  0
  150.6670  139.7989  155.3507 S   0  0  0  0  0  0  0  0  0  0  0  0
  149.0573  139.4699  154.6734 C   0  0  0  0  0  0  0  0  0  0  0  0
  148.4414  138.2032  154.7815 C   0  0  0  0  0  0  0  0  0  0  0  0
  147.1683  137.9984  154.2277 C   0  0  0  0  0  0  0  0  0  0  0  0
  146.5337  139.0655  153.5754 C   0  0  0  0  0  0  0  0  0  0  0  0
  147.1849  140.3109  153.4906 C   0  0  0  0  0  0  0  0  0  0  0  0
  148.4268  140.5100  154.0303 N   0  3  0  0  0  0  0  0  0  0  0  0
  148.9803  141.6676  153.9246 O   0  5  0  0  0  0  0  0  0  0  0  0
  152.3069  142.4102  159.6843 C   0  0  0  0  0  0  0  0  0  0  0  0
  153.2256  141.4976  160.1984 C   0  0  0  0  0  0  0  0  0  0  0  0
  153.7069  141.7289  161.5069 C   0  0  0  0  0  0  0  0  0  0  0  0
  154.7071  140.7478  162.0944 C   0  0  0  0  0  0  0  0  0  0  0  0
  153.3734  143.9942  164.1005 H   0  0  0  0  0  0  0  0  0  0  0  0
  154.8792  143.1958  163.6559 H   0  0  0  0  0  0  0  0  0  0  0  0
  153.5345  142.2532  164.3168 H   0  0  0  0  0  0  0  0  0  0  0  0
  151.9974  144.6195  162.2916 H   0  0  0  0  0  0  0  0  0  0  0  0
  150.1836  143.8990  157.6314 H   0  0  0  0  0  0  0  0  0  0  0  0
  151.1315  141.6791  156.6257 H   0  0  0  0  0  0  0  0  0  0  0  0
  152.8384  141.6226  156.9766 H   0  0  0  0  0  0  0  0  0  0  0  0
  151.2990  140.0839  158.9660 H   0  0  0  0  0  0  0  0  0  0  0  0
  153.1485  139.1897  158.8576 H   0  0  0  0  0  0  0  0  0  0  0  0
  150.9516  138.1871  157.0933 H   0  0  0  0  0  0  0  0  0  0  0  0
  149.6714  139.3216  157.4909 H   0  0  0  0  0  0  0  0  0  0  0  0
  148.9309  137.3827  155.2822 H   0  0  0  0  0  0  0  0  0  0  0  0
  146.6857  137.0347  154.3019 H   0  0  0  0  0  0  0  0  0  0  0  0
  145.5539  138.9336  153.1405 H   0  0  0  0  0  0  0  0  0  0  0  0
  146.7593  141.1767  153.0039 H   0  0  0  0  0  0  0  0  0  0  0  0
  153.5576  140.6424  159.6293 H   0  0  0  0  0  0  0  0  0  0  0  0
  154.9351  139.9430  161.3949 H   0  0  0  0  0  0  0  0  0  0  0  0
  154.3112  140.2955  163.0040 H   0  0  0  0  0  0  0  0  0  0  0  0
  155.6423  141.2532  162.3366 H   0  0  0  0  0  0  0  0  0  0  0  0
  150.4686  145.0660  159.9000 H   0  0  0  0  0  0  0  0  0  0  0  0
  1  2  1  0  0  0  0
  1 24  1  0  0  0  0
  1 25  1  0  0  0  0
  1 26  1  0  0  0  0
  2 22  1  0  0  0  0
  2  3  2  0  0  0  0
  3  4  1  0  0  0  0
  3 27  1  0  0  0  0
  4 20  2  0  0  0  0
  4  5  1  0  0  0  0
  5  6  2  0  0  0  0
  5 43  1  0  0  0  0
  6  7  1  0  0  0  0
  6 28  1  0  0  0  0
  7  8  1  0  0  0  0
  7 20  1  0  0  0  0
  8  9  1  0  0  0  0
  8 29  1  0  0  0  0
  8 30  1  0  0  0  0
  9 10  1  0  0  0  0
  9 11  1  0  0  0  0
  9 31  1  0  0  0  0
 10 32  1  0  0  0  0
 11 12  1  0  0  0  0
 11 33  1  0  0  0  0
 11 34  1  0  0  0  0
 12 13  1  0  0  0  0
 13 18  1  0  0  0  0
 13 14  2  0  0  0  0
 14 15  1  0  0  0  0
 14 35  1  0  0  0  0
 15 16  2  0  0  0  0
 15 36  1  0  0  0  0
 16 17  1  0  0  0  0
 16 37  1  0  0  0  0
 17 18  2  0  0  0  0
 17 38  1  0  0  0  0
 18 19  1  0  0  0  0
 20 21  1  0  0  0  0
 21 22  2  0  0  0  0
 21 39  1  0  0  0  0
 22 23  1  0  0  0  0
 23 40  1  0  0  0  0
 23 41  1  0  0  0  0
 23 42  1  0  0  0  0
M  CHG  1   5   1
M  CHG  1  18   1
M  CHG  1  19  -1
M  END
> <s_m_source_file>
AV-unprocessed.smi

> <i_m_source_file_index>
2703

> <i_lp_mmshare_version>
43012

> <i_f3d_flags>
0

> <s_epik_input>
W0NIM11jKFtjSF0xKWMoW0NIM10pW2NIXWMoYzEyKW4oW2NIXW4yKVtDSDJdW0NASF0oW09IXSlbQ0gyXVNjM1tjSF1bY0hdW2NIXVtjSF1bbitdM1tPLV0=

> <s_epik_cmdline>
J2VwaWtfcHl0aG9uJywgJy1waCcsICc3LjAnLCAnLXRuJywgJzgnLCAnLW1hJywgJzIwMCcsICctbWV0YWxfYmluZGluZycsICctaW1hZScsICc8aW5maWxlLm1hZT4nLCAnLW9tYWUnLCAnPG91dGZpbGUubWFlPic=

> <r_epik_Ionization_Penalty>
1.07182

> <r_epik_Ionization_Penalty_Charging>
1.07181

> <r_epik_Ionization_Penalty_Neutral>
2.88913e-06

> <r_epik_State_Penalty>
1.12646

> <r_epik_Charging_Adjusted_Penalty>
2.19828

> <i_epik_Tot_Q>
1

> <i_epik_Tot_abs_Q>
3

> <r_epik_Metal_State_Penalty>
5.12345

> <b_epik_Metal_Only>
0

> <s_lp_Force_Field>
OPLS_2005

> <r_lp_Energy>
22.2033

> <b_lp_Chiralities_Consistent>
1

> <s_lp_Variant>
AV-unprocessed.smi:2703-3

> <Gold.Version>
5.8.1

> <Gold.Id.Protein>
6NUR|6NUR_protein|mol2

> <Gold.PLP.Fitness>
54.8859

> <Gold.PLP.PLP>
-49.8693

> <Gold.PLP.part.hbond>
-2.9660

> <Gold.PLP.part.metal>
0.0000

> <Gold.PLP.part.buried>
-2.7628

> <Gold.PLP.part.nonpolar>
-43.1835

> <Gold.PLP.part.repulsive>
0.3249

> <Gold.PLP.ligand.clash>
0.0000

> <Gold.PLP.ligand.torsion>
1.4379

> <Gold.PLP.Chemscore.Hbond>
1.6240

> <Gold.PLP.Chemscore.CHOScore>
1.0000

> <Gold.PLP.Chemscore.Metal>
0.0000

> <Gold.Chemscore.Hbonds>
donor molecule, donor type, donor heavy atom, donor atom, acceptor molecule, acceptor atom, score
      P1  H  7997  8009       L1    10  0.99
      P1  H  8011  8017       L1    19  0.62
      L1  C     6    28       P1  8028  1.00

> <Gold.PLP.Chemscore.Internal.Correction>
0.0205

> <Gold.Rescore>
     Score         DG    S(hbond)    S(metal)    S(lipo)     H(rot)  DE(clash)    DE(int)     intcor
     18.51     -20.16       1.52        0.00     133.13       2.33       0.12       1.53       ----

> <Gold.Chemscore.Fitness>
18.5109

> <Gold.Chemscore.DG>
-20.1630

> <Gold.Chemscore.ZeroCoef>
-5.4800

> <Gold.Chemscore.Hbond>
1.5164

> <Gold.Chemscore.Metal>
0.0000

> <Gold.Chemscore.Lipo>
133.1321

> <Gold.Chemscore.Internal_Hbond>
0.0000

> <Gold.Chemscore.DEClash>
0.1243

> <Gold.Chemscore.DEInternal>
1.5279

> <Gold.Chemscore.Rot>
2.3274

> <Gold.Chemscore.Internal.Correction>
   9.000000E+99

> <Gold.Chemscore.Hbonds>
donor molecule, donor type, donor heavy atom, donor atom, acceptor molecule, acceptor atom, score
      P1  H  7997  8009       L1    10  0.51
      P1  H  8011  8017       L1    19  0.62

> <Gold.Chemscore.Hbond.Weighted>
-5.0648

> <Gold.Chemscore.Metal.Weighted>
-0.0000

> <Gold.Chemscore.Lipo.Weighted>
-15.5765

> <Gold.Chemscore.Internal_Hbond.Weighted>
0.0000

> <Gold.Chemscore.DEClash.Weighted>
0.1243

> <Gold.Chemscore.DEInternal.Weighted>
1.5279

> <Gold.Chemscore.Rot.Weighted>
5.9583

> <Gold.Chemscore.Internal.Correction.Weighted>
   9.000000E+99

> <Gold.Protein.RotatedTorsions>
[ 6907 6896 6895 6894 ] final   78.83 input  -60.11 | X-H torsion
[ 7974 7965 7964 7962 ] final  -63.23 input  175.53 | X-H torsion
[ 8008 7997 7996 7995 ] final  151.16 input   59.86 | X-H torsion
[ 10167 10162 10161 10158 ] final  103.91 input  -65.29 | X-H torsion
[ 10718 10713 10712 10709 ] final   -3.41 input   66.30 | X-H torsion
[ 10763 10752 10751 10750 ] final  -69.68 input  -60.55 | X-H torsion
[ 11005 11000 10999 10996 ] final  -94.64 input  -57.11 | X-H torsion

> <Gold.Protein.ActiveResidues>
 VAL166  LYS551  ARG553  GLY616  TRP617  ASP618  TYR619  PRO620  LYS621  CYS622 
 ASP623  PHE694  ASN695  SER759  ASP760  ASP761  ALA762  ILE779  LEU786  VAL792 
 PHE793  MET794  SER795  GLU796  ALA797  LYS798  CYS799  TRP800  GLU811  SER814 

> <Gold.Protein.RotatedAtoms>
  152.5175  134.3604  159.9282 H   0  0  0  0  0  0  0  0  0  0  0  0  # atno 6907 bound_to 6896
  151.3556  133.3902  159.2692 H   0  0  0  0  0  0  0  0  0  0  0  0  # atno 6908 bound_to 6896
  150.9692  134.9087  159.7836 H   0  0  0  0  0  0  0  0  0  0  0  0  # atno 6909 bound_to 6896
  145.7815  140.8759  143.0328 H   0  0  0  0  0  0  0  0  0  0  0  0  # atno 7974 bound_to 7965
  156.2685  140.2055  156.6132 H   0  0  0  0  0  0  0  0  0  0  0  0  # atno 8008 bound_to 7997
  154.6815  140.0539  157.0294 H   0  0  0  0  0  0  0  0  0  0  0  0  # atno 8009 bound_to 7997
  155.0994  140.3204  155.4554 H   0  0  0  0  0  0  0  0  0  0  0  0  # atno 8010 bound_to 7997
  139.7222  144.7055  151.0854 H   0  0  0  0  0  0  0  0  0  0  0  0  # atno 10167 bound_to 10162
  156.7764  130.5316  149.5758 H   0  0  0  0  0  0  0  0  0  0  0  0  # atno 10718 bound_to 10713
  154.4069  135.6018  153.5930 H   0  0  0  0  0  0  0  0  0  0  0  0  # atno 10763 bound_to 10752
  152.9789  135.5920  154.4116 H   0  0  0  0  0  0  0  0  0  0  0  0  # atno 10764 bound_to 10752
  154.3923  135.2842  155.2125 H   0  0  0  0  0  0  0  0  0  0  0  0  # atno 10765 bound_to 10752
  141.1465  133.7970  157.0326 H   0  0  0  0  0  0  0  0  0  0  0  0  # atno 11005 bound_to 11000
  144.6795  139.9996  143.7484 LP  0  0  0  0  0  0  0  0  0  0  0  0  # atno 17320 bound_to 7965
  146.0069  139.3137  143.0894 LP  0  0  0  0  0  0  0  0  0  0  0  0  # atno 17321 bound_to 7965
  140.7756  143.5151  150.9605 LP  0  0  0  0  0  0  0  0  0  0  0  0  # atno 17342 bound_to 10162
  139.8838  143.7039  152.3154 LP  0  0  0  0  0  0  0  0  0  0  0  0  # atno 17343 bound_to 10162
  156.1245  130.6134  151.0243 LP  0  0  0  0  0  0  0  0  0  0  0  0  # atno 17370 bound_to 10713
  157.6667  131.0870  150.7712 LP  0  0  0  0  0  0  0  0  0  0  0  0  # atno 17371 bound_to 10713
  140.0744  134.9684  157.1521 LP  0  0  0  0  0  0  0  0  0  0  0  0  # atno 17394 bound_to 11000
  140.3665  134.2437  155.7182 LP  0  0  0  0  0  0  0  0  0  0  0  0  # atno 17395 bound_to 11000

$$$$
