AV-unprocessed.smi:3112|AV-procd|sdf|11850|dock5
  -GOLD-   2272017233D 1   1.00000     0.00000
 Structure written by MMmdl.
 36 36  0  0  0  0  0  0  0  0  1 V2000
  150.1604  136.7249  154.9969 C   0  0  0  0  0  0  0  0  0  0  0  0
  151.3979  137.5952  155.2541 C   0  0  0  0  0  0  0  0  0  0  0  0
  151.0812  139.1033  155.3030 C   0  0  2  0  0  0  0  0  0  0  0  0
  150.5602  139.5516  154.0678 O   0  0  0  0  0  0  0  0  0  0  0  0
  152.2764  139.9921  155.6956 C   0  0  0  0  0  0  0  0  0  0  0  0
  152.5074  140.0086  157.1428 N   0  0  0  0  0  0  0  0  0  0  0  0
  152.0853  141.2362  157.8242 C   0  0  1  0  0  0  0  0  0  0  0  0
  150.5650  141.3938  157.6321 C   0  0  0  0  0  0  0  0  0  0  0  0
  152.4927  141.2307  159.3286 C   0  0  1  0  0  0  0  0  0  0  0  0
  153.9116  140.6994  159.6044 C   0  0  0  0  0  0  0  0  0  0  0  0
  152.3398  142.5470  159.9372 N   0  0  0  0  0  0  0  0  0  0  0  0
  152.1486  143.7608  159.3091 C   0  0  0  0  0  0  0  0  0  0  0  0
  152.0597  144.7152  160.2816 C   0  0  0  0  0  0  0  0  0  0  0  0
  152.2090  143.9803  161.4904 C   0  0  0  0  0  0  0  0  0  0  0  0
  152.3761  142.6847  161.2824 N   0  0  0  0  0  0  0  0  0  0  0  0
  150.4237  135.6671  155.0024 H   0  0  0  0  0  0  0  0  0  0  0  0
  149.7117  136.9477  154.0285 H   0  0  0  0  0  0  0  0  0  0  0  0
  149.4010  136.8818  155.7632 H   0  0  0  0  0  0  0  0  0  0  0  0
  151.8408  137.2932  156.2041 H   0  0  0  0  0  0  0  0  0  0  0  0
  152.1473  137.3898  154.4886 H   0  0  0  0  0  0  0  0  0  0  0  0
  150.2994  139.2661  156.0459 H   0  0  0  0  0  0  0  0  0  0  0  0
  150.2231  138.8056  153.5959 H   0  0  0  0  0  0  0  0  0  0  0  0
  153.1629  139.6721  155.1517 H   0  0  0  0  0  0  0  0  0  0  0  0
  152.0744  141.0098  155.3597 H   0  0  0  0  0  0  0  0  0  0  0  0
  152.0372  139.2116  157.5596 H   0  0  0  0  0  0  0  0  0  0  0  0
  152.5504  142.0956  157.3387 H   0  0  0  0  0  0  0  0  0  0  0  0
  150.2056  142.3539  158.0025 H   0  0  0  0  0  0  0  0  0  0  0  0
  150.0152  140.6085  158.1519 H   0  0  0  0  0  0  0  0  0  0  0  0
  150.2964  141.3439  156.5764 H   0  0  0  0  0  0  0  0  0  0  0  0
  151.7994  140.5709  159.8531 H   0  0  0  0  0  0  0  0  0  0  0  0
  153.9854  139.6335  159.3912 H   0  0  0  0  0  0  0  0  0  0  0  0
  154.1791  140.8264  160.6541 H   0  0  0  0  0  0  0  0  0  0  0  0
  154.6589  141.2212  159.0060 H   0  0  0  0  0  0  0  0  0  0  0  0
  152.0936  143.8441  158.2338 H   0  0  0  0  0  0  0  0  0  0  0  0
  151.9107  145.7763  160.1494 H   0  0  0  0  0  0  0  0  0  0  0  0
  152.2012  144.3474  162.5060 H   0  0  0  0  0  0  0  0  0  0  0  0
  1  2  1  0  0  0  0
  1 16  1  0  0  0  0
  1 17  1  0  0  0  0
  1 18  1  0  0  0  0
  2  3  1  0  0  0  0
  2 19  1  0  0  0  0
  2 20  1  0  0  0  0
  3  4  1  0  0  0  0
  3  5  1  0  0  0  0
  3 21  1  0  0  0  0
  4 22  1  0  0  0  0
  5  6  1  0  0  0  0
  5 23  1  0  0  0  0
  5 24  1  0  0  0  0
  6  7  1  0  0  0  0
  6 25  1  0  0  0  0
  7  8  1  0  0  0  0
  7  9  1  0  0  0  0
  7 26  1  0  0  0  0
  8 27  1  0  0  0  0
  8 28  1  0  0  0  0
  8 29  1  0  0  0  0
  9 10  1  0  0  0  0
  9 11  1  0  0  0  0
  9 30  1  0  0  0  0
 10 31  1  0  0  0  0
 10 32  1  0  0  0  0
 10 33  1  0  0  0  0
 11 15  1  0  0  0  0
 11 12  1  0  0  0  0
 12 13  2  0  0  0  0
 12 34  1  0  0  0  0
 13 14  1  0  0  0  0
 13 35  1  0  0  0  0
 14 15  2  0  0  0  0
 14 36  1  0  0  0  0
M  END
> <s_m_source_file>
AV-unprocessed.smi

> <i_m_source_file_index>
3112

> <i_lp_mmshare_version>
43012

> <i_f3d_flags>
0

> <s_epik_input>
W0NIM11bQ0gyXVtDQEhdKFtPSF0pW0NIMl1bTkhdW0NASF0oW0NIM10pW0NASF0oW0NIM10pbjFbY0hdW2NIXVtjSF1uMQ==

> <s_epik_cmdline>
J2VwaWtfcHl0aG9uJywgJy1waCcsICc3LjAnLCAnLXRuJywgJzgnLCAnLW1hJywgJzIwMCcsICctbWV0YWxfYmluZGluZycsICctaW1hZScsICc8aW5maWxlLm1hZT4nLCAnLW9tYWUnLCAnPG91dGZpbGUubWFlPic=

> <r_lp_tautomer_probability>
1

> <r_epik_Ionization_Penalty>
2.16876

> <r_epik_Ionization_Penalty_Charging>
0

> <r_epik_Ionization_Penalty_Neutral>
2.16876

> <r_epik_State_Penalty>
2.30854

> <r_epik_Charging_Adjusted_Penalty>
2.30854

> <i_epik_Tot_Q>
0

> <i_epik_Tot_abs_Q>
0

> <r_epik_Metal_State_Penalty>
2.3073

> <b_epik_Metal_Only>
0

> <s_lp_Force_Field>
OPLS_2005

> <r_lp_Energy>
23.3331

> <b_lp_Chiralities_Consistent>
1

> <s_lp_Variant>
AV-unprocessed.smi:3112-15

> <Gold.Version>
5.8.1

> <Gold.Id.Protein>
6NUR|6NUR_protein|mol2

> <Gold.PLP.Fitness>
38.7273

> <Gold.PLP.PLP>
-35.3671

> <Gold.PLP.part.hbond>
-2.8702

> <Gold.PLP.part.metal>
0.0000

> <Gold.PLP.part.buried>
-3.6671

> <Gold.PLP.part.nonpolar>
-27.5536

> <Gold.PLP.part.repulsive>
0.0699

> <Gold.PLP.ligand.clash>
0.0000

> <Gold.PLP.ligand.torsion>
0.9641

> <Gold.PLP.Chemscore.Hbond>
1.6960

> <Gold.PLP.Chemscore.CHOScore>
0.0000

> <Gold.PLP.Chemscore.Metal>
0.0000

> <Gold.Chemscore.Hbonds>
donor molecule, donor type, donor heavy atom, donor atom, acceptor molecule, acceptor atom, score
      P1  H  7989  7998       L1     4  1.00
      P1  H  7997  8010       L1     6  0.54

> <Gold.PLP.Chemscore.Internal.Correction>
0.2004

> <Gold.Rescore>
     Score         DG    S(hbond)    S(metal)    S(lipo)     H(rot)  DE(clash)    DE(int)     intcor
     12.36     -13.21       0.85        0.00      92.27       2.31       0.02       0.82       ----

> <Gold.Chemscore.Fitness>
12.3638

> <Gold.Chemscore.DG>
-13.2093

> <Gold.Chemscore.ZeroCoef>
-5.4800

> <Gold.Chemscore.Hbond>
0.8530

> <Gold.Chemscore.Metal>
0.0000

> <Gold.Chemscore.Lipo>
92.2723

> <Gold.Chemscore.Internal_Hbond>
0.0000

> <Gold.Chemscore.DEClash>
0.0234

> <Gold.Chemscore.DEInternal>
0.8220

> <Gold.Chemscore.Rot>
2.3108

> <Gold.Chemscore.Internal.Correction>
   9.000000E+99

> <Gold.Chemscore.Hbonds>
donor molecule, donor type, donor heavy atom, donor atom, acceptor molecule, acceptor atom, score
      P1  H  7989  7998       L1     4  0.65
      P1  H  7997  8010       L1     6  0.02

> <Gold.Chemscore.Hbond.Weighted>
-2.8491

> <Gold.Chemscore.Metal.Weighted>
-0.0000

> <Gold.Chemscore.Lipo.Weighted>
-10.7959

> <Gold.Chemscore.Internal_Hbond.Weighted>
0.0000

> <Gold.Chemscore.DEClash.Weighted>
0.0234

> <Gold.Chemscore.DEInternal.Weighted>
0.8220

> <Gold.Chemscore.Rot.Weighted>
5.9157

> <Gold.Chemscore.Internal.Correction.Weighted>
   9.000000E+99

> <Gold.Protein.RotatedTorsions>
[ 6907 6896 6895 6894 ] final  -91.24 input  -60.11 | X-H torsion
[ 7974 7965 7964 7962 ] final  -84.36 input  175.53 | X-H torsion
[ 8008 7997 7996 7995 ] final   45.14 input   59.86 | X-H torsion
[ 10167 10162 10161 10158 ] final   88.59 input  -65.29 | X-H torsion
[ 10718 10713 10712 10709 ] final   61.79 input   66.30 | X-H torsion
[ 10763 10752 10751 10750 ] final -138.05 input  -60.55 | X-H torsion
[ 11005 11000 10999 10996 ] final  -77.42 input  -57.11 | X-H torsion

> <Gold.Protein.ActiveResidues>
 VAL166  LYS551  ARG553  GLY616  TRP617  ASP618  TYR619  PRO620  LYS621  CYS622 
 ASP623  PHE694  ASN695  SER759  ASP760  ASP761  ALA762  ILE779  LEU786  VAL792 
 PHE793  MET794  SER795  GLU796  ALA797  LYS798  CYS799  TRP800  GLU811  SER814 

> <Gold.Protein.RotatedAtoms>
  150.6890  134.2308  159.4433 H   0  0  0  0  0  0  0  0  0  0  0  0  # atno 6907 bound_to 6896
  152.0258  134.9794  160.0581 H   0  0  0  0  0  0  0  0  0  0  0  0  # atno 6908 bound_to 6896
  152.1352  133.4396  159.4777 H   0  0  0  0  0  0  0  0  0  0  0  0  # atno 6909 bound_to 6896
  145.5077  140.9542  143.1725 H   0  0  0  0  0  0  0  0  0  0  0  0  # atno 7974 bound_to 7965
  155.3310  140.3402  155.4239 H   0  0  0  0  0  0  0  0  0  0  0  0  # atno 8008 bound_to 7997
  156.1861  140.1681  156.8218 H   0  0  0  0  0  0  0  0  0  0  0  0  # atno 8009 bound_to 7997
  154.5388  140.0729  156.8458 H   0  0  0  0  0  0  0  0  0  0  0  0  # atno 8010 bound_to 7997
  139.8657  144.6520  150.9007 H   0  0  0  0  0  0  0  0  0  0  0  0  # atno 10167 bound_to 10162
  157.5854  130.9014  149.9505 H   0  0  0  0  0  0  0  0  0  0  0  0  # atno 10718 bound_to 10713
  154.8647  135.3624  154.5322 H   0  0  0  0  0  0  0  0  0  0  0  0  # atno 10763 bound_to 10752
  153.5947  135.7014  153.5413 H   0  0  0  0  0  0  0  0  0  0  0  0  # atno 10764 bound_to 10752
  153.3342  135.4116  155.1482 H   0  0  0  0  0  0  0  0  0  0  0  0  # atno 10765 bound_to 10752
  141.1660  133.7022  156.7818 H   0  0  0  0  0  0  0  0  0  0  0  0  # atno 11005 bound_to 11000
  144.7745  139.6661  143.7181 LP  0  0  0  0  0  0  0  0  0  0  0  0  # atno 17320 bound_to 7965
  146.2186  139.5595  142.9633 LP  0  0  0  0  0  0  0  0  0  0  0  0  # atno 17321 bound_to 7965
  140.7768  143.3706  151.1656 LP  0  0  0  0  0  0  0  0  0  0  0  0  # atno 17342 bound_to 10162
  139.7331  143.9041  152.3026 LP  0  0  0  0  0  0  0  0  0  0  0  0  # atno 17343 bound_to 10162
  156.0902  130.3664  150.0409 LP  0  0  0  0  0  0  0  0  0  0  0  0  # atno 17370 bound_to 10713
  156.8541  130.9469  151.3623 LP  0  0  0  0  0  0  0  0  0  0  0  0  # atno 17371 bound_to 10713
  140.2389  134.8628  157.3553 LP  0  0  0  0  0  0  0  0  0  0  0  0  # atno 17394 bound_to 11000
  140.1815  134.4483  155.7769 LP  0  0  0  0  0  0  0  0  0  0  0  0  # atno 17395 bound_to 11000

$$$$
