AV-unprocessed.smi:1361|AV-procd|sdf|5555|dock3
  -GOLD-   22720 5143D 1   1.00000     0.00000
 Structure written by MMmdl.
 46 47  0  0  0  0  0  0  0  0  1 V2000
  146.6873  138.4209  151.9736 C   0  0  0  0  0  0  0  0  0  0  0  0
  146.8702  139.2094  153.2532 C   0  0  0  0  0  0  0  0  0  0  0  0
  146.1388  139.0535  154.3072 N   0  0  0  0  0  0  0  0  0  0  0  0
  146.4079  139.8388  155.4369 C   0  0  0  0  0  0  0  0  0  0  0  0
  145.5056  139.5927  156.6340 C   0  0  0  0  0  0  0  0  0  0  0  0
  147.4181  140.7578  155.4461 C   0  0  0  0  0  0  0  0  0  0  0  0
  147.7406  141.6234  156.6624 C   0  0  0  0  0  0  0  0  0  0  0  0
  149.1816  141.5300  157.1665 C   0  0  0  0  0  0  0  0  0  0  0  0
  149.6432  140.4418  157.5091 O   0  0  0  0  0  0  0  0  0  0  0  0
  149.8794  142.6761  157.2010 N   0  0  0  0  0  0  0  0  0  0  0  0
  151.2671  142.8184  157.6361 C   0  0  0  0  0  0  0  0  0  0  0  0
  151.4843  142.0316  158.9480 C   0  0  0  0  0  0  0  0  0  0  0  0
  152.8309  142.2999  159.6452 C   0  0  0  0  0  0  0  0  0  0  0  0
  152.7165  143.0055  161.0094 C   0  0  0  0  0  0  0  0  0  0  0  0
  151.7366  144.1934  161.1092 C   0  0  0  0  0  0  0  0  0  0  0  0
  151.9059  145.3089  160.0629 C   0  0  0  0  0  0  0  0  0  0  0  0
  151.0325  145.1666  158.7972 C   0  0  0  0  0  0  0  0  0  0  0  0
  151.6469  144.3178  157.6677 C   0  0  0  0  0  0  0  0  0  0  0  0
  148.2433  140.9313  154.2345 C   0  0  0  0  0  0  0  0  0  0  0  0
  149.1701  141.7330  154.1297 O   0  0  0  0  0  0  0  0  0  0  0  0
  147.9136  140.1315  153.1956 N   0  0  0  0  0  0  0  0  0  0  0  0
  148.4496  140.2123  152.3439 H   0  0  0  0  0  0  0  0  0  0  0  0
  145.6884  138.5877  151.5700 H   0  0  0  0  0  0  0  0  0  0  0  0
  146.8043  137.3549  152.1700 H   0  0  0  0  0  0  0  0  0  0  0  0
  147.4154  138.7094  151.2143 H   0  0  0  0  0  0  0  0  0  0  0  0
  146.0898  139.2871  157.5019 H   0  0  0  0  0  0  0  0  0  0  0  0
  144.7818  138.8033  156.4278 H   0  0  0  0  0  0  0  0  0  0  0  0
  144.9489  140.4947  156.8870 H   0  0  0  0  0  0  0  0  0  0  0  0
  147.5068  142.6615  156.4244 H   0  0  0  0  0  0  0  0  0  0  0  0
  147.0771  141.3800  157.4929 H   0  0  0  0  0  0  0  0  0  0  0  0
  149.4141  143.5188  156.8965 H   0  0  0  0  0  0  0  0  0  0  0  0
  151.9072  142.3676  156.8752 H   0  0  0  0  0  0  0  0  0  0  0  0
  150.6539  142.2006  159.6322 H   0  0  0  0  0  0  0  0  0  0  0  0
  151.4276  140.9672  158.7154 H   0  0  0  0  0  0  0  0  0  0  0  0
  153.3371  141.3470  159.8048 H   0  0  0  0  0  0  0  0  0  0  0  0
  153.5055  142.8564  158.9966 H   0  0  0  0  0  0  0  0  0  0  0  0
  152.4201  142.2673  161.7556 H   0  0  0  0  0  0  0  0  0  0  0  0
  153.7111  143.3379  161.3083 H   0  0  0  0  0  0  0  0  0  0  0  0
  150.7033  143.8470  161.1202 H   0  0  0  0  0  0  0  0  0  0  0  0
  151.8842  144.6368  162.0946 H   0  0  0  0  0  0  0  0  0  0  0  0
  151.6048  146.2396  160.5456 H   0  0  0  0  0  0  0  0  0  0  0  0
  152.9568  145.4486  159.8078 H   0  0  0  0  0  0  0  0  0  0  0  0
  150.0264  144.8278  159.0461 H   0  0  0  0  0  0  0  0  0  0  0  0
  150.9011  146.1723  158.3959 H   0  0  0  0  0  0  0  0  0  0  0  0
  152.7295  144.4402  157.6651 H   0  0  0  0  0  0  0  0  0  0  0  0
  151.3325  144.7504  156.7166 H   0  0  0  0  0  0  0  0  0  0  0  0
  1  2  1  0  0  0  0
  1 23  1  0  0  0  0
  1 24  1  0  0  0  0
  1 25  1  0  0  0  0
  2 21  1  0  0  0  0
  2  3  2  0  0  0  0
  3  4  1  0  0  0  0
  4  5  1  0  0  0  0
  4  6  2  0  0  0  0
  5 26  1  0  0  0  0
  5 27  1  0  0  0  0
  5 28  1  0  0  0  0
  6  7  1  0  0  0  0
  6 19  1  0  0  0  0
  7  8  1  0  0  0  0
  7 29  1  0  0  0  0
  7 30  1  0  0  0  0
  8  9  2  0  0  0  0
  8 10  1  0  0  0  0
 10 11  1  0  0  0  0
 10 31  1  0  0  0  0
 11 18  1  0  0  0  0
 11 12  1  0  0  0  0
 11 32  1  0  0  0  0
 12 13  1  0  0  0  0
 12 33  1  0  0  0  0
 12 34  1  0  0  0  0
 13 14  1  0  0  0  0
 13 35  1  0  0  0  0
 13 36  1  0  0  0  0
 14 15  1  0  0  0  0
 14 37  1  0  0  0  0
 14 38  1  0  0  0  0
 15 16  1  0  0  0  0
 15 39  1  0  0  0  0
 15 40  1  0  0  0  0
 16 17  1  0  0  0  0
 16 41  1  0  0  0  0
 16 42  1  0  0  0  0
 17 18  1  0  0  0  0
 17 43  1  0  0  0  0
 17 44  1  0  0  0  0
 18 45  1  0  0  0  0
 18 46  1  0  0  0  0
 19 20  2  0  0  0  0
 19 21  1  0  0  0  0
 21 22  1  0  0  0  0
M  END
> <s_m_source_file>
AV-unprocessed.smi

> <i_m_source_file_index>
1361

> <i_lp_mmshare_version>
43012

> <i_f3d_flags>
0

> <s_epik_input>
W0NIM11jMW5jKFtDSDNdKWMoYyg9TylbbkhdMSlbQ0gyXUMoPU8pW05IXVtDSF0yW0NIMl1bQ0gyXVtDSDJdW0NIMl1bQ0gyXVtDSDJdW0NIMl0y

> <s_epik_cmdline>
J2VwaWtfcHl0aG9uJywgJy1waCcsICc3LjAnLCAnLXRuJywgJzgnLCAnLW1hJywgJzIwMCcsICctbWV0YWxfYmluZGluZycsICctaW1hZScsICc8aW5maWxlLm1hZT4nLCAnLW9tYWUnLCAnPG91dGZpbGUubWFlPic=

> <r_lp_tautomer_probability>
0.839158

> <r_epik_Ionization_Penalty>
0.000386947

> <r_epik_Ionization_Penalty_Charging>
0.000354181

> <r_epik_Ionization_Penalty_Neutral>
3.27662e-05

> <r_epik_State_Penalty>
0.0469431

> <r_epik_Charging_Adjusted_Penalty>
0.0472973

> <i_epik_Tot_Q>
0

> <i_epik_Tot_abs_Q>
0

> <r_epik_Metal_State_Penalty>
0.222645

> <b_epik_Metal_Only>
0

> <s_lp_Force_Field>
OPLS_2005

> <r_lp_Energy>
23.3957

> <b_lp_Chiralities_Consistent>
1

> <s_lp_Variant>
AV-unprocessed.smi:1361-1

> <Gold.Version>
5.8.1

> <Gold.Id.Protein>
6NUR|6NUR_protein|mol2

> <Gold.PLP.Fitness>
53.2753

> <Gold.PLP.PLP>
-46.0965

> <Gold.PLP.part.hbond>
-3.7992

> <Gold.PLP.part.metal>
0.0000

> <Gold.PLP.part.buried>
-4.4107

> <Gold.PLP.part.nonpolar>
-38.1849

> <Gold.PLP.part.repulsive>
0.4928

> <Gold.PLP.ligand.clash>
0.0000

> <Gold.PLP.ligand.torsion>
0.1281

> <Gold.PLP.Chemscore.Hbond>
2.4640

> <Gold.PLP.Chemscore.CHOScore>
0.0000

> <Gold.PLP.Chemscore.Metal>
0.0000

> <Gold.Chemscore.Hbonds>
donor molecule, donor type, donor heavy atom, donor atom, acceptor molecule, acceptor atom, score
      L1  H    10    31       P1  8028  1.00
      L1  H    21    22       P1  7957  1.00
      P1  H  8011  8017       L1    20  0.54

> <Gold.PLP.Chemscore.Internal.Correction>
0.0429

> <Gold.Rescore>
     Score         DG    S(hbond)    S(metal)    S(lipo)     H(rot)  DE(clash)    DE(int)     intcor
     21.57     -22.97       2.59        0.00     107.69       1.47       0.03       1.37       ----

> <Gold.Chemscore.Fitness>
21.5680

> <Gold.Chemscore.DG>
-22.9697

> <Gold.Chemscore.ZeroCoef>
-5.4800

> <Gold.Chemscore.Hbond>
2.5901

> <Gold.Chemscore.Metal>
0.0000

> <Gold.Chemscore.Lipo>
107.6879

> <Gold.Chemscore.Internal_Hbond>
0.0000

> <Gold.Chemscore.DEClash>
0.0312

> <Gold.Chemscore.DEInternal>
1.3705

> <Gold.Chemscore.Rot>
1.4690

> <Gold.Chemscore.Internal.Correction>
   9.000000E+99

> <Gold.Chemscore.Hbonds>
donor molecule, donor type, donor heavy atom, donor atom, acceptor molecule, acceptor atom, score
      L1  H    10    31       P1  8028  0.93
      L1  H    21    22       P1  7957  1.00
      P1  H  8011  8017       L1    20  0.50

> <Gold.Chemscore.Hbond.Weighted>
-8.6509

> <Gold.Chemscore.Metal.Weighted>
-0.0000

> <Gold.Chemscore.Lipo.Weighted>
-12.5995

> <Gold.Chemscore.Internal_Hbond.Weighted>
0.0000

> <Gold.Chemscore.DEClash.Weighted>
0.0312

> <Gold.Chemscore.DEInternal.Weighted>
1.3705

> <Gold.Chemscore.Rot.Weighted>
3.7607

> <Gold.Chemscore.Internal.Correction.Weighted>
   9.000000E+99

> <Gold.Protein.RotatedTorsions>
[ 6907 6896 6895 6894 ] final -139.48 input  -60.11 | X-H torsion
[ 7974 7965 7964 7962 ] final   60.61 input  175.53 | X-H torsion
[ 8008 7997 7996 7995 ] final   55.38 input   59.86 | X-H torsion
[ 10167 10162 10161 10158 ] final -137.23 input  -65.29 | X-H torsion
[ 10718 10713 10712 10709 ] final -121.38 input   66.30 | X-H torsion
[ 10763 10752 10751 10750 ] final  -87.86 input  -60.55 | X-H torsion
[ 11005 11000 10999 10996 ] final  -98.28 input  -57.11 | X-H torsion

> <Gold.Protein.ActiveResidues>
 VAL166  LYS551  ARG553  GLY616  TRP617  ASP618  TYR619  PRO620  LYS621  CYS622 
 ASP623  PHE694  ASN695  SER759  ASP760  ASP761  ALA762  ILE779  LEU786  VAL792 
 PHE793  MET794  SER795  GLU796  ALA797  LYS798  CYS799  TRP800  GLU811  SER814 

> <Gold.Protein.RotatedAtoms>
  151.0484  133.5645  159.2644 H   0  0  0  0  0  0  0  0  0  0  0  0  # atno 6907 bound_to 6896
  151.2666  135.0670  159.9128 H   0  0  0  0  0  0  0  0  0  0  0  0  # atno 6908 bound_to 6896
  152.5377  134.0221  159.8040 H   0  0  0  0  0  0  0  0  0  0  0  0  # atno 6909 bound_to 6896
  145.8941  139.3532  143.0632 H   0  0  0  0  0  0  0  0  0  0  0  0  # atno 7974 bound_to 7965
  155.5001  140.3474  155.4370 H   0  0  0  0  0  0  0  0  0  0  0  0  # atno 8008 bound_to 7997
  156.0919  140.1413  156.9609 H   0  0  0  0  0  0  0  0  0  0  0  0  # atno 8009 bound_to 7997
  154.4640  140.0924  156.6947 H   0  0  0  0  0  0  0  0  0  0  0  0  # atno 8010 bound_to 7997
  139.8599  143.7091  152.2651 H   0  0  0  0  0  0  0  0  0  0  0  0  # atno 10167 bound_to 10162
  156.1333  130.6412  150.9656 H   0  0  0  0  0  0  0  0  0  0  0  0  # atno 10718 bound_to 10713
  154.6382  135.5398  153.7759 H   0  0  0  0  0  0  0  0  0  0  0  0  # atno 10763 bound_to 10752
  153.0320  135.6453  154.1199 H   0  0  0  0  0  0  0  0  0  0  0  0  # atno 10764 bound_to 10752
  154.1125  135.2926  155.3207 H   0  0  0  0  0  0  0  0  0  0  0  0  # atno 10765 bound_to 10752
  141.1350  133.8233  157.0818 H   0  0  0  0  0  0  0  0  0  0  0  0  # atno 11005 bound_to 11000
  145.8872  140.9326  143.0571 LP  0  0  0  0  0  0  0  0  0  0  0  0  # atno 17320 bound_to 7965
  144.6732  140.0858  143.7467 LP  0  0  0  0  0  0  0  0  0  0  0  0  # atno 17321 bound_to 7965
  139.7384  144.7565  151.0691 LP  0  0  0  0  0  0  0  0  0  0  0  0  # atno 17342 bound_to 10162
  140.7776  143.5002  150.9781 LP  0  0  0  0  0  0  0  0  0  0  0  0  # atno 17343 bound_to 10162
  157.6509  131.0897  150.8054 LP  0  0  0  0  0  0  0  0  0  0  0  0  # atno 17370 bound_to 10713
  156.8136  130.4960  149.5352 LP  0  0  0  0  0  0  0  0  0  0  0  0  # atno 17371 bound_to 10713
  140.0447  134.9837  157.1026 LP  0  0  0  0  0  0  0  0  0  0  0  0  # atno 17394 bound_to 11000
  140.4082  134.2010  155.7163 LP  0  0  0  0  0  0  0  0  0  0  0  0  # atno 17395 bound_to 11000

$$$$
