AV-unprocessed.smi:2027|AV-procd|sdf|8220|dock3
  -GOLD-   2272010493D 1   1.00000     0.00000
 Structure written by MMmdl.
 51 53  0  0  0  0  0  0  0  0  3 V2000
  152.2153  144.4566  160.6194 C   0  0  0  0  0  0  0  0  0  0  0  0
  151.9545  143.4116  159.5482 C   0  0  0  0  0  0  0  0  0  0  0  0
  151.1548  143.7676  158.4386 C   0  0  0  0  0  0  0  0  0  0  0  0
  150.9264  142.7873  157.4800 C   0  0  0  0  0  0  0  0  0  0  0  0
  150.1885  142.8220  156.2948 N   0  3  0  0  0  0  0  0  0  0  0  0
  150.2463  141.6045  155.6872 C   0  0  0  0  0  0  0  0  0  0  0  0
  151.0084  140.7912  156.4680 N   0  0  0  0  0  0  0  0  0  0  0  0
  151.3778  139.3819  156.2709 C   0  0  0  0  0  0  0  0  0  0  0  0
  152.0276  139.1037  154.8977 C   0  0  1  0  0  0  0  0  0  0  0  0
  153.4269  139.1880  155.0795 O   0  0  0  0  0  0  0  0  0  0  0  0
  151.6675  137.7169  154.3164 C   0  0  0  0  0  0  0  0  0  0  0  0
  150.2087  137.4170  154.2983 N   0  3  2  0  0  0  0  0  0  0  0  0
  149.3706  138.6190  154.0731 C   0  0  0  0  0  0  0  0  0  0  0  0
  149.7587  136.6617  155.4975 C   0  0  0  0  0  0  0  0  0  0  0  0
  150.0411  135.1865  155.3793 C   0  0  0  0  0  0  0  0  0  0  0  0
  150.9456  134.4047  156.1551 C   0  0  0  0  0  0  0  0  0  0  0  0
  150.9753  133.1354  155.7865 N   0  0  0  0  0  0  0  0  0  0  0  0
  150.0849  133.0579  154.7763 N   0  0  0  0  0  0  0  0  0  0  0  0
  149.8550  131.7868  154.1238 C   0  0  0  0  0  0  0  0  0  0  0  0
  149.5021  134.2784  154.5118 C   0  0  0  0  0  0  0  0  0  0  0  0
  151.4659  141.4910  157.5925 C   0  0  0  0  0  0  0  0  0  0  0  0
  152.2672  141.1288  158.6739 C   0  0  0  0  0  0  0  0  0  0  0  0
  152.5046  142.1088  159.6634 C   0  0  0  0  0  0  0  0  0  0  0  0
  153.3629  141.7351  160.8601 C   0  0  0  0  0  0  0  0  0  0  0  0
  151.6924  145.3888  160.4037 H   0  0  0  0  0  0  0  0  0  0  0  0
  153.2807  144.6785  160.6857 H   0  0  0  0  0  0  0  0  0  0  0  0
  151.8737  144.1023  161.5922 H   0  0  0  0  0  0  0  0  0  0  0  0
  150.7351  144.7586  158.3434 H   0  0  0  0  0  0  0  0  0  0  0  0
  149.7714  141.3332  154.7551 H   0  0  0  0  0  0  0  0  0  0  0  0
  152.0715  139.1173  157.0703 H   0  0  0  0  0  0  0  0  0  0  0  0
  150.4946  138.7604  156.4225 H   0  0  0  0  0  0  0  0  0  0  0  0
  151.7217  139.8938  154.2125 H   0  0  0  0  0  0  0  0  0  0  0  0
  153.8580  138.9352  154.2776 H   0  0  0  0  0  0  0  0  0  0  0  0
  152.0612  137.6804  153.3022 H   0  0  0  0  0  0  0  0  0  0  0  0
  152.1732  136.9260  154.8716 H   0  0  0  0  0  0  0  0  0  0  0  0
  149.5291  139.3592  154.8585 H   0  0  0  0  0  0  0  0  0  0  0  0
  148.3119  138.3571  154.0632 H   0  0  0  0  0  0  0  0  0  0  0  0
  149.5867  139.0845  153.1126 H   0  0  0  0  0  0  0  0  0  0  0  0
  150.2359  137.0839  156.3833 H   0  0  0  0  0  0  0  0  0  0  0  0
  148.6877  136.8159  155.6344 H   0  0  0  0  0  0  0  0  0  0  0  0
  151.5880  134.7243  156.9627 H   0  0  0  0  0  0  0  0  0  0  0  0
  149.1325  131.9064  153.3159 H   0  0  0  0  0  0  0  0  0  0  0  0
  149.4652  131.0667  154.8439 H   0  0  0  0  0  0  0  0  0  0  0  0
  150.7902  131.4096  153.7088 H   0  0  0  0  0  0  0  0  0  0  0  0
  148.7649  134.3997  153.7315 H   0  0  0  0  0  0  0  0  0  0  0  0
  152.6898  140.1394  158.7665 H   0  0  0  0  0  0  0  0  0  0  0  0
  153.7268  140.7097  160.7867 H   0  0  0  0  0  0  0  0  0  0  0  0
  152.7892  141.8178  161.7835 H   0  0  0  0  0  0  0  0  0  0  0  0
  154.2302  142.3917  160.9303 H   0  0  0  0  0  0  0  0  0  0  0  0
  150.0498  136.8047  153.5109 H   0  0  0  0  0  0  0  0  0  0  0  0
  149.6832  143.6172  155.9245 H   0  0  0  0  0  0  0  0  0  0  0  0
  1  2  1  0  0  0  0
  1 25  1  0  0  0  0
  1 26  1  0  0  0  0
  1 27  1  0  0  0  0
  2 23  1  0  0  0  0
  2  3  2  0  0  0  0
  3  4  1  0  0  0  0
  3 28  1  0  0  0  0
  4 21  2  0  0  0  0
  4  5  1  0  0  0  0
  5  6  2  0  0  0  0
  5 51  1  0  0  0  0
  6  7  1  0  0  0  0
  6 29  1  0  0  0  0
  7  8  1  0  0  0  0
  7 21  1  0  0  0  0
  8  9  1  0  0  0  0
  8 30  1  0  0  0  0
  8 31  1  0  0  0  0
  9 10  1  0  0  0  0
  9 11  1  0  0  0  0
  9 32  1  0  0  0  0
 10 33  1  0  0  0  0
 11 12  1  0  0  0  0
 11 34  1  0  0  0  0
 11 35  1  0  0  0  0
 12 13  1  0  0  0  0
 12 14  1  0  0  0  0
 12 50  1  0  0  0  0
 13 36  1  0  0  0  0
 13 37  1  0  0  0  0
 13 38  1  0  0  0  0
 14 15  1  0  0  0  0
 14 39  1  0  0  0  0
 14 40  1  0  0  0  0
 15 20  2  0  0  0  0
 15 16  1  0  0  0  0
 16 17  2  0  0  0  0
 16 41  1  0  0  0  0
 17 18  1  0  0  0  0
 18 19  1  0  0  0  0
 18 20  1  0  0  0  0
 19 42  1  0  0  0  0
 19 43  1  0  0  0  0
 19 44  1  0  0  0  0
 20 45  1  0  0  0  0
 21 22  1  0  0  0  0
 22 23  2  0  0  0  0
 22 46  1  0  0  0  0
 23 24  1  0  0  0  0
 24 47  1  0  0  0  0
 24 48  1  0  0  0  0
 24 49  1  0  0  0  0
M  CHG  1   5   1
M  CHG  1  12   1
M  END
> <s_m_source_file>
AV-unprocessed.smi

> <i_m_source_file_index>
2027

> <i_lp_mmshare_version>
43012

> <i_f3d_flags>
0

> <s_epik_input>
W0NIM11jKFtjSF0xKWMoW0NIM10pW2NIXWMoYzEyKW4oW2NIXW4yKVtDSDJdW0NASF0oW09IXSlbQ0gyXU4oW0NIM10pW0NIMl1jM1tjSF1ubihbQ0gzXSlbY0hdMw==

> <s_epik_cmdline>
J2VwaWtfcHl0aG9uJywgJy1waCcsICc3LjAnLCAnLXRuJywgJzgnLCAnLW1hJywgJzIwMCcsICctbWV0YWxfYmluZGluZycsICctaW1hZScsICc8aW5maWxlLm1hZT4nLCAnLW9tYWUnLCAnPG91dGZpbGUubWFlPic=

> <r_lp_tautomer_probability>
1

> <r_epik_Ionization_Penalty>
1.77469

> <r_epik_Ionization_Penalty_Charging>
1.77463

> <r_epik_Ionization_Penalty_Neutral>
6.41153e-05

> <r_epik_State_Penalty>
1.85225

> <r_epik_Charging_Adjusted_Penalty>
3.62688

> <i_epik_Tot_Q>
2

> <i_epik_Tot_abs_Q>
2

> <r_epik_Metal_State_Penalty>
1.92669

> <b_epik_Metal_Only>
0

> <s_lp_Force_Field>
OPLS_2005

> <r_lp_Energy>
22.5678

> <b_lp_Chiralities_Consistent>
1

> <s_lp_Variant>
AV-unprocessed.smi:2027-12

> <Gold.Version>
5.8.1

> <Gold.Id.Protein>
6NUR|6NUR_protein|mol2

> <Gold.PLP.Fitness>
68.9029

> <Gold.PLP.PLP>
-53.7195

> <Gold.PLP.part.hbond>
-2.9554

> <Gold.PLP.part.metal>
0.0000

> <Gold.PLP.part.buried>
-7.1966

> <Gold.PLP.part.nonpolar>
-44.3619

> <Gold.PLP.part.repulsive>
0.1373

> <Gold.PLP.ligand.clash>
0.0000

> <Gold.PLP.ligand.torsion>
1.2543

> <Gold.PLP.Chemscore.Hbond>
5.0000

> <Gold.PLP.Chemscore.CHOScore>
0.8477

> <Gold.PLP.Chemscore.Metal>
0.0000

> <Gold.Chemscore.Hbonds>
donor molecule, donor type, donor heavy atom, donor atom, acceptor molecule, acceptor atom, score
      L1  H     5    51       P1  8028  1.27
      L1  H    12    50       P1  7948  1.80
      P1  H  7997  8009       L1    10  1.00
      L1  C    20    45       P1  7948  0.74

> <Gold.PLP.Chemscore.Internal.Correction>
0.1488

> <Gold.Rescore>
     Score         DG    S(hbond)    S(metal)    S(lipo)     H(rot)  DE(clash)    DE(int)     intcor
     21.16     -22.24       2.64        0.00     124.46       2.58       0.01       1.07       ----

> <Gold.Chemscore.Fitness>
21.1643

> <Gold.Chemscore.DG>
-22.2396

> <Gold.Chemscore.ZeroCoef>
-5.4800

> <Gold.Chemscore.Hbond>
2.6382

> <Gold.Chemscore.Metal>
0.0000

> <Gold.Chemscore.Lipo>
124.4606

> <Gold.Chemscore.Internal_Hbond>
0.0000

> <Gold.Chemscore.DEClash>
0.0060

> <Gold.Chemscore.DEInternal>
1.0693

> <Gold.Chemscore.Rot>
2.5836

> <Gold.Chemscore.Internal.Correction>
   9.000000E+99

> <Gold.Chemscore.Hbonds>
donor molecule, donor type, donor heavy atom, donor atom, acceptor molecule, acceptor atom, score
      L1  H     5    51       P1  8028  0.63
      L1  H    12    50       P1  7948  0.16
      P1  H  7997  8009       L1    10  0.60

> <Gold.Chemscore.Hbond.Weighted>
-8.8116

> <Gold.Chemscore.Metal.Weighted>
-0.0000

> <Gold.Chemscore.Lipo.Weighted>
-14.5619

> <Gold.Chemscore.Internal_Hbond.Weighted>
0.0000

> <Gold.Chemscore.DEClash.Weighted>
0.0060

> <Gold.Chemscore.DEInternal.Weighted>
1.0693

> <Gold.Chemscore.Rot.Weighted>
6.6139

> <Gold.Chemscore.Internal.Correction.Weighted>
   9.000000E+99

> <Gold.Protein.RotatedTorsions>
[ 6907 6896 6895 6894 ] final   11.45 input  -60.11 | X-H torsion
[ 7974 7965 7964 7962 ] final -165.68 input  175.53 | X-H torsion
[ 8008 7997 7996 7995 ] final -136.16 input   59.86 | X-H torsion
[ 10167 10162 10161 10158 ] final   85.39 input  -65.29 | X-H torsion
[ 10718 10713 10712 10709 ] final  168.67 input   66.30 | X-H torsion
[ 10763 10752 10751 10750 ] final  141.52 input  -60.55 | X-H torsion
[ 11005 11000 10999 10996 ] final   65.81 input  -57.11 | X-H torsion

> <Gold.Protein.ActiveResidues>
 VAL166  LYS551  ARG553  GLY616  TRP617  ASP618  TYR619  PRO620  LYS621  CYS622 
 ASP623  PHE694  ASN695  SER759  ASP760  ASP761  ALA762  ILE779  LEU786  VAL792 
 PHE793  MET794  SER795  GLU796  ALA797  LYS798  CYS799  TRP800  GLU811  SER814 

> <Gold.Protein.RotatedAtoms>
  151.7545  135.0825  160.0335 H   0  0  0  0  0  0  0  0  0  0  0  0  # atno 6907 bound_to 6896
  152.3395  133.6046  159.5874 H   0  0  0  0  0  0  0  0  0  0  0  0  # atno 6908 bound_to 6896
  150.7470  133.9661  159.3572 H   0  0  0  0  0  0  0  0  0  0  0  0  # atno 6909 bound_to 6896
  144.7264  140.2779  143.6240 H   0  0  0  0  0  0  0  0  0  0  0  0  # atno 7974 bound_to 7965
  155.3907  140.0500  157.3041 H   0  0  0  0  0  0  0  0  0  0  0  0  # atno 8008 bound_to 7997
  154.5037  140.2166  155.9255 H   0  0  0  0  0  0  0  0  0  0  0  0  # atno 8009 bound_to 7997
  156.1500  140.3138  155.8637 H   0  0  0  0  0  0  0  0  0  0  0  0  # atno 8010 bound_to 7997
  139.8983  144.6345  150.8665 H   0  0  0  0  0  0  0  0  0  0  0  0  # atno 10167 bound_to 10162
  157.0338  131.0267  151.2736 H   0  0  0  0  0  0  0  0  0  0  0  0  # atno 10718 bound_to 10713
  153.9407  135.2980  155.3443 H   0  0  0  0  0  0  0  0  0  0  0  0  # atno 10763 bound_to 10752
  154.7479  135.4994  153.9239 H   0  0  0  0  0  0  0  0  0  0  0  0  # atno 10764 bound_to 10752
  153.1044  135.6743  153.9720 H   0  0  0  0  0  0  0  0  0  0  0  0  # atno 10765 bound_to 10752
  139.9871  134.6650  156.0157 H   0  0  0  0  0  0  0  0  0  0  0  0  # atno 11005 bound_to 11000
  145.7979  139.1952  143.2065 LP  0  0  0  0  0  0  0  0  0  0  0  0  # atno 17320 bound_to 7965
  146.0701  140.7878  142.9692 LP  0  0  0  0  0  0  0  0  0  0  0  0  # atno 17321 bound_to 7965
  140.7712  143.3457  151.2117 LP  0  0  0  0  0  0  0  0  0  0  0  0  # atno 17342 bound_to 10162
  139.7048  143.9473  152.2922 LP  0  0  0  0  0  0  0  0  0  0  0  0  # atno 17343 bound_to 10162
  157.5157  130.7966  149.7754 LP  0  0  0  0  0  0  0  0  0  0  0  0  # atno 17370 bound_to 10713
  156.0061  130.3855  150.2428 LP  0  0  0  0  0  0  0  0  0  0  0  0  # atno 17371 bound_to 10713
  141.1534  133.6545  156.4084 LP  0  0  0  0  0  0  0  0  0  0  0  0  # atno 17394 bound_to 11000
  140.4981  134.6512  157.5237 LP  0  0  0  0  0  0  0  0  0  0  0  0  # atno 17395 bound_to 11000

$$$$
