AV-unprocessed.smi:1796|AV-procd|sdf|7253|dock9
  -GOLD-   22720 8503D 1   1.00000     0.00000
 Structure written by MMmdl.
 42 43  0  0  0  0  0  0  0  0  1 V2000
  157.1367  137.0146  165.7408 C   0  0  0  0  0  0  0  0  0  0  0  0
  156.9728  138.0999  164.6742 C   0  0  0  0  0  0  0  0  0  0  0  0
  157.9856  138.6723  164.2715 O   0  0  0  0  0  0  0  0  0  0  0  0
  155.7326  138.3977  164.2173 N   0  0  0  0  0  0  0  0  0  0  0  0
  154.5350  137.6574  164.6327 C   0  0  0  0  0  0  0  0  0  0  0  0
  154.0444  136.8073  163.4468 C   0  0  0  0  0  0  0  0  0  0  0  0
  153.7917  137.6830  162.2046 C   0  0  0  0  0  0  0  0  0  0  0  0
  155.0022  138.5927  161.8868 C   0  0  1  0  0  0  0  0  0  0  0  0
  154.6764  139.5544  160.7381 C   0  0  0  0  0  0  0  0  0  0  0  0
  155.1486  139.3618  159.6174 O   0  0  0  0  0  0  0  0  0  0  0  0
  153.8798  140.5935  161.0364 N   0  0  0  0  0  0  0  0  0  0  0  0
  153.4852  141.6586  160.1150 C   0  0  1  0  0  0  0  0  0  0  0  0
  152.7063  141.0424  158.9450 C   0  0  0  0  0  0  0  0  0  0  0  0
  152.6483  142.7317  160.8443 C   0  0  0  0  0  0  0  0  0  0  0  0
  151.9375  143.6081  159.9299 N   0  0  0  0  0  0  0  0  0  0  0  0
  152.4524  144.3826  158.9114 C   0  0  0  0  0  0  0  0  0  0  0  0
  151.4021  145.0168  158.3129 C   0  0  0  0  0  0  0  0  0  0  0  0
  150.2710  144.5647  159.0488 C   0  0  0  0  0  0  0  0  0  0  0  0
  150.5951  143.7246  160.0185 N   0  0  0  0  0  0  0  0  0  0  0  0
  155.4292  139.3654  163.1551 C   0  0  0  0  0  0  0  0  0  0  0  0
  156.5574  137.2569  166.6322 H   0  0  0  0  0  0  0  0  0  0  0  0
  158.1817  136.9232  166.0387 H   0  0  0  0  0  0  0  0  0  0  0  0
  156.8135  136.0459  165.3587 H   0  0  0  0  0  0  0  0  0  0  0  0
  154.7108  137.0197  165.5000 H   0  0  0  0  0  0  0  0  0  0  0  0
  153.7597  138.3627  164.9353 H   0  0  0  0  0  0  0  0  0  0  0  0
  154.7906  136.0471  163.2117 H   0  0  0  0  0  0  0  0  0  0  0  0
  153.1337  136.2733  163.7190 H   0  0  0  0  0  0  0  0  0  0  0  0
  153.5587  137.0494  161.3479 H   0  0  0  0  0  0  0  0  0  0  0  0
  152.9050  138.2938  162.3831 H   0  0  0  0  0  0  0  0  0  0  0  0
  155.8356  137.9574  161.5803 H   0  0  0  0  0  0  0  0  0  0  0  0
  153.5372  140.6657  161.9835 H   0  0  0  0  0  0  0  0  0  0  0  0
  154.3735  142.1330  159.6937 H   0  0  0  0  0  0  0  0  0  0  0  0
  152.4269  141.8041  158.2165 H   0  0  0  0  0  0  0  0  0  0  0  0
  151.7911  140.5579  159.2870 H   0  0  0  0  0  0  0  0  0  0  0  0
  153.3057  140.2948  158.4243 H   0  0  0  0  0  0  0  0  0  0  0  0
  151.9133  142.2564  161.4957 H   0  0  0  0  0  0  0  0  0  0  0  0
  153.2842  143.3410  161.4880 H   0  0  0  0  0  0  0  0  0  0  0  0
  153.5100  144.4097  158.6945 H   0  0  0  0  0  0  0  0  0  0  0  0
  151.4359  145.6981  157.4758 H   0  0  0  0  0  0  0  0  0  0  0  0
  149.2311  144.8202  158.9084 H   0  0  0  0  0  0  0  0  0  0  0  0
  154.6213  140.0159  163.4954 H   0  0  0  0  0  0  0  0  0  0  0  0
  156.2591  140.0346  162.9306 H   0  0  0  0  0  0  0  0  0  0  0  0
  1  2  1  0  0  0  0
  1 21  1  0  0  0  0
  1 22  1  0  0  0  0
  1 23  1  0  0  0  0
  2  3  2  0  0  0  0
  2  4  1  0  0  0  0
  4 20  1  0  0  0  0
  4  5  1  0  0  0  0
  5  6  1  0  0  0  0
  5 24  1  0  0  0  0
  5 25  1  0  0  0  0
  6  7  1  0  0  0  0
  6 26  1  0  0  0  0
  6 27  1  0  0  0  0
  7  8  1  0  0  0  0
  7 28  1  0  0  0  0
  7 29  1  0  0  0  0
  8  9  1  0  0  0  0
  8 20  1  0  0  0  0
  8 30  1  0  0  0  0
  9 10  2  0  0  0  0
  9 11  1  0  0  0  0
 11 12  1  0  0  0  0
 11 31  1  0  0  0  0
 12 13  1  0  0  0  0
 12 14  1  0  0  0  0
 12 32  1  0  0  0  0
 13 33  1  0  0  0  0
 13 34  1  0  0  0  0
 13 35  1  0  0  0  0
 14 15  1  0  0  0  0
 14 36  1  0  0  0  0
 14 37  1  0  0  0  0
 15 19  1  0  0  0  0
 15 16  1  0  0  0  0
 16 17  2  0  0  0  0
 16 38  1  0  0  0  0
 17 18  1  0  0  0  0
 17 39  1  0  0  0  0
 18 19  2  0  0  0  0
 18 40  1  0  0  0  0
 20 41  1  0  0  0  0
 20 42  1  0  0  0  0
M  END
> <s_m_source_file>
AV-unprocessed.smi

> <i_m_source_file_index>
1796

> <i_lp_mmshare_version>
43012

> <i_f3d_flags>
0

> <s_epik_input>
W0NIM11DKD1PKU4xW0NIMl1bQ0gyXVtDSDJdW0NASF0oW0NIMl0xKUMoPU8pW05IXVtDQEhdKFtDSDNdKVtDSDJdbjJbY0hdW2NIXVtjSF1uMg==

> <s_epik_cmdline>
J2VwaWtfcHl0aG9uJywgJy1waCcsICc3LjAnLCAnLXRuJywgJzgnLCAnLW1hJywgJzIwMCcsICctbWV0YWxfYmluZGluZycsICctaW1hZScsICc8aW5maWxlLm1hZT4nLCAnLW9tYWUnLCAnPG91dGZpbGUubWFlPic=

> <r_lp_tautomer_probability>
1

> <r_epik_Ionization_Penalty>
0.000315051

> <r_epik_Ionization_Penalty_Charging>
0

> <r_epik_Ionization_Penalty_Neutral>
0.000315051

> <r_epik_State_Penalty>
-0

> <r_epik_Charging_Adjusted_Penalty>
0

> <i_epik_Tot_Q>
0

> <i_epik_Tot_abs_Q>
0

> <r_epik_Metal_State_Penalty>
-0

> <b_epik_Metal_Only>
0

> <s_lp_Force_Field>
OPLS_2005

> <r_lp_Energy>
22.8088

> <b_lp_Chiralities_Consistent>
1

> <s_lp_Variant>
AV-unprocessed.smi:1796-3

> <Gold.Version>
5.8.1

> <Gold.Id.Protein>
6NUR|6NUR_protein|mol2

> <Gold.PLP.Fitness>
46.6129

> <Gold.PLP.PLP>
-41.5739

> <Gold.PLP.part.hbond>
-1.7586

> <Gold.PLP.part.metal>
0.0000

> <Gold.PLP.part.buried>
-4.9605

> <Gold.PLP.part.nonpolar>
-33.4045

> <Gold.PLP.part.repulsive>
0.1346

> <Gold.PLP.ligand.clash>
0.0000

> <Gold.PLP.ligand.torsion>
0.4740

> <Gold.PLP.Chemscore.Hbond>
0.9913

> <Gold.PLP.Chemscore.CHOScore>
0.9953

> <Gold.PLP.Chemscore.Metal>
0.0000

> <Gold.Chemscore.Hbonds>
donor molecule, donor type, donor heavy atom, donor atom, acceptor molecule, acceptor atom, score
      P1  H  7997  8010       L1    10  0.19
      L1  C    18    40       P1  8029  1.00

> <Gold.PLP.Chemscore.Internal.Correction>
0.0272

> <Gold.Rescore>
     Score         DG    S(hbond)    S(metal)    S(lipo)     H(rot)  DE(clash)    DE(int)     intcor
     15.55     -16.67       0.99        0.00     103.11       1.63       0.03       1.10       ----

> <Gold.Chemscore.Fitness>
15.5451

> <Gold.Chemscore.DG>
-16.6737

> <Gold.Chemscore.ZeroCoef>
-5.4800

> <Gold.Chemscore.Hbond>
0.9916

> <Gold.Chemscore.Metal>
0.0000

> <Gold.Chemscore.Lipo>
103.1100

> <Gold.Chemscore.Internal_Hbond>
0.0000

> <Gold.Chemscore.DEClash>
0.0296

> <Gold.Chemscore.DEInternal>
1.0991

> <Gold.Chemscore.Rot>
1.6336

> <Gold.Chemscore.Internal.Correction>
   9.000000E+99

> <Gold.Chemscore.Hbonds>
donor molecule, donor type, donor heavy atom, donor atom, acceptor molecule, acceptor atom, score
      P1  H  7997  8010       L1    10  0.21

> <Gold.Chemscore.Hbond.Weighted>
-3.3120

> <Gold.Chemscore.Metal.Weighted>
-0.0000

> <Gold.Chemscore.Lipo.Weighted>
-12.0639

> <Gold.Chemscore.Internal_Hbond.Weighted>
0.0000

> <Gold.Chemscore.DEClash.Weighted>
0.0296

> <Gold.Chemscore.DEInternal.Weighted>
1.0991

> <Gold.Chemscore.Rot.Weighted>
4.1821

> <Gold.Chemscore.Internal.Correction.Weighted>
   9.000000E+99

> <Gold.Protein.RotatedTorsions>
[ 6907 6896 6895 6894 ] final -173.17 input  -60.11 | X-H torsion
[ 7974 7965 7964 7962 ] final   71.28 input  175.53 | X-H torsion
[ 8008 7997 7996 7995 ] final  -12.25 input   59.86 | X-H torsion
[ 10167 10162 10161 10158 ] final  -77.44 input  -65.29 | X-H torsion
[ 10718 10713 10712 10709 ] final   50.84 input   66.30 | X-H torsion
[ 10763 10752 10751 10750 ] final -154.15 input  -60.55 | X-H torsion
[ 11005 11000 10999 10996 ] final  -25.98 input  -57.11 | X-H torsion

> <Gold.Protein.ActiveResidues>
 VAL166  LYS551  ARG553  GLY616  TRP617  ASP618  TYR619  PRO620  LYS621  CYS622 
 ASP623  PHE694  ASN695  SER759  ASP760  ASP761  ALA762  ILE779  LEU786  VAL792 
 PHE793  MET794  SER795  GLU796  ALA797  LYS798  CYS799  TRP800  GLU811  SER814 

> <Gold.Protein.RotatedAtoms>
  151.5519  133.3416  159.2954 H   0  0  0  0  0  0  0  0  0  0  0  0  # atno 6907 bound_to 6896
  150.8473  134.7790  159.6992 H   0  0  0  0  0  0  0  0  0  0  0  0  # atno 6908 bound_to 6896
  152.4528  134.5364  159.9878 H   0  0  0  0  0  0  0  0  0  0  0  0  # atno 6909 bound_to 6896
  145.7678  139.2829  143.1339 H   0  0  0  0  0  0  0  0  0  0  0  0  # atno 7974 bound_to 7965
  154.5394  140.2281  155.8667 H   0  0  0  0  0  0  0  0  0  0  0  0  # atno 8008 bound_to 7997
  156.1843  140.3092  155.9171 H   0  0  0  0  0  0  0  0  0  0  0  0  # atno 8009 bound_to 7997
  155.3288  140.0444  157.3032 H   0  0  0  0  0  0  0  0  0  0  0  0  # atno 8010 bound_to 7997
  140.4770  143.2412  151.8118 H   0  0  0  0  0  0  0  0  0  0  0  0  # atno 10167 bound_to 10162
  157.4923  130.8384  149.8218 H   0  0  0  0  0  0  0  0  0  0  0  0  # atno 10718 bound_to 10713
  154.7878  135.3196  154.7845 H   0  0  0  0  0  0  0  0  0  0  0  0  # atno 10763 bound_to 10752
  153.8541  135.6859  153.4793 H   0  0  0  0  0  0  0  0  0  0  0  0  # atno 10764 bound_to 10752
  153.1537  135.4689  154.9613 H   0  0  0  0  0  0  0  0  0  0  0  0  # atno 10765 bound_to 10752
  140.8987  133.7538  156.0516 H   0  0  0  0  0  0  0  0  0  0  0  0  # atno 11005 bound_to 11000
  146.0200  140.8356  142.9928 LP  0  0  0  0  0  0  0  0  0  0  0  0  # atno 17320 bound_to 7965
  144.6818  140.2615  143.7318 LP  0  0  0  0  0  0  0  0  0  0  0  0  # atno 17321 bound_to 7965
  139.4827  144.4821  151.9293 LP  0  0  0  0  0  0  0  0  0  0  0  0  # atno 17342 bound_to 10162
  140.3906  144.2620  150.5900 LP  0  0  0  0  0  0  0  0  0  0  0  0  # atno 17343 bound_to 10162
  156.0181  130.3806  150.2048 LP  0  0  0  0  0  0  0  0  0  0  0  0  # atno 17370 bound_to 10713
  157.0237  130.9987  151.3332 LP  0  0  0  0  0  0  0  0  0  0  0  0  # atno 17371 bound_to 10713
  140.8256  134.3238  157.5366 LP  0  0  0  0  0  0  0  0  0  0  0  0  # atno 17394 bound_to 11000
  139.8739  134.9334  156.3580 LP  0  0  0  0  0  0  0  0  0  0  0  0  # atno 17395 bound_to 11000

$$$$
