AV-unprocessed.smi:2247|AV-procd|sdf|9093|dock7
  -GOLD-   2272012293D 1   1.00000     0.00000
 Structure written by MMmdl.
 33 34  0  0  0  0  0  0  0  0  2 V2000
  152.5910  141.9026  160.6867 C   0  0  0  0  0  0  0  0  0  0  0  0
  152.8648  142.0280  159.1766 C   0  0  0  0  0  0  0  0  0  0  0  0
  152.6738  143.4710  158.6825 C   0  0  0  0  0  0  0  0  0  0  0  0
  152.0548  141.1029  158.3709 N   0  0  0  0  0  0  0  0  0  0  0  0
  151.2553  141.5435  157.2392 C   0  0  0  0  0  0  0  0  0  0  0  0
  150.8122  140.2521  156.5448 C   0  0  0  0  0  0  0  0  0  0  0  0
  151.0451  139.1098  157.5464 C   0  0  2  0  0  0  0  0  0  0  0  0
  149.7744  138.7165  158.1526 N   0  0  0  0  0  0  0  0  0  0  0  0
  149.5756  137.6627  158.9579 C   0  0  0  0  0  0  0  0  0  0  0  0
  150.5180  136.9211  159.2454 O   0  0  0  0  0  0  0  0  0  0  0  0
  148.2968  137.5336  159.3775 N   0  5  0  0  0  0  0  0  0  0  0  0
  148.0040  136.6826  160.3739 C   0  0  0  0  0  0  0  0  0  0  0  0
  148.0209  135.3502  160.3064 N   0  0  0  0  0  0  0  0  0  0  0  0
  147.6601  134.9025  161.5680 C   0  0  0  0  0  0  0  0  0  0  0  0
  147.4452  135.9992  162.3571 C   0  0  0  0  0  0  0  0  0  0  0  0
  147.6626  137.1278  161.6164 O   0  0  0  0  0  0  0  0  0  0  0  0
  151.9392  139.7846  158.5851 C   0  0  0  0  0  0  0  0  0  0  0  0
  152.4976  139.1550  159.4833 O   0  0  0  0  0  0  0  0  0  0  0  0
  153.2717  142.5361  161.2559 H   0  0  0  0  0  0  0  0  0  0  0  0
  152.7364  140.8781  161.0307 H   0  0  0  0  0  0  0  0  0  0  0  0
  151.5756  142.2052  160.9437 H   0  0  0  0  0  0  0  0  0  0  0  0
  153.9136  141.7642  159.0294 H   0  0  0  0  0  0  0  0  0  0  0  0
  153.3014  144.1636  159.2439 H   0  0  0  0  0  0  0  0  0  0  0  0
  151.6382  143.7933  158.7949 H   0  0  0  0  0  0  0  0  0  0  0  0
  152.9405  143.5685  157.6295 H   0  0  0  0  0  0  0  0  0  0  0  0
  150.3890  142.1003  157.5988 H   0  0  0  0  0  0  0  0  0  0  0  0
  151.8245  142.1855  156.5659 H   0  0  0  0  0  0  0  0  0  0  0  0
  149.7817  140.3110  156.1917 H   0  0  0  0  0  0  0  0  0  0  0  0
  151.4370  140.0865  155.6660 H   0  0  0  0  0  0  0  0  0  0  0  0
  151.5502  138.2653  157.0745 H   0  0  0  0  0  0  0  0  0  0  0  0
  148.9752  139.2984  157.9498 H   0  0  0  0  0  0  0  0  0  0  0  0
  147.5872  133.8510  161.8022 H   0  0  0  0  0  0  0  0  0  0  0  0
  147.1565  136.1407  163.3879 H   0  0  0  0  0  0  0  0  0  0  0  0
  1  2  1  0  0  0  0
  1 19  1  0  0  0  0
  1 20  1  0  0  0  0
  1 21  1  0  0  0  0
  2  3  1  0  0  0  0
  2  4  1  0  0  0  0
  2 22  1  0  0  0  0
  3 23  1  0  0  0  0
  3 24  1  0  0  0  0
  3 25  1  0  0  0  0
  4 17  1  0  0  0  0
  4  5  1  0  0  0  0
  5  6  1  0  0  0  0
  5 26  1  0  0  0  0
  5 27  1  0  0  0  0
  6  7  1  0  0  0  0
  6 28  1  0  0  0  0
  6 29  1  0  0  0  0
  7  8  1  0  0  0  0
  7 17  1  0  0  0  0
  7 30  1  0  0  0  0
  8  9  1  0  0  0  0
  8 31  1  0  0  0  0
  9 10  2  0  0  0  0
  9 11  1  0  0  0  0
 11 12  1  0  0  0  0
 12 16  1  0  0  0  0
 12 13  2  0  0  0  0
 13 14  1  0  0  0  0
 14 15  2  0  0  0  0
 14 32  1  0  0  0  0
 15 16  1  0  0  0  0
 15 33  1  0  0  0  0
 17 18  2  0  0  0  0
M  CHG  1  11  -1
M  END
> <s_m_source_file>
AV-unprocessed.smi

> <i_m_source_file_index>
2247

> <i_lp_mmshare_version>
43012

> <i_f3d_flags>
0

> <s_epik_input>
W0NIM11bQ0hdKFtDSDNdKU4xW0NIMl1bQ0gyXVtDQEhdKEMxPU8pW05IXUMoPU8pW05IXWMybltjSF1bY0hdbzI=

> <s_epik_cmdline>
J2VwaWtfcHl0aG9uJywgJy1waCcsICc3LjAnLCAnLXRuJywgJzgnLCAnLW1hJywgJzIwMCcsICctbWV0YWxfYmluZGluZycsICctaW1hZScsICc8aW5maWxlLm1hZT4nLCAnLW9tYWUnLCAnPG91dGZpbGUubWFlPic=

> <r_lp_tautomer_probability>
0.785861

> <r_epik_Ionization_Penalty>
8.37364

> <r_epik_Ionization_Penalty_Charging>
6.20178

> <r_epik_Ionization_Penalty_Neutral>
2.17186

> <r_epik_State_Penalty>
6.22234

> <r_epik_Charging_Adjusted_Penalty>
12.4241

> <i_epik_Tot_Q>
-1

> <i_epik_Tot_abs_Q>
1

> <r_epik_Metal_State_Penalty>
2.14252

> <b_epik_Metal_Only>
1

> <s_lp_Force_Field>
OPLS_2005

> <r_lp_Energy>
16.3016

> <b_lp_Chiralities_Consistent>
1

> <s_lp_Variant>
AV-unprocessed.smi:2247-8

> <Gold.Version>
5.8.1

> <Gold.Id.Protein>
6NUR|6NUR_protein|mol2

> <Gold.PLP.Fitness>
40.3406

> <Gold.PLP.PLP>
-33.9921

> <Gold.PLP.part.hbond>
-3.6622

> <Gold.PLP.part.metal>
0.0000

> <Gold.PLP.part.buried>
-5.0294

> <Gold.PLP.part.nonpolar>
-25.9003

> <Gold.PLP.part.repulsive>
0.1275

> <Gold.PLP.ligand.clash>
0.0000

> <Gold.PLP.ligand.torsion>
0.9320

> <Gold.PLP.Chemscore.Hbond>
2.7113

> <Gold.PLP.Chemscore.CHOScore>
0.0000

> <Gold.PLP.Chemscore.Metal>
0.0000

> <Gold.Chemscore.Hbonds>
donor molecule, donor type, donor heavy atom, donor atom, acceptor molecule, acceptor atom, score
      P1  H  6896  6909       L1    10  0.91
      P1  H  6931  6943       L1    16  1.00
      P1  H  6934  6947       L1    16  0.49

> <Gold.PLP.Chemscore.Internal.Correction>
0.0786

> <Gold.Rescore>
     Score         DG    S(hbond)    S(metal)    S(lipo)     H(rot)  DE(clash)    DE(int)     intcor
     14.74     -17.81       2.36        0.00      67.04       1.32       0.03       3.04       ----

> <Gold.Chemscore.Fitness>
14.7449

> <Gold.Chemscore.DG>
-17.8138

> <Gold.Chemscore.ZeroCoef>
-5.4800

> <Gold.Chemscore.Hbond>
2.3576

> <Gold.Chemscore.Metal>
0.0000

> <Gold.Chemscore.Lipo>
67.0382

> <Gold.Chemscore.Internal_Hbond>
0.0000

> <Gold.Chemscore.DEClash>
0.0263

> <Gold.Chemscore.DEInternal>
3.0426

> <Gold.Chemscore.Rot>
1.3219

> <Gold.Chemscore.Internal.Correction>
   9.000000E+99

> <Gold.Chemscore.Hbonds>
donor molecule, donor type, donor heavy atom, donor atom, acceptor molecule, acceptor atom, score
      P1  H  6896  6909       L1    10  0.86
      P1  H  6931  6943       L1    16  0.24
      P1  H  6934  6947       L1    16  0.05

> <Gold.Chemscore.Hbond.Weighted>
-7.8745

> <Gold.Chemscore.Metal.Weighted>
-0.0000

> <Gold.Chemscore.Lipo.Weighted>
-7.8435

> <Gold.Chemscore.Internal_Hbond.Weighted>
0.0000

> <Gold.Chemscore.DEClash.Weighted>
0.0263

> <Gold.Chemscore.DEInternal.Weighted>
3.0426

> <Gold.Chemscore.Rot.Weighted>
3.3842

> <Gold.Chemscore.Internal.Correction.Weighted>
   9.000000E+99

> <Gold.Protein.RotatedTorsions>
[ 6907 6896 6895 6894 ] final  107.59 input  -60.11 | X-H torsion
[ 7974 7965 7964 7962 ] final   64.83 input  175.53 | X-H torsion
[ 8008 7997 7996 7995 ] final   33.55 input   59.86 | X-H torsion
[ 10167 10162 10161 10158 ] final  -62.71 input  -65.29 | X-H torsion
[ 10718 10713 10712 10709 ] final  146.54 input   66.30 | X-H torsion
[ 10763 10752 10751 10750 ] final  -83.12 input  -60.55 | X-H torsion
[ 11005 11000 10999 10996 ] final  -85.90 input  -57.11 | X-H torsion

> <Gold.Protein.ActiveResidues>
 VAL166  LYS551  ARG553  GLY616  TRP617  ASP618  TYR619  PRO620  LYS621  CYS622 
 ASP623  PHE694  ASN695  SER759  ASP760  ASP761  ALA762  ILE779  LEU786  VAL792 
 PHE793  MET794  SER795  GLU796  ALA797  LYS798  CYS799  TRP800  GLU811  SER814 

> <Gold.Protein.RotatedAtoms>
  152.5148  133.9212  159.7534 H   0  0  0  0  0  0  0  0  0  0  0  0  # atno 6907 bound_to 6896
  150.9583  133.6465  159.2766 H   0  0  0  0  0  0  0  0  0  0  0  0  # atno 6908 bound_to 6896
  151.3719  135.0929  159.9521 H   0  0  0  0  0  0  0  0  0  0  0  0  # atno 6909 bound_to 6896
  145.8456  139.3222  143.0906 H   0  0  0  0  0  0  0  0  0  0  0  0  # atno 7974 bound_to 7965
  155.1404  140.3265  155.4453 H   0  0  0  0  0  0  0  0  0  0  0  0  # atno 8008 bound_to 7997
  156.2606  140.1994  156.6470 H   0  0  0  0  0  0  0  0  0  0  0  0  # atno 8009 bound_to 7997
  154.6546  140.0554  156.9981 H   0  0  0  0  0  0  0  0  0  0  0  0  # atno 8010 bound_to 7997
  140.5921  143.2343  151.6117 H   0  0  0  0  0  0  0  0  0  0  0  0  # atno 10167 bound_to 10162
  157.3320  131.0922  151.1155 H   0  0  0  0  0  0  0  0  0  0  0  0  # atno 10718 bound_to 10713
  154.5840  135.5567  153.7213 H   0  0  0  0  0  0  0  0  0  0  0  0  # atno 10763 bound_to 10752
  153.0092  135.6327  154.1943 H   0  0  0  0  0  0  0  0  0  0  0  0  # atno 10764 bound_to 10752
  154.1884  135.2883  155.3010 H   0  0  0  0  0  0  0  0  0  0  0  0  # atno 10765 bound_to 10752
  141.1636  133.7425  156.9083 H   0  0  0  0  0  0  0  0  0  0  0  0  # atno 11005 bound_to 11000
  145.9416  140.8975  143.0305 LP  0  0  0  0  0  0  0  0  0  0  0  0  # atno 17320 bound_to 7965
  144.6731  140.1556  143.7426 LP  0  0  0  0  0  0  0  0  0  0  0  0  # atno 17321 bound_to 7965
  139.5234  144.3134  152.0973 LP  0  0  0  0  0  0  0  0  0  0  0  0  # atno 17342 bound_to 10162
  140.2300  144.4378  150.6304 LP  0  0  0  0  0  0  0  0  0  0  0  0  # atno 17343 bound_to 10162
  157.2399  130.6565  149.5885 LP  0  0  0  0  0  0  0  0  0  0  0  0  # atno 17370 bound_to 10713
  155.9697  130.4571  150.5952 LP  0  0  0  0  0  0  0  0  0  0  0  0  # atno 17371 bound_to 10713
  140.1534  134.9214  157.2623 LP  0  0  0  0  0  0  0  0  0  0  0  0  # atno 17394 bound_to 11000
  140.2695  134.3476  155.7378 LP  0  0  0  0  0  0  0  0  0  0  0  0  # atno 17395 bound_to 11000

$$$$
