AV-unprocessed.smi:786|AV-procd|sdf|3721|dock5
  -GOLD-   22720 1143D 1   1.00000     0.00000
 Structure written by MMmdl.
 39 40  0  0  0  0  0  0  0  0  1 V2000
  147.1431  137.1344  155.5211 O   0  0  0  0  0  0  0  0  0  0  0  0
  146.5391  137.7620  154.3365 S   0  0  0  0  0  0  0  0  0  0  0  0
  145.1866  138.3352  154.4090 O   0  0  0  0  0  0  0  0  0  0  0  0
  147.6871  139.0470  153.6603 C   0  0  0  0  0  0  0  0  0  0  0  0
  148.8960  139.3238  154.5783 C   0  0  0  0  0  0  0  0  0  0  0  0
  149.2337  140.8219  154.7037 C   0  0  0  0  0  0  0  0  0  0  0  0
  150.4891  141.0282  155.5670 C   0  0  0  0  0  0  0  0  0  0  0  0
  151.5839  140.3059  155.0142 O   0  0  0  0  0  0  0  0  0  0  0  0
  151.3605  138.9006  154.9828 C   0  0  0  0  0  0  0  0  0  0  0  0
  150.1502  138.5799  154.0905 C   0  0  0  0  0  0  0  0  0  0  0  0
  146.5260  136.5672  153.0909 N   0  0  0  0  0  0  0  0  0  0  0  0
  145.3334  136.3542  152.2708 C   0  0  0  0  0  0  0  0  0  0  0  0
  144.5470  135.1395  152.7809 C   0  0  0  0  0  0  0  0  0  0  0  0
  144.7691  133.9096  151.9207 C   0  0  0  0  0  0  0  0  0  0  0  0
  143.6808  133.1085  151.5138 C   0  0  0  0  0  0  0  0  0  0  0  0
  143.9404  131.9816  150.7099 C   0  0  0  0  0  0  0  0  0  0  0  0
  145.2711  131.7006  150.3453 C   0  0  0  0  0  0  0  0  0  0  0  0
  146.2874  132.5637  150.8019 C   0  0  0  0  0  0  0  0  0  0  0  0
  146.0493  133.6474  151.5721 N   0  0  0  0  0  0  0  0  0  0  0  0
  148.0069  138.7115  152.6744 H   0  0  0  0  0  0  0  0  0  0  0  0
  147.1142  139.9611  153.5034 H   0  0  0  0  0  0  0  0  0  0  0  0
  148.6609  138.9392  155.5718 H   0  0  0  0  0  0  0  0  0  0  0  0
  149.4075  141.2453  153.7137 H   0  0  0  0  0  0  0  0  0  0  0  0
  148.4045  141.3797  155.1350 H   0  0  0  0  0  0  0  0  0  0  0  0
  150.7486  142.0863  155.6021 H   0  0  0  0  0  0  0  0  0  0  0  0
  150.3113  140.7106  156.5954 H   0  0  0  0  0  0  0  0  0  0  0  0
  152.2534  138.4120  154.5928 H   0  0  0  0  0  0  0  0  0  0  0  0
  151.2085  138.5235  155.9953 H   0  0  0  0  0  0  0  0  0  0  0  0
  149.9733  137.5037  154.0848 H   0  0  0  0  0  0  0  0  0  0  0  0
  150.3733  138.8650  153.0614 H   0  0  0  0  0  0  0  0  0  0  0  0
  147.4122  136.4787  152.5939 H   0  0  0  0  0  0  0  0  0  0  0  0
  144.7060  137.2454  152.3047 H   0  0  0  0  0  0  0  0  0  0  0  0
  145.6344  136.2059  151.2335 H   0  0  0  0  0  0  0  0  0  0  0  0
  144.8365  134.9096  153.8075 H   0  0  0  0  0  0  0  0  0  0  0  0
  143.4812  135.3701  152.8070 H   0  0  0  0  0  0  0  0  0  0  0  0
  142.6700  133.3508  151.8081 H   0  0  0  0  0  0  0  0  0  0  0  0
  143.1332  131.3446  150.3791 H   0  0  0  0  0  0  0  0  0  0  0  0
  145.5077  130.8451  149.7302 H   0  0  0  0  0  0  0  0  0  0  0  0
  147.3188  132.3789  150.5414 H   0  0  0  0  0  0  0  0  0  0  0  0
  1  2  2  0  0  0  0
  2  3  2  0  0  0  0
  2  4  1  0  0  0  0
  2 11  1  0  0  0  0
  4  5  1  0  0  0  0
  4 20  1  0  0  0  0
  4 21  1  0  0  0  0
  5 10  1  0  0  0  0
  5  6  1  0  0  0  0
  5 22  1  0  0  0  0
  6  7  1  0  0  0  0
  6 23  1  0  0  0  0
  6 24  1  0  0  0  0
  7  8  1  0  0  0  0
  7 25  1  0  0  0  0
  7 26  1  0  0  0  0
  8  9  1  0  0  0  0
  9 10  1  0  0  0  0
  9 27  1  0  0  0  0
  9 28  1  0  0  0  0
 10 29  1  0  0  0  0
 10 30  1  0  0  0  0
 11 12  1  0  0  0  0
 11 31  1  0  0  0  0
 12 13  1  0  0  0  0
 12 32  1  0  0  0  0
 12 33  1  0  0  0  0
 13 14  1  0  0  0  0
 13 34  1  0  0  0  0
 13 35  1  0  0  0  0
 14 19  1  0  0  0  0
 14 15  2  0  0  0  0
 15 16  1  0  0  0  0
 15 36  1  0  0  0  0
 16 17  2  0  0  0  0
 16 37  1  0  0  0  0
 17 18  1  0  0  0  0
 17 38  1  0  0  0  0
 18 19  2  0  0  0  0
 18 39  1  0  0  0  0
M  END
> <s_m_source_file>
AV-unprocessed.smi

> <i_m_source_file_index>
786

> <i_lp_mmshare_version>
43012

> <i_f3d_flags>
0

> <s_epik_input>
W0NIMl0xW0NIMl1PW0NIMl1bQ0gyXVtDSF0xW0NIMl1TKD1PKSg9TylbTkhdW0NIMl1bQ0gyXWMyW2NIXVtjSF1bY0hdW2NIXW4y

> <s_epik_cmdline>
J2VwaWtfcHl0aG9uJywgJy1waCcsICc3LjAnLCAnLXRuJywgJzgnLCAnLW1hJywgJzIwMCcsICctbWV0YWxfYmluZGluZycsICctaW1hZScsICc8aW5maWxlLm1hZT4nLCAnLW9tYWUnLCAnPG91dGZpbGUubWFlPic=

> <r_epik_Ionization_Penalty>
0.0207022

> <r_epik_Ionization_Penalty_Charging>
0

> <r_epik_Ionization_Penalty_Neutral>
0.0207022

> <r_epik_State_Penalty>
0.0165999

> <r_epik_Charging_Adjusted_Penalty>
0.0165999

> <i_epik_Tot_Q>
0

> <i_epik_Tot_abs_Q>
0

> <r_epik_Metal_State_Penalty>
0.0248737

> <b_epik_Metal_Only>
0

> <s_lp_Force_Field>
OPLS_2005

> <r_lp_Energy>
3.32782

> <b_lp_Chiralities_Consistent>
1

> <s_lp_Variant>
AV-unprocessed.smi:786-1

> <Gold.Version>
5.8.1

> <Gold.Id.Protein>
6NUR|6NUR_protein|mol2

> <Gold.PLP.Fitness>
39.9686

> <Gold.PLP.PLP>
-33.8299

> <Gold.PLP.part.hbond>
-2.0000

> <Gold.PLP.part.metal>
0.0000

> <Gold.PLP.part.buried>
-5.7324

> <Gold.PLP.part.nonpolar>
-27.8618

> <Gold.PLP.part.repulsive>
0.8227

> <Gold.PLP.ligand.clash>
0.0000

> <Gold.PLP.ligand.torsion>
1.5237

> <Gold.PLP.Chemscore.Hbond>
1.9920

> <Gold.PLP.Chemscore.CHOScore>
1.0000

> <Gold.PLP.Chemscore.Metal>
0.0000

> <Gold.Chemscore.Hbonds>
donor molecule, donor type, donor heavy atom, donor atom, acceptor molecule, acceptor atom, score
      L1  H    11    31       P1  7948  1.00
      P1  H  7989  7998       L1     8  0.94
      L1  C    18    39       P1 10747  1.00

> <Gold.PLP.Chemscore.Internal.Correction>
0.2102

> <Gold.Rescore>
     Score         DG    S(hbond)    S(metal)    S(lipo)     H(rot)  DE(clash)    DE(int)     intcor
     15.40     -16.71       1.62        0.00      89.35       1.81       0.03       1.28       ----

> <Gold.Chemscore.Fitness>
15.3991

> <Gold.Chemscore.DG>
-16.7136

> <Gold.Chemscore.ZeroCoef>
-5.4800

> <Gold.Chemscore.Hbond>
1.6237

> <Gold.Chemscore.Metal>
0.0000

> <Gold.Chemscore.Lipo>
89.3467

> <Gold.Chemscore.Internal_Hbond>
0.0000

> <Gold.Chemscore.DEClash>
0.0350

> <Gold.Chemscore.DEInternal>
1.2795

> <Gold.Chemscore.Rot>
1.8138

> <Gold.Chemscore.Internal.Correction>
   9.000000E+99

> <Gold.Chemscore.Hbonds>
donor molecule, donor type, donor heavy atom, donor atom, acceptor molecule, acceptor atom, score
      L1  H    11    31       P1  7948  1.00
      P1  H  7989  7998       L1     8  0.27

> <Gold.Chemscore.Hbond.Weighted>
-5.4233

> <Gold.Chemscore.Metal.Weighted>
-0.0000

> <Gold.Chemscore.Lipo.Weighted>
-10.4536

> <Gold.Chemscore.Internal_Hbond.Weighted>
0.0000

> <Gold.Chemscore.DEClash.Weighted>
0.0350

> <Gold.Chemscore.DEInternal.Weighted>
1.2795

> <Gold.Chemscore.Rot.Weighted>
4.6432

> <Gold.Chemscore.Internal.Correction.Weighted>
   9.000000E+99

> <Gold.Protein.RotatedTorsions>
[ 6907 6896 6895 6894 ] final  -53.32 input  -60.11 | X-H torsion
[ 7974 7965 7964 7962 ] final -140.32 input  175.53 | X-H torsion
[ 8008 7997 7996 7995 ] final   79.79 input   59.86 | X-H torsion
[ 10167 10162 10161 10158 ] final  101.98 input  -65.29 | X-H torsion
[ 10718 10713 10712 10709 ] final   67.24 input   66.30 | X-H torsion
[ 10763 10752 10751 10750 ] final   -2.69 input  -60.55 | X-H torsion
[ 11005 11000 10999 10996 ] final  -70.15 input  -57.11 | X-H torsion

> <Gold.Protein.ActiveResidues>
 VAL166  LYS551  ARG553  GLY616  TRP617  ASP618  TYR619  PRO620  LYS621  CYS622 
 ASP623  PHE694  ASN695  SER759  ASP760  ASP761  ALA762  ILE779  LEU786  VAL792 
 PHE793  MET794  SER795  GLU796  ALA797  LYS798  CYS799  TRP800  GLU811  SER814 

> <Gold.Protein.RotatedAtoms>
  150.8438  134.7739  159.6953 H   0  0  0  0  0  0  0  0  0  0  0  0  # atno 6907 bound_to 6896
  152.4519  134.5372  159.9838 H   0  0  0  0  0  0  0  0  0  0  0  0  # atno 6908 bound_to 6896
  151.5506  133.3380  159.2988 H   0  0  0  0  0  0  0  0  0  0  0  0  # atno 6909 bound_to 6896
  144.8607  140.6214  143.5330 H   0  0  0  0  0  0  0  0  0  0  0  0  # atno 7974 bound_to 7965
  155.8746  140.3447  155.5845 H   0  0  0  0  0  0  0  0  0  0  0  0  # atno 8008 bound_to 7997
  155.7789  140.0855  157.2089 H   0  0  0  0  0  0  0  0  0  0  0  0  # atno 8009 bound_to 7997
  154.4020  140.1504  156.3016 H   0  0  0  0  0  0  0  0  0  0  0  0  # atno 8010 bound_to 7997
  139.7390  144.7016  151.0605 H   0  0  0  0  0  0  0  0  0  0  0  0  # atno 10167 bound_to 10162
  157.6218  130.9310  150.0216 H   0  0  0  0  0  0  0  0  0  0  0  0  # atno 10718 bound_to 10713
  153.3614  135.6990  153.6709 H   0  0  0  0  0  0  0  0  0  0  0  0  # atno 10763 bound_to 10752
  153.5396  135.3575  155.2713 H   0  0  0  0  0  0  0  0  0  0  0  0  # atno 10764 bound_to 10752
  154.8668  135.4200  154.2872 H   0  0  0  0  0  0  0  0  0  0  0  0  # atno 10765 bound_to 10752
  141.1568  133.6782  156.6708 H   0  0  0  0  0  0  0  0  0  0  0  0  # atno 11005 bound_to 11000
  145.4318  139.1548  143.4018 LP  0  0  0  0  0  0  0  0  0  0  0  0  # atno 17320 bound_to 7965
  146.2858  140.4435  142.8758 LP  0  0  0  0  0  0  0  0  0  0  0  0  # atno 17321 bound_to 7965
  140.7783  143.4948  150.9847 LP  0  0  0  0  0  0  0  0  0  0  0  0  # atno 17342 bound_to 10162
  139.8636  143.7282  152.3171 LP  0  0  0  0  0  0  0  0  0  0  0  0  # atno 17343 bound_to 10162
  156.1368  130.3642  149.9645 LP  0  0  0  0  0  0  0  0  0  0  0  0  # atno 17370 bound_to 10713
  156.7694  130.9181  151.3644 LP  0  0  0  0  0  0  0  0  0  0  0  0  # atno 17371 bound_to 10713
  140.3176  134.8034  157.4227 LP  0  0  0  0  0  0  0  0  0  0  0  0  # atno 17394 bound_to 11000
  140.1124  134.5327  155.8254 LP  0  0  0  0  0  0  0  0  0  0  0  0  # atno 17395 bound_to 11000

$$$$
