AV-unprocessed.smi:213|AV-procd|sdf|1648|dock4
  -GOLD-   2262020 23D 1   1.00000     0.00000
 Structure written by MMmdl.
 58 61  0  0  0  0  0  0  0  0  1 V2000
  152.1844  139.9284  155.7923 C   0  0  0  0  0  0  0  0  0  0  0  0
  150.8572  140.4220  156.4032 C   0  0  1  0  0  0  0  0  0  0  0  0
  150.7963  141.9640  156.5277 C   0  0  0  0  0  0  0  0  0  0  0  0
  151.6325  142.5510  157.5762 N   0  0  0  0  0  0  0  0  0  0  0  0
  151.3298  141.9593  158.8749 C   0  0  0  0  0  0  0  0  0  0  0  0
  152.2148  142.5373  159.9914 C   0  0  0  0  0  0  0  0  0  0  0  0
  152.0547  143.9509  160.0364 O   0  0  0  0  0  0  0  0  0  0  0  0
  152.3880  144.5777  158.8024 C   0  0  0  0  0  0  0  0  0  0  0  0
  151.5172  144.0030  157.6711 C   0  0  0  0  0  0  0  0  0  0  0  0
  149.7288  139.9149  155.6168 N   0  0  0  0  0  0  0  0  0  0  0  0
  149.3657  140.5321  154.3427 C   0  0  0  0  0  0  0  0  0  0  0  0
  148.8740  138.9919  156.1355 C   0  0  0  0  0  0  0  0  0  0  0  0
  147.7197  138.7504  155.4584 N   0  0  0  0  0  0  0  0  0  0  0  0
  146.8422  137.8490  155.9070 C   0  0  0  0  0  0  0  0  0  0  0  0
  146.9144  137.0875  156.9988 N   0  0  0  0  0  0  0  0  0  0  0  0
  148.0607  137.3306  157.6949 C   0  0  0  0  0  0  0  0  0  0  0  0
  149.0856  138.2565  157.3418 C   0  0  0  0  0  0  0  0  0  0  0  0
  150.0830  138.2314  158.3118 N   0  0  0  0  0  0  0  0  0  0  0  0
  149.6815  137.3390  159.1733 C   0  0  0  0  0  0  0  0  0  0  0  0
  148.4756  136.7483  158.8797 N   0  0  0  0  0  0  0  0  0  0  0  0
  147.7967  135.7331  159.6651 C   0  0  0  0  0  0  0  0  0  0  0  0
  148.0189  135.9163  161.1788 C   0  0  1  0  0  0  0  0  0  0  0  0
  147.5146  137.1658  161.6111 O   0  0  0  0  0  0  0  0  0  0  0  0
  147.4198  134.7653  162.0128 C   0  0  1  0  0  0  0  0  0  0  0  0
  145.8924  134.7004  162.0918 C   0  0  0  0  0  0  0  0  0  0  0  0
  145.6825  133.2500  162.4663 C   0  0  0  0  0  0  0  0  0  0  0  0
  146.7705  132.5544  161.6507 C   0  0  0  0  0  0  0  0  0  0  0  0
  147.8450  133.4859  161.5506 O   0  0  0  0  0  0  0  0  0  0  0  0
  153.0445  140.2118  156.3957 H   0  0  0  0  0  0  0  0  0  0  0  0
  152.3478  140.3329  154.7934 H   0  0  0  0  0  0  0  0  0  0  0  0
  152.1929  138.8408  155.7134 H   0  0  0  0  0  0  0  0  0  0  0  0
  150.8021  139.9826  157.3986 H   0  0  0  0  0  0  0  0  0  0  0  0
  151.0179  142.4271  155.5651 H   0  0  0  0  0  0  0  0  0  0  0  0
  149.7629  142.2390  156.7450 H   0  0  0  0  0  0  0  0  0  0  0  0
  150.2806  142.1285  159.1228 H   0  0  0  0  0  0  0  0  0  0  0  0
  151.4698  140.8785  158.8308 H   0  0  0  0  0  0  0  0  0  0  0  0
  151.9342  142.1145  160.9562 H   0  0  0  0  0  0  0  0  0  0  0  0
  153.2634  142.2864  159.8229 H   0  0  0  0  0  0  0  0  0  0  0  0
  152.2301  145.6524  158.8933 H   0  0  0  0  0  0  0  0  0  0  0  0
  153.4469  144.4266  158.5864 H   0  0  0  0  0  0  0  0  0  0  0  0
  151.8330  144.4650  156.7370 H   0  0  0  0  0  0  0  0  0  0  0  0
  150.4755  144.2841  157.8318 H   0  0  0  0  0  0  0  0  0  0  0  0
  148.2867  140.6710  154.2658 H   0  0  0  0  0  0  0  0  0  0  0  0
  149.6936  139.9054  153.5129 H   0  0  0  0  0  0  0  0  0  0  0  0
  149.8292  141.5123  154.2317 H   0  0  0  0  0  0  0  0  0  0  0  0
  145.9557  137.7184  155.3044 H   0  0  0  0  0  0  0  0  0  0  0  0
  150.2558  137.0895  160.0535 H   0  0  0  0  0  0  0  0  0  0  0  0
  146.7329  135.7577  159.4255 H   0  0  0  0  0  0  0  0  0  0  0  0
  148.1646  134.7571  159.3471 H   0  0  0  0  0  0  0  0  0  0  0  0
  149.0927  135.9365  161.3689 H   0  0  0  0  0  0  0  0  0  0  0  0
  147.1666  137.0642  162.4836 H   0  0  0  0  0  0  0  0  0  0  0  0
  147.7998  134.8517  163.0323 H   0  0  0  0  0  0  0  0  0  0  0  0
  145.4738  135.3959  162.8198 H   0  0  0  0  0  0  0  0  0  0  0  0
  145.4286  134.8969  161.1247 H   0  0  0  0  0  0  0  0  0  0  0  0
  145.8632  133.1089  163.5330 H   0  0  0  0  0  0  0  0  0  0  0  0
  144.6800  132.8870  162.2379 H   0  0  0  0  0  0  0  0  0  0  0  0
  147.0951  131.6174  162.1037 H   0  0  0  0  0  0  0  0  0  0  0  0
  146.4096  132.3363  160.6449 H   0  0  0  0  0  0  0  0  0  0  0  0
  1  2  1  0  0  0  0
  1 29  1  0  0  0  0
  1 30  1  0  0  0  0
  1 31  1  0  0  0  0
  2  3  1  0  0  0  0
  2 10  1  0  0  0  0
  2 32  1  0  0  0  0
  3  4  1  0  0  0  0
  3 33  1  0  0  0  0
  3 34  1  0  0  0  0
  4  9  1  0  0  0  0
  4  5  1  0  0  0  0
  5  6  1  0  0  0  0
  5 35  1  0  0  0  0
  5 36  1  0  0  0  0
  6  7  1  0  0  0  0
  6 37  1  0  0  0  0
  6 38  1  0  0  0  0
  7  8  1  0  0  0  0
  8  9  1  0  0  0  0
  8 39  1  0  0  0  0
  8 40  1  0  0  0  0
  9 41  1  0  0  0  0
  9 42  1  0  0  0  0
 10 11  1  0  0  0  0
 10 12  1  0  0  0  0
 11 43  1  0  0  0  0
 11 44  1  0  0  0  0
 11 45  1  0  0  0  0
 12 17  1  0  0  0  0
 12 13  2  0  0  0  0
 13 14  1  0  0  0  0
 14 15  2  0  0  0  0
 14 46  1  0  0  0  0
 15 16  1  0  0  0  0
 16 20  1  0  0  0  0
 16 17  2  0  0  0  0
 17 18  1  0  0  0  0
 18 19  2  0  0  0  0
 19 20  1  0  0  0  0
 19 47  1  0  0  0  0
 20 21  1  0  0  0  0
 21 22  1  0  0  0  0
 21 48  1  0  0  0  0
 21 49  1  0  0  0  0
 22 23  1  0  0  0  0
 22 24  1  0  0  0  0
 22 50  1  0  0  0  0
 23 51  1  0  0  0  0
 24 28  1  0  0  0  0
 24 25  1  0  0  0  0
 24 52  1  0  0  0  0
 25 26  1  0  0  0  0
 25 53  1  0  0  0  0
 25 54  1  0  0  0  0
 26 27  1  0  0  0  0
 26 55  1  0  0  0  0
 26 56  1  0  0  0  0
 27 28  1  0  0  0  0
 27 57  1  0  0  0  0
 27 58  1  0  0  0  0
M  END
> <s_m_source_file>
AV-unprocessed.smi

> <i_m_source_file_index>
213

> <i_lp_mmshare_version>
43012

> <i_f3d_flags>
0

> <s_epik_input>
W0NIMl0xW0NIMl1PW0NIMl1bQ0gyXU4xW0NIMl1bQ0BASF0oW0NIM10pTihbQ0gzXSljKG5bY0hdbjIpYyhjMjMpbltjSF1uM1tDSDJdW0NASF0oW09IXSlbQ0BASF00W0NIMl1bQ0gyXVtDSDJdTzQ=

> <s_epik_cmdline>
J2VwaWtfcHl0aG9uJywgJy1waCcsICc3LjAnLCAnLXRuJywgJzgnLCAnLW1hJywgJzIwMCcsICctbWV0YWxfYmluZGluZycsICctaW1hZScsICc8aW5maWxlLm1hZT4nLCAnLW9tYWUnLCAnPG91dGZpbGUubWFlPic=

> <r_lp_tautomer_probability>
1

> <r_epik_Ionization_Penalty>
0.423322

> <r_epik_Ionization_Penalty_Charging>
0

> <r_epik_Ionization_Penalty_Neutral>
0.423322

> <r_epik_State_Penalty>
0.569486

> <r_epik_Charging_Adjusted_Penalty>
0.569486

> <i_epik_Tot_Q>
0

> <i_epik_Tot_abs_Q>
0

> <r_epik_Metal_State_Penalty>
0.568671

> <b_epik_Metal_Only>
0

> <s_lp_Force_Field>
OPLS_2005

> <r_lp_Energy>
55.4432

> <b_lp_Chiralities_Consistent>
1

> <s_lp_Variant>
AV-unprocessed.smi:213-16

> <Gold.Version>
5.8.1

> <Gold.Id.Protein>
6NUR|6NUR_protein|mol2

> <Gold.PLP.Fitness>
52.5623

> <Gold.PLP.PLP>
-48.3128

> <Gold.PLP.part.hbond>
-2.0000

> <Gold.PLP.part.metal>
0.0000

> <Gold.PLP.part.buried>
-5.2707

> <Gold.PLP.part.nonpolar>
-41.3819

> <Gold.PLP.part.repulsive>
0.0888

> <Gold.PLP.ligand.clash>
0.0000

> <Gold.PLP.ligand.torsion>
0.7947

> <Gold.PLP.Chemscore.Hbond>
1.7440

> <Gold.PLP.Chemscore.CHOScore>
0.0000

> <Gold.PLP.Chemscore.Metal>
0.0000

> <Gold.Chemscore.Hbonds>
donor molecule, donor type, donor heavy atom, donor atom, acceptor molecule, acceptor atom, score
      P1  H  6931  6943       L1    23  0.96
      P1  H  6934  6947       L1    23  0.82

> <Gold.PLP.Chemscore.Internal.Correction>
0.6068

> <Gold.Rescore>
     Score         DG    S(hbond)    S(metal)    S(lipo)     H(rot)  DE(clash)    DE(int)     intcor
     14.34     -16.24       1.15        0.00     118.99       2.74       0.11       1.79       ----

> <Gold.Chemscore.Fitness>
14.3428

> <Gold.Chemscore.DG>
-16.2405

> <Gold.Chemscore.ZeroCoef>
-5.4800

> <Gold.Chemscore.Hbond>
1.1519

> <Gold.Chemscore.Metal>
0.0000

> <Gold.Chemscore.Lipo>
118.9901

> <Gold.Chemscore.Internal_Hbond>
0.0000

> <Gold.Chemscore.DEClash>
0.1096

> <Gold.Chemscore.DEInternal>
1.7882

> <Gold.Chemscore.Rot>
2.7378

> <Gold.Chemscore.Internal.Correction>
   9.000000E+99

> <Gold.Chemscore.Hbonds>
donor molecule, donor type, donor heavy atom, donor atom, acceptor molecule, acceptor atom, score
      P1  H  6931  6943       L1    23  0.18
      P1  H  6934  6947       L1    23  0.58

> <Gold.Chemscore.Hbond.Weighted>
-3.8474

> <Gold.Chemscore.Metal.Weighted>
-0.0000

> <Gold.Chemscore.Lipo.Weighted>
-13.9218

> <Gold.Chemscore.Internal_Hbond.Weighted>
0.0000

> <Gold.Chemscore.DEClash.Weighted>
0.1096

> <Gold.Chemscore.DEInternal.Weighted>
1.7882

> <Gold.Chemscore.Rot.Weighted>
7.0087

> <Gold.Chemscore.Internal.Correction.Weighted>
   9.000000E+99

> <Gold.Protein.RotatedTorsions>
[ 6907 6896 6895 6894 ] final  -56.24 input  -60.11 | X-H torsion
[ 7974 7965 7964 7962 ] final   63.08 input  175.53 | X-H torsion
[ 8008 7997 7996 7995 ] final  -46.07 input   59.86 | X-H torsion
[ 10167 10162 10161 10158 ] final   89.38 input  -65.29 | X-H torsion
[ 10718 10713 10712 10709 ] final  147.72 input   66.30 | X-H torsion
[ 10763 10752 10751 10750 ] final  133.83 input  -60.55 | X-H torsion
[ 11005 11000 10999 10996 ] final  124.62 input  -57.11 | X-H torsion

> <Gold.Protein.ActiveResidues>
 VAL166  LYS551  ARG553  GLY616  TRP617  ASP618  TYR619  PRO620  LYS621  CYS622 
 ASP623  PHE694  ASN695  SER759  ASP760  ASP761  ALA762  ILE779  LEU786  VAL792 
 PHE793  MET794  SER795  GLU796  ALA797  LYS798  CYS799  TRP800  GLU811  SER814 

> <Gold.Protein.RotatedAtoms>
  150.8184  134.7378  159.6749 H   0  0  0  0  0  0  0  0  0  0  0  0  # atno 6907 bound_to 6896
  152.4301  134.5790  159.9952 H   0  0  0  0  0  0  0  0  0  0  0  0  # atno 6908 bound_to 6896
  151.5981  133.3322  159.3077 H   0  0  0  0  0  0  0  0  0  0  0  0  # atno 6909 bound_to 6896
  145.8660  139.3346  143.0791 H   0  0  0  0  0  0  0  0  0  0  0  0  # atno 7974 bound_to 7965
  154.4005  140.1381  156.3950 H   0  0  0  0  0  0  0  0  0  0  0  0  # atno 8008 bound_to 7997
  155.7878  140.3479  155.5312 H   0  0  0  0  0  0  0  0  0  0  0  0  # atno 8009 bound_to 7997
  155.8610  140.0956  157.1604 H   0  0  0  0  0  0  0  0  0  0  0  0  # atno 8010 bound_to 7997
  139.8578  144.6560  150.9094 H   0  0  0  0  0  0  0  0  0  0  0  0  # atno 10167 bound_to 10162
  157.3175  131.0898  151.1267 H   0  0  0  0  0  0  0  0  0  0  0  0  # atno 10718 bound_to 10713
  153.8136  135.3125  155.3403 H   0  0  0  0  0  0  0  0  0  0  0  0  # atno 10763 bound_to 10752
  154.8041  135.4708  154.0352 H   0  0  0  0  0  0  0  0  0  0  0  0  # atno 10764 bound_to 10752
  153.1738  135.6882  153.8660 H   0  0  0  0  0  0  0  0  0  0  0  0  # atno 10765 bound_to 10752
  139.9367  134.9639  156.8437 H   0  0  0  0  0  0  0  0  0  0  0  0  # atno 11005 bound_to 11000
  145.9193  140.9126  143.0413 LP  0  0  0  0  0  0  0  0  0  0  0  0  # atno 17320 bound_to 7965
  144.6726  140.1267  143.7446 LP  0  0  0  0  0  0  0  0  0  0  0  0  # atno 17321 bound_to 7965
  140.7779  143.3770  151.1544 LP  0  0  0  0  0  0  0  0  0  0  0  0  # atno 17342 bound_to 10162
  139.7403  143.8935  152.3047 LP  0  0  0  0  0  0  0  0  0  0  0  0  # atno 17343 bound_to 10162
  157.2565  130.6638  149.5955 LP  0  0  0  0  0  0  0  0  0  0  0  0  # atno 17370 bound_to 10713
  155.9683  130.4522  150.5764 LP  0  0  0  0  0  0  0  0  0  0  0  0  # atno 17371 bound_to 10713
  140.6056  134.0130  155.7555 LP  0  0  0  0  0  0  0  0  0  0  0  0  # atno 17394 bound_to 11000
  141.0984  133.9807  157.3120 LP  0  0  0  0  0  0  0  0  0  0  0  0  # atno 17395 bound_to 11000

$$$$
