#       Name:                AV-unprocessed.smi:1566
#       Creating user name   scv26
#       Creation time:       Fri Mar 27 06:50:29 2020


#       File generated by GOLD software.
#

@<TRIPOS>MOLECULE
AV-unprocessed.smi:1566
    48    49     1
SMALL
NO_CHARGES


@<TRIPOS>ATOM
      1 ****        -6.9121   2.0099  -1.0847 C.3            1 S1                 0.0000
      2 ****        -6.5747   1.6279   0.3625 C.3            1 S1                 0.0000
      3 ****        -5.4342   0.7212   0.4228 N.am           1 S1                 0.0000
      4 ****        -4.1480   1.0975   0.3883 C.2            1 S1                 0.0000
      5 ****        -3.7848   2.2712   0.3122 O.2            1 S1                 0.0000
      6 ****        -3.3300   0.0318   0.4247 N.am           1 S1                 0.0000
      7 ****        -1.9102   0.0085   0.3869 C.ar           1 S1                 0.0000
      8 ****        -1.0856   1.0830   0.7970 C.ar           1 S1                 0.0000
      9 ****         0.3126   0.9312   0.7293 C.ar           1 S1                 0.0000
     10 ****         0.8432  -0.2876   0.2598 C.ar           1 S1                 0.0000
     11 ****         2.2349  -0.4412   0.1902 N.3            1 S1                 0.0000
     12 ****         2.7565  -1.3929   1.1622 C.3            1 S1                 0.0000
     13 ****         4.2979  -1.4136   1.1331 C.3            1 S1                 0.0000
     14 ****         4.9400  -0.1790   1.7904 C.3            1 S1                 0.0000
     15 ****         4.7627  -1.6148  -0.2049 O.3            1 S1                 0.0000
     16 ****         4.2704  -0.6737  -1.1600 C.3            1 S1                 0.0000
     17 ****         4.8435  -1.0436  -2.5318 C.3            1 S1                 0.0000
     18 ****         2.7315  -0.6965  -1.1548 C.3            1 S1                 0.0000
     19 ****         0.0602  -1.3252  -0.1195 N.ar           1 S1                 0.0000
     20 ****        -1.2789  -1.1744  -0.0493 C.ar           1 S1                 0.0000
     21 ****        -7.7800   2.6687  -1.1188 H              1 S1                 0.0000
     22 ****        -7.1413   1.1270  -1.6822 H              1 S1                 0.0000
     23 ****        -6.0821   2.5320  -1.5617 H              1 S1                 0.0000
     24 ****        -6.3815   2.5228   0.9562 H              1 S1                 0.0000
     25 ****        -7.4302   1.1306   0.8200 H              1 S1                 0.0000
     26 ****        -5.6400  -0.2652   0.4830 H              1 S1                 0.0000
     27 ****        -3.7781  -0.8725   0.4037 H              1 S1                 0.0000
     28 ****        -1.4939   2.0085   1.1722 H              1 S1                 0.0000
     29 ****         0.9644   1.7366   1.0350 H              1 S1                 0.0000
     30 ****         2.3986  -1.1434   2.1619 H              1 S1                 0.0000
     31 ****         2.3761  -2.3883   0.9274 H              1 S1                 0.0000
     32 ****         4.6283  -2.2814   1.7041 H              1 S1                 0.0000
     33 ****         4.6645  -0.1163   2.8434 H              1 S1                 0.0000
     34 ****         4.6259   0.7519   1.3192 H              1 S1                 0.0000
     35 ****         6.0275  -0.2316   1.7367 H              1 S1                 0.0000
     36 ****         4.6225   0.3262  -0.9053 H              1 S1                 0.0000
     37 ****         4.5046  -0.3468  -3.2987 H              1 S1                 0.0000
     38 ****         4.5372  -2.0464  -2.8310 H              1 S1                 0.0000
     39 ****         5.9334  -1.0179  -2.5180 H              1 S1                 0.0000
     40 ****         2.3711  -1.6659  -1.5027 H              1 S1                 0.0000
     41 ****         2.3422   0.0575  -1.8401 H              1 S1                 0.0000
     42 ****        -1.8657  -2.0270  -0.3590 H              1 S1                 0.0000
     43 ****        -4.4647   3.0035   0.2726 LP             1 S1                 0.0000
     44 ****        -2.8098   2.4925   0.2900 LP             1 S1                 0.0000
     45 ****         2.6004   0.4534   0.4475 LP             1 S1                 0.0000
     46 ****         4.4827  -2.5293  -0.4969 LP             1 S1                 0.0000
     47 ****         5.7611  -1.5580  -0.1989 LP             1 S1                 0.0000
     48 ****         0.4639  -2.1809  -0.4432 LP             1 S1                 0.0000
@<TRIPOS>BOND
    1    1    2 1     
    2    1   21 1     
    3    1   22 1     
    4    1   23 1     
    5    2    3 1     
    6    2   24 1     
    7    2   25 1     
    8    3    4 am    
    9    3   26 1     
   10    4    5 2     
   11    4    6 am    
   12    6    7 1     
   13    6   27 1     
   14    7   20 ar    
   15    7    8 ar    
   16    8    9 ar    
   17    8   28 1     
   18    9   10 ar    
   19    9   29 1     
   20   10   11 1     
   21   10   19 ar    
   22   11   18 1     
   23   11   12 1     
   24   12   13 1     
   25   12   30 1     
   26   12   31 1     
   27   13   14 1     
   28   13   15 1     
   29   13   32 1     
   30   14   33 1     
   31   14   34 1     
   32   14   35 1     
   33   15   16 1     
   34   16   17 1     
   35   16   18 1     
   36   16   36 1     
   37   17   37 1     
   38   17   38 1     
   39   17   39 1     
   40   18   40 1     
   41   18   41 1     
   42   19   20 ar    
   43   20   42 1     
   44    5   43 1     
   45    5   44 1     
   46   11   45 1     
   47   15   46 1     
   48   15   47 1     
   49   19   48 1     
@<TRIPOS>SUBSTRUCTURE
      1 S1             1
@<TRIPOS>SET
LONE_PAIRS      STATIC     ATOMS    <user>   **** ""
6 43 44 45 46 47 48
DONOR_HYDROGENS      STATIC     ATOMS    <user>   **** ""
2 26 27
ATOM$BLUE        STATIC     ATOMS    COLORGROUP SYSTEM
6 43 44 45 46 47 48
ATOM$RED        STATIC     ATOMS    COLORGROUP SYSTEM
2 26 27
