AV-unprocessed.smi:792|AV-procd|sdf|3750|dock10
  -GOLD-   22720 1183D 1   1.00000     0.00000
 Structure written by MMmdl.
 46 47  0  0  0  0  0  0  0  0  1 V2000
  146.1344  130.3783  151.4856 C   0  0  0  0  0  0  0  0  0  0  0  0
  145.8115  131.8576  151.4551 C   0  0  0  0  0  0  0  0  0  0  0  0
  144.5207  132.3102  151.1092 C   0  0  0  0  0  0  0  0  0  0  0  0
  144.2774  133.6971  151.0972 C   0  0  0  0  0  0  0  0  0  0  0  0
  145.3290  134.5749  151.4309 C   0  0  0  0  0  0  0  0  0  0  0  0
  145.1201  136.0762  151.4318 C   0  0  0  0  0  0  0  0  0  0  0  0
  145.4069  136.6993  152.8039 C   0  0  0  0  0  0  0  0  0  0  0  0
  146.7488  137.2626  152.8381 N   0  0  0  0  0  0  0  0  0  0  0  0
  147.0578  138.4408  153.3942 C   0  0  0  0  0  0  0  0  0  0  0  0
  146.2426  139.1721  153.9568 O   0  0  0  0  0  0  0  0  0  0  0  0
  148.3609  138.7280  153.2616 N   0  0  0  0  0  0  0  0  0  0  0  0
  149.0124  139.9317  153.7757 C   0  0  0  0  0  0  0  0  0  0  0  0
  150.2358  139.6356  154.6646 C   0  0  0  0  0  0  0  0  0  0  0  0
  150.8048  138.5474  154.5553 O   0  0  0  0  0  0  0  0  0  0  0  0
  150.6557  140.5837  155.5380 N   0  0  0  0  0  0  0  0  0  0  0  0
  151.7687  140.3654  156.4722 C   0  0  0  0  0  0  0  0  0  0  0  0
  151.2119  140.3069  157.9066 C   0  0  0  0  0  0  0  0  0  0  0  0
  150.4120  141.5801  158.2408 C   0  0  0  0  0  0  0  0  0  0  0  0
  149.3686  141.8972  157.1530 C   0  0  0  0  0  0  0  0  0  0  0  0
  150.0152  141.8887  155.7560 C   0  0  0  0  0  0  0  0  0  0  0  0
  146.5834  134.0196  151.7603 C   0  0  0  0  0  0  0  0  0  0  0  0
  146.8260  132.6912  151.7746 N   0  0  0  0  0  0  0  0  0  0  0  0
  145.2647  129.7779  151.2172 H   0  0  0  0  0  0  0  0  0  0  0  0
  146.4577  130.0807  152.4835 H   0  0  0  0  0  0  0  0  0  0  0  0
  146.9351  130.1502  150.7816 H   0  0  0  0  0  0  0  0  0  0  0  0
  143.7342  131.6138  150.8583 H   0  0  0  0  0  0  0  0  0  0  0  0
  143.3013  134.0780  150.8351 H   0  0  0  0  0  0  0  0  0  0  0  0
  145.7638  136.5249  150.6739 H   0  0  0  0  0  0  0  0  0  0  0  0
  144.0936  136.2900  151.1305 H   0  0  0  0  0  0  0  0  0  0  0  0
  144.6803  137.4851  153.0180 H   0  0  0  0  0  0  0  0  0  0  0  0
  145.3095  135.9466  153.5878 H   0  0  0  0  0  0  0  0  0  0  0  0
  147.4857  136.7253  152.4053 H   0  0  0  0  0  0  0  0  0  0  0  0
  148.9503  138.0599  152.7867 H   0  0  0  0  0  0  0  0  0  0  0  0
  149.3338  140.5258  152.9201 H   0  0  0  0  0  0  0  0  0  0  0  0
  148.2862  140.5298  154.3290 H   0  0  0  0  0  0  0  0  0  0  0  0
  152.3315  139.4558  156.2589 H   0  0  0  0  0  0  0  0  0  0  0  0
  152.4838  141.1841  156.3803 H   0  0  0  0  0  0  0  0  0  0  0  0
  150.5679  139.4325  158.0105 H   0  0  0  0  0  0  0  0  0  0  0  0
  152.0260  140.1799  158.6208 H   0  0  0  0  0  0  0  0  0  0  0  0
  149.9271  141.4782  159.2121 H   0  0  0  0  0  0  0  0  0  0  0  0
  151.1017  142.4206  158.3271 H   0  0  0  0  0  0  0  0  0  0  0  0
  148.5651  141.1601  157.1878 H   0  0  0  0  0  0  0  0  0  0  0  0
  148.9091  142.8662  157.3493 H   0  0  0  0  0  0  0  0  0  0  0  0
  150.7721  142.6719  155.6938 H   0  0  0  0  0  0  0  0  0  0  0  0
  149.2741  142.1481  155.0020 H   0  0  0  0  0  0  0  0  0  0  0  0
  147.4160  134.6575  152.0182 H   0  0  0  0  0  0  0  0  0  0  0  0
  1  2  1  0  0  0  0
  1 23  1  0  0  0  0
  1 24  1  0  0  0  0
  1 25  1  0  0  0  0
  2 22  1  0  0  0  0
  2  3  2  0  0  0  0
  3  4  1  0  0  0  0
  3 26  1  0  0  0  0
  4  5  2  0  0  0  0
  4 27  1  0  0  0  0
  5  6  1  0  0  0  0
  5 21  1  0  0  0  0
  6  7  1  0  0  0  0
  6 28  1  0  0  0  0
  6 29  1  0  0  0  0
  7  8  1  0  0  0  0
  7 30  1  0  0  0  0
  7 31  1  0  0  0  0
  8  9  1  0  0  0  0
  8 32  1  0  0  0  0
  9 10  2  0  0  0  0
  9 11  1  0  0  0  0
 11 12  1  0  0  0  0
 11 33  1  0  0  0  0
 12 13  1  0  0  0  0
 12 34  1  0  0  0  0
 12 35  1  0  0  0  0
 13 14  2  0  0  0  0
 13 15  1  0  0  0  0
 15 20  1  0  0  0  0
 15 16  1  0  0  0  0
 16 17  1  0  0  0  0
 16 36  1  0  0  0  0
 16 37  1  0  0  0  0
 17 18  1  0  0  0  0
 17 38  1  0  0  0  0
 17 39  1  0  0  0  0
 18 19  1  0  0  0  0
 18 40  1  0  0  0  0
 18 41  1  0  0  0  0
 19 20  1  0  0  0  0
 19 42  1  0  0  0  0
 19 43  1  0  0  0  0
 20 44  1  0  0  0  0
 20 45  1  0  0  0  0
 21 22  2  0  0  0  0
 21 46  1  0  0  0  0
M  END
> <s_m_source_file>
AV-unprocessed.smi

> <i_m_source_file_index>
792

> <i_lp_mmshare_version>
43012

> <i_f3d_flags>
0

> <s_epik_input>
W0NIM11jMVtjSF1bY0hdYyhbY0hdbjEpW0NIMl1bQ0gyXVtOSF1DKD1PKVtOSF1bQ0gyXUMoPU8pTjJbQ0gyXVtDSDJdW0NIMl1bQ0gyXVtDSDJdMg==

> <s_epik_cmdline>
J2VwaWtfcHl0aG9uJywgJy1waCcsICc3LjAnLCAnLXRuJywgJzgnLCAnLW1hJywgJzIwMCcsICctbWV0YWxfYmluZGluZycsICctaW1hZScsICc8aW5maWxlLm1hZT4nLCAnLW9tYWUnLCAnPG91dGZpbGUubWFlPic=

> <r_epik_Ionization_Penalty>
0.0629971

> <r_epik_Ionization_Penalty_Charging>
0

> <r_epik_Ionization_Penalty_Neutral>
0.0629971

> <r_epik_State_Penalty>
0.0547377

> <r_epik_Charging_Adjusted_Penalty>
0.0547377

> <i_epik_Tot_Q>
0

> <i_epik_Tot_abs_Q>
0

> <r_epik_Metal_State_Penalty>
0.0494478

> <b_epik_Metal_Only>
0

> <s_lp_Force_Field>
OPLS_2005

> <r_lp_Energy>
16.0081

> <b_lp_Chiralities_Consistent>
1

> <s_lp_Variant>
AV-unprocessed.smi:792-1

> <Gold.Version>
5.8.1

> <Gold.Id.Protein>
6NUR|6NUR_protein|mol2

> <Gold.PLP.Fitness>
46.2389

> <Gold.PLP.PLP>
-38.8689

> <Gold.PLP.part.hbond>
-3.0000

> <Gold.PLP.part.metal>
0.0000

> <Gold.PLP.part.buried>
-2.4703

> <Gold.PLP.part.nonpolar>
-33.7404

> <Gold.PLP.part.repulsive>
0.5488

> <Gold.PLP.ligand.clash>
0.0000

> <Gold.PLP.ligand.torsion>
0.7175

> <Gold.PLP.Chemscore.Hbond>
1.9280

> <Gold.PLP.Chemscore.CHOScore>
1.0000

> <Gold.PLP.Chemscore.Metal>
0.0000

> <Gold.Chemscore.Hbonds>
donor molecule, donor type, donor heavy atom, donor atom, acceptor molecule, acceptor atom, score
      L1  H     8    32       P1  7948  1.00
      L1  H    11    33       P1  7948  0.90
      L1  C    21    46       P1  7948  1.00

> <Gold.PLP.Chemscore.Internal.Correction>
0.0210

> <Gold.Rescore>
     Score         DG    S(hbond)    S(metal)    S(lipo)     H(rot)  DE(clash)    DE(int)     intcor
     15.11     -17.33       1.95        0.00      84.37       1.78       1.55       0.67       ----

> <Gold.Chemscore.Fitness>
15.1125

> <Gold.Chemscore.DG>
-17.3291

> <Gold.Chemscore.ZeroCoef>
-5.4800

> <Gold.Chemscore.Hbond>
1.9528

> <Gold.Chemscore.Metal>
0.0000

> <Gold.Chemscore.Lipo>
84.3667

> <Gold.Chemscore.Internal_Hbond>
0.0000

> <Gold.Chemscore.DEClash>
1.5458

> <Gold.Chemscore.DEInternal>
0.6707

> <Gold.Chemscore.Rot>
1.7751

> <Gold.Chemscore.Internal.Correction>
   9.000000E+99

> <Gold.Chemscore.Hbonds>
donor molecule, donor type, donor heavy atom, donor atom, acceptor molecule, acceptor atom, score
      L1  H     8    32       P1  7948  0.99
      L1  H    11    33       P1  7948  0.83

> <Gold.Chemscore.Hbond.Weighted>
-6.5223

> <Gold.Chemscore.Metal.Weighted>
-0.0000

> <Gold.Chemscore.Lipo.Weighted>
-9.8709

> <Gold.Chemscore.Internal_Hbond.Weighted>
0.0000

> <Gold.Chemscore.DEClash.Weighted>
1.5458

> <Gold.Chemscore.DEInternal.Weighted>
0.6707

> <Gold.Chemscore.Rot.Weighted>
4.5441

> <Gold.Chemscore.Internal.Correction.Weighted>
   9.000000E+99

> <Gold.Protein.RotatedTorsions>
[ 6907 6896 6895 6894 ] final  108.02 input  -60.11 | X-H torsion
[ 7974 7965 7964 7962 ] final   93.75 input  175.53 | X-H torsion
[ 8008 7997 7996 7995 ] final  -55.29 input   59.86 | X-H torsion
[ 10167 10162 10161 10158 ] final  168.85 input  -65.29 | X-H torsion
[ 10718 10713 10712 10709 ] final   41.87 input   66.30 | X-H torsion
[ 10763 10752 10751 10750 ] final  -64.92 input  -60.55 | X-H torsion
[ 11005 11000 10999 10996 ] final   62.31 input  -57.11 | X-H torsion

> <Gold.Protein.ActiveResidues>
 VAL166  LYS551  ARG553  GLY616  TRP617  ASP618  TYR619  PRO620  LYS621  CYS622 
 ASP623  PHE694  ASN695  SER759  ASP760  ASP761  ALA762  ILE779  LEU786  VAL792 
 PHE793  MET794  SER795  GLU796  ALA797  LYS798  CYS799  TRP800  GLU811  SER814 

> <Gold.Protein.RotatedAtoms>
  152.5130  133.9150  159.7506 H   0  0  0  0  0  0  0  0  0  0  0  0  # atno 6907 bound_to 6896
  150.9535  133.6515  159.2774 H   0  0  0  0  0  0  0  0  0  0  0  0  # atno 6908 bound_to 6896
  151.3785  135.0940  159.9541 H   0  0  0  0  0  0  0  0  0  0  0  0  # atno 6909 bound_to 6896
  145.4747  139.2280  143.2915 H   0  0  0  0  0  0  0  0  0  0  0  0  # atno 7974 bound_to 7965
  154.4190  140.1156  156.5453 H   0  0  0  0  0  0  0  0  0  0  0  0  # atno 8008 bound_to 7997
  155.6466  140.3496  155.4714 H   0  0  0  0  0  0  0  0  0  0  0  0  # atno 8009 bound_to 7997
  155.9827  140.1163  157.0701 H   0  0  0  0  0  0  0  0  0  0  0  0  # atno 8010 bound_to 7997
  139.4978  144.3770  151.9663 H   0  0  0  0  0  0  0  0  0  0  0  0  # atno 10167 bound_to 10162
  157.3985  130.7846  149.7328 H   0  0  0  0  0  0  0  0  0  0  0  0  # atno 10718 bound_to 10713
  154.3373  135.6164  153.5579 H   0  0  0  0  0  0  0  0  0  0  0  0  # atno 10763 bound_to 10752
  152.9807  135.5761  154.4893 H   0  0  0  0  0  0  0  0  0  0  0  0  # atno 10764 bound_to 10752
  154.4591  135.2855  155.1703 H   0  0  0  0  0  0  0  0  0  0  0  0  # atno 10765 bound_to 10752
  140.0101  134.6309  155.9794 H   0  0  0  0  0  0  0  0  0  0  0  0  # atno 11005 bound_to 11000
  146.2376  140.5528  142.8948 LP  0  0  0  0  0  0  0  0  0  0  0  0  # atno 17320 bound_to 7965
  144.7924  140.6058  143.6532 LP  0  0  0  0  0  0  0  0  0  0  0  0  # atno 17321 bound_to 7965
  140.3206  144.3432  150.6010 LP  0  0  0  0  0  0  0  0  0  0  0  0  # atno 17342 bound_to 10162
  140.5725  143.2179  151.7573 LP  0  0  0  0  0  0  0  0  0  0  0  0  # atno 17343 bound_to 10162
  155.9817  130.4017  150.3459 LP  0  0  0  0  0  0  0  0  0  0  0  0  # atno 17370 bound_to 10713
  157.1584  131.0338  151.2852 LP  0  0  0  0  0  0  0  0  0  0  0  0  # atno 17371 bound_to 10713
  141.1705  133.6537  156.4633 LP  0  0  0  0  0  0  0  0  0  0  0  0  # atno 17394 bound_to 11000
  140.4570  134.6876  157.5067 LP  0  0  0  0  0  0  0  0  0  0  0  0  # atno 17395 bound_to 11000

$$$$
