AV-unprocessed.smi:316|AV-procd|sdf|2325|dock8
  -GOLD-   2262022223D 1   1.00000     0.00000
 Structure written by MMmdl.
 43 44  0  0  0  0  0  0  0  0  2 V2000
  151.1506  136.7502  156.6657 C   0  0  0  0  0  0  0  0  0  0  0  0
  152.0420  136.9254  157.8022 N   0  0  0  0  0  0  0  0  0  0  0  0
  153.3411  136.5948  157.7997 C   0  0  0  0  0  0  0  0  0  0  0  0
  153.9084  136.1059  156.8221 O   0  0  0  0  0  0  0  0  0  0  0  0
  154.1063  136.8649  159.0994 C   0  0  0  0  0  0  0  0  0  0  0  0
  153.3164  137.7257  160.1057 C   0  0  0  0  0  0  0  0  0  0  0  0
  152.5618  138.7801  159.4372 N   0  0  0  0  0  0  0  0  0  0  0  0
  152.7462  140.0938  159.6276 C   0  0  0  0  0  0  0  0  0  0  0  0
  153.5914  140.5604  160.3913 O   0  0  0  0  0  0  0  0  0  0  0  0
  151.9102  140.8203  158.8671 N   0  0  0  0  0  0  0  0  0  0  0  0
  151.8505  142.2377  158.7514 C   0  0  0  0  0  0  0  0  0  0  0  0
  152.4754  143.0757  159.7105 C   0  0  0  0  0  0  0  0  0  0  0  0
  152.3446  144.4736  159.6142 C   0  0  0  0  0  0  0  0  0  0  0  0
  151.5759  145.0141  158.5695 C   0  0  0  0  0  0  0  0  0  0  0  0
  150.9830  144.1905  157.6808 N   0  3  0  0  0  0  0  0  0  0  0  0
  151.0839  142.8380  157.7105 C   0  0  0  0  0  0  0  0  0  0  0  0
  150.4164  142.1046  156.7029 N   0  0  0  0  0  0  0  0  0  0  0  0
  151.1530  141.1717  155.8580 C   0  0  0  0  0  0  0  0  0  0  0  0
  150.0816  140.3332  155.1665 C   0  0  0  0  0  0  0  0  0  0  0  0
  149.0057  140.2233  156.2428 C   0  0  0  0  0  0  0  0  0  0  0  0
  149.0882  141.5651  156.9781 C   0  0  0  0  0  0  0  0  0  0  0  0
  150.1432  137.0717  156.9304 H   0  0  0  0  0  0  0  0  0  0  0  0
  151.1060  135.7031  156.3633 H   0  0  0  0  0  0  0  0  0  0  0  0
  151.4861  137.3450  155.8151 H   0  0  0  0  0  0  0  0  0  0  0  0
  151.6478  137.3262  158.6411 H   0  0  0  0  0  0  0  0  0  0  0  0
  154.3651  135.9043  159.5465 H   0  0  0  0  0  0  0  0  0  0  0  0
  155.0471  137.3610  158.8552 H   0  0  0  0  0  0  0  0  0  0  0  0
  152.6059  137.1052  160.6533 H   0  0  0  0  0  0  0  0  0  0  0  0
  153.9836  138.1653  160.8495 H   0  0  0  0  0  0  0  0  0  0  0  0
  151.8462  138.4849  158.7891 H   0  0  0  0  0  0  0  0  0  0  0  0
  151.3333  140.3036  158.2194 H   0  0  0  0  0  0  0  0  0  0  0  0
  153.0375  142.6649  160.5358 H   0  0  0  0  0  0  0  0  0  0  0  0
  152.8170  145.1201  160.3393 H   0  0  0  0  0  0  0  0  0  0  0  0
  151.4141  146.0717  158.4204 H   0  0  0  0  0  0  0  0  0  0  0  0
  151.7837  141.6956  155.1392 H   0  0  0  0  0  0  0  0  0  0  0  0
  151.7872  140.5251  156.4661 H   0  0  0  0  0  0  0  0  0  0  0  0
  149.6887  140.8675  154.3004 H   0  0  0  0  0  0  0  0  0  0  0  0
  150.4512  139.3643  154.8297 H   0  0  0  0  0  0  0  0  0  0  0  0
  148.0139  140.0229  155.8361 H   0  0  0  0  0  0  0  0  0  0  0  0
  149.2566  139.4130  156.9286 H   0  0  0  0  0  0  0  0  0  0  0  0
  148.9055  141.4436  158.0467 H   0  0  0  0  0  0  0  0  0  0  0  0
  148.3412  142.2530  156.5812 H   0  0  0  0  0  0  0  0  0  0  0  0
  150.4304  144.6133  156.9348 H   0  0  0  0  0  0  0  0  0  0  0  0
  1  2  1  0  0  0  0
  1 22  1  0  0  0  0
  1 23  1  0  0  0  0
  1 24  1  0  0  0  0
  2  3  1  0  0  0  0
  2 25  1  0  0  0  0
  3  4  2  0  0  0  0
  3  5  1  0  0  0  0
  5  6  1  0  0  0  0
  5 26  1  0  0  0  0
  5 27  1  0  0  0  0
  6  7  1  0  0  0  0
  6 28  1  0  0  0  0
  6 29  1  0  0  0  0
  7  8  1  0  0  0  0
  7 30  1  0  0  0  0
  8  9  2  0  0  0  0
  8 10  1  0  0  0  0
 10 11  1  0  0  0  0
 10 31  1  0  0  0  0
 11 16  1  0  0  0  0
 11 12  2  0  0  0  0
 12 13  1  0  0  0  0
 12 32  1  0  0  0  0
 13 14  2  0  0  0  0
 13 33  1  0  0  0  0
 14 15  1  0  0  0  0
 14 34  1  0  0  0  0
 15 16  2  0  0  0  0
 15 43  1  0  0  0  0
 16 17  1  0  0  0  0
 17 21  1  0  0  0  0
 17 18  1  0  0  0  0
 18 19  1  0  0  0  0
 18 35  1  0  0  0  0
 18 36  1  0  0  0  0
 19 20  1  0  0  0  0
 19 37  1  0  0  0  0
 19 38  1  0  0  0  0
 20 21  1  0  0  0  0
 20 39  1  0  0  0  0
 20 40  1  0  0  0  0
 21 41  1  0  0  0  0
 21 42  1  0  0  0  0
M  CHG  1  15   1
M  END
> <s_m_source_file>
AV-unprocessed.smi

> <i_m_source_file_index>
316

> <i_lp_mmshare_version>
43012

> <i_f3d_flags>
0

> <s_epik_input>
W0NIM11bTkhdQyg9TylbQ0gyXVtDSDJdW05IXUMoPU8pW05IXWMxW2NIXVtjSF1bY0hdbmMxTjJbQ0gyXVtDSDJdW0NIMl1bQ0gyXTI=

> <s_epik_cmdline>
J2VwaWtfcHl0aG9uJywgJy1waCcsICc3LjAnLCAnLXRuJywgJzgnLCAnLW1hJywgJzIwMCcsICctbWV0YWxfYmluZGluZycsICctaW1hZScsICc8aW5maWxlLm1hZT4nLCAnLW9tYWUnLCAnPG91dGZpbGUubWFlPic=

> <r_lp_tautomer_probability>
0.999994

> <r_epik_Ionization_Penalty>
1.15434

> <r_epik_Ionization_Penalty_Charging>
1.15432

> <r_epik_Ionization_Penalty_Neutral>
1.92607e-05

> <r_epik_State_Penalty>
1.21599

> <r_epik_Charging_Adjusted_Penalty>
2.37031

> <i_epik_Tot_Q>
1

> <i_epik_Tot_abs_Q>
1

> <r_epik_Metal_State_Penalty>
1.29606

> <b_epik_Metal_Only>
0

> <s_lp_Force_Field>
OPLS_2005

> <r_lp_Energy>
36.337

> <b_lp_Chiralities_Consistent>
1

> <s_lp_Variant>
AV-unprocessed.smi:316-2

> <Gold.Version>
5.8.1

> <Gold.Id.Protein>
6NUR|6NUR_protein|mol2

> <Gold.PLP.Fitness>
41.8418

> <Gold.PLP.PLP>
-33.6925

> <Gold.PLP.part.hbond>
-2.0000

> <Gold.PLP.part.metal>
0.0000

> <Gold.PLP.part.buried>
-6.5995

> <Gold.PLP.part.nonpolar>
-25.2632

> <Gold.PLP.part.repulsive>
0.4779

> <Gold.PLP.ligand.clash>
0.0000

> <Gold.PLP.ligand.torsion>
0.6251

> <Gold.PLP.Chemscore.Hbond>
3.0000

> <Gold.PLP.Chemscore.CHOScore>
0.0000

> <Gold.PLP.Chemscore.Metal>
0.0000

> <Gold.Chemscore.Hbonds>
donor molecule, donor type, donor heavy atom, donor atom, acceptor molecule, acceptor atom, score
      L1  H    15    43       P1  8028  2.00
      P1  H 10752 10763       L1     4  1.00

> <Gold.PLP.Chemscore.Internal.Correction>
0.3996

> <Gold.Rescore>
     Score         DG    S(hbond)    S(metal)    S(lipo)     H(rot)  DE(clash)    DE(int)     intcor
     12.56     -16.42       1.92        0.00      81.83       1.98       0.02       3.84       ----

> <Gold.Chemscore.Fitness>
12.5582

> <Gold.Chemscore.DG>
-16.4157

> <Gold.Chemscore.ZeroCoef>
-5.4800

> <Gold.Chemscore.Hbond>
1.9221

> <Gold.Chemscore.Metal>
0.0000

> <Gold.Chemscore.Lipo>
81.8330

> <Gold.Chemscore.Internal_Hbond>
0.0000

> <Gold.Chemscore.DEClash>
0.0153

> <Gold.Chemscore.DEInternal>
3.8422

> <Gold.Chemscore.Rot>
1.9760

> <Gold.Chemscore.Internal.Correction>
   9.000000E+99

> <Gold.Chemscore.Hbonds>
donor molecule, donor type, donor heavy atom, donor atom, acceptor molecule, acceptor atom, score
      L1  H    15    43       P1  8028  0.76
      P1  H 10752 10763       L1     4  0.98

> <Gold.Chemscore.Hbond.Weighted>
-6.4198

> <Gold.Chemscore.Metal.Weighted>
-0.0000

> <Gold.Chemscore.Lipo.Weighted>
-9.5745

> <Gold.Chemscore.Internal_Hbond.Weighted>
0.0000

> <Gold.Chemscore.DEClash.Weighted>
0.0153

> <Gold.Chemscore.DEInternal.Weighted>
3.8422

> <Gold.Chemscore.Rot.Weighted>
5.0585

> <Gold.Chemscore.Internal.Correction.Weighted>
   9.000000E+99

> <Gold.Protein.RotatedTorsions>
[ 6907 6896 6895 6894 ] final  125.49 input  -60.11 | X-H torsion
[ 7974 7965 7964 7962 ] final  -54.93 input  175.53 | X-H torsion
[ 8008 7997 7996 7995 ] final   -5.13 input   59.86 | X-H torsion
[ 10167 10162 10161 10158 ] final -151.46 input  -65.29 | X-H torsion
[ 10718 10713 10712 10709 ] final  -41.57 input   66.30 | X-H torsion
[ 10763 10752 10751 10750 ] final  144.33 input  -60.55 | X-H torsion
[ 11005 11000 10999 10996 ] final -153.18 input  -57.11 | X-H torsion

> <Gold.Protein.ActiveResidues>
 VAL166  LYS551  ARG553  GLY616  TRP617  ASP618  TYR619  PRO620  LYS621  CYS622 
 ASP623  PHE694  ASN695  SER759  ASP760  ASP761  ALA762  ILE779  LEU786  VAL792 
 PHE793  MET794  SER795  GLU796  ALA797  LYS798  CYS799  TRP800  GLU811  SER814 

> <Gold.Protein.RotatedAtoms>
  152.3987  133.6786  159.6298 H   0  0  0  0  0  0  0  0  0  0  0  0  # atno 6907 bound_to 6896
  150.7882  133.8828  159.3299 H   0  0  0  0  0  0  0  0  0  0  0  0  # atno 6908 bound_to 6896
  151.6599  135.0992  160.0229 H   0  0  0  0  0  0  0  0  0  0  0  0  # atno 6909 bound_to 6896
  145.8800  140.8152  142.9845 H   0  0  0  0  0  0  0  0  0  0  0  0  # atno 7974 bound_to 7965
  154.6071  140.2466  155.7717 H   0  0  0  0  0  0  0  0  0  0  0  0  # atno 8008 bound_to 7997
  156.2347  140.2954  156.0233 H   0  0  0  0  0  0  0  0  0  0  0  0  # atno 8009 bound_to 7997
  155.2114  140.0397  157.2924 H   0  0  0  0  0  0  0  0  0  0  0  0  # atno 8010 bound_to 7997
  139.7266  143.8874  152.2521 H   0  0  0  0  0  0  0  0  0  0  0  0  # atno 10167 bound_to 10162
  156.2689  130.4204  149.8459 H   0  0  0  0  0  0  0  0  0  0  0  0  # atno 10718 bound_to 10713
  153.9871  135.2935  155.3415 H   0  0  0  0  0  0  0  0  0  0  0  0  # atno 10763 bound_to 10752
  154.7235  135.5098  153.8853 H   0  0  0  0  0  0  0  0  0  0  0  0  # atno 10764 bound_to 10752
  153.0827  135.6684  154.0128 H   0  0  0  0  0  0  0  0  0  0  0  0  # atno 10765 bound_to 10752
  140.7109  134.3833  157.5197 H   0  0  0  0  0  0  0  0  0  0  0  0  # atno 11005 bound_to 11000
  144.6727  140.1369  143.7440 LP  0  0  0  0  0  0  0  0  0  0  0  0  # atno 17320 bound_to 7965
  145.9035  139.2444  143.1479 LP  0  0  0  0  0  0  0  0  0  0  0  0  # atno 17321 bound_to 7965
  139.8785  144.7030  150.8905 LP  0  0  0  0  0  0  0  0  0  0  0  0  # atno 17342 bound_to 10162
  140.7764  143.3680  151.1702 LP  0  0  0  0  0  0  0  0  0  0  0  0  # atno 17343 bound_to 10162
  156.5948  130.8521  151.3417 LP  0  0  0  0  0  0  0  0  0  0  0  0  # atno 17370 bound_to 10713
  157.7277  130.9646  150.1710 LP  0  0  0  0  0  0  0  0  0  0  0  0  # atno 17371 bound_to 10713
  139.8872  134.8890  156.2543 LP  0  0  0  0  0  0  0  0  0  0  0  0  # atno 17394 bound_to 11000
  141.0085  133.7109  156.1073 LP  0  0  0  0  0  0  0  0  0  0  0  0  # atno 17395 bound_to 11000

$$$$
