AV-unprocessed.smi:2621|AV-procd|sdf|10225|dock3
  -GOLD-   2272014233D 1   1.00000     0.00000
 Structure written by MMmdl.
 24 25  0  0  0  0  0  0  0  0  1 V2000
  152.2039  144.9519  159.2968 C   0  0  0  0  0  0  0  0  0  0  0  0
  152.0033  143.5810  158.6848 C   0  0  0  0  0  0  0  0  0  0  0  0
  152.7705  142.5220  159.0253 C   0  0  0  0  0  0  0  0  0  0  0  0
  152.5495  141.2121  158.4154 C   0  0  0  0  0  0  0  0  0  0  0  0
  153.2526  140.2383  158.6888 O   0  0  0  0  0  0  0  0  0  0  0  0
  151.5101  141.1478  157.5269 N   0  0  0  0  0  0  0  0  0  0  0  0
  151.1826  139.8440  156.9034 C   0  0  0  0  0  0  0  0  0  0  0  0
  151.4106  139.7338  155.4024 C   0  0  2  0  0  0  0  0  0  0  0  0
  151.9359  138.5053  154.6956 C   0  0  0  0  0  0  0  0  0  0  0  0
  152.7883  139.6081  155.0166 O   0  0  0  0  0  0  0  0  0  0  0  0
  150.7594  142.3066  157.1771 C   0  0  0  0  0  0  0  0  0  0  0  0
  149.7905  142.1382  156.2033 N   0  0  0  0  0  0  0  0  0  0  0  0
  150.9902  143.4532  157.7334 N   0  0  0  0  0  0  0  0  0  0  0  0
  152.9668  144.9332  160.0758 H   0  0  0  0  0  0  0  0  0  0  0  0
  151.2742  145.3086  159.7411 H   0  0  0  0  0  0  0  0  0  0  0  0
  152.5147  145.6644  158.5323 H   0  0  0  0  0  0  0  0  0  0  0  0
  153.5560  142.6352  159.7584 H   0  0  0  0  0  0  0  0  0  0  0  0
  151.7851  139.0650  157.3739 H   0  0  0  0  0  0  0  0  0  0  0  0
  150.1678  139.5133  157.1261 H   0  0  0  0  0  0  0  0  0  0  0  0
  150.8716  140.4657  154.8041 H   0  0  0  0  0  0  0  0  0  0  0  0
  152.1395  137.5980  155.2604 H   0  0  0  0  0  0  0  0  0  0  0  0
  151.7322  138.3852  153.6337 H   0  0  0  0  0  0  0  0  0  0  0  0
  149.6060  141.2547  155.7507 H   0  0  0  0  0  0  0  0  0  0  0  0
  149.1756  142.8772  155.8940 H   0  0  0  0  0  0  0  0  0  0  0  0
  1  2  1  0  0  0  0
  1 14  1  0  0  0  0
  1 15  1  0  0  0  0
  1 16  1  0  0  0  0
  2 13  1  0  0  0  0
  2  3  2  0  0  0  0
  3  4  1  0  0  0  0
  3 17  1  0  0  0  0
  4  5  2  0  0  0  0
  4  6  1  0  0  0  0
  6  7  1  0  0  0  0
  6 11  1  0  0  0  0
  7  8  1  0  0  0  0
  7 18  1  0  0  0  0
  7 19  1  0  0  0  0
  8 10  1  0  0  0  0
  8  9  1  0  0  0  0
  8 20  1  0  0  0  0
  9 10  1  0  0  0  0
  9 21  1  0  0  0  0
  9 22  1  0  0  0  0
 11 12  1  0  0  0  0
 11 13  2  0  0  0  0
 12 23  1  0  0  0  0
 12 24  1  0  0  0  0
M  END
> <s_m_source_file>
AV-unprocessed.smi

> <i_m_source_file_index>
2621

> <i_lp_mmshare_version>
43012

> <i_f3d_flags>
0

> <s_epik_input>
W0NIM11jMVtjSF1jKD1PKW4oYyhuMSlbTkgyXSlbQ0gyXVtDQEBIXTJbQ0gyXU8y

> <s_epik_cmdline>
J2VwaWtfcHl0aG9uJywgJy1waCcsICc3LjAnLCAnLXRuJywgJzgnLCAnLW1hJywgJzIwMCcsICctbWV0YWxfYmluZGluZycsICctaW1hZScsICc8aW5maWxlLm1hZT4nLCAnLW9tYWUnLCAnPG91dGZpbGUubWFlPic=

> <r_lp_tautomer_probability>
1

> <r_epik_Ionization_Penalty>
0.000262373

> <r_epik_Ionization_Penalty_Charging>
1.89272e-07

> <r_epik_Ionization_Penalty_Neutral>
0.000262184

> <r_epik_State_Penalty>
-0

> <r_epik_Charging_Adjusted_Penalty>
1.89272e-07

> <i_epik_Tot_Q>
0

> <i_epik_Tot_abs_Q>
0

> <r_epik_Metal_State_Penalty>
-0

> <b_epik_Metal_Only>
0

> <s_epik_Chemistry_Notes>
This compound has an imine and may undergo hydrolysis.

> <s_lp_Force_Field>
OPLS_2005

> <r_lp_Energy>
23.2987

> <b_lp_Chiralities_Consistent>
1

> <s_lp_Variant>
AV-unprocessed.smi:2621-1

> <Gold.Version>
5.8.1

> <Gold.Id.Protein>
6NUR|6NUR_protein|mol2

> <Gold.PLP.Fitness>
36.8588

> <Gold.PLP.PLP>
-30.4788

> <Gold.PLP.part.hbond>
-4.0000

> <Gold.PLP.part.metal>
0.0000

> <Gold.PLP.part.buried>
-3.6843

> <Gold.PLP.part.nonpolar>
-22.7698

> <Gold.PLP.part.repulsive>
0.2492

> <Gold.PLP.ligand.clash>
0.0000

> <Gold.PLP.ligand.torsion>
0.3522

> <Gold.PLP.Chemscore.Hbond>
2.1562

> <Gold.PLP.Chemscore.CHOScore>
0.0000

> <Gold.PLP.Chemscore.Metal>
0.0000

> <Gold.Chemscore.Hbonds>
donor molecule, donor type, donor heavy atom, donor atom, acceptor molecule, acceptor atom, score
      L1  H    12    24       P1  8028  0.98
      P1  H  7997  8008       L1     5  0.14
      P1  H  7997  8009       L1    10  1.00

> <Gold.PLP.Chemscore.Internal.Correction>
0.6159

> <Gold.Rescore>
     Score         DG    S(hbond)    S(metal)    S(lipo)     H(rot)  DE(clash)    DE(int)     intcor
     15.09     -15.54       1.98        0.00      58.37       1.31       0.01       0.44       ----

> <Gold.Chemscore.Fitness>
15.0949

> <Gold.Chemscore.DG>
-15.5438

> <Gold.Chemscore.ZeroCoef>
-5.4800

> <Gold.Chemscore.Hbond>
1.9753

> <Gold.Chemscore.Metal>
0.0000

> <Gold.Chemscore.Lipo>
58.3740

> <Gold.Chemscore.Internal_Hbond>
0.0000

> <Gold.Chemscore.DEClash>
0.0072

> <Gold.Chemscore.DEInternal>
0.4417

> <Gold.Chemscore.Rot>
1.3139

> <Gold.Chemscore.Internal.Correction>
   9.000000E+99

> <Gold.Chemscore.Hbonds>
donor molecule, donor type, donor heavy atom, donor atom, acceptor molecule, acceptor atom, score
      L1  H    12    24       P1  8028  0.93
      P1  H  7997  8008       L1     5  0.12
      P1  H  7997  8009       L1    10  0.95

> <Gold.Chemscore.Hbond.Weighted>
-6.5976

> <Gold.Chemscore.Metal.Weighted>
-0.0000

> <Gold.Chemscore.Lipo.Weighted>
-6.8298

> <Gold.Chemscore.Internal_Hbond.Weighted>
0.0000

> <Gold.Chemscore.DEClash.Weighted>
0.0072

> <Gold.Chemscore.DEInternal.Weighted>
0.4417

> <Gold.Chemscore.Rot.Weighted>
3.3636

> <Gold.Chemscore.Internal.Correction.Weighted>
   9.000000E+99

> <Gold.Protein.RotatedTorsions>
[ 6907 6896 6895 6894 ] final -146.93 input  -60.11 | X-H torsion
[ 7974 7965 7964 7962 ] final  -52.60 input  175.53 | X-H torsion
[ 8008 7997 7996 7995 ] final -123.57 input   59.86 | X-H torsion
[ 10167 10162 10161 10158 ] final   23.20 input  -65.29 | X-H torsion
[ 10718 10713 10712 10709 ] final  116.92 input   66.30 | X-H torsion
[ 10763 10752 10751 10750 ] final  132.54 input  -60.55 | X-H torsion
[ 11005 11000 10999 10996 ] final -132.31 input  -57.11 | X-H torsion

> <Gold.Protein.ActiveResidues>
 VAL166  LYS551  ARG553  GLY616  TRP617  ASP618  TYR619  PRO620  LYS621  CYS622 
 ASP623  PHE694  ASN695  SER759  ASP760  ASP761  ALA762  ILE779  LEU786  VAL792 
 PHE793  MET794  SER795  GLU796  ALA797  LYS798  CYS799  TRP800  GLU811  SER814 

> <Gold.Protein.RotatedAtoms>
  151.1485  133.4923  159.2595 H   0  0  0  0  0  0  0  0  0  0  0  0  # atno 6907 bound_to 6896
  151.1579  135.0259  159.8707 H   0  0  0  0  0  0  0  0  0  0  0  0  # atno 6908 bound_to 6896
  152.5463  134.1362  159.8513 H   0  0  0  0  0  0  0  0  0  0  0  0  # atno 6909 bound_to 6896
  145.9062  140.7953  142.9718 H   0  0  0  0  0  0  0  0  0  0  0  0  # atno 7974 bound_to 7965
  155.1827  140.0411  157.2885 H   0  0  0  0  0  0  0  0  0  0  0  0  # atno 8008 bound_to 7997
  154.6192  140.2496  155.7542 H   0  0  0  0  0  0  0  0  0  0  0  0  # atno 8009 bound_to 7997
  156.2424  140.2898  156.0492 H   0  0  0  0  0  0  0  0  0  0  0  0  # atno 8010 bound_to 7997
  140.5288  143.9877  150.6454 H   0  0  0  0  0  0  0  0  0  0  0  0  # atno 10167 bound_to 10162
  157.6129  131.1031  150.7542 H   0  0  0  0  0  0  0  0  0  0  0  0  # atno 10718 bound_to 10713
  153.7924  135.3153  155.3380 H   0  0  0  0  0  0  0  0  0  0  0  0  # atno 10763 bound_to 10752
  154.8121  135.4660  154.0546 H   0  0  0  0  0  0  0  0  0  0  0  0  # atno 10764 bound_to 10752
  153.1868  135.6902  153.8491 H   0  0  0  0  0  0  0  0  0  0  0  0  # atno 10765 bound_to 10752
  140.9181  134.1480  157.4336 H   0  0  0  0  0  0  0  0  0  0  0  0  # atno 11005 bound_to 11000
  144.6739  140.1754  143.7410 LP  0  0  0  0  0  0  0  0  0  0  0  0  # atno 17320 bound_to 7965
  145.8729  139.2281  143.1650 LP  0  0  0  0  0  0  0  0  0  0  0  0  # atno 17321 bound_to 7965
  140.3247  143.3115  152.0749 LP  0  0  0  0  0  0  0  0  0  0  0  0  # atno 17342 bound_to 10162
  139.4947  144.6550  151.6592 LP  0  0  0  0  0  0  0  0  0  0  0  0  # atno 17343 bound_to 10162
  156.7915  130.4891  149.5384 LP  0  0  0  0  0  0  0  0  0  0  0  0  # atno 17370 bound_to 10713
  156.1240  130.6130  151.0235 LP  0  0  0  0  0  0  0  0  0  0  0  0  # atno 17371 bound_to 10713
  139.8770  134.9961  156.5778 LP  0  0  0  0  0  0  0  0  0  0  0  0  # atno 17394 bound_to 11000
  140.8023  133.8495  155.8737 LP  0  0  0  0  0  0  0  0  0  0  0  0  # atno 17395 bound_to 11000

$$$$
