#       Name:                AV-unprocessed.smi:1701
#       Creating user name   scv26
#       Creation time:       Fri Mar 27 08:01:03 2020


#       File generated by GOLD software.
#

@<TRIPOS>MOLECULE
AV-unprocessed.smi:1701
    57    59     1
SMALL
NO_CHARGES


@<TRIPOS>ATOM
      1 ****        -5.7292  -2.5571   1.9734 C.3            1 S1                 0.0000
      2 ****        -5.8296  -2.1705   0.4896 C.3            1 S1                 0.0000
      3 ****        -5.1658  -0.9034   0.1844 N.pl3          1 S1                 0.0000
      4 ****        -5.8065   0.3196   0.6735 C.3            1 S1                 0.0000
      5 ****        -5.5326   1.5403  -0.2194 C.3            1 S1                 0.0000
      6 ****        -3.7551  -0.9685   0.1692 C.ar           1 S1                 0.0000
      7 ****        -3.0996  -1.8631  -0.7078 C.ar           1 S1                 0.0000
      8 ****        -1.6931  -1.9259  -0.7038 C.ar           1 S1                 0.0000
      9 ****        -0.9736  -1.0961   0.1880 C.ar           1 S1                 0.0000
     10 ****         0.4431  -1.0441   0.2822 N.am           1 S1                 0.0000
     11 ****         1.3609  -1.9125  -0.1862 C.2            1 S1                 0.0000
     12 ****         1.1025  -2.9674  -0.7600 O.2            1 S1                 0.0000
     13 ****         2.6352  -1.5332   0.0228 N.am           1 S1                 0.0000
     14 ****         3.8702  -2.2297  -0.3515 C.3            1 S1                 0.0000
     15 ****         5.0598  -1.2688  -0.5412 C.3            1 S1                 0.0000
     16 ****         6.2556  -2.0054   0.0700 C.3            1 S1                 0.0000
     17 ****         5.6472  -2.7532   1.1758 N.4            1 S1                 1.0000
     18 ****         6.4538  -3.7828   1.8615 C.3            1 S1                 0.0000
     19 ****         5.6666  -4.2745   3.0949 C.3            1 S1                 0.0000
     20 ****         4.2320  -4.7221   2.7327 C.3            1 S1                 0.0000
     21 ****         3.4881  -3.6546   1.9005 C.3            1 S1                 0.0000
     22 ****         4.3562  -3.2699   0.6884 C.3            1 S1                 0.0000
     23 ****        -1.7160  -0.2323   1.0173 C.ar           1 S1                 0.0000
     24 ****        -3.0630  -0.1681   1.0158 N.ar           1 S1                 0.0000
     25 ****        -6.2530  -3.4941   2.1620 H              1 S1                 0.0000
     26 ****        -6.1731  -1.7963   2.6158 H              1 S1                 0.0000
     27 ****        -4.6917  -2.6926   2.2802 H              1 S1                 0.0000
     28 ****        -5.4288  -2.9744  -0.1272 H              1 S1                 0.0000
     29 ****        -6.8802  -2.0843   0.2110 H              1 S1                 0.0000
     30 ****        -6.8836   0.1569   0.7214 H              1 S1                 0.0000
     31 ****        -5.4877   0.5232   1.6965 H              1 S1                 0.0000
     32 ****        -6.0664   2.4148   0.1529 H              1 S1                 0.0000
     33 ****        -5.8664   1.3603  -1.2416 H              1 S1                 0.0000
     34 ****        -4.4737   1.7954  -0.2538 H              1 S1                 0.0000
     35 ****        -3.6593  -2.4854  -1.3903 H              1 S1                 0.0000
     36 ****        -1.2036  -2.5955  -1.3929 H              1 S1                 0.0000
     37 ****         0.8074  -0.2553   0.7956 H              1 S1                 0.0000
     38 ****         2.7593  -0.6347   0.4672 H              1 S1                 0.0000
     39 ****         3.7194  -2.7408  -1.3042 H              1 S1                 0.0000
     40 ****         5.2240  -1.0033  -1.5861 H              1 S1                 0.0000
     41 ****         4.8903  -0.3421   0.0099 H              1 S1                 0.0000
     42 ****         6.6907  -2.6993  -0.6511 H              1 S1                 0.0000
     43 ****         7.0364  -1.3271   0.4157 H              1 S1                 0.0000
     44 ****         6.6683  -4.6082   1.1812 H              1 S1                 0.0000
     45 ****         7.4102  -3.3588   2.1693 H              1 S1                 0.0000
     46 ****         6.2025  -5.0910   3.5797 H              1 S1                 0.0000
     47 ****         5.6122  -3.4676   3.8271 H              1 S1                 0.0000
     48 ****         4.2810  -5.6511   2.1629 H              1 S1                 0.0000
     49 ****         3.6702  -4.9486   3.6394 H              1 S1                 0.0000
     50 ****         2.5264  -4.0525   1.5771 H              1 S1                 0.0000
     51 ****         3.2802  -2.7773   2.5146 H              1 S1                 0.0000
     52 ****         4.5615  -4.1839   0.1267 H              1 S1                 0.0000
     53 ****        -1.2142   0.4296   1.7079 H              1 S1                 0.0000
     54 ****         5.4210  -2.0587   1.8733 H              1 S1                 0.0000
     55 ****         0.1507  -3.2355  -0.9089 LP             1 S1                 0.0000
     56 ****         1.8440  -3.5582  -1.0782 LP             1 S1                 0.0000
     57 ****        -3.5429   0.4594   1.6289 LP             1 S1                 0.0000
@<TRIPOS>BOND
    1    1    2 1     
    2    1   25 1     
    3    1   26 1     
    4    1   27 1     
    5    2    3 1     
    6    2   28 1     
    7    2   29 1     
    8    3    4 1     
    9    3    6 1     
   10    4    5 1     
   11    4   30 1     
   12    4   31 1     
   13    5   32 1     
   14    5   33 1     
   15    5   34 1     
   16    6   24 ar    
   17    6    7 ar    
   18    7    8 ar    
   19    7   35 1     
   20    8    9 ar    
   21    8   36 1     
   22    9   10 1     
   23    9   23 ar    
   24   10   11 am    
   25   10   37 1     
   26   11   12 2     
   27   11   13 am    
   28   13   14 1     
   29   13   38 1     
   30   14   22 1     
   31   14   15 1     
   32   14   39 1     
   33   15   16 1     
   34   15   40 1     
   35   15   41 1     
   36   16   17 1     
   37   16   42 1     
   38   16   43 1     
   39   17   22 1     
   40   17   18 1     
   41   17   54 1     
   42   18   19 1     
   43   18   44 1     
   44   18   45 1     
   45   19   20 1     
   46   19   46 1     
   47   19   47 1     
   48   20   21 1     
   49   20   48 1     
   50   20   49 1     
   51   21   22 1     
   52   21   50 1     
   53   21   51 1     
   54   22   52 1     
   55   23   24 ar    
   56   23   53 1     
   57   12   55 1     
   58   12   56 1     
   59   24   57 1     
@<TRIPOS>SUBSTRUCTURE
      1 S1             1
@<TRIPOS>SET
LONE_PAIRS      STATIC     ATOMS    <user>   **** ""
3 55 56 57
DONOR_HYDROGENS      STATIC     ATOMS    <user>   **** ""
3 37 38 54
ATOM$BLUE        STATIC     ATOMS    COLORGROUP SYSTEM
3 55 56 57
ATOM$RED        STATIC     ATOMS    COLORGROUP SYSTEM
3 37 38 54
