AV-unprocessed.smi:2511|AV-procd|sdf|9886|dock3
  -GOLD-   2272013523D 1   1.00000     0.00000
 Structure written by MMmdl.
 40 41  0  0  0  0  0  0  0  0  1 V2000
  145.5169  138.3670  152.1672 N   0  0  0  0  0  0  0  0  0  0  0  0
  146.3715  138.0191  153.1353 C   0  0  0  0  0  0  0  0  0  0  0  0
  146.5306  136.8486  153.4785 O   0  0  0  0  0  0  0  0  0  0  0  0
  147.1016  139.1453  153.8178 C   0  0  0  0  0  0  0  0  0  0  0  0
  147.2476  140.3900  153.1640 C   0  0  0  0  0  0  0  0  0  0  0  0
  147.9273  141.4340  153.8200 C   0  0  0  0  0  0  0  0  0  0  0  0
  148.4479  141.2044  155.1152 C   0  0  0  0  0  0  0  0  0  0  0  0
  149.1399  142.1757  155.8880 N   0  0  0  0  0  0  0  0  0  0  0  0
  149.2697  142.2548  157.2270 C   0  0  0  0  0  0  0  0  0  0  0  0
  148.7913  141.4529  158.0259 O   0  0  0  0  0  0  0  0  0  0  0  0
  149.9679  143.3235  157.6526 N   0  0  0  0  0  0  0  0  0  0  0  0
  150.2982  143.7178  159.0264 C   0  0  2  0  0  0  0  0  0  0  0  0
  151.1103  145.0271  159.0179 C   0  0  0  0  0  0  0  0  0  0  0  0
  152.5341  144.8235  158.4727 C   0  0  0  0  0  0  0  0  0  0  0  0
  153.2758  143.7183  159.2408 C   0  0  0  0  0  0  0  0  0  0  0  0
  152.4944  142.3876  159.2221 C   0  0  1  0  0  0  0  0  0  0  0  0
  153.2398  141.2677  159.9774 C   0  0  0  0  0  0  0  0  0  0  0  0
  154.5353  141.2631  159.6619 F   0  0  0  0  0  0  0  0  0  0  0  0
  153.1172  141.4451  161.2929 F   0  0  0  0  0  0  0  0  0  0  0  0
  152.7169  140.0812  159.6675 F   0  0  0  0  0  0  0  0  0  0  0  0
  151.0666  142.6039  159.7730 C   0  0  0  0  0  0  0  0  0  0  0  0
  148.2324  139.9362  155.6909 C   0  0  0  0  0  0  0  0  0  0  0  0
  147.5833  138.9314  155.0664 N   0  0  0  0  0  0  0  0  0  0  0  0
  145.0004  137.6563  151.6703 H   0  0  0  0  0  0  0  0  0  0  0  0
  145.3979  139.3433  151.9381 H   0  0  0  0  0  0  0  0  0  0  0  0
  146.8469  140.5523  152.1738 H   0  0  0  0  0  0  0  0  0  0  0  0
  148.0218  142.3860  153.3218 H   0  0  0  0  0  0  0  0  0  0  0  0
  149.5289  142.9461  155.3639 H   0  0  0  0  0  0  0  0  0  0  0  0
  150.3066  143.9453  156.9324 H   0  0  0  0  0  0  0  0  0  0  0  0
  149.3675  143.9197  159.5595 H   0  0  0  0  0  0  0  0  0  0  0  0
  150.5921  145.7900  158.4355 H   0  0  0  0  0  0  0  0  0  0  0  0
  151.1725  145.4148  160.0356 H   0  0  0  0  0  0  0  0  0  0  0  0
  152.4925  144.5675  157.4135 H   0  0  0  0  0  0  0  0  0  0  0  0
  153.0915  145.7581  158.5395 H   0  0  0  0  0  0  0  0  0  0  0  0
  154.2650  143.5786  158.8040 H   0  0  0  0  0  0  0  0  0  0  0  0
  153.4374  144.0387  160.2709 H   0  0  0  0  0  0  0  0  0  0  0  0
  152.4079  142.0695  158.1819 H   0  0  0  0  0  0  0  0  0  0  0  0
  151.1284  142.8695  160.8290 H   0  0  0  0  0  0  0  0  0  0  0  0
  150.5058  141.6697  159.7361 H   0  0  0  0  0  0  0  0  0  0  0  0
  148.5971  139.7162  156.6837 H   0  0  0  0  0  0  0  0  0  0  0  0
  1  2  1  0  0  0  0
  1 24  1  0  0  0  0
  1 25  1  0  0  0  0
  2  3  2  0  0  0  0
  2  4  1  0  0  0  0
  4 23  1  0  0  0  0
  4  5  2  0  0  0  0
  5  6  1  0  0  0  0
  5 26  1  0  0  0  0
  6  7  2  0  0  0  0
  6 27  1  0  0  0  0
  7  8  1  0  0  0  0
  7 22  1  0  0  0  0
  8  9  1  0  0  0  0
  8 28  1  0  0  0  0
  9 10  2  0  0  0  0
  9 11  1  0  0  0  0
 11 12  1  0  0  0  0
 11 29  1  0  0  0  0
 12 21  1  0  0  0  0
 12 13  1  0  0  0  0
 12 30  1  0  0  0  0
 13 14  1  0  0  0  0
 13 31  1  0  0  0  0
 13 32  1  0  0  0  0
 14 15  1  0  0  0  0
 14 33  1  0  0  0  0
 14 34  1  0  0  0  0
 15 16  1  0  0  0  0
 15 35  1  0  0  0  0
 15 36  1  0  0  0  0
 16 17  1  0  0  0  0
 16 21  1  0  0  0  0
 16 37  1  0  0  0  0
 17 18  1  0  0  0  0
 17 19  1  0  0  0  0
 17 20  1  0  0  0  0
 21 38  1  0  0  0  0
 21 39  1  0  0  0  0
 22 23  2  0  0  0  0
 22 40  1  0  0  0  0
M  END
> <s_m_source_file>
AV-unprocessed.smi

> <i_m_source_file_index>
2511

> <i_lp_mmshare_version>
43012

> <i_f3d_flags>
0

> <s_epik_input>
W05IMl1DKD1PKWMxW2NIXVtjSF1jKFtjSF1uMSlbTkhdQyg9TylbTkhdW0NAQEhdMltDSDJdW0NIMl1bQ0gyXVtDQEBIXShDKEYpKEYpRilbQ0gyXTI=

> <s_epik_cmdline>
J2VwaWtfcHl0aG9uJywgJy1waCcsICc3LjAnLCAnLXRuJywgJzgnLCAnLW1hJywgJzIwMCcsICctbWV0YWxfYmluZGluZycsICctaW1hZScsICc8aW5maWxlLm1hZT4nLCAnLW9tYWUnLCAnPG91dGZpbGUubWFlPic=

> <r_lp_tautomer_probability>
1

> <r_epik_Ionization_Penalty>
4.28758e-05

> <r_epik_Ionization_Penalty_Charging>
0

> <r_epik_Ionization_Penalty_Neutral>
4.28758e-05

> <r_epik_State_Penalty>
-0

> <r_epik_Charging_Adjusted_Penalty>
0

> <i_epik_Tot_Q>
0

> <i_epik_Tot_abs_Q>
0

> <r_epik_Metal_State_Penalty>
-0

> <b_epik_Metal_Only>
0

> <s_lp_Force_Field>
OPLS_2005

> <r_lp_Energy>
27.7433

> <b_lp_Chiralities_Consistent>
1

> <s_lp_Variant>
AV-unprocessed.smi:2511-1

> <Gold.Version>
5.8.1

> <Gold.Id.Protein>
6NUR|6NUR_protein|mol2

> <Gold.PLP.Fitness>
42.6524

> <Gold.PLP.PLP>
-39.2675

> <Gold.PLP.part.hbond>
-4.0464

> <Gold.PLP.part.metal>
0.0000

> <Gold.PLP.part.buried>
-2.5745

> <Gold.PLP.part.nonpolar>
-33.5142

> <Gold.PLP.part.repulsive>
0.8209

> <Gold.PLP.ligand.clash>
0.0000

> <Gold.PLP.ligand.torsion>
0.6139

> <Gold.PLP.Chemscore.Hbond>
1.5277

> <Gold.PLP.Chemscore.CHOScore>
0.0000

> <Gold.PLP.Chemscore.Metal>
0.0000

> <Gold.Chemscore.Hbonds>
donor molecule, donor type, donor heavy atom, donor atom, acceptor molecule, acceptor atom, score
      L1  H     1    24       P1 10171  0.03
      L1  H     1    25       P1 10175  0.39
      L1  H     8    28       P1  8028  0.42
      L1  H    11    29       P1  8028  0.33

> <Gold.PLP.Chemscore.Internal.Correction>
0.0296

> <Gold.Rescore>
     Score         DG    S(hbond)    S(metal)    S(lipo)     H(rot)  DE(clash)    DE(int)     intcor
     18.23     -22.78       2.54        0.00      97.27       1.00       2.08       2.47       ----

> <Gold.Chemscore.Fitness>
18.2262

> <Gold.Chemscore.DG>
-22.7777

> <Gold.Chemscore.ZeroCoef>
-5.4800

> <Gold.Chemscore.Hbond>
2.5379

> <Gold.Chemscore.Metal>
0.0000

> <Gold.Chemscore.Lipo>
97.2744

> <Gold.Chemscore.Internal_Hbond>
0.0000

> <Gold.Chemscore.DEClash>
2.0804

> <Gold.Chemscore.DEInternal>
2.4711

> <Gold.Chemscore.Rot>
1.0000

> <Gold.Chemscore.Internal.Correction>
   9.000000E+99

> <Gold.Chemscore.Hbonds>
donor molecule, donor type, donor heavy atom, donor atom, acceptor molecule, acceptor atom, score
      L1  H     1    24       P1 10171  0.04
      L1  H     1    25       P1 10175  0.37
      L1  H     8    28       P1  8028  0.40
      L1  H    11    29       P1  8028  0.31

> <Gold.Chemscore.Hbond.Weighted>
-8.4766

> <Gold.Chemscore.Metal.Weighted>
-0.0000

> <Gold.Chemscore.Lipo.Weighted>
-11.3811

> <Gold.Chemscore.Internal_Hbond.Weighted>
0.0000

> <Gold.Chemscore.DEClash.Weighted>
2.0804

> <Gold.Chemscore.DEInternal.Weighted>
2.4711

> <Gold.Chemscore.Rot.Weighted>
2.5600

> <Gold.Chemscore.Internal.Correction.Weighted>
   9.000000E+99

> <Gold.Protein.RotatedTorsions>
[ 6907 6896 6895 6894 ] final  -95.86 input  -60.11 | X-H torsion
[ 7974 7965 7964 7962 ] final -148.21 input  175.53 | X-H torsion
[ 8008 7997 7996 7995 ] final  -83.80 input   59.86 | X-H torsion
[ 10167 10162 10161 10158 ] final  -54.50 input  -65.29 | X-H torsion
[ 10718 10713 10712 10709 ] final  -10.91 input   66.30 | X-H torsion
[ 10763 10752 10751 10750 ] final -135.26 input  -60.55 | X-H torsion
[ 11005 11000 10999 10996 ] final   24.48 input  -57.11 | X-H torsion

> <Gold.Protein.ActiveResidues>
 VAL166  LYS551  ARG553  GLY616  TRP617  ASP618  TYR619  PRO620  LYS621  CYS622 
 ASP623  PHE694  ASN695  SER759  ASP760  ASP761  ALA762  ILE779  LEU786  VAL792 
 PHE793  MET794  SER795  GLU796  ALA797  LYS798  CYS799  TRP800  GLU811  SER814 

> <Gold.Protein.RotatedAtoms>
  150.6974  134.1593  159.4169 H   0  0  0  0  0  0  0  0  0  0  0  0  # atno 6907 bound_to 6896
  151.9574  135.0138  160.0555 H   0  0  0  0  0  0  0  0  0  0  0  0  # atno 6908 bound_to 6896
  152.1957  133.4770  159.5068 H   0  0  0  0  0  0  0  0  0  0  0  0  # atno 6909 bound_to 6896
  144.8044  140.5226  143.5685 H   0  0  0  0  0  0  0  0  0  0  0  0  # atno 7974 bound_to 7965
  154.6229  140.0614  156.9638 H   0  0  0  0  0  0  0  0  0  0  0  0  # atno 8008 bound_to 7997
  155.1788  140.3297  155.4360 H   0  0  0  0  0  0  0  0  0  0  0  0  # atno 8009 bound_to 7997
  156.2441  140.1901  156.6886 H   0  0  0  0  0  0  0  0  0  0  0  0  # atno 8010 bound_to 7997
  140.6427  143.2517  151.4945 H   0  0  0  0  0  0  0  0  0  0  0  0  # atno 10167 bound_to 10162
  156.6667  130.4997  149.6013 H   0  0  0  0  0  0  0  0  0  0  0  0  # atno 10718 bound_to 10713
  154.8706  135.3709  154.4870 H   0  0  0  0  0  0  0  0  0  0  0  0  # atno 10763 bound_to 10752
  153.5519  135.7024  153.5592 H   0  0  0  0  0  0  0  0  0  0  0  0  # atno 10764 bound_to 10752
  153.3707  135.4022  155.1750 H   0  0  0  0  0  0  0  0  0  0  0  0  # atno 10765 bound_to 10752
  140.3583  134.2153  155.7674 H   0  0  0  0  0  0  0  0  0  0  0  0  # atno 11005 bound_to 11000
  145.5475  139.1476  143.3413 LP  0  0  0  0  0  0  0  0  0  0  0  0  # atno 17320 bound_to 7965
  146.2332  140.5613  142.8966 LP  0  0  0  0  0  0  0  0  0  0  0  0  # atno 17321 bound_to 7965
  139.5636  144.2095  152.1731 LP  0  0  0  0  0  0  0  0  0  0  0  0  # atno 17342 bound_to 10162
  140.1371  144.5236  150.6767 LP  0  0  0  0  0  0  0  0  0  0  0  0  # atno 17343 bound_to 10162
  156.1969  130.6595  151.1125 LP  0  0  0  0  0  0  0  0  0  0  0  0  # atno 17370 bound_to 10713
  157.7091  131.0742  150.6564 LP  0  0  0  0  0  0  0  0  0  0  0  0  # atno 17371 bound_to 10713
  141.1992  133.8018  157.0549 LP  0  0  0  0  0  0  0  0  0  0  0  0  # atno 17394 bound_to 11000
  140.0647  134.9735  157.1366 LP  0  0  0  0  0  0  0  0  0  0  0  0  # atno 17395 bound_to 11000

$$$$
