AV-unprocessed.smi:2844|AV-procd|sdf|10942|dock5
  -GOLD-   2272015393D 1   1.00000     0.00000
 Structure written by MMmdl.
 39 41  0  0  0  0  0  0  0  0  2 V2000
  151.8146  144.5189  160.5800 C   0  0  0  0  0  0  0  0  0  0  0  0
  151.7501  143.4426  159.5093 C   0  0  0  0  0  0  0  0  0  0  0  0
  150.8728  143.6294  158.4169 C   0  0  0  0  0  0  0  0  0  0  0  0
  150.8334  142.6257  157.4563 C   0  0  0  0  0  0  0  0  0  0  0  0
  150.0841  142.5090  156.2834 N   0  3  0  0  0  0  0  0  0  0  0  0
  150.3892  141.3351  155.6637 C   0  0  0  0  0  0  0  0  0  0  0  0
  151.3224  140.7011  156.4242 N   0  0  0  0  0  0  0  0  0  0  0  0
  151.9881  139.4073  156.2238 C   0  0  0  0  0  0  0  0  0  0  0  0
  151.8113  138.8650  154.7927 C   0  0  1  0  0  0  0  0  0  0  0  0
  152.7927  137.8767  154.5384 O   0  0  0  0  0  0  0  0  0  0  0  0
  150.4047  138.2795  154.5645 C   0  0  0  0  0  0  0  0  0  0  0  0
  150.2166  137.0029  155.2305 N   0  0  0  0  0  0  0  0  0  0  0  0
  149.2955  136.6745  156.2067 C   0  0  0  0  0  0  0  0  0  0  0  0
  149.5273  135.3649  156.4974 C   0  0  0  0  0  0  0  0  0  0  0  0
  148.6849  134.3981  157.6507 Cl  0  0  0  0  0  0  0  0  0  0  0  0
  150.5979  134.9527  155.6638 C   0  0  0  0  0  0  0  0  0  0  0  0
  151.0082  135.9516  154.8957 N   0  0  0  0  0  0  0  0  0  0  0  0
  151.6295  141.4682  157.5527 C   0  0  0  0  0  0  0  0  0  0  0  0
  152.5002  141.2684  158.6211 C   0  0  0  0  0  0  0  0  0  0  0  0
  152.5532  142.2769  159.6099 C   0  0  0  0  0  0  0  0  0  0  0  0
  153.4919  142.0863  160.7890 C   0  0  0  0  0  0  0  0  0  0  0  0
  151.1531  145.3538  160.3468 H   0  0  0  0  0  0  0  0  0  0  0  0
  152.8275  144.9124  160.6684 H   0  0  0  0  0  0  0  0  0  0  0  0
  151.5135  144.1152  161.5469 H   0  0  0  0  0  0  0  0  0  0  0  0
  150.2585  144.5140  158.3336 H   0  0  0  0  0  0  0  0  0  0  0  0
  149.9636  140.9711  154.7397 H   0  0  0  0  0  0  0  0  0  0  0  0
  153.0463  139.5416  156.4531 H   0  0  0  0  0  0  0  0  0  0  0  0
  151.5985  138.7033  156.9603 H   0  0  0  0  0  0  0  0  0  0  0  0
  151.9733  139.6772  154.0831 H   0  0  0  0  0  0  0  0  0  0  0  0
  152.9399  137.3872  155.3332 H   0  0  0  0  0  0  0  0  0  0  0  0
  149.6404  138.9728  154.9184 H   0  0  0  0  0  0  0  0  0  0  0  0
  150.2250  138.1365  153.4980 H   0  0  0  0  0  0  0  0  0  0  0  0
  148.5791  137.3814  156.5985 H   0  0  0  0  0  0  0  0  0  0  0  0
  151.0779  133.9880  155.5911 H   0  0  0  0  0  0  0  0  0  0  0  0
  153.1097  140.3799  158.6978 H   0  0  0  0  0  0  0  0  0  0  0  0
  154.0380  141.1453  160.7170 H   0  0  0  0  0  0  0  0  0  0  0  0
  152.9336  142.0761  161.7254 H   0  0  0  0  0  0  0  0  0  0  0  0
  154.2240  142.8932  160.8298 H   0  0  0  0  0  0  0  0  0  0  0  0
  149.4112  143.1778  155.9311 H   0  0  0  0  0  0  0  0  0  0  0  0
  1  2  1  0  0  0  0
  1 22  1  0  0  0  0
  1 23  1  0  0  0  0
  1 24  1  0  0  0  0
  2 20  1  0  0  0  0
  2  3  2  0  0  0  0
  3  4  1  0  0  0  0
  3 25  1  0  0  0  0
  4 18  2  0  0  0  0
  4  5  1  0  0  0  0
  5  6  2  0  0  0  0
  5 39  1  0  0  0  0
  6  7  1  0  0  0  0
  6 26  1  0  0  0  0
  7  8  1  0  0  0  0
  7 18  1  0  0  0  0
  8  9  1  0  0  0  0
  8 27  1  0  0  0  0
  8 28  1  0  0  0  0
  9 10  1  0  0  0  0
  9 11  1  0  0  0  0
  9 29  1  0  0  0  0
 10 30  1  0  0  0  0
 11 12  1  0  0  0  0
 11 31  1  0  0  0  0
 11 32  1  0  0  0  0
 12 17  1  0  0  0  0
 12 13  1  0  0  0  0
 13 14  2  0  0  0  0
 13 33  1  0  0  0  0
 14 15  1  0  0  0  0
 14 16  1  0  0  0  0
 16 17  2  0  0  0  0
 16 34  1  0  0  0  0
 18 19  1  0  0  0  0
 19 20  2  0  0  0  0
 19 35  1  0  0  0  0
 20 21  1  0  0  0  0
 21 36  1  0  0  0  0
 21 37  1  0  0  0  0
 21 38  1  0  0  0  0
M  CHG  1   5   1
M  END
> <s_m_source_file>
AV-unprocessed.smi

> <i_m_source_file_index>
2844

> <i_lp_mmshare_version>
43012

> <i_f3d_flags>
0

> <s_epik_input>
W0NIM11jKFtjSF0xKWMoW0NIM10pW2NIXWMoYzEyKW4oW2NIXW4yKVtDSDJdW0NASF0oW09IXSlbQ0gyXW4zW2NIXWMoQ2wpW2NIXW4z

> <s_epik_cmdline>
J2VwaWtfcHl0aG9uJywgJy1waCcsICc3LjAnLCAnLXRuJywgJzgnLCAnLW1hJywgJzIwMCcsICctbWV0YWxfYmluZGluZycsICctaW1hZScsICc8aW5maWxlLm1hZT4nLCAnLW9tYWUnLCAnPG91dGZpbGUubWFlPic=

> <r_lp_tautomer_probability>
1

> <r_epik_Ionization_Penalty>
1.09214

> <r_epik_Ionization_Penalty_Charging>
1.09214

> <r_epik_Ionization_Penalty_Neutral>
2.93683e-06

> <r_epik_State_Penalty>
1.14852

> <r_epik_Charging_Adjusted_Penalty>
2.24066

> <i_epik_Tot_Q>
1

> <i_epik_Tot_abs_Q>
1

> <r_epik_Metal_State_Penalty>
1.23687

> <b_epik_Metal_Only>
0

> <s_lp_Force_Field>
OPLS_2005

> <r_lp_Energy>
15.1146

> <b_lp_Chiralities_Consistent>
1

> <s_lp_Variant>
AV-unprocessed.smi:2844-4

> <Gold.Version>
5.8.1

> <Gold.Id.Protein>
6NUR|6NUR_protein|mol2

> <Gold.PLP.Fitness>
53.5965

> <Gold.PLP.PLP>
-45.3744

> <Gold.PLP.part.hbond>
-3.0000

> <Gold.PLP.part.metal>
0.0000

> <Gold.PLP.part.buried>
-6.0629

> <Gold.PLP.part.nonpolar>
-36.3065

> <Gold.PLP.part.repulsive>
0.2728

> <Gold.PLP.ligand.clash>
0.0000

> <Gold.PLP.ligand.torsion>
0.3991

> <Gold.PLP.Chemscore.Hbond>
3.0000

> <Gold.PLP.Chemscore.CHOScore>
0.0000

> <Gold.PLP.Chemscore.Metal>
0.0000

> <Gold.Chemscore.Hbonds>
donor molecule, donor type, donor heavy atom, donor atom, acceptor molecule, acceptor atom, score
      L1  H     5    39       P1  8028  2.00
      P1  H 10752 10765       L1    17  1.00

> <Gold.PLP.Chemscore.Internal.Correction>
0.0204

> <Gold.Rescore>
     Score         DG    S(hbond)    S(metal)    S(lipo)     H(rot)  DE(clash)    DE(int)     intcor
     17.51     -19.49       1.95        0.00     112.48       2.21       0.14       1.84       ----

> <Gold.Chemscore.Fitness>
17.5092

> <Gold.Chemscore.DG>
-19.4862

> <Gold.Chemscore.ZeroCoef>
-5.4800

> <Gold.Chemscore.Hbond>
1.9496

> <Gold.Chemscore.Metal>
0.0000

> <Gold.Chemscore.Lipo>
112.4753

> <Gold.Chemscore.Internal_Hbond>
0.0000

> <Gold.Chemscore.DEClash>
0.1407

> <Gold.Chemscore.DEInternal>
1.8363

> <Gold.Chemscore.Rot>
2.2129

> <Gold.Chemscore.Internal.Correction>
   9.000000E+99

> <Gold.Chemscore.Hbonds>
donor molecule, donor type, donor heavy atom, donor atom, acceptor molecule, acceptor atom, score
      L1  H     5    39       P1  8028  0.96
      P1  H 10752 10765       L1    17  0.44

> <Gold.Chemscore.Hbond.Weighted>
-6.5115

> <Gold.Chemscore.Metal.Weighted>
-0.0000

> <Gold.Chemscore.Lipo.Weighted>
-13.1596

> <Gold.Chemscore.Internal_Hbond.Weighted>
0.0000

> <Gold.Chemscore.DEClash.Weighted>
0.1407

> <Gold.Chemscore.DEInternal.Weighted>
1.8363

> <Gold.Chemscore.Rot.Weighted>
5.6649

> <Gold.Chemscore.Internal.Correction.Weighted>
   9.000000E+99

> <Gold.Protein.RotatedTorsions>
[ 6907 6896 6895 6894 ] final   -4.18 input  -60.11 | X-H torsion
[ 7974 7965 7964 7962 ] final   62.46 input  175.53 | X-H torsion
[ 8008 7997 7996 7995 ] final -102.72 input   59.86 | X-H torsion
[ 10167 10162 10161 10158 ] final   26.15 input  -65.29 | X-H torsion
[ 10718 10713 10712 10709 ] final   88.96 input   66.30 | X-H torsion
[ 10763 10752 10751 10750 ] final -179.71 input  -60.55 | X-H torsion
[ 11005 11000 10999 10996 ] final  173.03 input  -57.11 | X-H torsion

> <Gold.Protein.ActiveResidues>
 VAL166  LYS551  ARG553  GLY616  TRP617  ASP618  TYR619  PRO620  LYS621  CYS622 
 ASP623  PHE694  ASN695  SER759  ASP760  ASP761  ALA762  ILE779  LEU786  VAL792 
 PHE793  MET794  SER795  GLU796  ALA797  LYS798  CYS799  TRP800  GLU811  SER814 

> <Gold.Protein.RotatedAtoms>
  151.5017  135.1062  159.9830 H   0  0  0  0  0  0  0  0  0  0  0  0  # atno 6907 bound_to 6896
  152.4699  133.8001  159.6959 H   0  0  0  0  0  0  0  0  0  0  0  0  # atno 6908 bound_to 6896
  150.8702  133.7453  159.2989 H   0  0  0  0  0  0  0  0  0  0  0  0  # atno 6909 bound_to 6896
  145.8731  139.3391  143.0750 H   0  0  0  0  0  0  0  0  0  0  0  0  # atno 7974 bound_to 7965
  154.8607  140.0427  157.1663 H   0  0  0  0  0  0  0  0  0  0  0  0  # atno 8008 bound_to 7997
  154.8844  140.2977  155.5386 H   0  0  0  0  0  0  0  0  0  0  0  0  # atno 8009 bound_to 7997
  156.2998  140.2405  156.3851 H   0  0  0  0  0  0  0  0  0  0  0  0  # atno 8010 bound_to 7997
  140.5046  144.0259  150.6347 H   0  0  0  0  0  0  0  0  0  0  0  0  # atno 10167 bound_to 10162
  157.6952  131.0315  150.3354 H   0  0  0  0  0  0  0  0  0  0  0  0  # atno 10718 bound_to 10713
  154.5316  135.2800  155.1175 H   0  0  0  0  0  0  0  0  0  0  0  0  # atno 10763 bound_to 10752
  154.2693  135.6306  153.5308 H   0  0  0  0  0  0  0  0  0  0  0  0  # atno 10764 bound_to 10752
  152.9958  135.5624  154.5831 H   0  0  0  0  0  0  0  0  0  0  0  0  # atno 10765 bound_to 10752
  140.3361  134.7316  157.4169 H   0  0  0  0  0  0  0  0  0  0  0  0  # atno 11005 bound_to 11000
  145.9113  140.9178  143.0452 LP  0  0  0  0  0  0  0  0  0  0  0  0  # atno 17320 bound_to 7965
  144.6726  140.1164  143.7452 LP  0  0  0  0  0  0  0  0  0  0  0  0  # atno 17321 bound_to 7965
  140.3565  143.2933  152.0431 LP  0  0  0  0  0  0  0  0  0  0  0  0  # atno 17342 bound_to 10162
  139.4880  144.6335  151.7022 LP  0  0  0  0  0  0  0  0  0  0  0  0  # atno 17343 bound_to 10162
  156.3822  130.3882  149.7093 LP  0  0  0  0  0  0  0  0  0  0  0  0  # atno 17370 bound_to 10713
  156.4471  130.7889  151.2910 LP  0  0  0  0  0  0  0  0  0  0  0  0  # atno 17371 bound_to 10713
  140.0820  134.5718  155.8531 LP  0  0  0  0  0  0  0  0  0  0  0  0  # atno 17394 bound_to 11000
  141.2051  133.6644  156.6160 LP  0  0  0  0  0  0  0  0  0  0  0  0  # atno 17395 bound_to 11000

$$$$
