#       Name:                AV-unprocessed.smi:1244
#       Creating user name   scv26
#       Creation time:       Fri Mar 27 04:34:16 2020


#       File generated by GOLD software.
#

@<TRIPOS>MOLECULE
AV-unprocessed.smi:1244
    60    62     1
SMALL
NO_CHARGES


@<TRIPOS>ATOM
      1 ****        -1.8764   6.1743   1.1725 C.3            1 S1                 0.0000
      2 ****        -2.1282   5.1967   0.0192 C.3            1 S1                 0.0000
      3 ****        -1.7780   3.7472   0.4008 C.3            1 S1                 0.0000
      4 ****        -2.0962   2.8254  -0.7210 N.4            1 S1                 1.0000
      5 ****        -1.7096   1.4121  -0.4666 C.3            1 S1                 0.0000
      6 ****        -0.2860   1.1035  -0.9770 C.3            1 S1                 0.0000
      7 ****         0.0815  -0.2791  -0.6731 N.pl3          1 S1                -1.0000
      8 ****         0.5524  -0.7082   0.5287 C.2            1 S1                 0.0000
      9 ****         0.6860  -0.0507   1.5678 O.2            1 S1                 0.0000
     10 ****         0.9043  -2.0044   0.5021 N.am           1 S1                 0.0000
     11 ****         1.5089  -2.7663   1.5384 C.ar           1 S1                 0.0000
     12 ****         1.0323  -2.6746   2.8698 C.ar           1 S1                 0.0000
     13 ****         1.6490  -3.4241   3.8891 C.ar           1 S1                 0.0000
     14 ****         2.7309  -4.2580   3.5583 C.ar           1 S1                 0.0000
     15 ****         3.1481  -4.3374   2.2775 N.pl3          1 S1                 1.0000
     16 ****         2.5868  -3.6523   1.2494 C.ar           1 S1                 0.0000
     17 ****         3.1319  -3.8423  -0.0414 N.pl3          1 S1                 0.0000
     18 ****         4.3492  -4.6226  -0.2268 C.3            1 S1                 0.0000
     19 ****         4.4434  -4.8553  -1.7327 C.3            1 S1                 0.0000
     20 ****         2.9781  -4.9858  -2.1390 C.3            1 S1                 0.0000
     21 ****         2.2507  -4.0281  -1.1893 C.3            1 S1                 0.0000
     22 ****        -3.5172   2.9768  -1.1156 C.3            1 S1                 0.0000
     23 ****        -3.8302   4.4481  -1.4498 C.3            1 S1                 0.0000
     24 ****        -5.3100   4.6623  -1.7858 C.3            1 S1                 0.0000
     25 ****        -3.5075   5.2625  -0.3275 O.3            1 S1                 0.0000
     26 ****        -0.8277   6.1670   1.4713 H              1 S1                 0.0000
     27 ****        -2.4752   5.9165   2.0463 H              1 S1                 0.0000
     28 ****        -2.1317   7.1936   0.8824 H              1 S1                 0.0000
     29 ****        -1.5259   5.5077  -0.8365 H              1 S1                 0.0000
     30 ****        -0.7196   3.6820   0.6557 H              1 S1                 0.0000
     31 ****        -2.3372   3.4463   1.2883 H              1 S1                 0.0000
     32 ****        -1.8080   1.1886   0.5970 H              1 S1                 0.0000
     33 ****        -2.4022   0.7427  -0.9794 H              1 S1                 0.0000
     34 ****        -0.2527   1.2908  -2.0505 H              1 S1                 0.0000
     35 ****         0.4163   1.8149  -0.5401 H              1 S1                 0.0000
     36 ****         0.8669  -2.4448  -0.4053 H              1 S1                 0.0000
     37 ****         0.1974  -2.0360   3.1182 H              1 S1                 0.0000
     38 ****         1.2979  -3.3565   4.9084 H              1 S1                 0.0000
     39 ****         3.2683  -4.8650   4.2723 H              1 S1                 0.0000
     40 ****         5.2237  -4.0953   0.1564 H              1 S1                 0.0000
     41 ****         4.2675  -5.5796   0.2904 H              1 S1                 0.0000
     42 ****         4.8873  -3.9844  -2.2177 H              1 S1                 0.0000
     43 ****         5.0399  -5.7302  -1.9920 H              1 S1                 0.0000
     44 ****         2.8042  -4.7522  -3.1899 H              1 S1                 0.0000
     45 ****         2.6392  -6.0075  -1.9612 H              1 S1                 0.0000
     46 ****         1.2756  -4.4220  -0.8999 H              1 S1                 0.0000
     47 ****         2.0999  -3.0637  -1.6757 H              1 S1                 0.0000
     48 ****        -3.7250   2.3527  -1.9859 H              1 S1                 0.0000
     49 ****        -4.1587   2.6246  -0.3060 H              1 S1                 0.0000
     50 ****        -3.2314   4.7657  -2.3054 H              1 S1                 0.0000
     51 ****        -5.6048   4.0723  -2.6540 H              1 S1                 0.0000
     52 ****        -5.5106   5.7097  -2.0131 H              1 S1                 0.0000
     53 ****        -5.9505   4.3743  -0.9516 H              1 S1                 0.0000
     54 ****        -1.5501   3.1239  -1.5166 H              1 S1                 0.0000
     55 ****         3.9313  -4.9563   2.0682 H              1 S1                 0.0000
     56 ****        -0.0207  -0.9574  -1.4008 LP             1 S1                 0.0000
     57 ****         0.4333   0.9167   1.5833 LP             1 S1                 0.0000
     58 ****         1.0467  -0.4865   2.3923 LP             1 S1                 0.0000
     59 ****        -3.7384   6.2112  -0.5435 LP             1 S1                 0.0000
     60 ****        -4.0493   4.9576   0.4557 LP             1 S1                 0.0000
@<TRIPOS>BOND
    1    1    2 1     
    2    1   26 1     
    3    1   27 1     
    4    1   28 1     
    5    2   25 1     
    6    2    3 1     
    7    2   29 1     
    8    3    4 1     
    9    3   30 1     
   10    3   31 1     
   11    4    5 1     
   12    4   22 1     
   13    4   54 1     
   14    5    6 1     
   15    5   32 1     
   16    5   33 1     
   17    6    7 1     
   18    6   34 1     
   19    6   35 1     
   20    7    8 1     
   21    8    9 2     
   22    8   10 am    
   23   10   11 1     
   24   10   36 1     
   25   11   16 ar    
   26   11   12 ar    
   27   12   13 ar    
   28   12   37 1     
   29   13   14 ar    
   30   13   38 1     
   31   14   15 ar    
   32   14   39 1     
   33   15   16 ar    
   34   15   55 1     
   35   16   17 1     
   36   17   21 1     
   37   17   18 1     
   38   18   19 1     
   39   18   40 1     
   40   18   41 1     
   41   19   20 1     
   42   19   42 1     
   43   19   43 1     
   44   20   21 1     
   45   20   44 1     
   46   20   45 1     
   47   21   46 1     
   48   21   47 1     
   49   22   23 1     
   50   22   48 1     
   51   22   49 1     
   52   23   24 1     
   53   23   25 1     
   54   23   50 1     
   55   24   51 1     
   56   24   52 1     
   57   24   53 1     
   58    7   56 1     
   59    9   57 1     
   60    9   58 1     
   61   25   59 1     
   62   25   60 1     
@<TRIPOS>SUBSTRUCTURE
      1 S1             1
@<TRIPOS>SET
LONE_PAIRS      STATIC     ATOMS    <user>   **** ""
5 56 57 58 59 60
DONOR_HYDROGENS      STATIC     ATOMS    <user>   **** ""
3 54 36 55
ATOM$BLUE        STATIC     ATOMS    COLORGROUP SYSTEM
5 56 57 58 59 60
ATOM$RED        STATIC     ATOMS    COLORGROUP SYSTEM
3 54 36 55
