AV-unprocessed.smi:657|AV-procd|sdf|3224|dock1
  -GOLD-   22720 0163D 1   1.00000     0.00000
 Structure written by MMmdl.
 46 47  0  0  0  0  0  0  0  0  1 V2000
  148.4156  141.6592  154.3634 C   0  0  0  0  0  0  0  0  0  0  0  0
  148.5760  140.7796  155.6203 C   0  0  0  0  0  0  0  0  0  0  0  0
  148.8497  141.6285  156.8761 C   0  0  0  0  0  0  0  0  0  0  0  0
  149.5804  139.7030  155.4635 N   0  0  0  0  0  0  0  0  0  0  0  0
  150.9452  140.2053  155.2251 C   0  0  0  0  0  0  0  0  0  0  0  0
  151.9819  139.0775  155.3633 C   0  0  0  0  0  0  0  0  0  0  0  0
  151.6947  137.9464  154.3742 C   0  0  0  0  0  0  0  0  0  0  0  0
  150.2570  137.4614  154.5714 C   0  0  0  0  0  0  0  0  0  0  0  0
  149.2514  138.6320  154.4657 C   0  0  1  0  0  0  0  0  0  0  0  0
  147.8162  138.0773  154.5589 C   0  0  0  0  0  0  0  0  0  0  0  0
  147.0580  138.4581  155.4514 O   0  0  0  0  0  0  0  0  0  0  0  0
  147.4527  137.1986  153.6127 N   0  0  0  0  0  0  0  0  0  0  0  0
  146.1366  136.5839  153.5046 C   0  0  0  0  0  0  0  0  0  0  0  0
  146.2214  135.0788  153.7913 C   0  0  0  0  0  0  0  0  0  0  0  0
  145.8728  134.2667  152.5755 C   0  0  0  0  0  0  0  0  0  0  0  0
  146.4919  134.3018  151.2934 C   0  0  0  0  0  0  0  0  0  0  0  0
  145.9417  133.4607  150.4327 N   0  0  0  0  0  0  0  0  0  0  0  0
  144.9558  132.8622  151.1320 N   0  0  0  0  0  0  0  0  0  0  0  0
  144.1277  131.8658  150.4873 C   0  0  0  0  0  0  0  0  0  0  0  0
  144.8916  133.3272  152.4279 C   0  0  0  0  0  0  0  0  0  0  0  0
  147.6019  142.3720  154.4983 H   0  0  0  0  0  0  0  0  0  0  0  0
  148.1781  141.0691  153.4790 H   0  0  0  0  0  0  0  0  0  0  0  0
  149.3148  142.2374  154.1512 H   0  0  0  0  0  0  0  0  0  0  0  0
  147.6073  140.3265  155.8242 H   0  0  0  0  0  0  0  0  0  0  0  0
  147.9913  142.2618  157.1020 H   0  0  0  0  0  0  0  0  0  0  0  0
  149.7052  142.2925  156.7569 H   0  0  0  0  0  0  0  0  0  0  0  0
  149.0262  140.9995  157.7491 H   0  0  0  0  0  0  0  0  0  0  0  0
  151.0203  140.6493  154.2317 H   0  0  0  0  0  0  0  0  0  0  0  0
  151.2117  140.9842  155.9368 H   0  0  0  0  0  0  0  0  0  0  0  0
  152.9840  139.4714  155.1905 H   0  0  0  0  0  0  0  0  0  0  0  0
  151.9725  138.6907  156.3832 H   0  0  0  0  0  0  0  0  0  0  0  0
  151.8304  138.3025  153.3523 H   0  0  0  0  0  0  0  0  0  0  0  0
  152.3968  137.1249  154.5201 H   0  0  0  0  0  0  0  0  0  0  0  0
  150.0299  136.6945  153.8294 H   0  0  0  0  0  0  0  0  0  0  0  0
  150.1736  136.9807  155.5478 H   0  0  0  0  0  0  0  0  0  0  0  0
  149.3599  139.0590  153.4668 H   0  0  0  0  0  0  0  0  0  0  0  0
  148.1357  136.9447  152.9138 H   0  0  0  0  0  0  0  0  0  0  0  0
  145.4640  137.0682  154.2139 H   0  0  0  0  0  0  0  0  0  0  0  0
  145.7224  136.7437  152.5075 H   0  0  0  0  0  0  0  0  0  0  0  0
  147.2276  134.8354  154.1354 H   0  0  0  0  0  0  0  0  0  0  0  0
  145.5566  134.8294  154.6193 H   0  0  0  0  0  0  0  0  0  0  0  0
  147.3194  134.9131  150.9641 H   0  0  0  0  0  0  0  0  0  0  0  0
  143.3836  131.4876  151.1887 H   0  0  0  0  0  0  0  0  0  0  0  0
  144.7468  131.0359  150.1451 H   0  0  0  0  0  0  0  0  0  0  0  0
  143.6158  132.3088  149.6325 H   0  0  0  0  0  0  0  0  0  0  0  0
  144.1593  132.9577  153.1307 H   0  0  0  0  0  0  0  0  0  0  0  0
  1  2  1  0  0  0  0
  1 21  1  0  0  0  0
  1 22  1  0  0  0  0
  1 23  1  0  0  0  0
  2  3  1  0  0  0  0
  2  4  1  0  0  0  0
  2 24  1  0  0  0  0
  3 25  1  0  0  0  0
  3 26  1  0  0  0  0
  3 27  1  0  0  0  0
  4  9  1  0  0  0  0
  4  5  1  0  0  0  0
  5  6  1  0  0  0  0
  5 28  1  0  0  0  0
  5 29  1  0  0  0  0
  6  7  1  0  0  0  0
  6 30  1  0  0  0  0
  6 31  1  0  0  0  0
  7  8  1  0  0  0  0
  7 32  1  0  0  0  0
  7 33  1  0  0  0  0
  8  9  1  0  0  0  0
  8 34  1  0  0  0  0
  8 35  1  0  0  0  0
  9 10  1  0  0  0  0
  9 36  1  0  0  0  0
 10 11  2  0  0  0  0
 10 12  1  0  0  0  0
 12 13  1  0  0  0  0
 12 37  1  0  0  0  0
 13 14  1  0  0  0  0
 13 38  1  0  0  0  0
 13 39  1  0  0  0  0
 14 15  1  0  0  0  0
 14 40  1  0  0  0  0
 14 41  1  0  0  0  0
 15 20  2  0  0  0  0
 15 16  1  0  0  0  0
 16 17  2  0  0  0  0
 16 42  1  0  0  0  0
 17 18  1  0  0  0  0
 18 19  1  0  0  0  0
 18 20  1  0  0  0  0
 19 43  1  0  0  0  0
 19 44  1  0  0  0  0
 19 45  1  0  0  0  0
 20 46  1  0  0  0  0
M  END
> <s_m_source_file>
AV-unprocessed.smi

> <i_m_source_file_index>
657

> <i_lp_mmshare_version>
43012

> <i_f3d_flags>
0

> <s_epik_input>
W0NIM11bQ0hdKFtDSDNdKU4xW0NIMl1bQ0gyXVtDSDJdW0NIMl1bQ0BIXTFDKD1PKVtOSF1bQ0gyXVtDSDJdYzJbY0hdbm4oW0NIM10pW2NIXTI=

> <s_epik_cmdline>
J2VwaWtfcHl0aG9uJywgJy1waCcsICc3LjAnLCAnLXRuJywgJzgnLCAnLW1hJywgJzIwMCcsICctbWV0YWxfYmluZGluZycsICctaW1hZScsICc8aW5maWxlLm1hZT4nLCAnLW9tYWUnLCAnPG91dGZpbGUubWFlPic=

> <r_lp_tautomer_probability>
1

> <r_epik_Ionization_Penalty>
1.91154

> <r_epik_Ionization_Penalty_Charging>
0

> <r_epik_Ionization_Penalty_Neutral>
1.91154

> <r_epik_State_Penalty>
2.0331

> <r_epik_Charging_Adjusted_Penalty>
2.0331

> <i_epik_Tot_Q>
0

> <i_epik_Tot_abs_Q>
0

> <r_epik_Metal_State_Penalty>
2.04973

> <b_epik_Metal_Only>
0

> <s_lp_Force_Field>
OPLS_2005

> <r_lp_Energy>
17.3109

> <b_lp_Chiralities_Consistent>
1

> <s_lp_Variant>
AV-unprocessed.smi:657-5

> <Gold.Version>
5.8.1

> <Gold.Id.Protein>
6NUR|6NUR_protein|mol2

> <Gold.PLP.Fitness>
38.0389

> <Gold.PLP.PLP>
-29.8417

> <Gold.PLP.part.hbond>
-0.9727

> <Gold.PLP.part.metal>
0.0000

> <Gold.PLP.part.buried>
-2.3315

> <Gold.PLP.part.nonpolar>
-27.1081

> <Gold.PLP.part.repulsive>
0.2420

> <Gold.PLP.ligand.clash>
0.0000

> <Gold.PLP.ligand.torsion>
0.4833

> <Gold.PLP.Chemscore.Hbond>
1.0000

> <Gold.PLP.Chemscore.CHOScore>
2.0000

> <Gold.PLP.Chemscore.Metal>
0.0000

> <Gold.Chemscore.Hbonds>
donor molecule, donor type, donor heavy atom, donor atom, acceptor molecule, acceptor atom, score
      L1  H    12    37       P1  7948  0.94
      L1  C    16    42       P1  7948  0.98
      L1  C    20    46       P1 10957  1.00

> <Gold.PLP.Chemscore.Internal.Correction>
0.1638

> <Gold.Rescore>
     Score         DG    S(hbond)    S(metal)    S(lipo)     H(rot)  DE(clash)    DE(int)     intcor
     11.74     -13.66       0.97        0.00      76.60       1.57       0.05       1.88       ----

> <Gold.Chemscore.Fitness>
11.7353

> <Gold.Chemscore.DG>
-13.6646

> <Gold.Chemscore.ZeroCoef>
-5.4800

> <Gold.Chemscore.Hbond>
0.9733

> <Gold.Chemscore.Metal>
0.0000

> <Gold.Chemscore.Lipo>
76.5992

> <Gold.Chemscore.Internal_Hbond>
0.0000

> <Gold.Chemscore.DEClash>
0.0456

> <Gold.Chemscore.DEInternal>
1.8836

> <Gold.Chemscore.Rot>
1.5736

> <Gold.Chemscore.Internal.Correction>
   9.000000E+99

> <Gold.Chemscore.Hbonds>
donor molecule, donor type, donor heavy atom, donor atom, acceptor molecule, acceptor atom, score
      L1  H    12    37       P1  7948  0.90

> <Gold.Chemscore.Hbond.Weighted>
-3.2509

> <Gold.Chemscore.Metal.Weighted>
-0.0000

> <Gold.Chemscore.Lipo.Weighted>
-8.9621

> <Gold.Chemscore.Internal_Hbond.Weighted>
0.0000

> <Gold.Chemscore.DEClash.Weighted>
0.0456

> <Gold.Chemscore.DEInternal.Weighted>
1.8836

> <Gold.Chemscore.Rot.Weighted>
4.0284

> <Gold.Chemscore.Internal.Correction.Weighted>
   9.000000E+99

> <Gold.Protein.RotatedTorsions>
[ 6907 6896 6895 6894 ] final   86.95 input  -60.11 | X-H torsion
[ 7974 7965 7964 7962 ] final   53.57 input  175.53 | X-H torsion
[ 8008 7997 7996 7995 ] final  120.58 input   59.86 | X-H torsion
[ 10167 10162 10161 10158 ] final  175.49 input  -65.29 | X-H torsion
[ 10718 10713 10712 10709 ] final  -71.88 input   66.30 | X-H torsion
[ 10763 10752 10751 10750 ] final   11.91 input  -60.55 | X-H torsion
[ 11005 11000 10999 10996 ] final -122.81 input  -57.11 | X-H torsion

> <Gold.Protein.ActiveResidues>
 VAL166  LYS551  ARG553  GLY616  TRP617  ASP618  TYR619  PRO620  LYS621  CYS622 
 ASP623  PHE694  ASN695  SER759  ASP760  ASP761  ALA762  ILE779  LEU786  VAL792 
 PHE793  MET794  SER795  GLU796  ALA797  LYS798  CYS799  TRP800  GLU811  SER814 

> <Gold.Protein.RotatedAtoms>
  152.5403  134.2352  159.8840 H   0  0  0  0  0  0  0  0  0  0  0  0  # atno 6907 bound_to 6896
  151.2322  133.4437  159.2612 H   0  0  0  0  0  0  0  0  0  0  0  0  # atno 6908 bound_to 6896
  151.0704  134.9808  159.8362 H   0  0  0  0  0  0  0  0  0  0  0  0  # atno 6909 bound_to 6896
  145.9698  139.4138  143.0197 H   0  0  0  0  0  0  0  0  0  0  0  0  # atno 7974 bound_to 7965
  156.2649  140.2827  156.1173 H   0  0  0  0  0  0  0  0  0  0  0  0  # atno 8008 bound_to 7997
  155.1193  140.0392  157.2763 H   0  0  0  0  0  0  0  0  0  0  0  0  # atno 8009 bound_to 7997
  154.6682  140.2582  155.7041 H   0  0  0  0  0  0  0  0  0  0  0  0  # atno 8010 bound_to 7997
  139.5179  144.3026  152.0365 H   0  0  0  0  0  0  0  0  0  0  0  0  # atno 10167 bound_to 10162
  156.0344  130.4360  150.2510 H   0  0  0  0  0  0  0  0  0  0  0  0  # atno 10718 bound_to 10713
  153.1877  135.6837  153.8393 H   0  0  0  0  0  0  0  0  0  0  0  0  # atno 10763 bound_to 10752
  153.7703  135.3197  155.3352 H   0  0  0  0  0  0  0  0  0  0  0  0  # atno 10764 bound_to 10752
  154.8099  135.4724  154.0585 H   0  0  0  0  0  0  0  0  0  0  0  0  # atno 10765 bound_to 10752
  140.9967  134.0461  157.3588 H   0  0  0  0  0  0  0  0  0  0  0  0  # atno 11005 bound_to 11000
  145.7922  140.9809  143.1043 LP  0  0  0  0  0  0  0  0  0  0  0  0  # atno 17320 bound_to 7965
  144.6834  139.9697  143.7482 LP  0  0  0  0  0  0  0  0  0  0  0  0  # atno 17321 bound_to 7965
  140.2473  144.4206  150.6236 LP  0  0  0  0  0  0  0  0  0  0  0  0  # atno 17342 bound_to 10162
  140.6249  143.2180  151.6617 LP  0  0  0  0  0  0  0  0  0  0  0  0  # atno 17343 bound_to 10162
  157.0610  131.0090  151.3222 LP  0  0  0  0  0  0  0  0  0  0  0  0  # atno 17370 bound_to 10713
  157.5070  130.7915  149.7664 LP  0  0  0  0  0  0  0  0  0  0  0  0  # atno 17371 bound_to 10713
  139.9018  135.0167  156.7305 LP  0  0  0  0  0  0  0  0  0  0  0  0  # atno 17394 bound_to 11000
  140.6954  133.9353  155.7992 LP  0  0  0  0  0  0  0  0  0  0  0  0  # atno 17395 bound_to 11000

$$$$
