AV-unprocessed.smi:1865|AV-procd|sdf|7554|dock2
  -GOLD-   22720 9273D 1   1.00000     0.00000
 Structure written by MMmdl.
 40 41  0  0  0  0  0  0  0  0  1 V2000
  154.2392  139.9312  159.1771 O   0  0  0  0  0  0  0  0  0  0  0  0
  153.3842  140.5256  159.8343 C   0  0  0  0  0  0  0  0  0  0  0  0
  153.7765  141.3202  161.0839 C   0  0  0  0  0  0  0  0  0  0  0  0
  152.7437  142.4003  161.4589 C   0  0  0  0  0  0  0  0  0  0  0  0
  152.8566  143.6682  160.5937 C   0  0  0  0  0  0  0  0  0  0  0  0
  151.7435  144.6851  160.8534 C   0  0  0  0  0  0  0  0  0  0  0  0
  151.7688  145.6044  159.6301 C   0  0  0  0  0  0  0  0  0  0  0  0
  152.3098  144.7529  158.4721 C   0  0  0  0  0  0  0  0  0  0  0  0
  152.7529  143.4175  159.0848 C   0  0  0  0  0  0  0  0  0  0  0  0
  152.0794  140.5166  159.5214 N   0  0  0  0  0  0  0  0  0  0  0  0
  151.4937  139.8100  158.3883 C   0  0  0  0  0  0  0  0  0  0  0  0
  151.5047  140.6696  157.1137 C   0  0  0  0  0  0  0  0  0  0  0  0
  150.6191  140.0890  156.0288 C   0  0  0  0  0  0  0  0  0  0  0  0
  150.9393  138.8633  155.4100 C   0  0  0  0  0  0  0  0  0  0  0  0
  150.0876  138.3690  154.4034 C   0  0  0  0  0  0  0  0  0  0  0  0
  148.9493  139.1244  154.0575 C   0  0  0  0  0  0  0  0  0  0  0  0
  148.6335  140.3000  154.6426 N   0  0  0  0  0  0  0  0  0  0  0  0
  149.4553  140.7666  155.6072 C   0  0  0  0  0  0  0  0  0  0  0  0
  153.9064  140.6340  161.9223 H   0  0  0  0  0  0  0  0  0  0  0  0
  154.7489  141.7780  160.9005 H   0  0  0  0  0  0  0  0  0  0  0  0
  151.7332  141.9964  161.3797 H   0  0  0  0  0  0  0  0  0  0  0  0
  152.8798  142.6758  162.5060 H   0  0  0  0  0  0  0  0  0  0  0  0
  153.8110  144.1568  160.7983 H   0  0  0  0  0  0  0  0  0  0  0  0
  150.7794  144.1772  160.9077 H   0  0  0  0  0  0  0  0  0  0  0  0
  151.8832  145.2307  161.7870 H   0  0  0  0  0  0  0  0  0  0  0  0
  150.7845  146.0207  159.4135 H   0  0  0  0  0  0  0  0  0  0  0  0
  152.4446  146.4408  159.8134 H   0  0  0  0  0  0  0  0  0  0  0  0
  151.5515  144.5930  157.7048 H   0  0  0  0  0  0  0  0  0  0  0  0
  153.1516  145.2580  157.9974 H   0  0  0  0  0  0  0  0  0  0  0  0
  153.6899  143.0595  158.6574 H   0  0  0  0  0  0  0  0  0  0  0  0
  151.9927  142.6608  158.8857 H   0  0  0  0  0  0  0  0  0  0  0  0
  151.4452  141.0302  160.1162 H   0  0  0  0  0  0  0  0  0  0  0  0
  152.0223  138.8694  158.2218 H   0  0  0  0  0  0  0  0  0  0  0  0
  150.4681  139.5473  158.6495 H   0  0  0  0  0  0  0  0  0  0  0  0
  151.1722  141.6831  157.3421 H   0  0  0  0  0  0  0  0  0  0  0  0
  152.5201  140.7592  156.7245 H   0  0  0  0  0  0  0  0  0  0  0  0
  151.8217  138.3113  155.6988 H   0  0  0  0  0  0  0  0  0  0  0  0
  150.3012  137.4336  153.9078 H   0  0  0  0  0  0  0  0  0  0  0  0
  148.2747  138.7753  153.2898 H   0  0  0  0  0  0  0  0  0  0  0  0
  149.1768  141.7097  156.0541 H   0  0  0  0  0  0  0  0  0  0  0  0
  1  2  2  0  0  0  0
  2  3  1  0  0  0  0
  2 10  1  0  0  0  0
  3  4  1  0  0  0  0
  3 19  1  0  0  0  0
  3 20  1  0  0  0  0
  4  5  1  0  0  0  0
  4 21  1  0  0  0  0
  4 22  1  0  0  0  0
  5  9  1  0  0  0  0
  5  6  1  0  0  0  0
  5 23  1  0  0  0  0
  6  7  1  0  0  0  0
  6 24  1  0  0  0  0
  6 25  1  0  0  0  0
  7  8  1  0  0  0  0
  7 26  1  0  0  0  0
  7 27  1  0  0  0  0
  8  9  1  0  0  0  0
  8 28  1  0  0  0  0
  8 29  1  0  0  0  0
  9 30  1  0  0  0  0
  9 31  1  0  0  0  0
 10 11  1  0  0  0  0
 10 32  1  0  0  0  0
 11 12  1  0  0  0  0
 11 33  1  0  0  0  0
 11 34  1  0  0  0  0
 12 13  1  0  0  0  0
 12 35  1  0  0  0  0
 12 36  1  0  0  0  0
 13 18  1  0  0  0  0
 13 14  2  0  0  0  0
 14 15  1  0  0  0  0
 14 37  1  0  0  0  0
 15 16  2  0  0  0  0
 15 38  1  0  0  0  0
 16 17  1  0  0  0  0
 16 39  1  0  0  0  0
 17 18  2  0  0  0  0
 18 40  1  0  0  0  0
M  END
> <s_m_source_file>
AV-unprocessed.smi

> <i_m_source_file_index>
1865

> <i_lp_mmshare_version>
43012

> <i_f3d_flags>
0

> <s_epik_input>
W0NIMl0xW0NIMl1bQ0gyXVtDSDJdW0NIXTFbQ0gyXVtDSDJdQyg9TylbTkhdW0NIMl1bQ0gyXWMyW2NIXVtjSF1bY0hdbltjSF0y

> <s_epik_cmdline>
J2VwaWtfcHl0aG9uJywgJy1waCcsICc3LjAnLCAnLXRuJywgJzgnLCAnLW1hJywgJzIwMCcsICctbWV0YWxfYmluZGluZycsICctaW1hZScsICc8aW5maWxlLm1hZT4nLCAnLW9tYWUnLCAnPG91dGZpbGUubWFlPic=

> <r_epik_Ionization_Penalty>
0.0133844

> <r_epik_Ionization_Penalty_Charging>
0

> <r_epik_Ionization_Penalty_Neutral>
0.0133844

> <r_epik_State_Penalty>
0.0104136

> <r_epik_Charging_Adjusted_Penalty>
0.0104136

> <i_epik_Tot_Q>
0

> <i_epik_Tot_abs_Q>
0

> <r_epik_Metal_State_Penalty>
0.0101831

> <b_epik_Metal_Only>
0

> <s_lp_Force_Field>
OPLS_2005

> <r_lp_Energy>
19.5978

> <b_lp_Chiralities_Consistent>
1

> <s_lp_Variant>
AV-unprocessed.smi:1865-1

> <Gold.Version>
5.8.1

> <Gold.Id.Protein>
6NUR|6NUR_protein|mol2

> <Gold.PLP.Fitness>
51.8281

> <Gold.PLP.PLP>
-45.6774

> <Gold.PLP.part.hbond>
-1.0000

> <Gold.PLP.part.metal>
0.0000

> <Gold.PLP.part.buried>
-2.6979

> <Gold.PLP.part.nonpolar>
-43.0309

> <Gold.PLP.part.repulsive>
0.3219

> <Gold.PLP.ligand.clash>
0.0000

> <Gold.PLP.ligand.torsion>
0.6888

> <Gold.PLP.Chemscore.Hbond>
1.0000

> <Gold.PLP.Chemscore.CHOScore>
1.4695

> <Gold.PLP.Chemscore.Metal>
0.0000

> <Gold.Chemscore.Hbonds>
donor molecule, donor type, donor heavy atom, donor atom, acceptor molecule, acceptor atom, score
      P1  H  7997  8008       L1     1  0.95
      L1  C    16    39       P1  7957  0.10

> <Gold.PLP.Chemscore.Internal.Correction>
0.1196

> <Gold.Rescore>
     Score         DG    S(hbond)    S(metal)    S(lipo)     H(rot)  DE(clash)    DE(int)     intcor
     19.13     -19.96       0.92        0.00     131.66       1.56       0.16       0.68       ----

> <Gold.Chemscore.Fitness>
19.1279

> <Gold.Chemscore.DG>
-19.9642

> <Gold.Chemscore.ZeroCoef>
-5.4800

> <Gold.Chemscore.Hbond>
0.9214

> <Gold.Chemscore.Metal>
0.0000

> <Gold.Chemscore.Lipo>
131.6579

> <Gold.Chemscore.Internal_Hbond>
0.0000

> <Gold.Chemscore.DEClash>
0.1611

> <Gold.Chemscore.DEInternal>
0.6752

> <Gold.Chemscore.Rot>
1.5614

> <Gold.Chemscore.Internal.Correction>
   9.000000E+99

> <Gold.Chemscore.Hbonds>
donor molecule, donor type, donor heavy atom, donor atom, acceptor molecule, acceptor atom, score
      P1  H  7997  8008       L1     1  0.86

> <Gold.Chemscore.Hbond.Weighted>
-3.0773

> <Gold.Chemscore.Metal.Weighted>
-0.0000

> <Gold.Chemscore.Lipo.Weighted>
-15.4040

> <Gold.Chemscore.Internal_Hbond.Weighted>
0.0000

> <Gold.Chemscore.DEClash.Weighted>
0.1611

> <Gold.Chemscore.DEInternal.Weighted>
0.6752

> <Gold.Chemscore.Rot.Weighted>
3.9971

> <Gold.Chemscore.Internal.Correction.Weighted>
   9.000000E+99

> <Gold.Protein.RotatedTorsions>
[ 6907 6896 6895 6894 ] final  -57.10 input  -60.11 | X-H torsion
[ 7974 7965 7964 7962 ] final  104.52 input  175.53 | X-H torsion
[ 8008 7997 7996 7995 ] final -123.68 input   59.86 | X-H torsion
[ 10167 10162 10161 10158 ] final -119.57 input  -65.29 | X-H torsion
[ 10718 10713 10712 10709 ] final  -86.10 input   66.30 | X-H torsion
[ 10763 10752 10751 10750 ] final   55.68 input  -60.55 | X-H torsion
[ 11005 11000 10999 10996 ] final -178.02 input  -57.11 | X-H torsion

> <Gold.Protein.ActiveResidues>
 VAL166  LYS551  ARG553  GLY616  TRP617  ASP618  TYR619  PRO620  LYS621  CYS622 
 ASP623  PHE694  ASN695  SER759  ASP760  ASP761  ALA762  ILE779  LEU786  VAL792 
 PHE793  MET794  SER795  GLU796  ALA797  LYS798  CYS799  TRP800  GLU811  SER814 

> <Gold.Protein.RotatedAtoms>
  150.8113  134.7269  159.6690 H   0  0  0  0  0  0  0  0  0  0  0  0  # atno 6907 bound_to 6896
  152.4233  134.5912  159.9984 H   0  0  0  0  0  0  0  0  0  0  0  0  # atno 6908 bound_to 6896
  151.6121  133.3309  159.3105 H   0  0  0  0  0  0  0  0  0  0  0  0  # atno 6909 bound_to 6896
  145.3317  139.2485  143.3657 H   0  0  0  0  0  0  0  0  0  0  0  0  # atno 7974 bound_to 7965
  155.1845  140.0411  157.2888 H   0  0  0  0  0  0  0  0  0  0  0  0  # atno 8008 bound_to 7997
  154.6180  140.2493  155.7556 H   0  0  0  0  0  0  0  0  0  0  0  0  # atno 8009 bound_to 7997
  156.2418  140.2901  156.0475 H   0  0  0  0  0  0  0  0  0  0  0  0  # atno 8010 bound_to 7997
  140.0452  143.5114  152.2110 H   0  0  0  0  0  0  0  0  0  0  0  0  # atno 10167 bound_to 10162
  155.9992  130.4753  150.4663 H   0  0  0  0  0  0  0  0  0  0  0  0  # atno 10718 bound_to 10713
  152.9820  135.5702  154.5107 H   0  0  0  0  0  0  0  0  0  0  0  0  # atno 10763 bound_to 10752
  154.4611  135.2781  155.1714 H   0  0  0  0  0  0  0  0  0  0  0  0  # atno 10764 bound_to 10752
  154.3301  135.6251  153.5601 H   0  0  0  0  0  0  0  0  0  0  0  0  # atno 10765 bound_to 10752
  140.4344  134.6489  157.4727 H   0  0  0  0  0  0  0  0  0  0  0  0  # atno 11005 bound_to 11000
  146.3043  140.3896  142.8693 LP  0  0  0  0  0  0  0  0  0  0  0  0  # atno 17320 bound_to 7965
  144.8859  140.7461  143.5957 LP  0  0  0  0  0  0  0  0  0  0  0  0  # atno 17321 bound_to 7965
  139.5988  144.7576  151.3221 LP  0  0  0  0  0  0  0  0  0  0  0  0  # atno 17342 bound_to 10162
  140.7242  143.7051  150.7814 LP  0  0  0  0  0  0  0  0  0  0  0  0  # atno 17343 bound_to 10162
  157.2682  131.0581  151.2277 LP  0  0  0  0  0  0  0  0  0  0  0  0  # atno 17370 bound_to 10713
  157.3366  130.7012  149.6356 LP  0  0  0  0  0  0  0  0  0  0  0  0  # atno 17371 bound_to 10713
  140.0112  134.6687  155.9378 LP  0  0  0  0  0  0  0  0  0  0  0  0  # atno 17394 bound_to 11000
  141.1732  133.6538  156.4729 LP  0  0  0  0  0  0  0  0  0  0  0  0  # atno 17395 bound_to 11000

$$$$
