AV-unprocessed.smi:1599|AV-procd|sdf|6423|dock8
  -GOLD-   22720 7 63D 1   1.00000     0.00000
 Structure written by MMmdl.
 39 40  0  0  0  0  0  0  0  0  1 V2000
  147.3003  142.0485  154.7584 C   0  0  0  0  0  0  0  0  0  0  0  0
  148.5596  141.3687  154.1990 C   0  0  2  0  0  0  0  0  0  0  0  0
  148.1512  140.3920  153.1919 N   0  0  0  0  0  0  0  0  0  0  0  0
  147.1968  139.4630  153.3468 C   0  0  0  0  0  0  0  0  0  0  0  0
  146.5516  139.3110  154.3841 O   0  0  0  0  0  0  0  0  0  0  0  0
  147.0416  138.7354  152.2287 N   0  0  0  0  0  0  0  0  0  0  0  0
  146.1295  137.6717  152.0139 C   0  0  0  0  0  0  0  0  0  0  0  0
  144.8652  137.5496  152.6462 C   0  0  0  0  0  0  0  0  0  0  0  0
  144.2334  136.4561  152.2475 N   0  0  0  0  0  0  0  0  0  0  0  0
  145.0748  135.8669  151.3606 N   0  0  0  0  0  0  0  0  0  0  0  0
  144.6854  134.6267  150.7137 C   0  0  0  0  0  0  0  0  0  0  0  0
  144.1361  133.6215  151.7277 C   0  0  0  0  0  0  0  0  0  0  0  0
  142.8500  133.2794  151.6118 N   0  0  0  0  0  0  0  0  0  0  0  0
  144.8627  133.1618  152.6061 O   0  0  0  0  0  0  0  0  0  0  0  0
  146.2438  136.5838  151.1952 C   0  0  0  0  0  0  0  0  0  0  0  0
  149.3860  140.6720  155.3001 C   0  0  2  0  0  0  0  0  0  0  0  0
  150.0290  141.6190  156.3149 C   0  0  0  0  0  0  0  0  0  0  0  0
  151.2250  140.8358  156.8340 C   0  0  0  0  0  0  0  0  0  0  0  0
  151.3907  139.6954  155.8266 C   0  0  0  0  0  0  0  0  0  0  0  0
  150.5239  140.0246  154.7511 O   0  0  0  0  0  0  0  0  0  0  0  0
  147.5549  142.8313  155.4731 H   0  0  0  0  0  0  0  0  0  0  0  0
  146.6538  141.3318  155.2661 H   0  0  0  0  0  0  0  0  0  0  0  0
  146.7202  142.5147  153.9614 H   0  0  0  0  0  0  0  0  0  0  0  0
  149.1727  142.1423  153.7330 H   0  0  0  0  0  0  0  0  0  0  0  0
  148.6243  140.4384  152.3015 H   0  0  0  0  0  0  0  0  0  0  0  0
  147.6342  138.9717  151.4465 H   0  0  0  0  0  0  0  0  0  0  0  0
  144.3939  138.2033  153.3654 H   0  0  0  0  0  0  0  0  0  0  0  0
  143.9266  134.8489  149.9622 H   0  0  0  0  0  0  0  0  0  0  0  0
  145.5420  134.2011  150.1885 H   0  0  0  0  0  0  0  0  0  0  0  0
  142.4422  132.6255  152.2648 H   0  0  0  0  0  0  0  0  0  0  0  0
  142.2879  133.6829  150.8766 H   0  0  0  0  0  0  0  0  0  0  0  0
  147.0245  136.2587  150.5234 H   0  0  0  0  0  0  0  0  0  0  0  0
  148.7774  139.9298  155.8210 H   0  0  0  0  0  0  0  0  0  0  0  0
  150.3768  142.5250  155.8165 H   0  0  0  0  0  0  0  0  0  0  0  0
  149.3422  141.9150  157.1085 H   0  0  0  0  0  0  0  0  0  0  0  0
  152.1130  141.4673  156.8787 H   0  0  0  0  0  0  0  0  0  0  0  0
  151.0424  140.4413  157.8341 H   0  0  0  0  0  0  0  0  0  0  0  0
  152.4191  139.5852  155.4819 H   0  0  0  0  0  0  0  0  0  0  0  0
  151.0748  138.7475  156.2644 H   0  0  0  0  0  0  0  0  0  0  0  0
  1  2  1  0  0  0  0
  1 21  1  0  0  0  0
  1 22  1  0  0  0  0
  1 23  1  0  0  0  0
  2  3  1  0  0  0  0
  2 16  1  0  0  0  0
  2 24  1  0  0  0  0
  3  4  1  0  0  0  0
  3 25  1  0  0  0  0
  4  5  2  0  0  0  0
  4  6  1  0  0  0  0
  6  7  1  0  0  0  0
  6 26  1  0  0  0  0
  7 15  2  0  0  0  0
  7  8  1  0  0  0  0
  8  9  2  0  0  0  0
  8 27  1  0  0  0  0
  9 10  1  0  0  0  0
 10 11  1  0  0  0  0
 10 15  1  0  0  0  0
 11 12  1  0  0  0  0
 11 28  1  0  0  0  0
 11 29  1  0  0  0  0
 12 13  1  0  0  0  0
 12 14  2  0  0  0  0
 13 30  1  0  0  0  0
 13 31  1  0  0  0  0
 15 32  1  0  0  0  0
 16 20  1  0  0  0  0
 16 17  1  0  0  0  0
 16 33  1  0  0  0  0
 17 18  1  0  0  0  0
 17 34  1  0  0  0  0
 17 35  1  0  0  0  0
 18 19  1  0  0  0  0
 18 36  1  0  0  0  0
 18 37  1  0  0  0  0
 19 20  1  0  0  0  0
 19 38  1  0  0  0  0
 19 39  1  0  0  0  0
M  END
> <s_m_source_file>
AV-unprocessed.smi

> <i_m_source_file_index>
1599

> <i_lp_mmshare_version>
43012

> <i_f3d_flags>
0

> <s_epik_input>
TzFbQ0gyXVtDSDJdW0NIMl1bQ0BIXTFbQ0BIXShbQ0gzXSlbTkhdQyg9TylbTkhdYzJbY0hdbm4oW2NIXTIpW0NIMl1DKD1PKVtOSDJd

> <s_epik_cmdline>
J2VwaWtfcHl0aG9uJywgJy1waCcsICc3LjAnLCAnLXRuJywgJzgnLCAnLW1hJywgJzIwMCcsICctbWV0YWxfYmluZGluZycsICctaW1hZScsICc8aW5maWxlLm1hZT4nLCAnLW9tYWUnLCAnPG91dGZpbGUubWFlPic=

> <r_lp_tautomer_probability>
1

> <r_epik_Ionization_Penalty>
4.15391e-05

> <r_epik_Ionization_Penalty_Charging>
0

> <r_epik_Ionization_Penalty_Neutral>
4.15391e-05

> <r_epik_State_Penalty>
-0

> <r_epik_Charging_Adjusted_Penalty>
0

> <i_epik_Tot_Q>
0

> <i_epik_Tot_abs_Q>
0

> <r_epik_Metal_State_Penalty>
-0

> <b_epik_Metal_Only>
0

> <s_lp_Force_Field>
OPLS_2005

> <r_lp_Energy>
20.6042

> <b_lp_Chiralities_Consistent>
1

> <s_lp_Variant>
AV-unprocessed.smi:1599-1

> <Gold.Version>
5.8.1

> <Gold.Id.Protein>
6NUR|6NUR_protein|mol2

> <Gold.PLP.Fitness>
47.5987

> <Gold.PLP.PLP>
-35.2589

> <Gold.PLP.part.hbond>
-4.1961

> <Gold.PLP.part.metal>
0.0000

> <Gold.PLP.part.buried>
0.7072

> <Gold.PLP.part.nonpolar>
-32.2437

> <Gold.PLP.part.repulsive>
0.6929

> <Gold.PLP.ligand.clash>
0.0000

> <Gold.PLP.ligand.torsion>
0.5199

> <Gold.PLP.Chemscore.Hbond>
3.3338

> <Gold.PLP.Chemscore.CHOScore>
1.1163

> <Gold.PLP.Chemscore.Metal>
0.0000

> <Gold.Chemscore.Hbonds>
donor molecule, donor type, donor heavy atom, donor atom, acceptor molecule, acceptor atom, score
      L1  H     3    25       P1  7957  1.00
      L1  H     6    26       P1  7957  0.40
      L1  H    13    31       P1 10186  1.00
      P1  H  7989  7998       L1    20  1.00
      L1  C     8    27       P1 10175  0.71
      L1  C    15    32       P1  7948  0.51

> <Gold.PLP.Chemscore.Internal.Correction>
0.0294

> <Gold.Rescore>
     Score         DG    S(hbond)    S(metal)    S(lipo)     H(rot)  DE(clash)    DE(int)     intcor
     13.83     -18.38       3.38        0.00      63.64       2.28       1.80       2.75       ----

> <Gold.Chemscore.Fitness>
13.8275

> <Gold.Chemscore.DG>
-18.3762

> <Gold.Chemscore.ZeroCoef>
-5.4800

> <Gold.Chemscore.Hbond>
3.3813

> <Gold.Chemscore.Metal>
0.0000

> <Gold.Chemscore.Lipo>
63.6350

> <Gold.Chemscore.Internal_Hbond>
0.0000

> <Gold.Chemscore.DEClash>
1.8005

> <Gold.Chemscore.DEInternal>
2.7482

> <Gold.Chemscore.Rot>
2.2823

> <Gold.Chemscore.Internal.Correction>
   9.000000E+99

> <Gold.Chemscore.Hbonds>
donor molecule, donor type, donor heavy atom, donor atom, acceptor molecule, acceptor atom, score
      L1  H     3    25       P1  7957  0.95
      L1  H     6    26       P1  7957  0.34
      L1  H    13    31       P1 10186  0.73
      P1  H  7989  7998       L1    20  0.49

> <Gold.Chemscore.Hbond.Weighted>
-11.2935

> <Gold.Chemscore.Metal.Weighted>
-0.0000

> <Gold.Chemscore.Lipo.Weighted>
-7.4453

> <Gold.Chemscore.Internal_Hbond.Weighted>
0.0000

> <Gold.Chemscore.DEClash.Weighted>
1.8005

> <Gold.Chemscore.DEInternal.Weighted>
2.7482

> <Gold.Chemscore.Rot.Weighted>
5.8427

> <Gold.Chemscore.Internal.Correction.Weighted>
   9.000000E+99

> <Gold.Protein.RotatedTorsions>
[ 6907 6896 6895 6894 ] final  179.55 input  -60.11 | X-H torsion
[ 7974 7965 7964 7962 ] final  168.09 input  175.53 | X-H torsion
[ 8008 7997 7996 7995 ] final  -54.89 input   59.86 | X-H torsion
[ 10167 10162 10161 10158 ] final -105.01 input  -65.29 | X-H torsion
[ 10718 10713 10712 10709 ] final -135.36 input   66.30 | X-H torsion
[ 10763 10752 10751 10750 ] final  115.13 input  -60.55 | X-H torsion
[ 11005 11000 10999 10996 ] final  173.72 input  -57.11 | X-H torsion

> <Gold.Protein.ActiveResidues>
 VAL166  LYS551  ARG553  GLY616  TRP617  ASP618  TYR619  PRO620  LYS621  CYS622 
 ASP623  PHE694  ASN695  SER759  ASP760  ASP761  ALA762  ILE779  LEU786  VAL792 
 PHE793  MET794  SER795  GLU796  ALA797  LYS798  CYS799  TRP800  GLU811  SER814 

> <Gold.Protein.RotatedAtoms>
  151.6699  133.3314  159.3193 H   0  0  0  0  0  0  0  0  0  0  0  0  # atno 6907 bound_to 6896
  150.7873  134.6871  159.6486 H   0  0  0  0  0  0  0  0  0  0  0  0  # atno 6908 bound_to 6896
  152.3945  134.6391  160.0147 H   0  0  0  0  0  0  0  0  0  0  0  0  # atno 6909 bound_to 6896
  144.7401  139.8856  143.6399 H   0  0  0  0  0  0  0  0  0  0  0  0  # atno 7974 bound_to 7965
  154.4177  140.1165  156.5389 H   0  0  0  0  0  0  0  0  0  0  0  0  # atno 8008 bound_to 7997
  155.6528  140.3496  155.4735 H   0  0  0  0  0  0  0  0  0  0  0  0  # atno 8009 bound_to 7997
  155.9778  140.1154  157.0744 H   0  0  0  0  0  0  0  0  0  0  0  0  # atno 8010 bound_to 7997
  140.2031  143.3803  152.1113 H   0  0  0  0  0  0  0  0  0  0  0  0  # atno 10167 bound_to 10162
  156.2653  130.7234  151.1183 H   0  0  0  0  0  0  0  0  0  0  0  0  # atno 10718 bound_to 10713
  153.5175  135.3605  155.2616 H   0  0  0  0  0  0  0  0  0  0  0  0  # atno 10763 bound_to 10752
  154.8737  135.4037  154.3297 H   0  0  0  0  0  0  0  0  0  0  0  0  # atno 10764 bound_to 10752
  153.3962  135.7073  153.6526 H   0  0  0  0  0  0  0  0  0  0  0  0  # atno 10765 bound_to 10752
  140.3435  134.7256  157.4219 H   0  0  0  0  0  0  0  0  0  0  0  0  # atno 11005 bound_to 11000
  146.1180  139.4193  143.0246 LP  0  0  0  0  0  0  0  0  0  0  0  0  # atno 17320 bound_to 7965
  145.7347  141.0030  143.1333 LP  0  0  0  0  0  0  0  0  0  0  0  0  # atno 17321 bound_to 7965
  139.5209  144.7039  151.5412 LP  0  0  0  0  0  0  0  0  0  0  0  0  # atno 17342 bound_to 10162
  140.6376  143.8953  150.6662 LP  0  0  0  0  0  0  0  0  0  0  0  0  # atno 17343 bound_to 10162
  157.7265  131.0645  150.5906 LP  0  0  0  0  0  0  0  0  0  0  0  0  # atno 17370 bound_to 10713
  156.5997  130.4351  149.5902 LP  0  0  0  0  0  0  0  0  0  0  0  0  # atno 17371 bound_to 10713
  140.0761  134.5795  155.8590 LP  0  0  0  0  0  0  0  0  0  0  0  0  # atno 17394 bound_to 11000
  141.2032  133.6630  156.6048 LP  0  0  0  0  0  0  0  0  0  0  0  0  # atno 17395 bound_to 11000

$$$$
