AV-unprocessed.smi:794|AV-procd|sdf|3758|dock3
  -GOLD-   22720 1193D 1   1.00000     0.00000
 Structure written by MMmdl.
 41 43  0  0  0  0  0  0  0  0  1 V2000
  141.8759  134.8383  153.1613 C   0  0  0  0  0  0  0  0  0  0  0  0
  143.2990  134.7863  152.6965 C   0  0  0  0  0  0  0  0  0  0  0  0
  144.2209  135.7142  153.1902 N   0  0  0  0  0  0  0  0  0  0  0  0
  145.4439  135.5328  152.6819 C   0  0  0  0  0  0  0  0  0  0  0  0
  146.5742  136.3271  153.0090 N   0  0  0  0  0  0  0  0  0  0  0  0
  146.7634  137.0940  154.0971 C   0  0  0  0  0  0  0  0  0  0  0  0
  145.9581  137.2357  155.0178 O   0  0  0  0  0  0  0  0  0  0  0  0
  147.9561  137.7040  154.0596 N   0  0  0  0  0  0  0  0  0  0  0  0
  148.4571  138.6161  155.0857 C   0  0  2  0  0  0  0  0  0  0  0  0
  147.4382  139.7130  155.4859 C   0  0  2  0  0  0  0  0  0  0  0  0
  146.8889  140.4542  154.2476 C   0  0  0  0  0  0  0  0  0  0  0  0
  148.1104  141.2607  153.7691 C   0  0  0  0  0  0  0  0  0  0  0  0
  149.1877  140.8973  154.8097 C   0  0  1  0  0  0  0  0  0  0  0  0
  148.3535  140.7757  156.0800 C   0  0  0  0  0  0  0  0  0  0  0  0
  149.6636  139.4454  154.5707 C   0  0  1  0  0  0  0  0  0  0  0  0
  150.9839  139.1231  155.2967 C   0  0  0  0  0  0  0  0  0  0  0  0
  152.0395  139.8822  154.7461 O   0  0  0  0  0  0  0  0  0  0  0  0
  145.5437  134.1968  151.5479 S   0  0  0  0  0  0  0  0  0  0  0  0
  143.8429  133.8927  151.8027 C   0  0  0  0  0  0  0  0  0  0  0  0
  143.1495  132.7769  151.0943 C   0  0  0  0  0  0  0  0  0  0  0  0
  141.1860  134.8399  152.3172 H   0  0  0  0  0  0  0  0  0  0  0  0
  141.6756  135.7342  153.7500 H   0  0  0  0  0  0  0  0  0  0  0  0
  141.6354  133.9754  153.7823 H   0  0  0  0  0  0  0  0  0  0  0  0
  147.3262  136.3089  152.3362 H   0  0  0  0  0  0  0  0  0  0  0  0
  148.5597  137.5310  153.2692 H   0  0  0  0  0  0  0  0  0  0  0  0
  148.7424  138.0447  155.9716 H   0  0  0  0  0  0  0  0  0  0  0  0
  146.6580  139.3568  156.1593 H   0  0  0  0  0  0  0  0  0  0  0  0
  146.4965  139.7888  153.4785 H   0  0  0  0  0  0  0  0  0  0  0  0
  146.0805  141.1278  154.5349 H   0  0  0  0  0  0  0  0  0  0  0  0
  148.4089  141.0020  152.7527 H   0  0  0  0  0  0  0  0  0  0  0  0
  147.8940  142.3297  153.7904 H   0  0  0  0  0  0  0  0  0  0  0  0
  149.9979  141.6256  154.8601 H   0  0  0  0  0  0  0  0  0  0  0  0
  147.8326  141.6972  156.3464 H   0  0  0  0  0  0  0  0  0  0  0  0
  148.9180  140.4261  156.9456 H   0  0  0  0  0  0  0  0  0  0  0  0
  149.8223  139.2953  153.5009 H   0  0  0  0  0  0  0  0  0  0  0  0
  150.9026  139.3686  156.3559 H   0  0  0  0  0  0  0  0  0  0  0  0
  151.2299  138.0632  155.2301 H   0  0  0  0  0  0  0  0  0  0  0  0
  152.8593  139.4921  155.0086 H   0  0  0  0  0  0  0  0  0  0  0  0
  142.6679  132.1070  151.8067 H   0  0  0  0  0  0  0  0  0  0  0  0
  143.8500  132.1884  150.5017 H   0  0  0  0  0  0  0  0  0  0  0  0
  142.3829  133.1634  150.4223 H   0  0  0  0  0  0  0  0  0  0  0  0
  1  2  1  0  0  0  0
  1 21  1  0  0  0  0
  1 22  1  0  0  0  0
  1 23  1  0  0  0  0
  2 19  2  0  0  0  0
  2  3  1  0  0  0  0
  3  4  2  0  0  0  0
  4  5  1  0  0  0  0
  4 18  1  0  0  0  0
  5  6  1  0  0  0  0
  5 24  1  0  0  0  0
  6  7  2  0  0  0  0
  6  8  1  0  0  0  0
  8  9  1  0  0  0  0
  8 25  1  0  0  0  0
  9 15  1  0  0  0  0
  9 10  1  0  0  0  0
  9 26  1  0  0  0  0
 10 14  1  0  0  0  0
 10 11  1  0  0  0  0
 10 27  1  0  0  0  0
 11 12  1  0  0  0  0
 11 28  1  0  0  0  0
 11 29  1  0  0  0  0
 12 13  1  0  0  0  0
 12 30  1  0  0  0  0
 12 31  1  0  0  0  0
 13 14  1  0  0  0  0
 13 15  1  0  0  0  0
 13 32  1  0  0  0  0
 14 33  1  0  0  0  0
 14 34  1  0  0  0  0
 15 16  1  0  0  0  0
 15 35  1  0  0  0  0
 16 17  1  0  0  0  0
 16 36  1  0  0  0  0
 16 37  1  0  0  0  0
 17 38  1  0  0  0  0
 18 19  1  0  0  0  0
 19 20  1  0  0  0  0
 20 39  1  0  0  0  0
 20 40  1  0  0  0  0
 20 41  1  0  0  0  0
M  END
> <s_m_source_file>
AV-unprocessed.smi

> <i_m_source_file_index>
794

> <i_lp_mmshare_version>
43012

> <i_f3d_flags>
0

> <s_epik_input>
W0NIM11jMW5jKHNjMVtDSDNdKVtOSF1DKD1PKVtOSF1bQ0BIXShbQ0BASF0yMylbQ0BIXShbQ0gyXVtPSF0pW0NAQEhdKFtDSDJdMylbQ0gyXVtDSDJdMg==

> <s_epik_cmdline>
J2VwaWtfcHl0aG9uJywgJy1waCcsICc3LjAnLCAnLXRuJywgJzgnLCAnLW1hJywgJzIwMCcsICctbWV0YWxfYmluZGluZycsICctaW1hZScsICc8aW5maWxlLm1hZT4nLCAnLW9tYWUnLCAnPG91dGZpbGUubWFlPic=

> <r_lp_tautomer_probability>
0.999

> <r_epik_Ionization_Penalty>
0.000713029

> <r_epik_Ionization_Penalty_Charging>
0

> <r_epik_Ionization_Penalty_Neutral>
0.000713029

> <r_epik_State_Penalty>
0.000177984

> <r_epik_Charging_Adjusted_Penalty>
0.000177984

> <i_epik_Tot_Q>
0

> <i_epik_Tot_abs_Q>
0

> <r_epik_Metal_State_Penalty>
-0

> <b_epik_Metal_Only>
0

> <s_lp_Force_Field>
OPLS_2005

> <r_lp_Energy>
47.0696

> <b_lp_Chiralities_Consistent>
1

> <s_lp_Variant>
AV-unprocessed.smi:794-3

> <Gold.Version>
5.8.1

> <Gold.Id.Protein>
6NUR|6NUR_protein|mol2

> <Gold.PLP.Fitness>
37.8344

> <Gold.PLP.PLP>
-30.1718

> <Gold.PLP.part.hbond>
-2.7784

> <Gold.PLP.part.metal>
0.0000

> <Gold.PLP.part.buried>
-3.6331

> <Gold.PLP.part.nonpolar>
-23.7268

> <Gold.PLP.part.repulsive>
0.1009

> <Gold.PLP.ligand.clash>
0.0000

> <Gold.PLP.ligand.torsion>
0.2698

> <Gold.PLP.Chemscore.Hbond>
2.7280

> <Gold.PLP.Chemscore.CHOScore>
0.0000

> <Gold.PLP.Chemscore.Metal>
0.0000

> <Gold.Chemscore.Hbonds>
donor molecule, donor type, donor heavy atom, donor atom, acceptor molecule, acceptor atom, score
      L1  H     5    24       P1  7948  1.00
      L1  H     8    25       P1  7948  0.88
      P1  H  7989  7998       L1    17  0.85

> <Gold.PLP.Chemscore.Internal.Correction>
0.0183

> <Gold.Rescore>
     Score         DG    S(hbond)    S(metal)    S(lipo)     H(rot)  DE(clash)    DE(int)     intcor
     16.14     -18.70       2.82        0.00      71.56       1.78       0.02       2.55       ----

> <Gold.Chemscore.Fitness>
16.1381

> <Gold.Chemscore.DG>
-18.7005

> <Gold.Chemscore.ZeroCoef>
-5.4800

> <Gold.Chemscore.Hbond>
2.8158

> <Gold.Chemscore.Metal>
0.0000

> <Gold.Chemscore.Lipo>
71.5559

> <Gold.Chemscore.Internal_Hbond>
0.0000

> <Gold.Chemscore.DEClash>
0.0174

> <Gold.Chemscore.DEInternal>
2.5451

> <Gold.Chemscore.Rot>
1.7798

> <Gold.Chemscore.Internal.Correction>
   9.000000E+99

> <Gold.Chemscore.Hbonds>
donor molecule, donor type, donor heavy atom, donor atom, acceptor molecule, acceptor atom, score
      L1  H     5    24       P1  7948  0.98
      L1  H     8    25       P1  7948  0.86
      P1  H  7989  7998       L1    17  0.78

> <Gold.Chemscore.Hbond.Weighted>
-9.4047

> <Gold.Chemscore.Metal.Weighted>
-0.0000

> <Gold.Chemscore.Lipo.Weighted>
-8.3720

> <Gold.Chemscore.Internal_Hbond.Weighted>
0.0000

> <Gold.Chemscore.DEClash.Weighted>
0.0174

> <Gold.Chemscore.DEInternal.Weighted>
2.5451

> <Gold.Chemscore.Rot.Weighted>
4.5562

> <Gold.Chemscore.Internal.Correction.Weighted>
   9.000000E+99

> <Gold.Protein.RotatedTorsions>
[ 6907 6896 6895 6894 ] final    6.15 input  -60.11 | X-H torsion
[ 7974 7965 7964 7962 ] final  -58.96 input  175.53 | X-H torsion
[ 8008 7997 7996 7995 ] final -126.54 input   59.86 | X-H torsion
[ 10167 10162 10161 10158 ] final   11.66 input  -65.29 | X-H torsion
[ 10718 10713 10712 10709 ] final  -97.24 input   66.30 | X-H torsion
[ 10763 10752 10751 10750 ] final   52.94 input  -60.55 | X-H torsion
[ 11005 11000 10999 10996 ] final -174.29 input  -57.11 | X-H torsion

> <Gold.Protein.ActiveResidues>
 VAL166  LYS551  ARG553  GLY616  TRP617  ASP618  TYR619  PRO620  LYS621  CYS622 
 ASP623  PHE694  ASN695  SER759  ASP760  ASP761  ALA762  ILE779  LEU786  VAL792 
 PHE793  MET794  SER795  GLU796  ALA797  LYS798  CYS799  TRP800  GLU811  SER814 

> <Gold.Protein.RotatedAtoms>
  151.6690  135.0979  160.0194 H   0  0  0  0  0  0  0  0  0  0  0  0  # atno 6907 bound_to 6896
  152.3902  133.6664  159.6240 H   0  0  0  0  0  0  0  0  0  0  0  0  # atno 6908 bound_to 6896
  150.7819  133.8883  159.3347 H   0  0  0  0  0  0  0  0  0  0  0  0  # atno 6909 bound_to 6896
  145.8331  140.8467  143.0073 H   0  0  0  0  0  0  0  0  0  0  0  0  # atno 7974 bound_to 7965
  155.2313  140.0425  157.2962 H   0  0  0  0  0  0  0  0  0  0  0  0  # atno 8008 bound_to 7997
  154.5886  140.2420  155.7922 H   0  0  0  0  0  0  0  0  0  0  0  0  # atno 8009 bound_to 7997
  156.2244  140.2959  156.0038 H   0  0  0  0  0  0  0  0  0  0  0  0  # atno 8010 bound_to 7997
  140.6118  143.8392  150.7073 H   0  0  0  0  0  0  0  0  0  0  0  0  # atno 10167 bound_to 10162
  156.0079  130.5186  150.6346 H   0  0  0  0  0  0  0  0  0  0  0  0  # atno 10718 bound_to 10713
  152.9792  135.5795  154.4661 H   0  0  0  0  0  0  0  0  0  0  0  0  # atno 10763 bound_to 10752
  154.4230  135.2772  155.1965 H   0  0  0  0  0  0  0  0  0  0  0  0  # atno 10764 bound_to 10752
  154.3705  135.6169  153.5791 H   0  0  0  0  0  0  0  0  0  0  0  0  # atno 10765 bound_to 10752
  140.4761  134.6119  157.4901 H   0  0  0  0  0  0  0  0  0  0  0  0  # atno 11005 bound_to 11000
  144.6738  140.0701  143.7473 LP  0  0  0  0  0  0  0  0  0  0  0  0  # atno 17320 bound_to 7965
  145.9549  139.2759  143.1190 LP  0  0  0  0  0  0  0  0  0  0  0  0  # atno 17321 bound_to 7965
  140.1962  143.3996  152.1826 LP  0  0  0  0  0  0  0  0  0  0  0  0  # atno 17342 bound_to 10162
  139.5367  144.7216  151.4870 LP  0  0  0  0  0  0  0  0  0  0  0  0  # atno 17343 bound_to 10162
  157.4137  131.0827  151.1196 LP  0  0  0  0  0  0  0  0  0  0  0  0  # atno 17370 bound_to 10713
  157.1820  130.6313  149.5675 LP  0  0  0  0  0  0  0  0  0  0  0  0  # atno 17371 bound_to 10713
  139.9855  134.7069  155.9782 LP  0  0  0  0  0  0  0  0  0  0  0  0  # atno 17394 bound_to 11000
  141.1553  133.6543  156.4143 LP  0  0  0  0  0  0  0  0  0  0  0  0  # atno 17395 bound_to 11000

$$$$
