AV-unprocessed.smi:2923|AV-procd|sdf|11207|dock9
  -GOLD-   2272016103D 1   1.00000     0.00000
 Structure written by MMmdl.
 47 49  0  0  0  0  0  0  0  0  2 V2000
  146.5742  139.6135  151.0629 C   0  0  0  0  0  0  0  0  0  0  0  0
  146.8078  138.8308  152.2714 N   0  0  0  0  0  0  0  0  0  0  0  0
  146.0213  137.6327  152.5343 C   0  0  0  0  0  0  0  0  0  0  0  0
  147.7262  139.2929  153.2389 C   0  0  0  0  0  0  0  0  0  0  0  0
  147.5539  140.5008  153.9575 C   0  0  0  0  0  0  0  0  0  0  0  0
  148.5182  140.8952  154.9073 C   0  0  0  0  0  0  0  0  0  0  0  0
  149.6507  140.0872  155.1402 C   0  0  0  0  0  0  0  0  0  0  0  0
  150.5903  140.5425  156.1065 N   0  0  0  0  0  0  0  0  0  0  0  0
  150.3770  141.1913  157.2646 C   0  0  0  0  0  0  0  0  0  0  0  0
  149.2800  141.5343  157.7034 O   0  0  0  0  0  0  0  0  0  0  0  0
  151.5310  141.4343  157.9000 N   0  0  0  0  0  0  0  0  0  0  0  0
  151.6361  142.1217  159.1830 C   0  0  1  0  0  0  0  0  0  0  0  0
  153.0800  142.1733  159.7054 C   0  0  2  0  0  0  0  0  0  0  0  0
  153.4464  141.4430  160.9689 C   0  0  0  0  0  0  0  0  0  0  0  0
  153.3351  142.5332  162.0381 C   0  0  0  0  0  0  0  0  0  0  0  0
  152.4691  143.5108  161.4662 O   0  0  0  0  0  0  0  0  0  0  0  0
  152.7998  143.6198  160.0839 C   0  0  2  0  0  0  0  0  0  0  0  0
  151.6193  143.6690  159.0909 C   0  0  0  0  0  0  0  0  0  0  0  0
  151.9641  144.3037  157.7360 C   0  0  0  0  0  0  0  0  0  0  0  0
  150.3502  144.3604  159.5913 C   0  0  0  0  0  0  0  0  0  0  0  0
  149.7769  138.8883  154.3976 C   0  0  0  0  0  0  0  0  0  0  0  0
  148.8290  138.5488  153.4975 N   0  3  0  0  0  0  0  0  0  0  0  0
  147.4998  139.7363  150.4997 H   0  0  0  0  0  0  0  0  0  0  0  0
  146.1877  140.6014  151.3156 H   0  0  0  0  0  0  0  0  0  0  0  0
  145.8493  139.1280  150.4093 H   0  0  0  0  0  0  0  0  0  0  0  0
  145.4228  137.7573  153.4372 H   0  0  0  0  0  0  0  0  0  0  0  0
  146.6721  136.7676  152.6631 H   0  0  0  0  0  0  0  0  0  0  0  0
  145.3408  137.4161  151.7109 H   0  0  0  0  0  0  0  0  0  0  0  0
  146.6953  141.1354  153.7969 H   0  0  0  0  0  0  0  0  0  0  0  0
  148.3840  141.8179  155.4530 H   0  0  0  0  0  0  0  0  0  0  0  0
  151.5564  140.3469  155.8889 H   0  0  0  0  0  0  0  0  0  0  0  0
  152.3921  141.1241  157.4742 H   0  0  0  0  0  0  0  0  0  0  0  0
  150.9466  141.7451  159.9422 H   0  0  0  0  0  0  0  0  0  0  0  0
  153.8211  142.1050  158.9069 H   0  0  0  0  0  0  0  0  0  0  0  0
  152.7449  140.6321  161.1673 H   0  0  0  0  0  0  0  0  0  0  0  0
  154.4495  141.0172  160.9321 H   0  0  0  0  0  0  0  0  0  0  0  0
  152.9469  142.1571  162.9848 H   0  0  0  0  0  0  0  0  0  0  0  0
  154.3091  142.9882  162.2245 H   0  0  0  0  0  0  0  0  0  0  0  0
  153.6282  144.3014  159.8845 H   0  0  0  0  0  0  0  0  0  0  0  0
  152.1419  145.3751  157.8337 H   0  0  0  0  0  0  0  0  0  0  0  0
  151.1596  144.1720  157.0117 H   0  0  0  0  0  0  0  0  0  0  0  0
  152.8657  143.8696  157.3032 H   0  0  0  0  0  0  0  0  0  0  0  0
  150.5118  145.4271  159.7496 H   0  0  0  0  0  0  0  0  0  0  0  0
  150.0107  143.9416  160.5389 H   0  0  0  0  0  0  0  0  0  0  0  0
  149.5289  144.2513  158.8824 H   0  0  0  0  0  0  0  0  0  0  0  0
  150.5892  138.1827  154.4743 H   0  0  0  0  0  0  0  0  0  0  0  0
  148.9532  137.6786  152.9802 H   0  0  0  0  0  0  0  0  0  0  0  0
  1  2  1  0  0  0  0
  1 23  1  0  0  0  0
  1 24  1  0  0  0  0
  1 25  1  0  0  0  0
  2  3  1  0  0  0  0
  2  4  1  0  0  0  0
  3 26  1  0  0  0  0
  3 27  1  0  0  0  0
  3 28  1  0  0  0  0
  4 22  1  0  0  0  0
  4  5  2  0  0  0  0
  5  6  1  0  0  0  0
  5 29  1  0  0  0  0
  6  7  2  0  0  0  0
  6 30  1  0  0  0  0
  7  8  1  0  0  0  0
  7 21  1  0  0  0  0
  8  9  1  0  0  0  0
  8 31  1  0  0  0  0
  9 10  2  0  0  0  0
  9 11  1  0  0  0  0
 11 12  1  0  0  0  0
 11 32  1  0  0  0  0
 12 18  1  0  0  0  0
 12 13  1  0  0  0  0
 12 33  1  0  0  0  0
 13 17  1  0  0  0  0
 13 14  1  0  0  0  0
 13 34  1  0  0  0  0
 14 15  1  0  0  0  0
 14 35  1  0  0  0  0
 14 36  1  0  0  0  0
 15 16  1  0  0  0  0
 15 37  1  0  0  0  0
 15 38  1  0  0  0  0
 16 17  1  0  0  0  0
 17 18  1  0  0  0  0
 17 39  1  0  0  0  0
 18 19  1  0  0  0  0
 18 20  1  0  0  0  0
 19 40  1  0  0  0  0
 19 41  1  0  0  0  0
 19 42  1  0  0  0  0
 20 43  1  0  0  0  0
 20 44  1  0  0  0  0
 20 45  1  0  0  0  0
 21 22  2  0  0  0  0
 21 46  1  0  0  0  0
 22 47  1  0  0  0  0
M  CHG  1  22   1
M  END
> <s_m_source_file>
AV-unprocessed.smi

> <i_m_source_file_index>
2923

> <i_lp_mmshare_version>
43012

> <i_f3d_flags>
0

> <s_epik_input>
W0NIM11OKFtDSDNdKWMxW2NIXVtjSF1jKFtjSF1uMSlbTkhdQyg9TylbTkhdW0NASF0yQyhbQ0gzXSkoW0NIM10pW0NAQEhdKFtDQEhdMjMpT1tDSDJdW0NIMl0z

> <s_epik_cmdline>
J2VwaWtfcHl0aG9uJywgJy1waCcsICc3LjAnLCAnLXRuJywgJzgnLCAnLW1hJywgJzIwMCcsICctbWV0YWxfYmluZGluZycsICctaW1hZScsICc8aW5maWxlLm1hZT4nLCAnLW9tYWUnLCAnPG91dGZpbGUubWFlPic=

> <r_lp_tautomer_probability>
0.999994

> <r_epik_Ionization_Penalty>
0.252205

> <r_epik_Ionization_Penalty_Charging>
0.252185

> <r_epik_Ionization_Penalty_Neutral>
1.99479e-05

> <r_epik_State_Penalty>
0.243573

> <r_epik_Charging_Adjusted_Penalty>
0.495758

> <i_epik_Tot_Q>
1

> <i_epik_Tot_abs_Q>
1

> <r_epik_Metal_State_Penalty>
0.534372

> <b_epik_Metal_Only>
0

> <s_lp_Force_Field>
OPLS_2005

> <r_lp_Energy>
44.3361

> <b_lp_Chiralities_Consistent>
1

> <s_lp_Variant>
AV-unprocessed.smi:2923-6

> <Gold.Version>
5.8.1

> <Gold.Id.Protein>
6NUR|6NUR_protein|mol2

> <Gold.PLP.Fitness>
49.9349

> <Gold.PLP.PLP>
-47.1001

> <Gold.PLP.part.hbond>
-2.0000

> <Gold.PLP.part.metal>
0.0000

> <Gold.PLP.part.buried>
-2.8553

> <Gold.PLP.part.nonpolar>
-44.0407

> <Gold.PLP.part.repulsive>
0.4036

> <Gold.PLP.ligand.clash>
0.0000

> <Gold.PLP.ligand.torsion>
1.6736

> <Gold.PLP.Chemscore.Hbond>
2.0000

> <Gold.PLP.Chemscore.CHOScore>
0.0000

> <Gold.PLP.Chemscore.Metal>
0.0000

> <Gold.Chemscore.Hbonds>
donor molecule, donor type, donor heavy atom, donor atom, acceptor molecule, acceptor atom, score
      L1  H    22    47       P1  7948  2.00

> <Gold.PLP.Chemscore.Internal.Correction>
0.1820

> <Gold.Rescore>
     Score         DG    S(hbond)    S(metal)    S(lipo)     H(rot)  DE(clash)    DE(int)     intcor
     18.27     -21.73       1.00        0.00     132.22       1.00       0.83       2.62       ----

> <Gold.Chemscore.Fitness>
18.2739

> <Gold.Chemscore.DG>
-21.7294

> <Gold.Chemscore.ZeroCoef>
-5.4800

> <Gold.Chemscore.Hbond>
0.9999

> <Gold.Chemscore.Metal>
0.0000

> <Gold.Chemscore.Lipo>
132.2195

> <Gold.Chemscore.Internal_Hbond>
0.0000

> <Gold.Chemscore.DEClash>
0.8337

> <Gold.Chemscore.DEInternal>
2.6218

> <Gold.Chemscore.Rot>
1.0000

> <Gold.Chemscore.Internal.Correction>
   9.000000E+99

> <Gold.Chemscore.Hbonds>
donor molecule, donor type, donor heavy atom, donor atom, acceptor molecule, acceptor atom, score
      L1  H    22    47       P1  7948  1.00

> <Gold.Chemscore.Hbond.Weighted>
-3.3397

> <Gold.Chemscore.Metal.Weighted>
-0.0000

> <Gold.Chemscore.Lipo.Weighted>
-15.4697

> <Gold.Chemscore.Internal_Hbond.Weighted>
0.0000

> <Gold.Chemscore.DEClash.Weighted>
0.8337

> <Gold.Chemscore.DEInternal.Weighted>
2.6218

> <Gold.Chemscore.Rot.Weighted>
2.5600

> <Gold.Chemscore.Internal.Correction.Weighted>
   9.000000E+99

> <Gold.Protein.RotatedTorsions>
[ 6907 6896 6895 6894 ] final   -4.79 input  -60.11 | X-H torsion
[ 7974 7965 7964 7962 ] final   86.01 input  175.53 | X-H torsion
[ 8008 7997 7996 7995 ] final  -11.78 input   59.86 | X-H torsion
[ 10167 10162 10161 10158 ] final  129.23 input  -65.29 | X-H torsion
[ 10718 10713 10712 10709 ] final   42.31 input   66.30 | X-H torsion
[ 10763 10752 10751 10750 ] final  154.58 input  -60.55 | X-H torsion
[ 11005 11000 10999 10996 ] final  178.54 input  -57.11 | X-H torsion

> <Gold.Protein.ActiveResidues>
 VAL166  LYS551  ARG553  GLY616  TRP617  ASP618  TYR619  PRO620  LYS621  CYS622 
 ASP623  PHE694  ASN695  SER759  ASP760  ASP761  ALA762  ILE779  LEU786  VAL792 
 PHE793  MET794  SER795  GLU796  ALA797  LYS798  CYS799  TRP800  GLU811  SER814 

> <Gold.Protein.RotatedAtoms>
  151.4920  135.1058  159.9805 H   0  0  0  0  0  0  0  0  0  0  0  0  # atno 6907 bound_to 6896
  152.4737  133.8084  159.7001 H   0  0  0  0  0  0  0  0  0  0  0  0  # atno 6908 bound_to 6896
  150.8761  133.7374  159.2972 H   0  0  0  0  0  0  0  0  0  0  0  0  # atno 6909 bound_to 6896
  145.5779  139.2321  143.2369 H   0  0  0  0  0  0  0  0  0  0  0  0  # atno 7974 bound_to 7965
  154.5434  140.2293  155.8603 H   0  0  0  0  0  0  0  0  0  0  0  0  # atno 8008 bound_to 7997
  156.1880  140.3084  155.9238 H   0  0  0  0  0  0  0  0  0  0  0  0  # atno 8009 bound_to 7997
  155.3212  140.0440  157.3030 H   0  0  0  0  0  0  0  0  0  0  0  0  # atno 8010 bound_to 7997
  139.5488  144.6796  151.4389 H   0  0  0  0  0  0  0  0  0  0  0  0  # atno 10167 bound_to 10162
  157.4034  130.7873  149.7367 H   0  0  0  0  0  0  0  0  0  0  0  0  # atno 10718 bound_to 10713
  154.1546  135.2813  155.3126 H   0  0  0  0  0  0  0  0  0  0  0  0  # atno 10763 bound_to 10752
  154.6192  135.5473  153.7559 H   0  0  0  0  0  0  0  0  0  0  0  0  # atno 10764 bound_to 10752
  153.0210  135.6434  154.1690 H   0  0  0  0  0  0  0  0  0  0  0  0  # atno 10765 bound_to 10752
  140.3962  134.6818  157.4536 H   0  0  0  0  0  0  0  0  0  0  0  0  # atno 11005 bound_to 11000
  146.1737  140.6606  142.9221 LP  0  0  0  0  0  0  0  0  0  0  0  0  # atno 17320 bound_to 7965
  144.7407  140.4934  143.6871 LP  0  0  0  0  0  0  0  0  0  0  0  0  # atno 17321 bound_to 7965
  140.6744  143.8222  150.7040 LP  0  0  0  0  0  0  0  0  0  0  0  0  # atno 17342 bound_to 10162
  140.1656  143.4238  152.2036 LP  0  0  0  0  0  0  0  0  0  0  0  0  # atno 17343 bound_to 10162
  155.9829  130.4005  150.3389 LP  0  0  0  0  0  0  0  0  0  0  0  0  # atno 17370 bound_to 10713
  157.1520  131.0323  151.2881 LP  0  0  0  0  0  0  0  0  0  0  0  0  # atno 17371 bound_to 10713
  140.0370  134.6323  155.9031 LP  0  0  0  0  0  0  0  0  0  0  0  0  # atno 17394 bound_to 11000
  141.1873  133.6559  156.5276 LP  0  0  0  0  0  0  0  0  0  0  0  0  # atno 17395 bound_to 11000

$$$$
