#       Name:                AV-unprocessed.smi:1826
#       Creating user name   scv26
#       Creation time:       Fri Mar 27 09:09:21 2020


#       File generated by GOLD software.
#

@<TRIPOS>MOLECULE
AV-unprocessed.smi:1826
    44    46     1
SMALL
NO_CHARGES


@<TRIPOS>ATOM
      1 ****        -2.1688   1.2856   4.3242 O.3            1 S1                 0.0000
      2 ****        -0.9569   1.6257   3.6857 C.3            1 S1                 0.0000
      3 ****        -1.0868   1.6788   2.1936 C.2            1 S1                 0.0000
      4 ****        -1.2168   2.8378   1.5470 N.2            1 S1                 0.0000
      5 ****        -1.3615   2.4399   0.2333 C.ar           1 S1                 0.0000
      6 ****        -1.5447   3.2039  -0.9415 C.ar           1 S1                 0.0000
      7 ****        -1.6824   2.5683  -2.1928 C.ar           1 S1                 0.0000
      8 ****        -1.6441   1.1624  -2.2862 C.ar           1 S1                 0.0000
      9 ****        -1.4639   0.3833  -1.1277 C.ar           1 S1                 0.0000
     10 ****        -1.3147   1.0219   0.1186 C.ar           1 S1                 0.0000
     11 ****        -1.1060   0.5636   1.4179 N.pl3          1 S1                 0.0000
     12 ****        -0.9708  -0.8316   1.8285 C.3            1 S1                 0.0000
     13 ****         0.4737  -1.3823   1.7432 C.3            1 S1                 0.0000
     14 ****         1.3337  -0.6618   2.6039 O.3            1 S1                 0.0000
     15 ****         0.9967  -1.4589   0.3137 C.ar           1 S1                 0.0000
     16 ****         1.7750  -0.4167  -0.2386 C.ar           1 S1                 0.0000
     17 ****         2.2242  -0.4925  -1.5709 C.ar           1 S1                 0.0000
     18 ****         1.9009  -1.6101  -2.3703 C.ar           1 S1                 0.0000
     19 ****         2.3813  -1.7014  -3.8111 C.3            1 S1                 0.0000
     20 ****         3.4776  -2.4570  -3.8616 F              1 S1                 0.0000
     21 ****         1.4426  -2.2541  -4.5802 F              1 S1                 0.0000
     22 ****         2.6682  -0.4963  -4.3050 F              1 S1                 0.0000
     23 ****         1.1345  -2.6564  -1.8143 C.ar           1 S1                 0.0000
     24 ****         0.6846  -2.5809  -0.4822 C.ar           1 S1                 0.0000
     25 ****        -2.0272   1.2911   5.2584 H              1 S1                 0.0000
     26 ****        -0.6330   2.6002   4.0528 H              1 S1                 0.0000
     27 ****        -0.1863   0.9143   3.9756 H              1 S1                 0.0000
     28 ****        -1.5811   4.2813  -0.8793 H              1 S1                 0.0000
     29 ****        -1.8208   3.1622  -3.0845 H              1 S1                 0.0000
     30 ****        -1.7522   0.6818  -3.2477 H              1 S1                 0.0000
     31 ****        -1.4335  -0.6934  -1.1988 H              1 S1                 0.0000
     32 ****        -1.3467  -0.9369   2.8461 H              1 S1                 0.0000
     33 ****        -1.6343  -1.4358   1.2089 H              1 S1                 0.0000
     34 ****         0.4591  -2.4020   2.1301 H              1 S1                 0.0000
     35 ****         2.1718  -1.0981   2.6221 H              1 S1                 0.0000
     36 ****         2.0185   0.4559   0.3497 H              1 S1                 0.0000
     37 ****         2.8147   0.3163  -1.9751 H              1 S1                 0.0000
     38 ****         0.8858  -3.5218  -2.4110 H              1 S1                 0.0000
     39 ****         0.0894  -3.3853  -0.0754 H              1 S1                 0.0000
     40 ****        -2.4597   0.3744   4.0325 LP             1 S1                 0.0000
     41 ****        -2.8744   1.9529   4.0860 LP             1 S1                 0.0000
     42 ****        -1.2109   3.7651   1.9211 LP             1 S1                 0.0000
     43 ****         0.9459  -0.6369   3.5253 LP             1 S1                 0.0000
     44 ****         1.4464   0.2720   2.2644 LP             1 S1                 0.0000
@<TRIPOS>BOND
    1    1    2 1     
    2    1   25 1     
    3    2    3 1     
    4    2   26 1     
    5    2   27 1     
    6    3   11 1     
    7    3    4 2     
    8    4    5 1     
    9    5   10 ar    
   10    5    6 ar    
   11    6    7 ar    
   12    6   28 1     
   13    7    8 ar    
   14    7   29 1     
   15    8    9 ar    
   16    8   30 1     
   17    9   10 ar    
   18    9   31 1     
   19   10   11 1     
   20   11   12 1     
   21   12   13 1     
   22   12   32 1     
   23   12   33 1     
   24   13   14 1     
   25   13   15 1     
   26   13   34 1     
   27   14   35 1     
   28   15   24 ar    
   29   15   16 ar    
   30   16   17 ar    
   31   16   36 1     
   32   17   18 ar    
   33   17   37 1     
   34   18   19 1     
   35   18   23 ar    
   36   19   20 1     
   37   19   21 1     
   38   19   22 1     
   39   23   24 ar    
   40   23   38 1     
   41   24   39 1     
   42    1   40 1     
   43    1   41 1     
   44    4   42 1     
   45   14   43 1     
   46   14   44 1     
@<TRIPOS>SUBSTRUCTURE
      1 S1             1
@<TRIPOS>SET
LONE_PAIRS      STATIC     ATOMS    <user>   **** ""
5 40 41 42 43 44
DONOR_HYDROGENS      STATIC     ATOMS    <user>   **** ""
2 25 35
ATOM$BLUE        STATIC     ATOMS    COLORGROUP SYSTEM
5 40 41 42 43 44
ATOM$RED        STATIC     ATOMS    COLORGROUP SYSTEM
2 25 35
