AV-unprocessed.smi:2510|AV-procd|sdf|9880|dock2
  -GOLD-   2272013513D 1   1.00000     0.00000
 Structure written by MMmdl.
 48 49  0  0  0  0  0  0  0  0  1 V2000
  147.0695  141.5192  153.7528 C   0  0  0  0  0  0  0  0  0  0  0  0
  148.5255  141.2773  154.1922 C   0  0  0  0  0  0  0  0  0  0  0  0
  148.7770  140.0947  155.1731 C   0  0  0  0  0  0  0  0  0  0  0  0
  147.9364  140.2893  156.4499 C   0  0  0  0  0  0  0  0  0  0  0  0
  148.1547  139.2194  157.5314 C   0  0  0  0  0  0  0  0  0  0  0  0
  148.7534  138.6531  154.5895 C   0  0  1  0  0  0  0  0  0  0  0  0
  147.9568  138.4724  153.3814 N   0  0  0  0  0  0  0  0  0  0  0  0
  146.7343  137.9213  153.3525 C   0  0  0  0  0  0  0  0  0  0  0  0
  146.1444  137.5242  154.3571 O   0  0  0  0  0  0  0  0  0  0  0  0
  146.0708  137.8057  151.9804 C   0  0  0  0  0  0  0  0  0  0  0  0
  145.7158  136.3855  151.6797 C   0  0  0  0  0  0  0  0  0  0  0  0
  144.5281  135.8083  151.3267 C   0  0  0  0  0  0  0  0  0  0  0  0
  144.8374  134.4244  151.1796 C   0  0  0  0  0  0  0  0  0  0  0  0
  143.9125  133.3041  150.8038 C   0  0  0  0  0  0  0  0  0  0  0  0
  146.1135  134.1632  151.4205 N   0  0  0  0  0  0  0  0  0  0  0  0
  146.6393  135.3651  151.7212 N   0  0  0  0  0  0  0  0  0  0  0  0
  150.2523  138.7585  154.2883 C   0  0  2  0  0  0  0  0  0  0  0  0
  151.1044  137.4984  154.3669 C   0  0  0  0  0  0  0  0  0  0  0  0
  150.2741  139.7769  155.4383 C   0  0  1  0  0  0  0  0  0  0  0  0
  151.1216  140.8986  155.2357 O   0  0  0  0  0  0  0  0  0  0  0  0
  150.9437  141.9182  156.2026 C   0  0  0  0  0  0  0  0  0  0  0  0
  147.6168  135.4718  151.9522 H   0  0  0  0  0  0  0  0  0  0  0  0
  147.0298  142.3019  152.9951 H   0  0  0  0  0  0  0  0  0  0  0  0
  146.4448  141.8512  154.5812 H   0  0  0  0  0  0  0  0  0  0  0  0
  146.6105  140.6324  153.3224 H   0  0  0  0  0  0  0  0  0  0  0  0
  149.1218  141.1452  153.2896 H   0  0  0  0  0  0  0  0  0  0  0  0
  148.8970  142.2056  154.6269 H   0  0  0  0  0  0  0  0  0  0  0  0
  148.0956  141.2803  156.8737 H   0  0  0  0  0  0  0  0  0  0  0  0
  146.8775  140.2746  156.1892 H   0  0  0  0  0  0  0  0  0  0  0  0
  147.4715  139.3746  158.3664 H   0  0  0  0  0  0  0  0  0  0  0  0
  149.1673  139.2480  157.9328 H   0  0  0  0  0  0  0  0  0  0  0  0
  147.9755  138.2175  157.1407 H   0  0  0  0  0  0  0  0  0  0  0  0
  148.5647  137.8977  155.3570 H   0  0  0  0  0  0  0  0  0  0  0  0
  148.3667  138.7784  152.5111 H   0  0  0  0  0  0  0  0  0  0  0  0
  145.1726  138.4240  151.9669 H   0  0  0  0  0  0  0  0  0  0  0  0
  146.7323  138.2046  151.2098 H   0  0  0  0  0  0  0  0  0  0  0  0
  143.5767  136.3023  151.1953 H   0  0  0  0  0  0  0  0  0  0  0  0
  142.9642  133.6868  150.4263 H   0  0  0  0  0  0  0  0  0  0  0  0
  143.6955  132.6704  151.6638 H   0  0  0  0  0  0  0  0  0  0  0  0
  144.3478  132.6751  150.0267 H   0  0  0  0  0  0  0  0  0  0  0  0
  150.4143  139.2730  153.3393 H   0  0  0  0  0  0  0  0  0  0  0  0
  151.0130  137.0156  155.3402 H   0  0  0  0  0  0  0  0  0  0  0  0
  152.1593  137.7176  154.2043 H   0  0  0  0  0  0  0  0  0  0  0  0
  150.8014  136.7734  153.6113 H   0  0  0  0  0  0  0  0  0  0  0  0
  150.4258  139.3052  156.4127 H   0  0  0  0  0  0  0  0  0  0  0  0
  151.5808  142.7674  155.9561 H   0  0  0  0  0  0  0  0  0  0  0  0
  151.2198  141.5739  157.1989 H   0  0  0  0  0  0  0  0  0  0  0  0
  149.9108  142.2678  156.2237 H   0  0  0  0  0  0  0  0  0  0  0  0
  1  2  1  0  0  0  0
  1 23  1  0  0  0  0
  1 24  1  0  0  0  0
  1 25  1  0  0  0  0
  2  3  1  0  0  0  0
  2 26  1  0  0  0  0
  2 27  1  0  0  0  0
  3 19  1  0  0  0  0
  3  4  1  0  0  0  0
  3  6  1  0  0  0  0
  4  5  1  0  0  0  0
  4 28  1  0  0  0  0
  4 29  1  0  0  0  0
  5 30  1  0  0  0  0
  5 31  1  0  0  0  0
  5 32  1  0  0  0  0
  6  7  1  0  0  0  0
  6 17  1  0  0  0  0
  6 33  1  0  0  0  0
  7  8  1  0  0  0  0
  7 34  1  0  0  0  0
  8  9  2  0  0  0  0
  8 10  1  0  0  0  0
 10 35  1  0  0  0  0
 10 36  1  0  0  0  0
 10 11  1  0  0  0  0
 11 16  1  0  0  0  0
 11 12  2  0  0  0  0
 12 13  1  0  0  0  0
 12 37  1  0  0  0  0
 13 14  1  0  0  0  0
 13 15  2  0  0  0  0
 14 38  1  0  0  0  0
 14 39  1  0  0  0  0
 14 40  1  0  0  0  0
 15 16  1  0  0  0  0
 16 22  1  0  0  0  0
 17 18  1  0  0  0  0
 17 19  1  0  0  0  0
 17 41  1  0  0  0  0
 18 42  1  0  0  0  0
 18 43  1  0  0  0  0
 18 44  1  0  0  0  0
 19 20  1  0  0  0  0
 19 45  1  0  0  0  0
 20 21  1  0  0  0  0
 21 46  1  0  0  0  0
 21 47  1  0  0  0  0
 21 48  1  0  0  0  0
M  END
> <s_m_source_file>
AV-unprocessed.smi

> <i_m_source_file_index>
2510

> <i_lp_mmshare_version>
43012

> <i_f3d_flags>
0

> <s_epik_input>
W0NIM11PW0NAQEhdMVtDQEhdKFtDSDNdKVtDQEBIXShDMShbQ0gyXVtDSDNdKVtDSDJdW0NIM10pW05IXUMoPU8pW0NIMl1jMltjSF1jKFtDSDNdKVtuSF1uMg==

> <s_epik_cmdline>
J2VwaWtfcHl0aG9uJywgJy1waCcsICc3LjAnLCAnLXRuJywgJzgnLCAnLW1hJywgJzIwMCcsICctbWV0YWxfYmluZGluZycsICctaW1hZScsICc8aW5maWxlLm1hZT4nLCAnLW9tYWUnLCAnPG91dGZpbGUubWFlPic=

> <r_lp_tautomer_probability>
0.5

> <r_epik_Ionization_Penalty>
0.000134763

> <r_epik_Ionization_Penalty_Charging>
0

> <r_epik_Ionization_Penalty_Neutral>
0.000134763

> <r_epik_State_Penalty>
0.41068

> <r_epik_Charging_Adjusted_Penalty>
0.41068

> <i_epik_Tot_Q>
0

> <i_epik_Tot_abs_Q>
0

> <r_epik_Metal_State_Penalty>
0.410661

> <b_epik_Metal_Only>
0

> <s_lp_Force_Field>
OPLS_2005

> <r_lp_Energy>
25.8263

> <b_lp_Chiralities_Consistent>
1

> <s_lp_Variant>
AV-unprocessed.smi:2510-11

> <Gold.Version>
5.8.1

> <Gold.Id.Protein>
6NUR|6NUR_protein|mol2

> <Gold.PLP.Fitness>
40.5506

> <Gold.PLP.PLP>
-34.1688

> <Gold.PLP.part.hbond>
-3.2713

> <Gold.PLP.part.metal>
0.0000

> <Gold.PLP.part.buried>
-2.1529

> <Gold.PLP.part.nonpolar>
-29.1582

> <Gold.PLP.part.repulsive>
0.4088

> <Gold.PLP.ligand.clash>
0.0000

> <Gold.PLP.ligand.torsion>
0.5313

> <Gold.PLP.Chemscore.Hbond>
2.2723

> <Gold.PLP.Chemscore.CHOScore>
0.0000

> <Gold.PLP.Chemscore.Metal>
0.0000

> <Gold.Chemscore.Hbonds>
donor molecule, donor type, donor heavy atom, donor atom, acceptor molecule, acceptor atom, score
      L1  H     7    34       P1  7957  0.55
      L1  H    16    22       P1  7948  0.93
      P1  H  7989  7998       L1    20  0.74

> <Gold.PLP.Chemscore.Internal.Correction>
0.6278

> <Gold.Rescore>
     Score         DG    S(hbond)    S(metal)    S(lipo)     H(rot)  DE(clash)    DE(int)     intcor
     17.24     -18.04       2.10        0.00      86.97       1.81       0.28       0.52       ----

> <Gold.Chemscore.Fitness>
17.2387

> <Gold.Chemscore.DG>
-18.0438

> <Gold.Chemscore.ZeroCoef>
-5.4800

> <Gold.Chemscore.Hbond>
2.1024

> <Gold.Chemscore.Metal>
0.0000

> <Gold.Chemscore.Lipo>
86.9726

> <Gold.Chemscore.Internal_Hbond>
0.0000

> <Gold.Chemscore.DEClash>
0.2839

> <Gold.Chemscore.DEInternal>
0.5213

> <Gold.Chemscore.Rot>
1.8102

> <Gold.Chemscore.Internal.Correction>
   9.000000E+99

> <Gold.Chemscore.Hbonds>
donor molecule, donor type, donor heavy atom, donor atom, acceptor molecule, acceptor atom, score
      L1  H     7    34       P1  7957  0.55
      L1  H    16    22       P1  7948  0.84
      P1  H  7989  7998       L1    20  0.48

> <Gold.Chemscore.Hbond.Weighted>
-7.0221

> <Gold.Chemscore.Metal.Weighted>
-0.0000

> <Gold.Chemscore.Lipo.Weighted>
-10.1758

> <Gold.Chemscore.Internal_Hbond.Weighted>
0.0000

> <Gold.Chemscore.DEClash.Weighted>
0.2839

> <Gold.Chemscore.DEInternal.Weighted>
0.5213

> <Gold.Chemscore.Rot.Weighted>
4.6341

> <Gold.Chemscore.Internal.Correction.Weighted>
   9.000000E+99

> <Gold.Protein.RotatedTorsions>
[ 6907 6896 6895 6894 ] final   -1.21 input  -60.11 | X-H torsion
[ 7974 7965 7964 7962 ] final  -50.69 input  175.53 | X-H torsion
[ 8008 7997 7996 7995 ] final   67.48 input   59.86 | X-H torsion
[ 10167 10162 10161 10158 ] final  101.57 input  -65.29 | X-H torsion
[ 10718 10713 10712 10709 ] final -164.54 input   66.30 | X-H torsion
[ 10763 10752 10751 10750 ] final  131.30 input  -60.55 | X-H torsion
[ 11005 11000 10999 10996 ] final  -50.84 input  -57.11 | X-H torsion

> <Gold.Protein.ActiveResidues>
 VAL166  LYS551  ARG553  GLY616  TRP617  ASP618  TYR619  PRO620  LYS621  CYS622 
 ASP623  PHE694  ASN695  SER759  ASP760  ASP761  ALA762  ILE779  LEU786  VAL792 
 PHE793  MET794  SER795  GLU796  ALA797  LYS798  CYS799  TRP800  GLU811  SER814 

> <Gold.Protein.RotatedAtoms>
  151.5497  135.1067  159.9946 H   0  0  0  0  0  0  0  0  0  0  0  0  # atno 6907 bound_to 6896
  152.4497  133.7601  159.6752 H   0  0  0  0  0  0  0  0  0  0  0  0  # atno 6908 bound_to 6896
  150.8422  133.7851  159.3081 H   0  0  0  0  0  0  0  0  0  0  0  0  # atno 6909 bound_to 6896
  145.9271  140.7782  142.9618 H   0  0  0  0  0  0  0  0  0  0  0  0  # atno 7974 bound_to 7965
  155.6935  140.3496  155.4903 H   0  0  0  0  0  0  0  0  0  0  0  0  # atno 8008 bound_to 7997
  155.9504  140.1118  157.1004 H   0  0  0  0  0  0  0  0  0  0  0  0  # atno 8009 bound_to 7997
  154.4120  140.1195  156.5031 H   0  0  0  0  0  0  0  0  0  0  0  0  # atno 8010 bound_to 7997
  139.7426  144.7007  151.0552 H   0  0  0  0  0  0  0  0  0  0  0  0  # atno 10167 bound_to 10162
  156.6404  130.8966  151.2995 H   0  0  0  0  0  0  0  0  0  0  0  0  # atno 10718 bound_to 10713
  153.7720  135.3180  155.3353 H   0  0  0  0  0  0  0  0  0  0  0  0  # atno 10763 bound_to 10752
  154.8193  135.4615  154.0734 H   0  0  0  0  0  0  0  0  0  0  0  0  # atno 10764 bound_to 10752
  153.1997  135.6920  153.8331 H   0  0  0  0  0  0  0  0  0  0  0  0  # atno 10765 bound_to 10752
  141.0838  133.6647  156.3790 H   0  0  0  0  0  0  0  0  0  0  0  0  # atno 11005 bound_to 11000
  144.6760  140.2068  143.7381 LP  0  0  0  0  0  0  0  0  0  0  0  0  # atno 17320 bound_to 7965
  145.8474  139.2159  143.1792 LP  0  0  0  0  0  0  0  0  0  0  0  0  # atno 17321 bound_to 7965
  140.7788  143.4905  150.9899 LP  0  0  0  0  0  0  0  0  0  0  0  0  # atno 17342 bound_to 10162
  139.8593  143.7335  152.3174 LP  0  0  0  0  0  0  0  0  0  0  0  0  # atno 17343 bound_to 10162
  157.7172  130.9513  150.1301 LP  0  0  0  0  0  0  0  0  0  0  0  0  # atno 17370 bound_to 10713
  156.2163  130.3670  149.8609 LP  0  0  0  0  0  0  0  0  0  0  0  0  # atno 17371 bound_to 10713
  140.5409  134.6122  157.5379 LP  0  0  0  0  0  0  0  0  0  0  0  0  # atno 17394 bound_to 11000
  139.9654  134.7381  156.0149 LP  0  0  0  0  0  0  0  0  0  0  0  0  # atno 17395 bound_to 11000

$$$$
