AV-unprocessed.smi:69|AV-procd|sdf|649|dock7
  -GOLD-   2262016543D 1   1.00000     0.00000
 Structure written by MMmdl.
 32 34  0  0  0  0  0  0  0  0  1 V2000
  151.1062  134.1911  156.8010 N   0  0  0  0  0  0  0  0  0  0  0  0
  150.7609  135.4807  156.9184 C   0  0  0  0  0  0  0  0  0  0  0  0
  150.1472  135.8794  158.0560 N   0  0  0  0  0  0  0  0  0  0  0  0
  149.7982  137.1610  158.1978 C   0  0  0  0  0  0  0  0  0  0  0  0
  149.9684  138.1709  157.3416 N   0  0  0  0  0  0  0  0  0  0  0  0
  150.5874  137.7734  156.1904 C   0  0  0  0  0  0  0  0  0  0  0  0
  151.0125  136.4438  155.9086 C   0  0  0  0  0  0  0  0  0  0  0  0
  151.6064  136.3893  154.6573 N   0  0  0  0  0  0  0  0  0  0  0  0
  151.5435  137.6205  154.2298 C   0  0  0  0  0  0  0  0  0  0  0  0
  150.9350  138.5232  155.0767 N   0  0  0  0  0  0  0  0  0  0  0  0
  150.7760  139.9993  154.8201 C   0  0  2  0  0  0  0  0  0  0  0  0
  151.1492  140.6865  155.9711 O   0  0  0  0  0  0  0  0  0  0  0  0
  149.9997  140.9715  156.7548 C   0  0  1  0  0  0  0  0  0  0  0  0
  150.2846  142.1660  157.6773 C   0  0  0  0  0  0  0  0  0  0  0  0
  150.7922  143.2489  156.9273 O   0  0  0  0  0  0  0  0  0  0  0  0
  148.9249  141.2627  155.6958 C   0  0  2  0  0  0  0  0  0  0  0  0
  147.6510  140.8740  156.1690 O   0  0  0  0  0  0  0  0  0  0  0  0
  149.3342  140.4214  154.4826 C   0  0  1  0  0  0  0  0  0  0  0  0
  149.2901  141.2099  153.3098 O   0  0  0  0  0  0  0  0  0  0  0  0
  151.4867  140.2036  154.0177 H   0  0  0  0  0  0  0  0  0  0  0  0
  149.7342  140.0930  157.3431 H   0  0  0  0  0  0  0  0  0  0  0  0
  148.9194  142.3255  155.4478 H   0  0  0  0  0  0  0  0  0  0  0  0
  148.7016  139.5487  154.3243 H   0  0  0  0  0  0  0  0  0  0  0  0
  151.5681  133.8696  155.9624 H   0  0  0  0  0  0  0  0  0  0  0  0
  150.9121  133.5470  157.5536 H   0  0  0  0  0  0  0  0  0  0  0  0
  149.3148  137.4149  159.1296 H   0  0  0  0  0  0  0  0  0  0  0  0
  151.9482  137.9079  153.2703 H   0  0  0  0  0  0  0  0  0  0  0  0
  149.3920  142.4671  158.2260 H   0  0  0  0  0  0  0  0  0  0  0  0
  151.0424  141.8964  158.4133 H   0  0  0  0  0  0  0  0  0  0  0  0
  150.0669  143.7059  156.5301 H   0  0  0  0  0  0  0  0  0  0  0  0
  147.0921  141.6359  156.1827 H   0  0  0  0  0  0  0  0  0  0  0  0
  149.5888  140.6839  152.5837 H   0  0  0  0  0  0  0  0  0  0  0  0
  1  2  1  0  0  0  0
  1 24  1  0  0  0  0
  1 25  1  0  0  0  0
  2  7  1  0  0  0  0
  2  3  2  0  0  0  0
  3  4  1  0  0  0  0
  4  5  2  0  0  0  0
  4 26  1  0  0  0  0
  5  6  1  0  0  0  0
  6 10  1  0  0  0  0
  6  7  2  0  0  0  0
  7  8  1  0  0  0  0
  8  9  2  0  0  0  0
  9 10  1  0  0  0  0
  9 27  1  0  0  0  0
 10 11  1  0  0  0  0
 11 20  1  0  0  0  0
 11 18  1  0  0  0  0
 11 12  1  0  0  0  0
 12 13  1  0  0  0  0
 13 21  1  0  0  0  0
 13 14  1  0  0  0  0
 13 16  1  0  0  0  0
 14 15  1  0  0  0  0
 14 28  1  0  0  0  0
 14 29  1  0  0  0  0
 15 30  1  0  0  0  0
 16 22  1  0  0  0  0
 16 17  1  0  0  0  0
 16 18  1  0  0  0  0
 17 31  1  0  0  0  0
 18 23  1  0  0  0  0
 18 19  1  0  0  0  0
 19 32  1  0  0  0  0
M  END
> <s_m_source_file>
AV-unprocessed.smi

> <i_m_source_file_index>
69

> <i_lp_mmshare_version>
43012

> <i_f3d_flags>
0

> <s_epik_input>
bjFbY0hdbmMoW05IMl0pYyhjMTIpbltjSF1uMltDQEBIXTNPW0NASF0oW0NIMl1bT0hdKVtDQEBIXShbT0hdKVtDQEhdM1tPSF0=

> <s_epik_cmdline>
J2VwaWtfcHl0aG9uJywgJy1waCcsICc3LjAnLCAnLXRuJywgJzgnLCAnLW1hJywgJzIwMCcsICctbWV0YWxfYmluZGluZycsICctaW1hZScsICc8aW5maWxlLm1hZT4nLCAnLW9tYWUnLCAnPG91dGZpbGUubWFlPic=

> <r_lp_tautomer_probability>
1

> <r_epik_Ionization_Penalty>
0.000428445

> <r_epik_Ionization_Penalty_Charging>
0

> <r_epik_Ionization_Penalty_Neutral>
0.000428445

> <r_epik_State_Penalty>
-0

> <r_epik_Charging_Adjusted_Penalty>
0

> <i_epik_Tot_Q>
0

> <i_epik_Tot_abs_Q>
0

> <r_epik_Metal_State_Penalty>
-0

> <b_epik_Metal_Only>
0

> <s_epik_Chemistry_Notes>
This compound contains an acetal/aminal-like group ( X-CH(R)-Y where X, Y are N, S, or O) that may be acid/base labile, releasing an aldehyde.

> <s_lp_Force_Field>
OPLS_2005

> <r_lp_Energy>
31.8637

> <b_lp_Chiralities_Consistent>
1

> <s_lp_Variant>
AV-unprocessed.smi:69-7

> <Gold.Version>
5.8.1

> <Gold.Id.Protein>
6NUR|6NUR_protein|mol2

> <Gold.PLP.Fitness>
38.7321

> <Gold.PLP.PLP>
-25.2039

> <Gold.PLP.part.hbond>
-5.8146

> <Gold.PLP.part.metal>
0.0000

> <Gold.PLP.part.buried>
-2.9548

> <Gold.PLP.part.nonpolar>
-18.5891

> <Gold.PLP.part.repulsive>
0.3319

> <Gold.PLP.ligand.clash>
0.0000

> <Gold.PLP.ligand.torsion>
0.3804

> <Gold.PLP.Chemscore.Hbond>
4.0892

> <Gold.PLP.Chemscore.CHOScore>
0.6669

> <Gold.PLP.Chemscore.Metal>
0.0000

> <Gold.Chemscore.Hbonds>
donor molecule, donor type, donor heavy atom, donor atom, acceptor molecule, acceptor atom, score
      L1  H    15    30       P1  8028  1.00
      L1  H    19    32       P1  7957  1.00
      P1  H  6896  6909       L1     3  0.85
      P1  H  8011  8017       L1    19  0.05
      P1  H 10752 10764       L1     8  1.00
      L1  C     9    27       P1  7949  0.28

> <Gold.PLP.Chemscore.Internal.Correction>
0.0206

> <Gold.Rescore>
     Score         DG    S(hbond)    S(metal)    S(lipo)     H(rot)  DE(clash)    DE(int)     intcor
      8.16     -10.03       3.60        0.00      24.36       4.03       0.32       1.55       ----

> <Gold.Chemscore.Fitness>
8.1643

> <Gold.Chemscore.DG>
-10.0349

> <Gold.Chemscore.ZeroCoef>
-5.4800

> <Gold.Chemscore.Hbond>
3.5974

> <Gold.Chemscore.Metal>
0.0000

> <Gold.Chemscore.Lipo>
24.3638

> <Gold.Chemscore.Internal_Hbond>
0.0000

> <Gold.Chemscore.DEClash>
0.3177

> <Gold.Chemscore.DEInternal>
1.5529

> <Gold.Chemscore.Rot>
4.0277

> <Gold.Chemscore.Internal.Correction>
   9.000000E+99

> <Gold.Chemscore.Hbonds>
donor molecule, donor type, donor heavy atom, donor atom, acceptor molecule, acceptor atom, score
      L1  H    15    30       P1  8028  1.00
      L1  H    19    32       P1  7957  0.95
      P1  H  6896  6909       L1     3  0.51
      P1  H 10752 10764       L1     8  0.79

> <Gold.Chemscore.Hbond.Weighted>
-12.0153

> <Gold.Chemscore.Metal.Weighted>
-0.0000

> <Gold.Chemscore.Lipo.Weighted>
-2.8506

> <Gold.Chemscore.Internal_Hbond.Weighted>
0.0000

> <Gold.Chemscore.DEClash.Weighted>
0.3177

> <Gold.Chemscore.DEInternal.Weighted>
1.5529

> <Gold.Chemscore.Rot.Weighted>
10.3110

> <Gold.Chemscore.Internal.Correction.Weighted>
   9.000000E+99

> <Gold.Protein.RotatedTorsions>
[ 6907 6896 6895 6894 ] final   53.56 input  -60.11 | X-H torsion
[ 7974 7965 7964 7962 ] final   16.97 input  175.53 | X-H torsion
[ 8008 7997 7996 7995 ] final   19.57 input   59.86 | X-H torsion
[ 10167 10162 10161 10158 ] final  -22.43 input  -65.29 | X-H torsion
[ 10718 10713 10712 10709 ] final -167.17 input   66.30 | X-H torsion
[ 10763 10752 10751 10750 ] final  -83.46 input  -60.55 | X-H torsion
[ 11005 11000 10999 10996 ] final  -98.27 input  -57.11 | X-H torsion

> <Gold.Protein.ActiveResidues>
 VAL166  LYS551  ARG553  GLY616  TRP617  ASP618  TYR619  PRO620  LYS621  CYS622 
 ASP623  PHE694  ASN695  SER759  ASP760  ASP761  ALA762  ILE779  LEU786  VAL792 
 PHE793  MET794  SER795  GLU796  ALA797  LYS798  CYS799  TRP800  GLU811  SER814 

> <Gold.Protein.RotatedAtoms>
  152.3349  134.7211  160.0279 H   0  0  0  0  0  0  0  0  0  0  0  0  # atno 6907 bound_to 6896
  151.7615  133.3329  159.3427 H   0  0  0  0  0  0  0  0  0  0  0  0  # atno 6908 bound_to 6896
  150.7445  134.6033  159.6092 H   0  0  0  0  0  0  0  0  0  0  0  0  # atno 6909 bound_to 6896
  146.2233  139.8670  142.8594 H   0  0  0  0  0  0  0  0  0  0  0  0  # atno 7974 bound_to 7965
  154.9227  140.3029  155.5208 H   0  0  0  0  0  0  0  0  0  0  0  0  # atno 8008 bound_to 7997
  156.3009  140.2368  156.4215 H   0  0  0  0  0  0  0  0  0  0  0  0  # atno 8009 bound_to 7997
  154.8314  140.0418  157.1468 H   0  0  0  0  0  0  0  0  0  0  0  0  # atno 8010 bound_to 7997
  140.7286  143.4535  151.0482 H   0  0  0  0  0  0  0  0  0  0  0  0  # atno 10167 bound_to 10162
  156.6785  130.9112  151.3054 H   0  0  0  0  0  0  0  0  0  0  0  0  # atno 10718 bound_to 10713
  154.5880  135.5555  153.7250 H   0  0  0  0  0  0  0  0  0  0  0  0  # atno 10763 bound_to 10752
  153.0106  135.6336  154.1889 H   0  0  0  0  0  0  0  0  0  0  0  0  # atno 10764 bound_to 10752
  154.1830  135.2886  155.3026 H   0  0  0  0  0  0  0  0  0  0  0  0  # atno 10765 bound_to 10752
  141.1350  133.8233  157.0817 H   0  0  0  0  0  0  0  0  0  0  0  0  # atno 11005 bound_to 11000
  145.2646  141.0088  143.3806 LP  0  0  0  0  0  0  0  0  0  0  0  0  # atno 17320 bound_to 7965
  144.9271  139.4342  143.6513 LP  0  0  0  0  0  0  0  0  0  0  0  0  # atno 17321 bound_to 7965
  139.8213  143.7816  152.3177 LP  0  0  0  0  0  0  0  0  0  0  0  0  # atno 17342 bound_to 10162
  139.7899  144.7414  150.9969 LP  0  0  0  0  0  0  0  0  0  0  0  0  # atno 17343 bound_to 10162
  157.7052  130.9377  150.0908 LP  0  0  0  0  0  0  0  0  0  0  0  0  # atno 17370 bound_to 10713
  156.1885  130.3653  149.8941 LP  0  0  0  0  0  0  0  0  0  0  0  0  # atno 17371 bound_to 10713
  140.0447  134.9836  157.1027 LP  0  0  0  0  0  0  0  0  0  0  0  0  # atno 17394 bound_to 11000
  140.4081  134.2011  155.7163 LP  0  0  0  0  0  0  0  0  0  0  0  0  # atno 17395 bound_to 11000

$$$$
