AV-unprocessed.smi:500|AV-procd|sdf|2741|dock2
  -GOLD-   2262023203D 1   1.00000     0.00000
 Structure written by MMmdl.
 45 47  0  0  0  0  0  0  0  0  3 V2000
  151.2599  138.4327  154.2980 C   0  0  0  0  0  0  0  0  0  0  0  0
  150.9211  139.6032  155.2313 C   0  0  0  0  0  0  0  0  0  0  0  0
  149.8818  140.4182  154.7081 O   0  0  0  0  0  0  0  0  0  0  0  0
  149.5041  141.4985  155.5503 C   0  0  0  0  0  0  0  0  0  0  0  0
  149.0349  140.9562  156.9081 C   0  0  0  0  0  0  0  0  0  0  0  0
  150.1670  140.6217  157.7980 N   0  0  0  0  0  0  0  0  0  0  0  0
  150.5722  139.4281  158.3407 C   0  0  0  0  0  0  0  0  0  0  0  0
  149.9511  138.0630  158.1835 C   0  0  1  0  0  0  0  0  0  0  0  0
  150.9710  137.0785  157.5949 C   0  0  0  0  0  0  0  0  0  0  0  0
  149.4606  137.5407  159.4601 N   0  5  0  0  0  0  0  0  0  0  0  0
  149.1722  136.2273  159.6884 C   0  0  0  0  0  0  0  0  0  0  0  0
  149.3040  135.2500  158.9437 O   0  0  0  0  0  0  0  0  0  0  0  0
  148.5813  136.0118  161.0292 C   0  0  0  0  0  0  0  0  0  0  0  0
  147.9142  134.9463  161.5789 C   0  0  0  0  0  0  0  0  0  0  0  0
  147.5623  135.3208  162.9051 C   0  0  0  0  0  0  0  0  0  0  0  0
  148.0315  136.5914  163.0719 C   0  0  0  0  0  0  0  0  0  0  0  0
  148.6487  137.0272  161.9405 O   0  0  0  0  0  0  0  0  0  0  0  0
  151.6771  139.6906  159.0963 N   0  3  0  0  0  0  0  0  0  0  0  0
  151.9746  141.0507  159.0578 C   0  0  0  0  0  0  0  0  0  0  0  0
  152.9887  141.7763  159.6747 C   0  0  0  0  0  0  0  0  0  0  0  0
  153.0060  143.1659  159.4377 C   0  0  0  0  0  0  0  0  0  0  0  0
  152.0392  143.7815  158.6170 C   0  0  0  0  0  0  0  0  0  0  0  0
  151.0170  143.0337  157.9964 C   0  0  0  0  0  0  0  0  0  0  0  0
  151.0077  141.6579  158.2314 C   0  0  0  0  0  0  0  0  0  0  0  0
  151.9882  137.7683  154.7633 H   0  0  0  0  0  0  0  0  0  0  0  0
  151.6882  138.7762  153.3567 H   0  0  0  0  0  0  0  0  0  0  0  0
  150.3706  137.8444  154.0703 H   0  0  0  0  0  0  0  0  0  0  0  0
  150.5737  139.2046  156.1845 H   0  0  0  0  0  0  0  0  0  0  0  0
  151.8084  140.1985  155.4522 H   0  0  0  0  0  0  0  0  0  0  0  0
  150.3480  142.1726  155.6996 H   0  0  0  0  0  0  0  0  0  0  0  0
  148.7039  142.0790  155.0920 H   0  0  0  0  0  0  0  0  0  0  0  0
  148.4106  141.6940  157.4127 H   0  0  0  0  0  0  0  0  0  0  0  0
  148.4034  140.0783  156.7772 H   0  0  0  0  0  0  0  0  0  0  0  0
  149.1360  138.1504  157.4643 H   0  0  0  0  0  0  0  0  0  0  0  0
  151.3345  137.4272  156.6277 H   0  0  0  0  0  0  0  0  0  0  0  0
  150.5257  136.0948  157.4418 H   0  0  0  0  0  0  0  0  0  0  0  0
  151.8349  136.9545  158.2494 H   0  0  0  0  0  0  0  0  0  0  0  0
  147.7049  134.0085  161.0855 H   0  0  0  0  0  0  0  0  0  0  0  0
  147.0315  134.7357  163.6412 H   0  0  0  0  0  0  0  0  0  0  0  0
  148.0121  137.2981  163.8883 H   0  0  0  0  0  0  0  0  0  0  0  0
  153.7255  141.3049  160.3084 H   0  0  0  0  0  0  0  0  0  0  0  0
  153.7735  143.7715  159.8976 H   0  0  0  0  0  0  0  0  0  0  0  0
  152.0799  144.8498  158.4619 H   0  0  0  0  0  0  0  0  0  0  0  0
  150.2778  143.5208  157.3783 H   0  0  0  0  0  0  0  0  0  0  0  0
  152.1694  138.9776  159.6189 H   0  0  0  0  0  0  0  0  0  0  0  0
  1  2  1  0  0  0  0
  1 25  1  0  0  0  0
  1 26  1  0  0  0  0
  1 27  1  0  0  0  0
  2  3  1  0  0  0  0
  2 28  1  0  0  0  0
  2 29  1  0  0  0  0
  3  4  1  0  0  0  0
  4  5  1  0  0  0  0
  4 30  1  0  0  0  0
  4 31  1  0  0  0  0
  5  6  1  0  0  0  0
  5 32  1  0  0  0  0
  5 33  1  0  0  0  0
  6 24  1  0  0  0  0
  6  7  1  0  0  0  0
  7  8  1  0  0  0  0
  7 18  2  0  0  0  0
  8  9  1  0  0  0  0
  8 10  1  0  0  0  0
  8 34  1  0  0  0  0
  9 35  1  0  0  0  0
  9 36  1  0  0  0  0
  9 37  1  0  0  0  0
 10 11  1  0  0  0  0
 11 12  2  0  0  0  0
 11 13  1  0  0  0  0
 13 17  1  0  0  0  0
 13 14  2  0  0  0  0
 14 15  1  0  0  0  0
 14 38  1  0  0  0  0
 15 16  2  0  0  0  0
 15 39  1  0  0  0  0
 16 17  1  0  0  0  0
 16 40  1  0  0  0  0
 18 19  1  0  0  0  0
 18 45  1  0  0  0  0
 19 24  2  0  0  0  0
 19 20  1  0  0  0  0
 20 21  2  0  0  0  0
 20 41  1  0  0  0  0
 21 22  1  0  0  0  0
 21 42  1  0  0  0  0
 22 23  2  0  0  0  0
 22 43  1  0  0  0  0
 23 24  1  0  0  0  0
 23 44  1  0  0  0  0
M  CHG  1  10  -1
M  CHG  1  18   1
M  END
> <s_m_source_file>
AV-unprocessed.smi

> <i_m_source_file_index>
500

> <i_lp_mmshare_version>
43012

> <i_f3d_flags>
0

> <s_epik_input>
W0NIM11bQ0gyXU9bQ0gyXVtDSDJdbihjKGMxMilbY0hdW2NIXVtjSF1bY0hdMiljKG4xKVtDQEhdKFtDSDNdKVtOSF1DKD1PKWMzW2NIXVtjSF1bY0hdbzM=

> <s_epik_cmdline>
J2VwaWtfcHl0aG9uJywgJy1waCcsICc3LjAnLCAnLXRuJywgJzgnLCAnLW1hJywgJzIwMCcsICctbWV0YWxfYmluZGluZycsICctaW1hZScsICc8aW5maWxlLm1hZT4nLCAnLW9tYWUnLCAnPG91dGZpbGUubWFlPic=

> <r_epik_Ionization_Penalty>
6.22753

> <r_epik_Ionization_Penalty_Charging>
6.22753

> <r_epik_Ionization_Penalty_Neutral>
2.56065e-12

> <r_epik_State_Penalty>
7.17947

> <r_epik_Charging_Adjusted_Penalty>
13.407

> <i_epik_Tot_Q>
0

> <i_epik_Tot_abs_Q>
2

> <r_epik_Metal_State_Penalty>
3.2092

> <b_epik_Metal_Only>
1

> <s_lp_Force_Field>
OPLS_2005

> <r_lp_Energy>
10.9404

> <b_lp_Chiralities_Consistent>
1

> <s_lp_Variant>
AV-unprocessed.smi:500-8

> <Gold.Version>
5.8.1

> <Gold.Id.Protein>
6NUR|6NUR_protein|mol2

> <Gold.PLP.Fitness>
60.6830

> <Gold.PLP.PLP>
-50.5863

> <Gold.PLP.part.hbond>
-4.5122

> <Gold.PLP.part.metal>
0.0000

> <Gold.PLP.part.buried>
-5.8676

> <Gold.PLP.part.nonpolar>
-40.9723

> <Gold.PLP.part.repulsive>
0.2727

> <Gold.PLP.ligand.clash>
0.0000

> <Gold.PLP.ligand.torsion>
0.4606

> <Gold.PLP.Chemscore.Hbond>
3.6049

> <Gold.PLP.Chemscore.CHOScore>
0.0000

> <Gold.PLP.Chemscore.Metal>
0.0000

> <Gold.Chemscore.Hbonds>
donor molecule, donor type, donor heavy atom, donor atom, acceptor molecule, acceptor atom, score
      P1  H  6896  6907       L1    12  1.00
      P1  H  6931  6943       L1    17  0.36

> <Gold.PLP.Chemscore.Internal.Correction>
0.2034

> <Gold.Rescore>
     Score         DG    S(hbond)    S(metal)    S(lipo)     H(rot)  DE(clash)    DE(int)     intcor
     20.55     -24.50       2.89        0.00     121.49       1.90       0.07       3.88       ----

> <Gold.Chemscore.Fitness>
20.5452

> <Gold.Chemscore.DG>
-24.4988

> <Gold.Chemscore.ZeroCoef>
-5.4800

> <Gold.Chemscore.Hbond>
2.8942

> <Gold.Chemscore.Metal>
0.0000

> <Gold.Chemscore.Lipo>
121.4907

> <Gold.Chemscore.Internal_Hbond>
0.0000

> <Gold.Chemscore.DEClash>
0.0738

> <Gold.Chemscore.DEInternal>
3.8797

> <Gold.Chemscore.Rot>
1.8993

> <Gold.Chemscore.Internal.Correction>
   9.000000E+99

> <Gold.Chemscore.Hbonds>
donor molecule, donor type, donor heavy atom, donor atom, acceptor molecule, acceptor atom, score
      P1  H  6896  6907       L1    12  0.25
      P1  H  6931  6943       L1    17  0.33

> <Gold.Chemscore.Hbond.Weighted>
-9.6666

> <Gold.Chemscore.Metal.Weighted>
-0.0000

> <Gold.Chemscore.Lipo.Weighted>
-14.2144

> <Gold.Chemscore.Internal_Hbond.Weighted>
0.0000

> <Gold.Chemscore.DEClash.Weighted>
0.0738

> <Gold.Chemscore.DEInternal.Weighted>
3.8797

> <Gold.Chemscore.Rot.Weighted>
4.8622

> <Gold.Chemscore.Internal.Correction.Weighted>
   9.000000E+99

> <Gold.Protein.RotatedTorsions>
[ 6907 6896 6895 6894 ] final  -67.81 input  -60.11 | X-H torsion
[ 7974 7965 7964 7962 ] final   99.31 input  175.53 | X-H torsion
[ 8008 7997 7996 7995 ] final   10.43 input   59.86 | X-H torsion
[ 10167 10162 10161 10158 ] final -119.61 input  -65.29 | X-H torsion
[ 10718 10713 10712 10709 ] final  -86.41 input   66.30 | X-H torsion
[ 10763 10752 10751 10750 ] final  120.44 input  -60.55 | X-H torsion
[ 11005 11000 10999 10996 ] final -102.26 input  -57.11 | X-H torsion

> <Gold.Protein.ActiveResidues>
 VAL166  LYS551  ARG553  GLY616  TRP617  ASP618  TYR619  PRO620  LYS621  CYS622 
 ASP623  PHE694  ASN695  SER759  ASP760  ASP761  ALA762  ILE779  LEU786  VAL792 
 PHE793  MET794  SER795  GLU796  ALA797  LYS798  CYS799  TRP800  GLU811  SER814 

> <Gold.Protein.RotatedAtoms>
  150.7389  134.5828  159.5947 H   0  0  0  0  0  0  0  0  0  0  0  0  # atno 6907 bound_to 6896
  152.3237  134.7345  160.0316 H   0  0  0  0  0  0  0  0  0  0  0  0  # atno 6908 bound_to 6896
  151.7852  133.3318  159.3519 H   0  0  0  0  0  0  0  0  0  0  0  0  # atno 6909 bound_to 6896
  145.4005  139.2348  143.3302 H   0  0  0  0  0  0  0  0  0  0  0  0  # atno 7974 bound_to 7965
  154.7932  140.2839  155.5976 H   0  0  0  0  0  0  0  0  0  0  0  0  # atno 8008 bound_to 7997
  156.2967  140.2600  156.2713 H   0  0  0  0  0  0  0  0  0  0  0  0  # atno 8009 bound_to 7997
  154.9645  140.0377  157.2195 H   0  0  0  0  0  0  0  0  0  0  0  0  # atno 8010 bound_to 7997
  140.0447  143.5118  152.2112 H   0  0  0  0  0  0  0  0  0  0  0  0  # atno 10167 bound_to 10162
  155.9990  130.4764  150.4710 H   0  0  0  0  0  0  0  0  0  0  0  0  # atno 10718 bound_to 10713
  153.5985  135.3452  155.2937 H   0  0  0  0  0  0  0  0  0  0  0  0  # atno 10763 bound_to 10752
  154.8640  135.4222  154.2438 H   0  0  0  0  0  0  0  0  0  0  0  0  # atno 10764 bound_to 10752
  153.3262  135.7041  153.7059 H   0  0  0  0  0  0  0  0  0  0  0  0  # atno 10765 bound_to 10752
  141.1196  133.8544  157.1337 H   0  0  0  0  0  0  0  0  0  0  0  0  # atno 11005 bound_to 11000
  146.2754  140.4702  142.8797 LP  0  0  0  0  0  0  0  0  0  0  0  0  # atno 17320 bound_to 7965
  144.8377  140.6808  143.6249 LP  0  0  0  0  0  0  0  0  0  0  0  0  # atno 17321 bound_to 7965
  139.5991  144.7577  151.3215 LP  0  0  0  0  0  0  0  0  0  0  0  0  # atno 17342 bound_to 10162
  140.7244  143.7045  150.7818 LP  0  0  0  0  0  0  0  0  0  0  0  0  # atno 17343 bound_to 10162
  157.2725  131.0590  151.2251 LP  0  0  0  0  0  0  0  0  0  0  0  0  # atno 17370 bound_to 10713
  157.3326  130.6993  149.6333 LP  0  0  0  0  0  0  0  0  0  0  0  0  # atno 17371 bound_to 10713
  140.0144  134.9974  157.0462 LP  0  0  0  0  0  0  0  0  0  0  0  0  # atno 17394 bound_to 11000
  140.4545  134.1548  155.7185 LP  0  0  0  0  0  0  0  0  0  0  0  0  # atno 17395 bound_to 11000

$$$$
