AV-unprocessed.smi:1961|AV-procd|sdf|7919|dock1
  -GOLD-   2272010 83D 1   1.00000     0.00000
 Structure written by MMmdl.
 36 37  0  0  0  0  0  0  0  0  1 V2000
  154.2918  141.0460  161.1941 C   0  0  0  0  0  0  0  0  0  0  0  0
  153.4886  142.2824  160.7650 C   0  0  0  0  0  0  0  0  0  0  0  0
  152.6652  142.8922  161.9089 C   0  0  0  0  0  0  0  0  0  0  0  0
  152.6570  142.0226  159.5471 C   0  0  0  0  0  0  0  0  0  0  0  0
  152.5986  140.8275  158.9440 N   0  0  0  0  0  0  0  0  0  0  0  0
  151.7587  140.8332  157.8393 N   0  0  0  0  0  0  0  0  0  0  0  0
  151.2029  142.0360  157.6404 C   0  0  0  0  0  0  0  0  0  0  0  0
  150.2950  142.3223  156.5867 N   0  0  0  0  0  0  0  0  0  0  0  0
  149.7625  141.4728  155.6905 C   0  0  0  0  0  0  0  0  0  0  0  0
  150.0050  140.2678  155.6205 O   0  0  0  0  0  0  0  0  0  0  0  0
  148.9222  142.1089  154.8615 N   0  0  0  0  0  0  0  0  0  0  0  0
  148.1754  141.4886  153.7715 C   0  0  0  0  0  0  0  0  0  0  0  0
  146.6736  141.8111  153.8520 C   0  0  1  0  0  0  0  0  0  0  0  0
  145.9880  141.3906  155.1522 C   0  0  0  0  0  0  0  0  0  0  0  0
  144.8031  142.3278  155.1861 C   0  0  0  0  0  0  0  0  0  0  0  0
  145.4106  143.6169  154.6404 C   0  0  0  0  0  0  0  0  0  0  0  0
  146.4663  143.2186  153.7686 O   0  0  0  0  0  0  0  0  0  0  0  0
  151.6695  143.2718  158.7961 S   0  0  0  0  0  0  0  0  0  0  0  0
  154.9300  140.6921  160.3838 H   0  0  0  0  0  0  0  0  0  0  0  0
  153.6342  140.2258  161.4836 H   0  0  0  0  0  0  0  0  0  0  0  0
  154.9340  141.2725  162.0456 H   0  0  0  0  0  0  0  0  0  0  0  0
  154.2218  143.0380  160.4799 H   0  0  0  0  0  0  0  0  0  0  0  0
  152.1785  143.8154  161.5930 H   0  0  0  0  0  0  0  0  0  0  0  0
  153.2975  143.1289  162.7651 H   0  0  0  0  0  0  0  0  0  0  0  0
  151.8896  142.2053  162.2493 H   0  0  0  0  0  0  0  0  0  0  0  0
  150.0098  143.2875  156.5126 H   0  0  0  0  0  0  0  0  0  0  0  0
  148.7861  143.1003  154.9933 H   0  0  0  0  0  0  0  0  0  0  0  0
  148.5786  141.7791  152.7999 H   0  0  0  0  0  0  0  0  0  0  0  0
  148.3175  140.4106  153.8483 H   0  0  0  0  0  0  0  0  0  0  0  0
  146.1504  141.3573  153.0085 H   0  0  0  0  0  0  0  0  0  0  0  0
  145.7028  140.3381  155.1641 H   0  0  0  0  0  0  0  0  0  0  0  0
  146.6369  141.5797  156.0087 H   0  0  0  0  0  0  0  0  0  0  0  0
  144.0215  141.9665  154.5163 H   0  0  0  0  0  0  0  0  0  0  0  0
  144.3746  142.4449  156.1818 H   0  0  0  0  0  0  0  0  0  0  0  0
  144.6763  144.2335  154.1213 H   0  0  0  0  0  0  0  0  0  0  0  0
  145.8377  144.2093  155.4503 H   0  0  0  0  0  0  0  0  0  0  0  0
  1  2  1  0  0  0  0
  1 19  1  0  0  0  0
  1 20  1  0  0  0  0
  1 21  1  0  0  0  0
  2  3  1  0  0  0  0
  2  4  1  0  0  0  0
  2 22  1  0  0  0  0
  3 23  1  0  0  0  0
  3 24  1  0  0  0  0
  3 25  1  0  0  0  0
  4 18  1  0  0  0  0
  4  5  2  0  0  0  0
  5  6  1  0  0  0  0
  6  7  2  0  0  0  0
  7  8  1  0  0  0  0
  7 18  1  0  0  0  0
  8  9  1  0  0  0  0
  8 26  1  0  0  0  0
  9 10  2  0  0  0  0
  9 11  1  0  0  0  0
 11 12  1  0  0  0  0
 11 27  1  0  0  0  0
 12 13  1  0  0  0  0
 12 28  1  0  0  0  0
 12 29  1  0  0  0  0
 13 17  1  0  0  0  0
 13 14  1  0  0  0  0
 13 30  1  0  0  0  0
 14 15  1  0  0  0  0
 14 31  1  0  0  0  0
 14 32  1  0  0  0  0
 15 16  1  0  0  0  0
 15 33  1  0  0  0  0
 15 34  1  0  0  0  0
 16 17  1  0  0  0  0
 16 35  1  0  0  0  0
 16 36  1  0  0  0  0
M  END
> <s_m_source_file>
AV-unprocessed.smi

> <i_m_source_file_index>
1961

> <i_lp_mmshare_version>
43012

> <i_f3d_flags>
0

> <s_epik_input>
W0NIM11bQ0hdKFtDSDNdKWMxbm5jKHMxKVtOSF1DKD1PKVtOSF1bQ0gyXVtDQEBIXTJbQ0gyXVtDSDJdW0NIMl1PMg==

> <s_epik_cmdline>
J2VwaWtfcHl0aG9uJywgJy1waCcsICc3LjAnLCAnLXRuJywgJzgnLCAnLW1hJywgJzIwMCcsICctbWV0YWxfYmluZGluZycsICctaW1hZScsICc8aW5maWxlLm1hZT4nLCAnLW9tYWUnLCAnPG91dGZpbGUubWFlPic=

> <r_lp_tautomer_probability>
1

> <r_epik_Ionization_Penalty>
0.000505257

> <r_epik_Ionization_Penalty_Charging>
0

> <r_epik_Ionization_Penalty_Neutral>
0.000505257

> <r_epik_State_Penalty>
-0

> <r_epik_Charging_Adjusted_Penalty>
0

> <i_epik_Tot_Q>
0

> <i_epik_Tot_abs_Q>
0

> <r_epik_Metal_State_Penalty>
0.219912

> <b_epik_Metal_Only>
0

> <s_lp_Force_Field>
OPLS_2005

> <r_lp_Energy>
10.2881

> <b_lp_Chiralities_Consistent>
1

> <s_lp_Variant>
AV-unprocessed.smi:1961-2

> <Gold.Version>
5.8.1

> <Gold.Id.Protein>
6NUR|6NUR_protein|mol2

> <Gold.PLP.Fitness>
43.2789

> <Gold.PLP.PLP>
-37.3533

> <Gold.PLP.part.hbond>
-2.6578

> <Gold.PLP.part.metal>
0.0000

> <Gold.PLP.part.buried>
-5.7850

> <Gold.PLP.part.nonpolar>
-30.0085

> <Gold.PLP.part.repulsive>
0.5220

> <Gold.PLP.ligand.clash>
0.0000

> <Gold.PLP.ligand.torsion>
0.0823

> <Gold.PLP.Chemscore.Hbond>
2.0000

> <Gold.PLP.Chemscore.CHOScore>
0.0000

> <Gold.PLP.Chemscore.Metal>
0.0000

> <Gold.Chemscore.Hbonds>
donor molecule, donor type, donor heavy atom, donor atom, acceptor molecule, acceptor atom, score
      L1  H     8    26       P1  8028  1.00
      L1  H    11    27       P1  8028  1.00

> <Gold.PLP.Chemscore.Internal.Correction>
0.0901

> <Gold.Rescore>
     Score         DG    S(hbond)    S(metal)    S(lipo)     H(rot)  DE(clash)    DE(int)     intcor
     16.51     -17.99       1.98        0.00      82.09       1.45       0.11       1.37       ----

> <Gold.Chemscore.Fitness>
16.5071

> <Gold.Chemscore.DG>
-17.9864

> <Gold.Chemscore.ZeroCoef>
-5.4800

> <Gold.Chemscore.Hbond>
1.9772

> <Gold.Chemscore.Metal>
0.0000

> <Gold.Chemscore.Lipo>
82.0897

> <Gold.Chemscore.Internal_Hbond>
0.0000

> <Gold.Chemscore.DEClash>
0.1116

> <Gold.Chemscore.DEInternal>
1.3677

> <Gold.Chemscore.Rot>
1.4461

> <Gold.Chemscore.Internal.Correction>
   9.000000E+99

> <Gold.Chemscore.Hbonds>
donor molecule, donor type, donor heavy atom, donor atom, acceptor molecule, acceptor atom, score
      L1  H     8    26       P1  8028  0.91
      L1  H    11    27       P1  8028  1.00

> <Gold.Chemscore.Hbond.Weighted>
-6.6038

> <Gold.Chemscore.Metal.Weighted>
-0.0000

> <Gold.Chemscore.Lipo.Weighted>
-9.6045

> <Gold.Chemscore.Internal_Hbond.Weighted>
0.0000

> <Gold.Chemscore.DEClash.Weighted>
0.1116

> <Gold.Chemscore.DEInternal.Weighted>
1.3677

> <Gold.Chemscore.Rot.Weighted>
3.7019

> <Gold.Chemscore.Internal.Correction.Weighted>
   9.000000E+99

> <Gold.Protein.RotatedTorsions>
[ 6907 6896 6895 6894 ] final  -40.60 input  -60.11 | X-H torsion
[ 7974 7965 7964 7962 ] final  -51.45 input  175.53 | X-H torsion
[ 8008 7997 7996 7995 ] final  174.11 input   59.86 | X-H torsion
[ 10167 10162 10161 10158 ] final  -25.24 input  -65.29 | X-H torsion
[ 10718 10713 10712 10709 ] final   68.08 input   66.30 | X-H torsion
[ 10763 10752 10751 10750 ] final   69.82 input  -60.55 | X-H torsion
[ 11005 11000 10999 10996 ] final  -13.02 input  -57.11 | X-H torsion

> <Gold.Protein.ActiveResidues>
 VAL166  LYS551  ARG553  GLY616  TRP617  ASP618  TYR619  PRO620  LYS621  CYS622 
 ASP623  PHE694  ASN695  SER759  ASP760  ASP761  ALA762  ILE779  LEU786  VAL792 
 PHE793  MET794  SER795  GLU796  ALA797  LYS798  CYS799  TRP800  GLU811  SER814 

> <Gold.Protein.RotatedAtoms>
  150.9765  134.9128  159.7818 H   0  0  0  0  0  0  0  0  0  0  0  0  # atno 6907 bound_to 6896
  152.5208  134.3469  159.9247 H   0  0  0  0  0  0  0  0  0  0  0  0  # atno 6908 bound_to 6896
  151.3477  133.3896  159.2712 H   0  0  0  0  0  0  0  0  0  0  0  0  # atno 6909 bound_to 6896
  145.9188  140.7852  142.9658 H   0  0  0  0  0  0  0  0  0  0  0  0  # atno 7974 bound_to 7965
  156.1007  140.1443  156.9471 H   0  0  0  0  0  0  0  0  0  0  0  0  # atno 8008 bound_to 7997
  154.4701  140.0913  156.7167 H   0  0  0  0  0  0  0  0  0  0  0  0  # atno 8009 bound_to 7997
  155.4764  140.3443  155.4335 H   0  0  0  0  0  0  0  0  0  0  0  0  # atno 8010 bound_to 7997
  140.7287  143.4282  151.0843 H   0  0  0  0  0  0  0  0  0  0  0  0  # atno 10167 bound_to 10162
  157.6268  130.9355  150.0329 H   0  0  0  0  0  0  0  0  0  0  0  0  # atno 10718 bound_to 10713
  153.0308  135.5196  154.7347 H   0  0  0  0  0  0  0  0  0  0  0  0  # atno 10763 bound_to 10752
  154.6365  135.2907  155.0157 H   0  0  0  0  0  0  0  0  0  0  0  0  # atno 10764 bound_to 10752
  154.1091  135.6625  153.4934 H   0  0  0  0  0  0  0  0  0  0  0  0  # atno 10765 bound_to 10752
  140.7717  133.8433  155.9213 H   0  0  0  0  0  0  0  0  0  0  0  0  # atno 11005 bound_to 11000
  144.6750  140.1942  143.7393 LP  0  0  0  0  0  0  0  0  0  0  0  0  # atno 17320 bound_to 7965
  145.8577  139.2207  143.1735 LP  0  0  0  0  0  0  0  0  0  0  0  0  # atno 17321 bound_to 7965
  139.7936  143.8184  152.3155 LP  0  0  0  0  0  0  0  0  0  0  0  0  # atno 17342 bound_to 10162
  139.8176  144.7309  150.9615 LP  0  0  0  0  0  0  0  0  0  0  0  0  # atno 17343 bound_to 10162
  156.1446  130.3642  149.9530 LP  0  0  0  0  0  0  0  0  0  0  0  0  # atno 17370 bound_to 10713
  156.7564  130.9134  151.3639 LP  0  0  0  0  0  0  0  0  0  0  0  0  # atno 17371 bound_to 10713
  140.9567  134.1709  157.4686 LP  0  0  0  0  0  0  0  0  0  0  0  0  # atno 17394 bound_to 11000
  139.8755  134.9929  156.5621 LP  0  0  0  0  0  0  0  0  0  0  0  0  # atno 17395 bound_to 11000

$$$$
