AV-unprocessed.smi:1557|AV-procd|sdf|6270|dock6
  -GOLD-   22720 6463D 1   1.00000     0.00000
 Structure written by MMmdl.
 41 42  0  0  0  0  0  0  0  0  1 V2000
  152.0471  137.8883  154.5099 C   0  0  0  0  0  0  0  0  0  0  0  0
  151.0234  139.0040  154.7323 C   0  0  0  0  0  0  0  0  0  0  0  0
  149.7740  138.5904  154.1882 O   0  0  0  0  0  0  0  0  0  0  0  0
  148.6989  139.4558  154.2582 C   0  0  0  0  0  0  0  0  0  0  0  0
  148.8805  140.6682  154.8395 N   0  0  0  0  0  0  0  0  0  0  0  0
  147.8291  141.5103  154.9106 C   0  0  0  0  0  0  0  0  0  0  0  0
  146.5505  141.1904  154.4181 C   0  0  0  0  0  0  0  0  0  0  0  0
  146.3598  139.9336  153.8144 C   0  0  0  0  0  0  0  0  0  0  0  0
  147.4581  139.0454  153.7181 C   0  0  0  0  0  0  0  0  0  0  0  0
  147.3708  137.7476  153.1449 N   0  0  0  0  0  0  0  0  0  0  0  0
  146.3074  136.9287  153.0942 C   0  0  0  0  0  0  0  0  0  0  0  0
  145.1996  137.1681  153.5752 O   0  0  0  0  0  0  0  0  0  0  0  0
  146.5963  135.8045  152.4219 N   0  0  0  0  0  0  0  0  0  0  0  0
  145.6478  134.7342  152.1101 C   0  0  2  0  0  0  0  0  0  0  0  0
  146.4563  133.4982  151.6412 C   0  0  0  0  0  0  0  0  0  0  0  0
  145.6645  132.4038  150.8910 C   0  0  0  0  0  0  0  0  0  0  0  0
  144.2980  132.0431  151.5090 C   0  0  0  0  0  0  0  0  0  0  0  0
  143.2455  133.1799  151.5845 C   0  0  0  0  0  0  0  0  0  0  0  0
  143.5756  134.3781  150.8123 N   0  0  0  0  0  0  0  0  0  0  0  0
  144.6533  135.1571  151.0055 C   0  0  0  0  0  0  0  0  0  0  0  0
  144.8577  136.1525  150.3113 O   0  0  0  0  0  0  0  0  0  0  0  0
  153.0204  138.1665  154.9147 H   0  0  0  0  0  0  0  0  0  0  0  0
  152.1740  137.6796  153.4474 H   0  0  0  0  0  0  0  0  0  0  0  0
  151.7327  136.9655  154.9981 H   0  0  0  0  0  0  0  0  0  0  0  0
  150.9268  139.2036  155.8007 H   0  0  0  0  0  0  0  0  0  0  0  0
  151.3671  139.9182  154.2458 H   0  0  0  0  0  0  0  0  0  0  0  0
  148.0110  142.4655  155.3805 H   0  0  0  0  0  0  0  0  0  0  0  0
  145.7333  141.8907  154.5053 H   0  0  0  0  0  0  0  0  0  0  0  0
  145.3779  139.6706  153.4524 H   0  0  0  0  0  0  0  0  0  0  0  0
  148.1855  137.4492  152.6286 H   0  0  0  0  0  0  0  0  0  0  0  0
  147.5313  135.6985  152.0573 H   0  0  0  0  0  0  0  0  0  0  0  0
  145.0978  134.4843  153.0186 H   0  0  0  0  0  0  0  0  0  0  0  0
  147.2794  133.8139  150.9979 H   0  0  0  0  0  0  0  0  0  0  0  0
  146.9262  133.0497  152.5176 H   0  0  0  0  0  0  0  0  0  0  0  0
  145.5199  132.7040  149.8522 H   0  0  0  0  0  0  0  0  0  0  0  0
  146.2790  131.5043  150.8401 H   0  0  0  0  0  0  0  0  0  0  0  0
  143.8748  131.2276  150.9215 H   0  0  0  0  0  0  0  0  0  0  0  0
  144.4491  131.6305  152.5074 H   0  0  0  0  0  0  0  0  0  0  0  0
  142.2829  132.8069  151.2341 H   0  0  0  0  0  0  0  0  0  0  0  0
  143.0821  133.4679  152.6239 H   0  0  0  0  0  0  0  0  0  0  0  0
  142.9307  134.6414  150.0813 H   0  0  0  0  0  0  0  0  0  0  0  0
  1  2  1  0  0  0  0
  1 22  1  0  0  0  0
  1 23  1  0  0  0  0
  1 24  1  0  0  0  0
  2  3  1  0  0  0  0
  2 25  1  0  0  0  0
  2 26  1  0  0  0  0
  3  4  1  0  0  0  0
  4  9  1  0  0  0  0
  4  5  2  0  0  0  0
  5  6  1  0  0  0  0
  6  7  2  0  0  0  0
  6 27  1  0  0  0  0
  7  8  1  0  0  0  0
  7 28  1  0  0  0  0
  8  9  2  0  0  0  0
  8 29  1  0  0  0  0
  9 10  1  0  0  0  0
 10 11  1  0  0  0  0
 10 30  1  0  0  0  0
 11 12  2  0  0  0  0
 11 13  1  0  0  0  0
 13 14  1  0  0  0  0
 13 31  1  0  0  0  0
 14 20  1  0  0  0  0
 14 15  1  0  0  0  0
 14 32  1  0  0  0  0
 15 16  1  0  0  0  0
 15 33  1  0  0  0  0
 15 34  1  0  0  0  0
 16 17  1  0  0  0  0
 16 35  1  0  0  0  0
 16 36  1  0  0  0  0
 17 18  1  0  0  0  0
 17 37  1  0  0  0  0
 17 38  1  0  0  0  0
 18 19  1  0  0  0  0
 18 39  1  0  0  0  0
 18 40  1  0  0  0  0
 19 20  1  0  0  0  0
 19 41  1  0  0  0  0
 20 21  2  0  0  0  0
M  END
> <s_m_source_file>
AV-unprocessed.smi

> <i_m_source_file_index>
1557

> <i_lp_mmshare_version>
43012

> <i_f3d_flags>
0

> <s_epik_input>
W0NIM11bQ0gyXU9jMW5bY0hdW2NIXVtjSF1jMVtOSF1DKD1PKVtOSF1bQ0BASF0yW0NIMl1bQ0gyXVtDSDJdW0NIMl1bTkhdQzI9Tw==

> <s_epik_cmdline>
J2VwaWtfcHl0aG9uJywgJy1waCcsICc3LjAnLCAnLXRuJywgJzgnLCAnLW1hJywgJzIwMCcsICctbWV0YWxfYmluZGluZycsICctaW1hZScsICc8aW5maWxlLm1hZT4nLCAnLW9tYWUnLCAnPG91dGZpbGUubWFlPic=

> <r_lp_tautomer_probability>
1

> <r_epik_Ionization_Penalty>
0.000101084

> <r_epik_Ionization_Penalty_Charging>
0

> <r_epik_Ionization_Penalty_Neutral>
0.000101084

> <r_epik_State_Penalty>
-0

> <r_epik_Charging_Adjusted_Penalty>
0

> <i_epik_Tot_Q>
0

> <i_epik_Tot_abs_Q>
0

> <r_epik_Metal_State_Penalty>
-0

> <b_epik_Metal_Only>
0

> <s_lp_Force_Field>
OPLS_2005

> <r_lp_Energy>
17.7694

> <b_lp_Chiralities_Consistent>
1

> <s_lp_Variant>
AV-unprocessed.smi:1557-1

> <Gold.Version>
5.8.1

> <Gold.Id.Protein>
6NUR|6NUR_protein|mol2

> <Gold.PLP.Fitness>
38.6968

> <Gold.PLP.PLP>
-28.4541

> <Gold.PLP.part.hbond>
-2.5010

> <Gold.PLP.part.metal>
0.0000

> <Gold.PLP.part.buried>
-2.9274

> <Gold.PLP.part.nonpolar>
-28.6575

> <Gold.PLP.part.repulsive>
3.7091

> <Gold.PLP.ligand.clash>
0.0000

> <Gold.PLP.ligand.torsion>
0.3382

> <Gold.PLP.Chemscore.Hbond>
2.6375

> <Gold.PLP.Chemscore.CHOScore>
1.0000

> <Gold.PLP.Chemscore.Metal>
0.0000

> <Gold.Chemscore.Hbonds>
donor molecule, donor type, donor heavy atom, donor atom, acceptor molecule, acceptor atom, score
      L1  H    10    30       P1  7948  0.96
      L1  H    13    31       P1  7948  0.93
      L1  H    19    41       P1 10186  0.83
      L1  C     6    27       P1  8028  1.00

> <Gold.PLP.Chemscore.Internal.Correction>
0.0066

> <Gold.Rescore>
     Score         DG    S(hbond)    S(metal)    S(lipo)     H(rot)  DE(clash)    DE(int)     intcor
     15.65     -18.20       2.60        0.00      67.17       1.49       1.13       1.42       ----

> <Gold.Chemscore.Fitness>
15.6463

> <Gold.Chemscore.DG>
-18.2001

> <Gold.Chemscore.ZeroCoef>
-5.4800

> <Gold.Chemscore.Hbond>
2.6011

> <Gold.Chemscore.Metal>
0.0000

> <Gold.Chemscore.Lipo>
67.1732

> <Gold.Chemscore.Internal_Hbond>
0.0000

> <Gold.Chemscore.DEClash>
1.1337

> <Gold.Chemscore.DEInternal>
1.4200

> <Gold.Chemscore.Rot>
1.4948

> <Gold.Chemscore.Internal.Correction>
   9.000000E+99

> <Gold.Chemscore.Hbonds>
donor molecule, donor type, donor heavy atom, donor atom, acceptor molecule, acceptor atom, score
      L1  H    10    30       P1  7948  0.91
      L1  H    13    31       P1  7948  0.85
      L1  H    19    41       P1 10186  0.55

> <Gold.Chemscore.Hbond.Weighted>
-8.6876

> <Gold.Chemscore.Metal.Weighted>
-0.0000

> <Gold.Chemscore.Lipo.Weighted>
-7.8593

> <Gold.Chemscore.Internal_Hbond.Weighted>
0.0000

> <Gold.Chemscore.DEClash.Weighted>
1.1337

> <Gold.Chemscore.DEInternal.Weighted>
1.4200

> <Gold.Chemscore.Rot.Weighted>
3.8268

> <Gold.Chemscore.Internal.Correction.Weighted>
   9.000000E+99

> <Gold.Protein.RotatedTorsions>
[ 6907 6896 6895 6894 ] final  -36.48 input  -60.11 | X-H torsion
[ 7974 7965 7964 7962 ] final   -7.81 input  175.53 | X-H torsion
[ 8008 7997 7996 7995 ] final  -52.75 input   59.86 | X-H torsion
[ 10167 10162 10161 10158 ] final  104.13 input  -65.29 | X-H torsion
[ 10718 10713 10712 10709 ] final -134.24 input   66.30 | X-H torsion
[ 10763 10752 10751 10750 ] final  169.59 input  -60.55 | X-H torsion
[ 11005 11000 10999 10996 ] final  -18.83 input  -57.11 | X-H torsion

> <Gold.Protein.ActiveResidues>
 VAL166  LYS551  ARG553  GLY616  TRP617  ASP618  TYR619  PRO620  LYS621  CYS622 
 ASP623  PHE694  ASN695  SER759  ASP760  ASP761  ALA762  ILE779  LEU786  VAL792 
 PHE793  MET794  SER795  GLU796  ALA797  LYS798  CYS799  TRP800  GLU811  SER814 

> <Gold.Protein.RotatedAtoms>
  151.0267  134.9509  159.8088 H   0  0  0  0  0  0  0  0  0  0  0  0  # atno 6907 bound_to 6896
  152.5337  134.2833  159.9026 H   0  0  0  0  0  0  0  0  0  0  0  0  # atno 6908 bound_to 6896
  151.2842  133.4153  159.2663 H   0  0  0  0  0  0  0  0  0  0  0  0  # atno 6909 bound_to 6896
  146.2297  140.2375  142.8342 H   0  0  0  0  0  0  0  0  0  0  0  0  # atno 7974 bound_to 7965
  154.4115  140.1216  156.5043 H   0  0  0  0  0  0  0  0  0  0  0  0  # atno 8008 bound_to 7997
  155.6864  140.3495  155.4856 H   0  0  0  0  0  0  0  0  0  0  0  0  # atno 8009 bound_to 7997
  155.9507  140.1104  157.0969 H   0  0  0  0  0  0  0  0  0  0  0  0  # atno 8010 bound_to 7997
  139.7203  144.7059  151.0883 H   0  0  0  0  0  0  0  0  0  0  0  0  # atno 10167 bound_to 10162
  156.2534  130.7166  151.1074 H   0  0  0  0  0  0  0  0  0  0  0  0  # atno 10718 bound_to 10713
  154.3853  135.2753  155.2187 H   0  0  0  0  0  0  0  0  0  0  0  0  # atno 10763 bound_to 10752
  154.4276  135.5985  153.6052 H   0  0  0  0  0  0  0  0  0  0  0  0  # atno 10764 bound_to 10752
  152.9833  135.5988  154.4101 H   0  0  0  0  0  0  0  0  0  0  0  0  # atno 10765 bound_to 10752
  140.8306  133.7999  155.9755 H   0  0  0  0  0  0  0  0  0  0  0  0  # atno 11005 bound_to 11000
  144.9510  140.8178  143.5572 LP  0  0  0  0  0  0  0  0  0  0  0  0  # atno 17320 bound_to 7965
  145.2335  139.2104  143.5030 LP  0  0  0  0  0  0  0  0  0  0  0  0  # atno 17321 bound_to 7965
  140.7752  143.5175  150.9577 LP  0  0  0  0  0  0  0  0  0  0  0  0  # atno 17342 bound_to 10162
  139.8861  143.7011  152.3151 LP  0  0  0  0  0  0  0  0  0  0  0  0  # atno 17343 bound_to 10162
  157.7223  131.0673  150.6083 LP  0  0  0  0  0  0  0  0  0  0  0  0  # atno 17370 bound_to 10713
  156.6165  130.4394  149.5839 LP  0  0  0  0  0  0  0  0  0  0  0  0  # atno 17371 bound_to 10713
  140.9002  134.2388  157.5046 LP  0  0  0  0  0  0  0  0  0  0  0  0  # atno 17394 bound_to 11000
  139.8705  134.9703  156.4695 LP  0  0  0  0  0  0  0  0  0  0  0  0  # atno 17395 bound_to 11000

$$$$
