AV-unprocessed.smi:354|AV-procd|sdf|2403|dock5
  -GOLD-   2262022333D 1   1.00000     0.00000
 Structure written by MMmdl.
 36 38  0  0  0  0  0  0  0  0  1 V2000
  151.9602  139.3304  154.4592 O   0  0  0  0  0  0  0  0  0  0  0  0
  151.7853  138.9943  155.8184 C   0  0  0  0  0  0  0  0  0  0  0  0
  151.8914  140.1761  156.7346 C   0  0  0  0  0  0  0  0  0  0  0  0
  152.6615  140.1484  157.8233 N   0  0  0  0  0  0  0  0  0  0  0  0
  152.4942  141.4145  158.3481 C   0  0  0  0  0  0  0  0  0  0  0  0
  153.0532  142.0123  159.5004 C   0  0  0  0  0  0  0  0  0  0  0  0
  152.7383  143.3450  159.8376 C   0  0  0  0  0  0  0  0  0  0  0  0
  151.8634  144.0981  159.0282 C   0  0  0  0  0  0  0  0  0  0  0  0
  151.2947  143.5213  157.8767 C   0  0  0  0  0  0  0  0  0  0  0  0
  151.6093  142.1889  157.5463 C   0  0  0  0  0  0  0  0  0  0  0  0
  151.2279  141.3403  156.5113 N   0  0  0  0  0  0  0  0  0  0  0  0
  150.3183  141.6804  155.4237 C   0  0  0  0  0  0  0  0  0  0  0  0
  149.1645  140.6683  155.2680 C   0  0  2  0  0  0  0  0  0  0  0  0
  149.4106  139.8170  154.1653 O   0  0  0  0  0  0  0  0  0  0  0  0
  147.8223  141.3798  155.1662 C   0  0  0  0  0  0  0  0  0  0  0  0
  147.4599  142.0554  153.9791 C   0  0  0  0  0  0  0  0  0  0  0  0
  146.2236  142.7237  153.8890 C   0  0  0  0  0  0  0  0  0  0  0  0
  145.3417  142.7241  154.9861 C   0  0  0  0  0  0  0  0  0  0  0  0
  145.6986  142.0585  156.1742 C   0  0  0  0  0  0  0  0  0  0  0  0
  146.9353  141.3902  156.2669 C   0  0  0  0  0  0  0  0  0  0  0  0
  147.2662  140.7627  157.4212 F   0  0  0  0  0  0  0  0  0  0  0  0
  152.7354  138.8950  154.1398 H   0  0  0  0  0  0  0  0  0  0  0  0
  150.8021  138.5368  155.9343 H   0  0  0  0  0  0  0  0  0  0  0  0
  152.5136  138.2366  156.1075 H   0  0  0  0  0  0  0  0  0  0  0  0
  153.7275  141.4449  160.1249 H   0  0  0  0  0  0  0  0  0  0  0  0
  153.1717  143.7922  160.7200 H   0  0  0  0  0  0  0  0  0  0  0  0
  151.6291  145.1190  159.2918 H   0  0  0  0  0  0  0  0  0  0  0  0
  150.6248  144.0966  157.2550 H   0  0  0  0  0  0  0  0  0  0  0  0
  149.9139  142.6722  155.6295 H   0  0  0  0  0  0  0  0  0  0  0  0
  150.8703  141.7677  154.4889 H   0  0  0  0  0  0  0  0  0  0  0  0
  149.1408  140.0186  156.1427 H   0  0  0  0  0  0  0  0  0  0  0  0
  149.3814  140.3340  153.3750 H   0  0  0  0  0  0  0  0  0  0  0  0
  148.1312  142.0664  153.1328 H   0  0  0  0  0  0  0  0  0  0  0  0
  145.9528  143.2376  152.9784 H   0  0  0  0  0  0  0  0  0  0  0  0
  144.3937  143.2372  154.9178 H   0  0  0  0  0  0  0  0  0  0  0  0
  145.0235  142.0626  157.0172 H   0  0  0  0  0  0  0  0  0  0  0  0
  1  2  1  0  0  0  0
  1 22  1  0  0  0  0
  2  3  1  0  0  0  0
  2 23  1  0  0  0  0
  2 24  1  0  0  0  0
  3 11  1  0  0  0  0
  3  4  2  0  0  0  0
  4  5  1  0  0  0  0
  5 10  2  0  0  0  0
  5  6  1  0  0  0  0
  6  7  2  0  0  0  0
  6 25  1  0  0  0  0
  7  8  1  0  0  0  0
  7 26  1  0  0  0  0
  8  9  2  0  0  0  0
  8 27  1  0  0  0  0
  9 10  1  0  0  0  0
  9 28  1  0  0  0  0
 10 11  1  0  0  0  0
 11 12  1  0  0  0  0
 12 13  1  0  0  0  0
 12 29  1  0  0  0  0
 12 30  1  0  0  0  0
 13 14  1  0  0  0  0
 13 15  1  0  0  0  0
 13 31  1  0  0  0  0
 14 32  1  0  0  0  0
 15 20  1  0  0  0  0
 15 16  2  0  0  0  0
 16 17  1  0  0  0  0
 16 33  1  0  0  0  0
 17 18  2  0  0  0  0
 17 34  1  0  0  0  0
 18 19  1  0  0  0  0
 18 35  1  0  0  0  0
 19 20  2  0  0  0  0
 19 36  1  0  0  0  0
 20 21  1  0  0  0  0
M  END
> <s_m_source_file>
AV-unprocessed.smi

> <i_m_source_file_index>
354

> <i_lp_mmshare_version>
43012

> <i_f3d_flags>
0

> <s_epik_input>
W2NIXTFbY0hdW2NIXVtjSF1jKGMxMiluKGMobjIpW0NIMl1bT0hdKVtDSDJdW0NASF0oW09IXSljM1tjSF1bY0hdW2NIXVtjSF1jM0Y=

> <s_epik_cmdline>
J2VwaWtfcHl0aG9uJywgJy1waCcsICc3LjAnLCAnLXRuJywgJzgnLCAnLW1hJywgJzIwMCcsICctbWV0YWxfYmluZGluZycsICctaW1hZScsICc8aW5maWxlLm1hZT4nLCAnLW9tYWUnLCAnPG91dGZpbGUubWFlPic=

> <r_epik_Ionization_Penalty>
0.0634722

> <r_epik_Ionization_Penalty_Charging>
0

> <r_epik_Ionization_Penalty_Neutral>
0.0634722

> <r_epik_State_Penalty>
0.0551572

> <r_epik_Charging_Adjusted_Penalty>
0.0551572

> <i_epik_Tot_Q>
0

> <i_epik_Tot_abs_Q>
0

> <r_epik_Metal_State_Penalty>
5.78034e-05

> <b_epik_Metal_Only>
0

> <s_lp_Force_Field>
OPLS_2005

> <r_lp_Energy>
13.1732

> <b_lp_Chiralities_Consistent>
1

> <s_lp_Variant>
AV-unprocessed.smi:354-1

> <Gold.Version>
5.8.1

> <Gold.Id.Protein>
6NUR|6NUR_protein|mol2

> <Gold.PLP.Fitness>
47.6932

> <Gold.PLP.PLP>
-42.8678

> <Gold.PLP.part.hbond>
-3.0000

> <Gold.PLP.part.metal>
0.0000

> <Gold.PLP.part.buried>
-3.7682

> <Gold.PLP.part.nonpolar>
-33.2945

> <Gold.PLP.part.repulsive>
0.0000

> <Gold.PLP.ligand.clash>
0.0000

> <Gold.PLP.ligand.torsion>
1.1014

> <Gold.PLP.Chemscore.Hbond>
2.3272

> <Gold.PLP.Chemscore.CHOScore>
0.0000

> <Gold.PLP.Chemscore.Metal>
0.0000

> <Gold.Chemscore.Hbonds>
donor molecule, donor type, donor heavy atom, donor atom, acceptor molecule, acceptor atom, score
      L1  H    14    32       P1  7957  0.37
      P1  H  7989  7998       L1     1  0.90
      P1  H  7997  8009       L1     4  0.90

> <Gold.PLP.Chemscore.Internal.Correction>
0.0467

> <Gold.Rescore>
     Score         DG    S(hbond)    S(metal)    S(lipo)     H(rot)  DE(clash)    DE(int)     intcor
     15.18     -16.38       1.47        0.00     111.49       2.75       0.24       0.96       ----

> <Gold.Chemscore.Fitness>
15.1787

> <Gold.Chemscore.DG>
-16.3790

> <Gold.Chemscore.ZeroCoef>
-5.4800

> <Gold.Chemscore.Hbond>
1.4654

> <Gold.Chemscore.Metal>
0.0000

> <Gold.Chemscore.Lipo>
111.4906

> <Gold.Chemscore.Internal_Hbond>
0.0000

> <Gold.Chemscore.DEClash>
0.2383

> <Gold.Chemscore.DEInternal>
0.9620

> <Gold.Chemscore.Rot>
2.7500

> <Gold.Chemscore.Internal.Correction>
   9.000000E+99

> <Gold.Chemscore.Hbonds>
donor molecule, donor type, donor heavy atom, donor atom, acceptor molecule, acceptor atom, score
      L1  H    14    32       P1  7957  0.35
      P1  H  7989  7998       L1     1  0.62
      P1  H  7997  8009       L1     4  0.12

> <Gold.Chemscore.Hbond.Weighted>
-4.8945

> <Gold.Chemscore.Metal.Weighted>
-0.0000

> <Gold.Chemscore.Lipo.Weighted>
-13.0444

> <Gold.Chemscore.Internal_Hbond.Weighted>
0.0000

> <Gold.Chemscore.DEClash.Weighted>
0.2383

> <Gold.Chemscore.DEInternal.Weighted>
0.9620

> <Gold.Chemscore.Rot.Weighted>
7.0399

> <Gold.Chemscore.Internal.Correction.Weighted>
   9.000000E+99

> <Gold.Protein.RotatedTorsions>
[ 6907 6896 6895 6894 ] final -149.38 input  -60.11 | X-H torsion
[ 7974 7965 7964 7962 ] final -147.13 input  175.53 | X-H torsion
[ 8008 7997 7996 7995 ] final  162.23 input   59.86 | X-H torsion
[ 10167 10162 10161 10158 ] final -142.38 input  -65.29 | X-H torsion
[ 10718 10713 10712 10709 ] final  141.02 input   66.30 | X-H torsion
[ 10763 10752 10751 10750 ] final  141.77 input  -60.55 | X-H torsion
[ 11005 11000 10999 10996 ] final  -84.90 input  -57.11 | X-H torsion

> <Gold.Protein.ActiveResidues>
 VAL166  LYS551  ARG553  GLY616  TRP617  ASP618  TYR619  PRO620  LYS621  CYS622 
 ASP623  PHE694  ASN695  SER759  ASP760  ASP761  ALA762  ILE779  LEU786  VAL792 
 PHE793  MET794  SER795  GLU796  ALA797  LYS798  CYS799  TRP800  GLU811  SER814 

> <Gold.Protein.RotatedAtoms>
  151.1833  133.4712  159.2594 H   0  0  0  0  0  0  0  0  0  0  0  0  # atno 6907 bound_to 6896
  151.1237  135.0093  159.8560 H   0  0  0  0  0  0  0  0  0  0  0  0  # atno 6908 bound_to 6896
  152.5457  134.1742  159.8662 H   0  0  0  0  0  0  0  0  0  0  0  0  # atno 6909 bound_to 6896
  144.8113  140.5367  143.5640 H   0  0  0  0  0  0  0  0  0  0  0  0  # atno 7974 bound_to 7965
  156.2046  140.1756  156.7827 H   0  0  0  0  0  0  0  0  0  0  0  0  # atno 8008 bound_to 7997
  154.5637  140.0695  156.8890 H   0  0  0  0  0  0  0  0  0  0  0  0  # atno 8009 bound_to 7997
  155.2800  140.3348  155.4261 H   0  0  0  0  0  0  0  0  0  0  0  0  # atno 8010 bound_to 7997
  139.8094  143.7724  152.2662 H   0  0  0  0  0  0  0  0  0  0  0  0  # atno 10167 bound_to 10162
  157.3967  131.1011  151.0592 H   0  0  0  0  0  0  0  0  0  0  0  0  # atno 10718 bound_to 10713
  153.9447  135.2976  155.3441 H   0  0  0  0  0  0  0  0  0  0  0  0  # atno 10763 bound_to 10752
  154.7458  135.5003  153.9205 H   0  0  0  0  0  0  0  0  0  0  0  0  # atno 10764 bound_to 10752
  153.1024  135.6738  153.9755 H   0  0  0  0  0  0  0  0  0  0  0  0  # atno 10765 bound_to 10752
  141.1646  133.7370  156.8936 H   0  0  0  0  0  0  0  0  0  0  0  0  # atno 11005 bound_to 11000
  145.5316  139.1475  143.3496 LP  0  0  0  0  0  0  0  0  0  0  0  0  # atno 17320 bound_to 7965
  146.2412  140.5457  142.8933 LP  0  0  0  0  0  0  0  0  0  0  0  0  # atno 17321 bound_to 7965
  139.7868  144.7425  151.0010 LP  0  0  0  0  0  0  0  0  0  0  0  0  # atno 17342 bound_to 10162
  140.7818  143.4484  151.0449 LP  0  0  0  0  0  0  0  0  0  0  0  0  # atno 17343 bound_to 10162
  157.1606  130.6224  149.5610 LP  0  0  0  0  0  0  0  0  0  0  0  0  # atno 17370 bound_to 10713
  155.9812  130.4818  150.6816 LP  0  0  0  0  0  0  0  0  0  0  0  0  # atno 17371 bound_to 10713
  140.1631  134.9152  157.2740 LP  0  0  0  0  0  0  0  0  0  0  0  0  # atno 17394 bound_to 11000
  140.2588  134.3596  155.7414 LP  0  0  0  0  0  0  0  0  0  0  0  0  # atno 17395 bound_to 11000

$$$$
