AV-unprocessed.smi:3021|AV-procd|sdf|11498|dock4
  -GOLD-   2272016433D 1   1.00000     0.00000
 Structure written by MMmdl.
 35 37  0  0  0  0  0  0  0  0  1 V2000
  149.6567  141.6647  153.5243 O   0  0  0  0  0  0  0  0  0  0  0  0
  148.7095  141.7622  154.5702 C   0  0  2  0  0  0  0  0  0  0  0  0
  149.3084  141.1101  155.8256 C   0  0  0  0  0  0  0  0  0  0  0  0
  150.0606  142.0853  156.5278 O   0  0  0  0  0  0  0  0  0  0  0  0
  150.7579  141.5504  157.6417 C   0  0  0  0  0  0  0  0  0  0  0  0
  151.3328  142.6931  158.4181 C   0  0  0  0  0  0  0  0  0  0  0  0
  152.5481  142.8932  159.0127 C   0  0  0  0  0  0  0  0  0  0  0  0
  152.5030  144.1885  159.5988 C   0  0  0  0  0  0  0  0  0  0  0  0
  151.2628  144.6858  159.3179 C   0  0  0  0  0  0  0  0  0  0  0  0
  150.5371  143.7881  158.5980 O   0  0  0  0  0  0  0  0  0  0  0  0
  147.4021  141.0762  154.1279 C   0  0  0  0  0  0  0  0  0  0  0  0
  146.5275  140.7765  155.2484 N   0  0  0  0  0  0  0  0  0  0  0  0
  146.8719  139.7836  156.1165 N   0  0  0  0  0  0  0  0  0  0  0  0
  145.9568  139.6978  157.0351 N   0  0  0  0  0  0  0  0  0  0  0  0
  144.9916  140.6547  156.7690 C   0  0  0  0  0  0  0  0  0  0  0  0
  143.7964  140.9987  157.4389 C   0  0  0  0  0  0  0  0  0  0  0  0
  142.9766  142.0384  156.9479 C   0  0  0  0  0  0  0  0  0  0  0  0
  141.5227  142.4303  157.7955 Cl  0  0  0  0  0  0  0  0  0  0  0  0
  143.3446  142.7468  155.7784 C   0  0  0  0  0  0  0  0  0  0  0  0
  142.3534  144.0216  155.1644 Cl  0  0  0  0  0  0  0  0  0  0  0  0
  144.5344  142.4145  155.1004 C   0  0  0  0  0  0  0  0  0  0  0  0
  145.3353  141.3762  155.6053 C   0  0  0  0  0  0  0  0  0  0  0  0
  150.3738  141.1256  153.8224 H   0  0  0  0  0  0  0  0  0  0  0  0
  148.5079  142.8159  154.7688 H   0  0  0  0  0  0  0  0  0  0  0  0
  148.5065  140.7609  156.4782 H   0  0  0  0  0  0  0  0  0  0  0  0
  149.9186  140.2422  155.5687 H   0  0  0  0  0  0  0  0  0  0  0  0
  150.0824  140.9720  158.2730 H   0  0  0  0  0  0  0  0  0  0  0  0
  151.5573  140.8874  157.3082 H   0  0  0  0  0  0  0  0  0  0  0  0
  153.3698  142.1925  159.0242 H   0  0  0  0  0  0  0  0  0  0  0  0
  153.2795  144.6925  160.1548 H   0  0  0  0  0  0  0  0  0  0  0  0
  150.7574  145.6137  159.5417 H   0  0  0  0  0  0  0  0  0  0  0  0
  146.8598  141.7049  153.4203 H   0  0  0  0  0  0  0  0  0  0  0  0
  147.6228  140.1434  153.6068 H   0  0  0  0  0  0  0  0  0  0  0  0
  143.5109  140.4632  158.3323 H   0  0  0  0  0  0  0  0  0  0  0  0
  144.8285  142.9491  154.2093 H   0  0  0  0  0  0  0  0  0  0  0  0
  1  2  1  0  0  0  0
  1 23  1  0  0  0  0
  2  3  1  0  0  0  0
  2 11  1  0  0  0  0
  2 24  1  0  0  0  0
  3  4  1  0  0  0  0
  3 25  1  0  0  0  0
  3 26  1  0  0  0  0
  4  5  1  0  0  0  0
  5  6  1  0  0  0  0
  5 27  1  0  0  0  0
  5 28  1  0  0  0  0
  6 10  1  0  0  0  0
  6  7  2  0  0  0  0
  7  8  1  0  0  0  0
  7 29  1  0  0  0  0
  8  9  2  0  0  0  0
  8 30  1  0  0  0  0
  9 10  1  0  0  0  0
  9 31  1  0  0  0  0
 11 12  1  0  0  0  0
 11 32  1  0  0  0  0
 11 33  1  0  0  0  0
 12 22  1  0  0  0  0
 12 13  1  0  0  0  0
 13 14  2  0  0  0  0
 14 15  1  0  0  0  0
 15 22  2  0  0  0  0
 15 16  1  0  0  0  0
 16 17  2  0  0  0  0
 16 34  1  0  0  0  0
 17 18  1  0  0  0  0
 17 19  1  0  0  0  0
 19 20  1  0  0  0  0
 19 21  2  0  0  0  0
 21 22  1  0  0  0  0
 21 35  1  0  0  0  0
M  END
> <s_m_source_file>
AV-unprocessed.smi

> <i_m_source_file_index>
3021

> <i_lp_mmshare_version>
43012

> <i_f3d_flags>
0

> <s_epik_input>
W2NIXTFjKENsKWMoQ2wpW2NIXWMoYzEyKW4obm4yKVtDSDJdW0NASF0oW09IXSlbQ0gyXU9bQ0gyXWMzW2NIXVtjSF1bY0hdbzM=

> <s_epik_cmdline>
J2VwaWtfcHl0aG9uJywgJy1waCcsICc3LjAnLCAnLXRuJywgJzgnLCAnLW1hJywgJzIwMCcsICctbWV0YWxfYmluZGluZycsICctaW1hZScsICc8aW5maWxlLm1hZT4nLCAnLW9tYWUnLCAnPG91dGZpbGUubWFlPic=

> <r_lp_tautomer_probability>
1

> <r_epik_Ionization_Penalty>
6.1367e-06

> <r_epik_Ionization_Penalty_Charging>
0

> <r_epik_Ionization_Penalty_Neutral>
6.1367e-06

> <r_epik_State_Penalty>
-0

> <r_epik_Charging_Adjusted_Penalty>
0

> <i_epik_Tot_Q>
0

> <i_epik_Tot_abs_Q>
0

> <r_epik_Metal_State_Penalty>
-0

> <b_epik_Metal_Only>
0

> <s_lp_Force_Field>
OPLS_2005

> <r_lp_Energy>
8.1305

> <b_lp_Chiralities_Consistent>
1

> <s_lp_Variant>
AV-unprocessed.smi:3021-1

> <Gold.Version>
5.8.1

> <Gold.Id.Protein>
6NUR|6NUR_protein|mol2

> <Gold.PLP.Fitness>
48.0713

> <Gold.PLP.PLP>
-47.0146

> <Gold.PLP.part.hbond>
-2.0000

> <Gold.PLP.part.metal>
0.0000

> <Gold.PLP.part.buried>
-5.2830

> <Gold.PLP.part.nonpolar>
-41.3266

> <Gold.PLP.part.repulsive>
0.3931

> <Gold.PLP.ligand.clash>
0.0000

> <Gold.PLP.ligand.torsion>
0.8496

> <Gold.PLP.Chemscore.Hbond>
0.8640

> <Gold.PLP.Chemscore.CHOScore>
0.0000

> <Gold.PLP.Chemscore.Metal>
0.0000

> <Gold.Chemscore.Hbonds>
donor molecule, donor type, donor heavy atom, donor atom, acceptor molecule, acceptor atom, score
      P1  H  8011  8017       L1     1  0.51

> <Gold.PLP.Chemscore.Internal.Correction>
0.1640

> <Gold.Rescore>
     Score         DG    S(hbond)    S(metal)    S(lipo)     H(rot)  DE(clash)    DE(int)     intcor
     12.53     -16.72       0.83        0.00     126.21       2.46       1.69       2.50       ----

> <Gold.Chemscore.Fitness>
12.5298

> <Gold.Chemscore.DG>
-16.7232

> <Gold.Chemscore.ZeroCoef>
-5.4800

> <Gold.Chemscore.Hbond>
0.8342

> <Gold.Chemscore.Metal>
0.0000

> <Gold.Chemscore.Lipo>
126.2097

> <Gold.Chemscore.Internal_Hbond>
0.0000

> <Gold.Chemscore.DEClash>
1.6890

> <Gold.Chemscore.DEInternal>
2.5045

> <Gold.Chemscore.Rot>
2.4647

> <Gold.Chemscore.Internal.Correction>
   9.000000E+99

> <Gold.Chemscore.Hbonds>
donor molecule, donor type, donor heavy atom, donor atom, acceptor molecule, acceptor atom, score
      P1  H  8011  8017       L1     1  0.51

> <Gold.Chemscore.Hbond.Weighted>
-2.7863

> <Gold.Chemscore.Metal.Weighted>
-0.0000

> <Gold.Chemscore.Lipo.Weighted>
-14.7665

> <Gold.Chemscore.Internal_Hbond.Weighted>
0.0000

> <Gold.Chemscore.DEClash.Weighted>
1.6890

> <Gold.Chemscore.DEInternal.Weighted>
2.5045

> <Gold.Chemscore.Rot.Weighted>
6.3097

> <Gold.Chemscore.Internal.Correction.Weighted>
   9.000000E+99

> <Gold.Protein.RotatedTorsions>
[ 6907 6896 6895 6894 ] final   26.72 input  -60.11 | X-H torsion
[ 7974 7965 7964 7962 ] final  -17.40 input  175.53 | X-H torsion
[ 8008 7997 7996 7995 ] final  104.22 input   59.86 | X-H torsion
[ 10167 10162 10161 10158 ] final  109.51 input  -65.29 | X-H torsion
[ 10718 10713 10712 10709 ] final   15.47 input   66.30 | X-H torsion
[ 10763 10752 10751 10750 ] final  -49.86 input  -60.55 | X-H torsion
[ 11005 11000 10999 10996 ] final  -74.61 input  -57.11 | X-H torsion

> <Gold.Protein.ActiveResidues>
 VAL166  LYS551  ARG553  GLY616  TRP617  ASP618  TYR619  PRO620  LYS621  CYS622 
 ASP623  PHE694  ASN695  SER759  ASP760  ASP761  ALA762  ILE779  LEU786  VAL792 
 PHE793  MET794  SER795  GLU796  ALA797  LYS798  CYS799  TRP800  GLU811  SER814 

> <Gold.Protein.RotatedAtoms>
  151.9916  134.9976  160.0561 H   0  0  0  0  0  0  0  0  0  0  0  0  # atno 6907 bound_to 6896
  152.1603  133.4572  159.4866 H   0  0  0  0  0  0  0  0  0  0  0  0  # atno 6908 bound_to 6896
  150.6887  134.1998  159.4360 H   0  0  0  0  0  0  0  0  0  0  0  0  # atno 6909 bound_to 6896
  146.1943  140.3773  142.8446 H   0  0  0  0  0  0  0  0  0  0  0  0  # atno 7974 bound_to 7965
  156.1553  140.3151  155.8716 H   0  0  0  0  0  0  0  0  0  0  0  0  # atno 8008 bound_to 7997
  155.3890  140.0492  157.3058 H   0  0  0  0  0  0  0  0  0  0  0  0  # atno 8009 bound_to 7997
  154.5096  140.2159  155.9194 H   0  0  0  0  0  0  0  0  0  0  0  0  # atno 8010 bound_to 7997
  139.6761  144.7122  151.1600 H   0  0  0  0  0  0  0  0  0  0  0  0  # atno 10167 bound_to 10162
  157.0540  130.6281  149.5773 H   0  0  0  0  0  0  0  0  0  0  0  0  # atno 10718 bound_to 10713
  154.1010  135.6563  153.4868 H   0  0  0  0  0  0  0  0  0  0  0  0  # atno 10763 bound_to 10752
  153.0288  135.5225  154.7286 H   0  0  0  0  0  0  0  0  0  0  0  0  # atno 10764 bound_to 10752
  154.6438  135.2992  155.0040 H   0  0  0  0  0  0  0  0  0  0  0  0  # atno 10765 bound_to 10752
  141.1637  133.6917  156.7391 H   0  0  0  0  0  0  0  0  0  0  0  0  # atno 11005 bound_to 11000
  144.8548  140.7054  143.6145 LP  0  0  0  0  0  0  0  0  0  0  0  0  # atno 17320 bound_to 7965
  145.3694  139.1662  143.4340 LP  0  0  0  0  0  0  0  0  0  0  0  0  # atno 17321 bound_to 7965
  140.7636  143.5770  150.8935 LP  0  0  0  0  0  0  0  0  0  0  0  0  # atno 17342 bound_to 10162
  139.9439  143.6350  152.3046 LP  0  0  0  0  0  0  0  0  0  0  0  0  # atno 17343 bound_to 10162
  155.9999  130.5075  150.7622 LP  0  0  0  0  0  0  0  0  0  0  0  0  # atno 17370 bound_to 10713
  157.5007  131.0918  151.0317 LP  0  0  0  0  0  0  0  0  0  0  0  0  # atno 17371 bound_to 10713
  140.2688  134.8409  157.3827 LP  0  0  0  0  0  0  0  0  0  0  0  0  # atno 17394 bound_to 11000
  140.1541  134.4812  155.7940 LP  0  0  0  0  0  0  0  0  0  0  0  0  # atno 17395 bound_to 11000

$$$$
