AV-unprocessed.smi:3330|AV-procd|sdf|12802|dock5
  -GOLD-   2272019163D 1   1.00000     0.00000
 Structure written by MMmdl.
 39 40  0  0  0  0  0  0  0  0  2 V2000
  148.6876  142.8190  158.6560 C   0  0  0  0  0  0  0  0  0  0  0  0
  150.0977  142.6526  158.0496 C   0  0  1  0  0  0  0  0  0  0  0  0
  150.0126  142.5316  156.5756 N   0  3  0  0  0  0  0  0  0  0  0  0
  149.3326  141.3206  156.0720 C   0  0  0  0  0  0  0  0  0  0  0  0
  149.9223  140.0586  156.7201 C   0  0  0  0  0  0  0  0  0  0  0  0
  150.4526  139.1367  155.7122 N   0  0  0  0  0  0  0  0  0  0  0  0
  151.7434  138.7947  155.6101 C   0  0  0  0  0  0  0  0  0  0  0  0
  152.6761  139.1783  156.3149 O   0  0  0  0  0  0  0  0  0  0  0  0
  151.8955  137.8375  154.4480 C   0  0  0  0  0  0  0  0  0  0  0  0
  150.5183  137.7854  154.0061 N   0  0  0  0  0  0  0  0  0  0  0  0
  149.7119  138.5486  154.7552 C   0  0  0  0  0  0  0  0  0  0  0  0
  148.5017  138.6849  154.5831 O   0  0  0  0  0  0  0  0  0  0  0  0
  151.0539  143.8180  158.4208 C   0  0  2  0  0  0  0  0  0  0  0  0
  152.1863  144.0052  157.3919 C   0  0  0  0  0  0  0  0  0  0  0  0
  151.6144  143.6702  159.7585 N   0  0  0  0  0  0  0  0  0  0  0  0
  152.4036  142.6485  160.2458 C   0  0  0  0  0  0  0  0  0  0  0  0
  152.6896  142.9384  161.5489 C   0  0  0  0  0  0  0  0  0  0  0  0
  152.0211  144.1736  161.7750 C   0  0  0  0  0  0  0  0  0  0  0  0
  151.3799  144.6097  160.7028 N   0  0  0  0  0  0  0  0  0  0  0  0
  148.7156  142.8490  159.7453 H   0  0  0  0  0  0  0  0  0  0  0  0
  148.0302  141.9918  158.3903 H   0  0  0  0  0  0  0  0  0  0  0  0
  148.2163  143.7404  158.3125 H   0  0  0  0  0  0  0  0  0  0  0  0
  150.5289  141.7293  158.4402 H   0  0  0  0  0  0  0  0  0  0  0  0
  149.5539  143.3516  156.2051 H   0  0  0  0  0  0  0  0  0  0  0  0
  148.2664  141.3883  156.2924 H   0  0  0  0  0  0  0  0  0  0  0  0
  149.4362  141.2607  154.9886 H   0  0  0  0  0  0  0  0  0  0  0  0
  150.7124  140.3343  157.4211 H   0  0  0  0  0  0  0  0  0  0  0  0
  149.1603  139.5554  157.3184 H   0  0  0  0  0  0  0  0  0  0  0  0
  152.5519  138.2401  153.6761 H   0  0  0  0  0  0  0  0  0  0  0  0
  152.2505  136.8597  154.7748 H   0  0  0  0  0  0  0  0  0  0  0  0
  150.2146  137.2328  153.2171 H   0  0  0  0  0  0  0  0  0  0  0  0
  150.4681  144.7387  158.4325 H   0  0  0  0  0  0  0  0  0  0  0  0
  151.7963  144.2443  156.4026 H   0  0  0  0  0  0  0  0  0  0  0  0
  152.7957  143.1057  157.2979 H   0  0  0  0  0  0  0  0  0  0  0  0
  152.8464  144.8226  157.6837 H   0  0  0  0  0  0  0  0  0  0  0  0
  152.6945  141.8089  159.6316 H   0  0  0  0  0  0  0  0  0  0  0  0
  153.2847  142.3561  162.2366 H   0  0  0  0  0  0  0  0  0  0  0  0
  151.9835  144.7623  162.6798 H   0  0  0  0  0  0  0  0  0  0  0  0
  150.9582  142.5080  156.2209 H   0  0  0  0  0  0  0  0  0  0  0  0
  1  2  1  0  0  0  0
  1 20  1  0  0  0  0
  1 21  1  0  0  0  0
  1 22  1  0  0  0  0
  2  3  1  0  0  0  0
  2 13  1  0  0  0  0
  2 23  1  0  0  0  0
  3  4  1  0  0  0  0
  3 24  1  0  0  0  0
  3 39  1  0  0  0  0
  4  5  1  0  0  0  0
  4 25  1  0  0  0  0
  4 26  1  0  0  0  0
  5  6  1  0  0  0  0
  5 27  1  0  0  0  0
  5 28  1  0  0  0  0
  6 11  1  0  0  0  0
  6  7  1  0  0  0  0
  7  8  2  0  0  0  0
  7  9  1  0  0  0  0
  9 10  1  0  0  0  0
  9 29  1  0  0  0  0
  9 30  1  0  0  0  0
 10 11  1  0  0  0  0
 10 31  1  0  0  0  0
 11 12  2  0  0  0  0
 13 14  1  0  0  0  0
 13 15  1  0  0  0  0
 13 32  1  0  0  0  0
 14 33  1  0  0  0  0
 14 34  1  0  0  0  0
 14 35  1  0  0  0  0
 15 19  1  0  0  0  0
 15 16  1  0  0  0  0
 16 17  2  0  0  0  0
 16 36  1  0  0  0  0
 17 18  1  0  0  0  0
 17 37  1  0  0  0  0
 18 19  2  0  0  0  0
 18 38  1  0  0  0  0
M  CHG  1   3   1
M  END
> <s_m_source_file>
AV-unprocessed.smi

> <i_m_source_file_index>
3330

> <i_lp_mmshare_version>
43012

> <i_f3d_flags>
0

> <s_epik_input>
bjFbY0hdW2NIXVtjSF1uMVtDQEBIXShbQ0gzXSlbQ0BIXShbQ0gzXSlbTkhdW0NIMl1bQ0gyXU4yQyg9TylbQ0gyXVtOSF1DMj1P

> <s_epik_cmdline>
J2VwaWtfcHl0aG9uJywgJy1waCcsICc3LjAnLCAnLXRuJywgJzgnLCAnLW1hJywgJzIwMCcsICctbWV0YWxfYmluZGluZycsICctaW1hZScsICc8aW5maWxlLm1hZT4nLCAnLW9tYWUnLCAnPG91dGZpbGUubWFlPic=

> <r_lp_tautomer_probability>
1

> <r_epik_Ionization_Penalty>
0.0124905

> <r_epik_Ionization_Penalty_Charging>
0.0123685

> <r_epik_Ionization_Penalty_Neutral>
0.000122059

> <r_epik_State_Penalty>
0.00957041

> <r_epik_Charging_Adjusted_Penalty>
0.0219389

> <i_epik_Tot_Q>
1

> <i_epik_Tot_abs_Q>
1

> <r_epik_Metal_State_Penalty>
0.0858301

> <b_epik_Metal_Only>
0

> <s_lp_Force_Field>
OPLS_2005

> <r_lp_Energy>
24.6959

> <b_lp_Chiralities_Consistent>
1

> <s_lp_Variant>
AV-unprocessed.smi:3330-2

> <Gold.Version>
5.8.1

> <Gold.Id.Protein>
6NUR|6NUR_protein|mol2

> <Gold.PLP.Fitness>
48.6786

> <Gold.PLP.PLP>
-39.6990

> <Gold.PLP.part.hbond>
-3.9488

> <Gold.PLP.part.metal>
0.0000

> <Gold.PLP.part.buried>
-7.7352

> <Gold.PLP.part.nonpolar>
-30.4819

> <Gold.PLP.part.repulsive>
0.4517

> <Gold.PLP.ligand.clash>
0.0017

> <Gold.PLP.ligand.torsion>
0.9957

> <Gold.PLP.Chemscore.Hbond>
3.6325

> <Gold.PLP.Chemscore.CHOScore>
0.0000

> <Gold.PLP.Chemscore.Metal>
0.0000

> <Gold.Chemscore.Hbonds>
donor molecule, donor type, donor heavy atom, donor atom, acceptor molecule, acceptor atom, score
      L1  H     3    24       P1  8028  2.00
      L1  H    10    31       P1  7948  0.66
      P1  H  7997  8008       L1     8  1.00

> <Gold.PLP.Chemscore.Internal.Correction>
0.0753

> <Gold.Rescore>
     Score         DG    S(hbond)    S(metal)    S(lipo)     H(rot)  DE(clash)    DE(int)     intcor
     15.52     -17.98       2.61        0.00      90.60       2.67       1.62       0.84       ----

> <Gold.Chemscore.Fitness>
15.5234

> <Gold.Chemscore.DG>
-17.9835

> <Gold.Chemscore.ZeroCoef>
-5.4800

> <Gold.Chemscore.Hbond>
2.6136

> <Gold.Chemscore.Metal>
0.0000

> <Gold.Chemscore.Lipo>
90.6017

> <Gold.Chemscore.Internal_Hbond>
0.0000

> <Gold.Chemscore.DEClash>
1.6214

> <Gold.Chemscore.DEInternal>
0.8387

> <Gold.Chemscore.Rot>
2.6666

> <Gold.Chemscore.Internal.Correction>
   9.000000E+99

> <Gold.Chemscore.Hbonds>
donor molecule, donor type, donor heavy atom, donor atom, acceptor molecule, acceptor atom, score
      L1  H     3    24       P1  8028  0.99
      L1  H    10    31       P1  7948  0.07
      P1  H  7997  8008       L1     8  1.00

> <Gold.Chemscore.Hbond.Weighted>
-8.7296

> <Gold.Chemscore.Metal.Weighted>
-0.0000

> <Gold.Chemscore.Lipo.Weighted>
-10.6004

> <Gold.Chemscore.Internal_Hbond.Weighted>
0.0000

> <Gold.Chemscore.DEClash.Weighted>
1.6214

> <Gold.Chemscore.DEInternal.Weighted>
0.8387

> <Gold.Chemscore.Rot.Weighted>
6.8265

> <Gold.Chemscore.Internal.Correction.Weighted>
   9.000000E+99

> <Gold.Protein.RotatedTorsions>
[ 6907 6896 6895 6894 ] final   37.28 input  -60.11 | X-H torsion
[ 7974 7965 7964 7962 ] final  170.53 input  175.53 | X-H torsion
[ 8008 7997 7996 7995 ] final  -54.12 input   59.86 | X-H torsion
[ 10167 10162 10161 10158 ] final  171.02 input  -65.29 | X-H torsion
[ 10718 10713 10712 10709 ] final  121.05 input   66.30 | X-H torsion
[ 10763 10752 10751 10750 ] final  -59.46 input  -60.55 | X-H torsion
[ 11005 11000 10999 10996 ] final  121.03 input  -57.11 | X-H torsion

> <Gold.Protein.ActiveResidues>
 VAL166  LYS551  ARG553  GLY616  TRP617  ASP618  TYR619  PRO620  LYS621  CYS622 
 ASP623  PHE694  ASN695  SER759  ASP760  ASP761  ALA762  ILE779  LEU786  VAL792 
 PHE793  MET794  SER795  GLU796  ALA797  LYS798  CYS799  TRP800  GLU811  SER814 

> <Gold.Protein.RotatedAtoms>
  152.1410  134.9062  160.0553 H   0  0  0  0  0  0  0  0  0  0  0  0  # atno 6907 bound_to 6896
  152.0130  133.3864  159.4235 H   0  0  0  0  0  0  0  0  0  0  0  0  # atno 6908 bound_to 6896
  150.6865  134.3631  159.5003 H   0  0  0  0  0  0  0  0  0  0  0  0  # atno 6909 bound_to 6896
  144.7321  139.9215  143.6420 H   0  0  0  0  0  0  0  0  0  0  0  0  # atno 7974 bound_to 7965
  154.4153  140.1184  156.5264 H   0  0  0  0  0  0  0  0  0  0  0  0  # atno 8008 bound_to 7997
  155.6650  140.3496  155.4777 H   0  0  0  0  0  0  0  0  0  0  0  0  # atno 8009 bound_to 7997
  155.9681  140.1136  157.0826 H   0  0  0  0  0  0  0  0  0  0  0  0  # atno 8010 bound_to 7997
  139.5035  144.3532  151.9901 H   0  0  0  0  0  0  0  0  0  0  0  0  # atno 10167 bound_to 10162
  157.5846  131.1071  150.8120 H   0  0  0  0  0  0  0  0  0  0  0  0  # atno 10718 bound_to 10713
  154.2541  135.6320  153.5251 H   0  0  0  0  0  0  0  0  0  0  0  0  # atno 10763 bound_to 10752
  152.9907  135.5572  154.5775 H   0  0  0  0  0  0  0  0  0  0  0  0  # atno 10764 bound_to 10752
  154.5309  135.2888  155.1155 H   0  0  0  0  0  0  0  0  0  0  0  0  # atno 10765 bound_to 10752
  139.9209  134.9637  156.7897 H   0  0  0  0  0  0  0  0  0  0  0  0  # atno 11005 bound_to 11000
  146.0926  139.3916  143.0396 LP  0  0  0  0  0  0  0  0  0  0  0  0  # atno 17320 bound_to 7965
  145.7690  140.9904  143.1159 LP  0  0  0  0  0  0  0  0  0  0  0  0  # atno 17321 bound_to 7965
  140.2969  144.3691  150.6072 LP  0  0  0  0  0  0  0  0  0  0  0  0  # atno 17342 bound_to 10162
  140.5904  143.2168  151.7264 LP  0  0  0  0  0  0  0  0  0  0  0  0  # atno 17343 bound_to 10162
  156.8558  130.5096  149.5308 LP  0  0  0  0  0  0  0  0  0  0  0  0  # atno 17370 bound_to 10713
  156.0894  130.5884  150.9706 LP  0  0  0  0  0  0  0  0  0  0  0  0  # atno 17371 bound_to 10713
  140.6477  133.9760  155.7739 LP  0  0  0  0  0  0  0  0  0  0  0  0  # atno 17394 bound_to 11000
  141.0729  134.0178  157.3500 LP  0  0  0  0  0  0  0  0  0  0  0  0  # atno 17395 bound_to 11000

$$$$
