AV-unprocessed.smi:2666|AV-procd|sdf|10332|dock6
  -GOLD-   2272014353D 1   1.00000     0.00000
 Structure written by MMmdl.
 43 44  0  0  0  0  0  0  0  0  1 V2000
  148.9872  140.7803  157.2832 O   0  0  0  0  0  0  0  0  0  0  0  0
  149.0611  141.8704  156.7170 C   0  0  0  0  0  0  0  0  0  0  0  0
  149.8768  142.8777  157.0722 N   0  0  0  0  0  0  0  0  0  0  0  0
  150.8517  142.9091  158.1058 C   0  0  0  0  0  0  0  0  0  0  0  0
  151.6475  144.0670  158.2265 C   0  0  0  0  0  0  0  0  0  0  0  0
  152.6355  144.1203  159.2279 C   0  0  0  0  0  0  0  0  0  0  0  0
  152.7958  143.0031  160.0699 C   0  0  0  0  0  0  0  0  0  0  0  0
  152.0533  141.8815  159.9601 N   0  0  0  0  0  0  0  0  0  0  0  0
  151.1063  141.8376  158.9980 C   0  0  0  0  0  0  0  0  0  0  0  0
  148.3097  142.2127  155.6596 N   0  0  0  0  0  0  0  0  0  0  0  0
  147.3209  141.3639  154.9904 C   0  0  2  0  0  0  0  0  0  0  0  0
  148.0256  140.5122  153.9026 C   0  0  0  0  0  0  0  0  0  0  0  0
  147.1532  139.4223  153.2481 C   0  0  0  0  0  0  0  0  0  0  0  0
  147.9388  138.4263  152.6256 O   0  0  0  0  0  0  0  0  0  0  0  0
  146.1578  142.2404  154.4390 C   0  0  0  0  0  0  0  0  0  0  0  0
  146.6483  143.2697  153.3873 C   0  0  0  0  0  0  0  0  0  0  0  0
  145.5087  144.1450  152.8429 C   0  0  0  0  0  0  0  0  0  0  0  0
  144.7753  144.8701  153.9771 C   0  0  0  0  0  0  0  0  0  0  0  0
  144.2547  143.8644  155.0108 C   0  0  0  0  0  0  0  0  0  0  0  0
  145.3895  142.9841  155.5598 C   0  0  0  0  0  0  0  0  0  0  0  0
  149.7616  143.7407  156.5613 H   0  0  0  0  0  0  0  0  0  0  0  0
  151.5032  144.9074  157.5632 H   0  0  0  0  0  0  0  0  0  0  0  0
  153.2564  144.9957  159.3474 H   0  0  0  0  0  0  0  0  0  0  0  0
  153.5439  143.0084  160.8489 H   0  0  0  0  0  0  0  0  0  0  0  0
  150.5662  140.9057  158.9445 H   0  0  0  0  0  0  0  0  0  0  0  0
  148.4438  143.1335  155.2687 H   0  0  0  0  0  0  0  0  0  0  0  0
  146.8891  140.6691  155.7130 H   0  0  0  0  0  0  0  0  0  0  0  0
  148.3399  141.1718  153.0954 H   0  0  0  0  0  0  0  0  0  0  0  0
  148.9407  140.0690  154.2979 H   0  0  0  0  0  0  0  0  0  0  0  0
  146.4865  138.9649  153.9799 H   0  0  0  0  0  0  0  0  0  0  0  0
  146.5224  139.8690  152.4791 H   0  0  0  0  0  0  0  0  0  0  0  0
  148.7930  138.7881  152.4441 H   0  0  0  0  0  0  0  0  0  0  0  0
  145.4504  141.5759  153.9401 H   0  0  0  0  0  0  0  0  0  0  0  0
  147.4153  143.9064  153.8304 H   0  0  0  0  0  0  0  0  0  0  0  0
  147.1189  142.7680  152.5421 H   0  0  0  0  0  0  0  0  0  0  0  0
  145.9061  144.8717  152.1338 H   0  0  0  0  0  0  0  0  0  0  0  0
  144.8042  143.5244  152.2878 H   0  0  0  0  0  0  0  0  0  0  0  0
  145.4509  145.5780  154.4591 H   0  0  0  0  0  0  0  0  0  0  0  0
  143.9477  145.4545  153.5738 H   0  0  0  0  0  0  0  0  0  0  0  0
  143.7673  144.3945  155.8296 H   0  0  0  0  0  0  0  0  0  0  0  0
  143.4912  143.2333  154.5544 H   0  0  0  0  0  0  0  0  0  0  0  0
  144.9492  142.2783  156.2624 H   0  0  0  0  0  0  0  0  0  0  0  0
  146.0824  143.6013  156.1336 H   0  0  0  0  0  0  0  0  0  0  0  0
  1  2  2  0  0  0  0
  2  3  1  0  0  0  0
  2 10  1  0  0  0  0
  3  4  1  0  0  0  0
  3 21  1  0  0  0  0
  4  9  1  0  0  0  0
  4  5  2  0  0  0  0
  5  6  1  0  0  0  0
  5 22  1  0  0  0  0
  6  7  2  0  0  0  0
  6 23  1  0  0  0  0
  7  8  1  0  0  0  0
  7 24  1  0  0  0  0
  8  9  2  0  0  0  0
  9 25  1  0  0  0  0
 10 11  1  0  0  0  0
 10 26  1  0  0  0  0
 11 12  1  0  0  0  0
 11 15  1  0  0  0  0
 11 27  1  0  0  0  0
 12 13  1  0  0  0  0
 12 28  1  0  0  0  0
 12 29  1  0  0  0  0
 13 14  1  0  0  0  0
 13 30  1  0  0  0  0
 13 31  1  0  0  0  0
 14 32  1  0  0  0  0
 15 20  1  0  0  0  0
 15 16  1  0  0  0  0
 15 33  1  0  0  0  0
 16 17  1  0  0  0  0
 16 34  1  0  0  0  0
 16 35  1  0  0  0  0
 17 18  1  0  0  0  0
 17 36  1  0  0  0  0
 17 37  1  0  0  0  0
 18 19  1  0  0  0  0
 18 38  1  0  0  0  0
 18 39  1  0  0  0  0
 19 20  1  0  0  0  0
 19 40  1  0  0  0  0
 19 41  1  0  0  0  0
 20 42  1  0  0  0  0
 20 43  1  0  0  0  0
M  END
> <s_m_source_file>
AV-unprocessed.smi

> <i_m_source_file_index>
2666

> <i_lp_mmshare_version>
43012

> <i_f3d_flags>
0

> <s_epik_input>
W2NIXTFuW2NIXVtjSF1bY0hdYzFbTkhdQyg9TylbTkhdW0NASF0oW0NIMl1bQ0gyXVtPSF0pW0NIXTJbQ0gyXVtDSDJdW0NIMl1bQ0gyXVtDSDJdMg==

> <s_epik_cmdline>
J2VwaWtfcHl0aG9uJywgJy1waCcsICc3LjAnLCAnLXRuJywgJzgnLCAnLW1hJywgJzIwMCcsICctbWV0YWxfYmluZGluZycsICctaW1hZScsICc8aW5maWxlLm1hZT4nLCAnLW9tYWUnLCAnPG91dGZpbGUubWFlPic=

> <r_epik_Ionization_Penalty>
0.00500145

> <r_epik_Ionization_Penalty_Charging>
0

> <r_epik_Ionization_Penalty_Neutral>
0.00500145

> <r_epik_State_Penalty>
0.00360517

> <r_epik_Charging_Adjusted_Penalty>
0.00360517

> <i_epik_Tot_Q>
0

> <i_epik_Tot_abs_Q>
0

> <r_epik_Metal_State_Penalty>
-0

> <b_epik_Metal_Only>
0

> <s_lp_Force_Field>
OPLS_2005

> <r_lp_Energy>
19.5826

> <b_lp_Chiralities_Consistent>
1

> <s_lp_Variant>
AV-unprocessed.smi:2666-1

> <Gold.Version>
5.8.1

> <Gold.Id.Protein>
6NUR|6NUR_protein|mol2

> <Gold.PLP.Fitness>
49.9992

> <Gold.PLP.PLP>
-41.9281

> <Gold.PLP.part.hbond>
-3.7334

> <Gold.PLP.part.metal>
0.0000

> <Gold.PLP.part.buried>
-3.7540

> <Gold.PLP.part.nonpolar>
-33.7178

> <Gold.PLP.part.repulsive>
0.1357

> <Gold.PLP.ligand.clash>
0.0000

> <Gold.PLP.ligand.torsion>
0.4949

> <Gold.PLP.Chemscore.Hbond>
3.0000

> <Gold.PLP.Chemscore.CHOScore>
0.0000

> <Gold.PLP.Chemscore.Metal>
0.0000

> <Gold.Chemscore.Hbonds>
donor molecule, donor type, donor heavy atom, donor atom, acceptor molecule, acceptor atom, score
      L1  H     3    21       P1  8028  1.00
      L1  H    10    26       P1  8028  0.88
      L1  H    14    32       P1  7957  0.75

> <Gold.PLP.Chemscore.Internal.Correction>
0.0608

> <Gold.Rescore>
     Score         DG    S(hbond)    S(metal)    S(lipo)     H(rot)  DE(clash)    DE(int)     intcor
     19.57     -21.39       2.91        0.00     101.62       2.23       0.08       1.74       ----

> <Gold.Chemscore.Fitness>
19.5729

> <Gold.Chemscore.DG>
-21.3930

> <Gold.Chemscore.ZeroCoef>
-5.4800

> <Gold.Chemscore.Hbond>
2.9102

> <Gold.Chemscore.Metal>
0.0000

> <Gold.Chemscore.Lipo>
101.6172

> <Gold.Chemscore.Internal_Hbond>
0.0000

> <Gold.Chemscore.DEClash>
0.0799

> <Gold.Chemscore.DEInternal>
1.7402

> <Gold.Chemscore.Rot>
2.2251

> <Gold.Chemscore.Internal.Correction>
   9.000000E+99

> <Gold.Chemscore.Hbonds>
donor molecule, donor type, donor heavy atom, donor atom, acceptor molecule, acceptor atom, score
      L1  H     3    21       P1  8028  0.94
      L1  H    10    26       P1  8028  0.86
      L1  H    14    32       P1  7957  0.71

> <Gold.Chemscore.Hbond.Weighted>
-9.7200

> <Gold.Chemscore.Metal.Weighted>
-0.0000

> <Gold.Chemscore.Lipo.Weighted>
-11.8892

> <Gold.Chemscore.Internal_Hbond.Weighted>
0.0000

> <Gold.Chemscore.DEClash.Weighted>
0.0799

> <Gold.Chemscore.DEInternal.Weighted>
1.7402

> <Gold.Chemscore.Rot.Weighted>
5.6962

> <Gold.Chemscore.Internal.Correction.Weighted>
   9.000000E+99

> <Gold.Protein.RotatedTorsions>
[ 6907 6896 6895 6894 ] final  -36.08 input  -60.11 | X-H torsion
[ 7974 7965 7964 7962 ] final   71.40 input  175.53 | X-H torsion
[ 8008 7997 7996 7995 ] final  -52.84 input   59.86 | X-H torsion
[ 10167 10162 10161 10158 ] final -118.53 input  -65.29 | X-H torsion
[ 10718 10713 10712 10709 ] final  -69.49 input   66.30 | X-H torsion
[ 10763 10752 10751 10750 ] final  -56.47 input  -60.55 | X-H torsion
[ 11005 11000 10999 10996 ] final  168.17 input  -57.11 | X-H torsion

> <Gold.Protein.ActiveResidues>
 VAL166  LYS551  ARG553  GLY616  TRP617  ASP618  TYR619  PRO620  LYS621  CYS622 
 ASP623  PHE694  ASN695  SER759  ASP760  ASP761  ALA762  ILE779  LEU786  VAL792 
 PHE793  MET794  SER795  GLU796  ALA797  LYS798  CYS799  TRP800  GLU811  SER814 

> <Gold.Protein.RotatedAtoms>
  151.0316  134.9543  159.8113 H   0  0  0  0  0  0  0  0  0  0  0  0  # atno 6907 bound_to 6896
  152.5346  134.2773  159.9004 H   0  0  0  0  0  0  0  0  0  0  0  0  # atno 6908 bound_to 6896
  151.2782  133.4180  159.2659 H   0  0  0  0  0  0  0  0  0  0  0  0  # atno 6909 bound_to 6896
  145.7662  139.2822  143.1347 H   0  0  0  0  0  0  0  0  0  0  0  0  # atno 7974 bound_to 7965
  154.4117  140.1214  156.5056 H   0  0  0  0  0  0  0  0  0  0  0  0  # atno 8008 bound_to 7997
  155.6850  140.3496  155.4851 H   0  0  0  0  0  0  0  0  0  0  0  0  # atno 8009 bound_to 7997
  155.9518  140.1106  157.0960 H   0  0  0  0  0  0  0  0  0  0  0  0  # atno 8010 bound_to 7997
  140.0565  143.5009  152.2054 H   0  0  0  0  0  0  0  0  0  0  0  0  # atno 10167 bound_to 10162
  156.0453  130.4314  150.2156 H   0  0  0  0  0  0  0  0  0  0  0  0  # atno 10718 bound_to 10713
  154.2071  135.6401  153.5104 H   0  0  0  0  0  0  0  0  0  0  0  0  # atno 10763 bound_to 10752
  152.9998  135.5465  154.6254 H   0  0  0  0  0  0  0  0  0  0  0  0  # atno 10764 bound_to 10752
  154.5681  135.2914  155.0827 H   0  0  0  0  0  0  0  0  0  0  0  0  # atno 10765 bound_to 10752
  140.2844  134.7724  157.3786 H   0  0  0  0  0  0  0  0  0  0  0  0  # atno 11005 bound_to 11000
  146.0215  140.8343  142.9921 LP  0  0  0  0  0  0  0  0  0  0  0  0  # atno 17320 bound_to 7965
  144.6821  140.2636  143.7315 LP  0  0  0  0  0  0  0  0  0  0  0  0  # atno 17321 bound_to 7965
  139.5920  144.7553  151.3377 LP  0  0  0  0  0  0  0  0  0  0  0  0  # atno 17342 bound_to 10162
  140.7192  143.7183  150.7716 LP  0  0  0  0  0  0  0  0  0  0  0  0  # atno 17343 bound_to 10162
  157.0246  130.9989  151.3330 LP  0  0  0  0  0  0  0  0  0  0  0  0  # atno 17370 bound_to 10713
  157.5320  130.8064  149.7928 LP  0  0  0  0  0  0  0  0  0  0  0  0  # atno 17371 bound_to 10713
  140.1253  134.5166  155.8150 LP  0  0  0  0  0  0  0  0  0  0  0  0  # atno 17394 bound_to 11000
  141.2157  133.6770  156.6940 LP  0  0  0  0  0  0  0  0  0  0  0  0  # atno 17395 bound_to 11000

$$$$
