AV-unprocessed.smi:2706|AV-procd|sdf|10450|dock1
  -GOLD-   2272014493D 1   1.00000     0.00000
 Structure written by MMmdl.
 44 47  0  0  0  0  0  0  0  0  2 V2000
  151.4509  138.9629  154.9825 C   0  0  0  0  0  0  0  0  0  0  0  0
  150.5707  140.0783  155.3132 N   0  0  0  0  0  0  0  0  0  0  0  0
  151.0219  141.1218  156.2249 C   0  0  0  0  0  0  0  0  0  0  0  0
  149.3274  140.2099  154.6590 C   0  0  0  0  0  0  0  0  0  0  0  0
  148.5950  141.4205  154.6216 C   0  0  0  0  0  0  0  0  0  0  0  0
  147.3629  141.4683  153.9408 C   0  0  0  0  0  0  0  0  0  0  0  0
  146.8718  140.3087  153.3107 C   0  0  0  0  0  0  0  0  0  0  0  0
  147.6225  139.1098  153.3799 C   0  0  0  0  0  0  0  0  0  0  0  0
  147.2380  137.8845  152.7717 N   0  0  0  0  0  0  0  0  0  0  0  0
  146.0004  137.3885  152.5969 C   0  0  0  0  0  0  0  0  0  0  0  0
  144.9589  137.9361  152.9583 O   0  0  0  0  0  0  0  0  0  0  0  0
  146.0387  136.1961  151.9863 N   0  0  0  0  0  0  0  0  0  0  0  0
  144.9064  135.3885  151.6619 C   0  0  2  0  0  0  0  0  0  0  0  0
  144.7878  133.9642  152.1920 C   0  0  2  0  0  0  0  0  0  0  0  0
  145.9013  132.9979  152.6038 C   0  0  1  0  0  0  0  0  0  0  0  0
  145.5615  131.6217  151.9916 C   0  0  0  0  0  0  0  0  0  0  0  0
  145.8272  131.8548  150.4821 C   0  0  0  0  0  0  0  0  0  0  0  0
  146.2803  133.3305  150.4497 C   0  0  2  0  0  0  0  0  0  0  0  0
  147.1059  133.3619  151.7360 C   0  0  0  0  0  0  0  0  0  0  0  0
  145.0450  134.1901  150.7302 C   0  0  2  0  0  0  0  0  0  0  0  0
  148.8060  139.1250  154.0353 N   0  3  0  0  0  0  0  0  0  0  0  0
  151.7550  139.0130  153.9367 H   0  0  0  0  0  0  0  0  0  0  0  0
  150.9475  138.0109  155.1532 H   0  0  0  0  0  0  0  0  0  0  0  0
  152.3532  138.9746  155.5943 H   0  0  0  0  0  0  0  0  0  0  0  0
  151.0786  142.0821  155.7112 H   0  0  0  0  0  0  0  0  0  0  0  0
  152.0119  140.8993  156.6236 H   0  0  0  0  0  0  0  0  0  0  0  0
  150.3377  141.2167  157.0686 H   0  0  0  0  0  0  0  0  0  0  0  0
  148.9603  142.3161  155.1012 H   0  0  0  0  0  0  0  0  0  0  0  0
  146.8006  142.3895  153.8986 H   0  0  0  0  0  0  0  0  0  0  0  0
  145.9349  140.3662  152.7780 H   0  0  0  0  0  0  0  0  0  0  0  0
  147.9983  137.2833  152.4900 H   0  0  0  0  0  0  0  0  0  0  0  0
  146.9405  135.8218  151.7295 H   0  0  0  0  0  0  0  0  0  0  0  0
  143.9594  135.9200  151.5770 H   0  0  0  0  0  0  0  0  0  0  0  0
  143.7867  133.6556  152.4882 H   0  0  0  0  0  0  0  0  0  0  0  0
  146.0804  132.9888  153.6793 H   0  0  0  0  0  0  0  0  0  0  0  0
  146.2183  130.8441  152.3837 H   0  0  0  0  0  0  0  0  0  0  0  0
  144.5322  131.3212  152.1911 H   0  0  0  0  0  0  0  0  0  0  0  0
  146.6167  131.1933  150.1225 H   0  0  0  0  0  0  0  0  0  0  0  0
  144.9406  131.6790  149.8716 H   0  0  0  0  0  0  0  0  0  0  0  0
  146.8076  133.6271  149.5428 H   0  0  0  0  0  0  0  0  0  0  0  0
  147.5738  134.3146  151.9653 H   0  0  0  0  0  0  0  0  0  0  0  0
  147.8965  132.6086  151.7589 H   0  0  0  0  0  0  0  0  0  0  0  0
  144.2173  134.0334  150.0406 H   0  0  0  0  0  0  0  0  0  0  0  0
  149.3450  138.2601  154.0715 H   0  0  0  0  0  0  0  0  0  0  0  0
  1  2  1  0  0  0  0
  1 22  1  0  0  0  0
  1 23  1  0  0  0  0
  1 24  1  0  0  0  0
  2  3  1  0  0  0  0
  2  4  1  0  0  0  0
  3 25  1  0  0  0  0
  3 26  1  0  0  0  0
  3 27  1  0  0  0  0
  4 21  1  0  0  0  0
  4  5  2  0  0  0  0
  5  6  1  0  0  0  0
  5 28  1  0  0  0  0
  6  7  2  0  0  0  0
  6 29  1  0  0  0  0
  7  8  1  0  0  0  0
  7 30  1  0  0  0  0
  8  9  1  0  0  0  0
  8 21  2  0  0  0  0
  9 10  1  0  0  0  0
  9 31  1  0  0  0  0
 10 11  2  0  0  0  0
 10 12  1  0  0  0  0
 12 13  1  0  0  0  0
 12 32  1  0  0  0  0
 13 20  1  0  0  0  0
 13 14  1  0  0  0  0
 13 33  1  0  0  0  0
 14 20  1  0  0  0  0
 14 15  1  0  0  0  0
 14 34  1  0  0  0  0
 15 19  1  0  0  0  0
 15 16  1  0  0  0  0
 15 35  1  0  0  0  0
 16 17  1  0  0  0  0
 16 36  1  0  0  0  0
 16 37  1  0  0  0  0
 17 18  1  0  0  0  0
 17 38  1  0  0  0  0
 17 39  1  0  0  0  0
 18 19  1  0  0  0  0
 18 20  1  0  0  0  0
 18 40  1  0  0  0  0
 19 41  1  0  0  0  0
 19 42  1  0  0  0  0
 20 43  1  0  0  0  0
 21 44  1  0  0  0  0
M  CHG  1  21   1
M  END
> <s_m_source_file>
AV-unprocessed.smi

> <i_m_source_file_index>
2706

> <i_lp_mmshare_version>
43012

> <i_f3d_flags>
0

> <s_epik_input>
W0NIM11OKFtDSDNdKWMxW2NIXVtjSF1bY0hdYyhuMSlbTkhdQyg9TylbTkhdW0NASF0yW0NAQEhdM1tDQEBIXShbQ0gyXTQpW0NIMl1bQ0gyXVtDQEBIXTRbQ0BIXTIz

> <s_epik_cmdline>
J2VwaWtfcHl0aG9uJywgJy1waCcsICc3LjAnLCAnLXRuJywgJzgnLCAnLW1hJywgJzIwMCcsICctbWV0YWxfYmluZGluZycsICctaW1hZScsICc8aW5maWxlLm1hZT4nLCAnLW9tYWUnLCAnPG91dGZpbGUubWFlPic=

> <r_lp_tautomer_probability>
0.999994

> <r_epik_Ionization_Penalty>
1.8105

> <r_epik_Ionization_Penalty_Charging>
1.79227

> <r_epik_Ionization_Penalty_Neutral>
0.0182286

> <r_epik_State_Penalty>
1.90588

> <r_epik_Charging_Adjusted_Penalty>
3.69815

> <i_epik_Tot_Q>
1

> <i_epik_Tot_abs_Q>
1

> <r_epik_Metal_State_Penalty>
1.93501

> <b_epik_Metal_Only>
0

> <s_lp_Force_Field>
OPLS_2005

> <r_lp_Energy>
91.4336

> <b_lp_Chiralities_Consistent>
1

> <s_lp_Variant>
AV-unprocessed.smi:2706-7

> <Gold.Version>
5.8.1

> <Gold.Id.Protein>
6NUR|6NUR_protein|mol2

> <Gold.PLP.Fitness>
45.8855

> <Gold.PLP.PLP>
-41.0924

> <Gold.PLP.part.hbond>
-2.9765

> <Gold.PLP.part.metal>
0.0000

> <Gold.PLP.part.buried>
-4.1097

> <Gold.PLP.part.nonpolar>
-37.4951

> <Gold.PLP.part.repulsive>
2.2544

> <Gold.PLP.ligand.clash>
0.0000

> <Gold.PLP.ligand.torsion>
0.4095

> <Gold.PLP.Chemscore.Hbond>
1.8480

> <Gold.PLP.Chemscore.CHOScore>
0.0000

> <Gold.PLP.Chemscore.Metal>
0.0000

> <Gold.Chemscore.Hbonds>
donor molecule, donor type, donor heavy atom, donor atom, acceptor molecule, acceptor atom, score
      L1  H     9    31       P1  7948  1.00
      L1  H    12    32       P1  7948  0.86

> <Gold.PLP.Chemscore.Internal.Correction>
0.0682

> <Gold.Rescore>
     Score         DG    S(hbond)    S(metal)    S(lipo)     H(rot)  DE(clash)    DE(int)     intcor
     17.46     -19.18       1.91        0.00      84.36       1.00       1.37       0.35       ----

> <Gold.Chemscore.Fitness>
17.4591

> <Gold.Chemscore.DG>
-19.1838

> <Gold.Chemscore.ZeroCoef>
-5.4800

> <Gold.Chemscore.Hbond>
1.9144

> <Gold.Chemscore.Metal>
0.0000

> <Gold.Chemscore.Lipo>
84.3572

> <Gold.Chemscore.Internal_Hbond>
0.0000

> <Gold.Chemscore.DEClash>
1.3697

> <Gold.Chemscore.DEInternal>
0.3550

> <Gold.Chemscore.Rot>
1.0000

> <Gold.Chemscore.Internal.Correction>
   9.000000E+99

> <Gold.Chemscore.Hbonds>
donor molecule, donor type, donor heavy atom, donor atom, acceptor molecule, acceptor atom, score
      L1  H     9    31       P1  7948  0.94
      L1  H    12    32       P1  7948  0.79

> <Gold.Chemscore.Hbond.Weighted>
-6.3940

> <Gold.Chemscore.Metal.Weighted>
-0.0000

> <Gold.Chemscore.Lipo.Weighted>
-9.8698

> <Gold.Chemscore.Internal_Hbond.Weighted>
0.0000

> <Gold.Chemscore.DEClash.Weighted>
1.3697

> <Gold.Chemscore.DEInternal.Weighted>
0.3550

> <Gold.Chemscore.Rot.Weighted>
2.5600

> <Gold.Chemscore.Internal.Correction.Weighted>
   9.000000E+99

> <Gold.Protein.RotatedTorsions>
[ 6907 6896 6895 6894 ] final   74.04 input  -60.11 | X-H torsion
[ 7974 7965 7964 7962 ] final  -45.56 input  175.53 | X-H torsion
[ 8008 7997 7996 7995 ] final  123.24 input   59.86 | X-H torsion
[ 10167 10162 10161 10158 ] final  -21.66 input  -65.29 | X-H torsion
[ 10718 10713 10712 10709 ] final   15.77 input   66.30 | X-H torsion
[ 10763 10752 10751 10750 ] final    5.71 input  -60.55 | X-H torsion
[ 11005 11000 10999 10996 ] final  106.20 input  -57.11 | X-H torsion

> <Gold.Protein.ActiveResidues>
 VAL166  LYS551  ARG553  GLY616  TRP617  ASP618  TYR619  PRO620  LYS621  CYS622 
 ASP623  PHE694  ASN695  SER759  ASP760  ASP761  ALA762  ILE779  LEU786  VAL792 
 PHE793  MET794  SER795  GLU796  ALA797  LYS798  CYS799  TRP800  GLU811  SER814 

> <Gold.Protein.RotatedAtoms>
  152.4955  134.4331  159.9518 H   0  0  0  0  0  0  0  0  0  0  0  0  # atno 6907 bound_to 6896
  151.4311  133.3664  159.2776 H   0  0  0  0  0  0  0  0  0  0  0  0  # atno 6908 bound_to 6896
  150.9154  134.8594  159.7513 H   0  0  0  0  0  0  0  0  0  0  0  0  # atno 6909 bound_to 6896
  145.9808  140.7285  142.9364 H   0  0  0  0  0  0  0  0  0  0  0  0  # atno 7974 bound_to 7965
  156.2758  140.2767  156.1595 H   0  0  0  0  0  0  0  0  0  0  0  0  # atno 8008 bound_to 7997
  155.0768  140.0387  157.2644 H   0  0  0  0  0  0  0  0  0  0  0  0  # atno 8009 bound_to 7997
  154.6996  140.2646  155.6738 H   0  0  0  0  0  0  0  0  0  0  0  0  # atno 8010 bound_to 7997
  140.7283  143.4607  151.0384 H   0  0  0  0  0  0  0  0  0  0  0  0  # atno 10167 bound_to 10162
  157.0583  130.6298  149.5781 H   0  0  0  0  0  0  0  0  0  0  0  0  # atno 10718 bound_to 10713
  153.2562  135.6918  153.7627 H   0  0  0  0  0  0  0  0  0  0  0  0  # atno 10763 bound_to 10752
  153.6703  135.3345  155.3152 H   0  0  0  0  0  0  0  0  0  0  0  0  # atno 10764 bound_to 10752
  154.8413  135.4498  154.1536 H   0  0  0  0  0  0  0  0  0  0  0  0  # atno 10765 bound_to 10752
  139.8811  134.9361  156.5630 H   0  0  0  0  0  0  0  0  0  0  0  0  # atno 11005 bound_to 11000
  144.6861  140.2905  143.7278 LP  0  0  0  0  0  0  0  0  0  0  0  0  # atno 17320 bound_to 7965
  145.7772  139.1878  143.2178 LP  0  0  0  0  0  0  0  0  0  0  0  0  # atno 17321 bound_to 7965
  139.8291  143.7716  152.3179 LP  0  0  0  0  0  0  0  0  0  0  0  0  # atno 17342 bound_to 10162
  139.7825  144.7439  151.0068 LP  0  0  0  0  0  0  0  0  0  0  0  0  # atno 17343 bound_to 10162
  155.9986  130.5060  150.7577 LP  0  0  0  0  0  0  0  0  0  0  0  0  # atno 17370 bound_to 10713
  157.4975  131.0916  151.0354 LP  0  0  0  0  0  0  0  0  0  0  0  0  # atno 17371 bound_to 10713
  140.8155  133.8395  155.8848 LP  0  0  0  0  0  0  0  0  0  0  0  0  # atno 17394 bound_to 11000
  140.9466  134.1832  157.4758 LP  0  0  0  0  0  0  0  0  0  0  0  0  # atno 17395 bound_to 11000

$$$$
