#       Name:                AV-unprocessed.smi:263
#       Creating user name   scv26
#       Creation time:       Thu Mar 26 21:20:09 2020


#       File generated by GOLD software.
#

@<TRIPOS>MOLECULE
AV-unprocessed.smi:263
    67    71     1
SMALL
NO_CHARGES


@<TRIPOS>ATOM
      1 ****        -4.3963   1.5367  -0.6536 O.3            1 S1                 0.0000
      2 ****        -4.7630   0.8006   0.5005 C.3            1 S1                 0.0000
      3 ****        -4.2114  -0.6387   0.3437 C.3            1 S1                 0.0000
      4 ****        -2.7594  -0.7161   0.2945 N.pl3          1 S1                 0.0000
      5 ****        -1.9088  -0.9175   1.3580 C.2            1 S1                 0.0000
      6 ****        -0.6393  -0.9458   1.0578 N.2            1 S1                 0.0000
      7 ****        -0.6117  -0.7648  -0.3202 C.ar           1 S1                 0.0000
      8 ****         0.4283  -0.6911  -1.2895 C.ar           1 S1                 0.0000
      9 ****         1.7399  -0.8262  -0.9685 N.3            1 S1                 0.0000
     10 ****         2.0991  -2.1310  -0.4172 C.3            1 S1                 0.0000
     11 ****         3.4570  -2.0698   0.3034 C.3            1 S1                 0.0000
     12 ****         4.5684  -1.4759  -0.5945 C.3            1 S1                 0.0000
     13 ****         4.8050  -2.3989  -1.6428 O.3            1 S1                 0.0000
     14 ****         5.9163  -1.3259   0.1498 C.3            1 S1                 0.0000
     15 ****         5.9162  -0.1740   1.1682 C.3            1 S1                 0.0000
     16 ****         5.5048   1.1481   0.5066 C.3            1 S1                 0.0000
     17 ****         4.1368   1.0220  -0.1789 C.3            1 S1                 0.0000
     18 ****         4.1146  -0.1247  -1.2143 C.3            1 S1                 0.0000
     19 ****         2.7273  -0.2469  -1.8814 C.3            1 S1                 0.0000
     20 ****         0.0630  -0.4803  -2.5828 N.ar           1 S1                 0.0000
     21 ****        -1.2272  -0.3622  -2.9097 C.ar           1 S1                 0.0000
     22 ****        -2.2980  -0.4193  -2.1158 N.ar           1 S1                 0.0000
     23 ****        -1.9384  -0.6176  -0.8153 C.ar           1 S1                 0.0000
     24 ****        -4.1905   1.5260   1.7378 C.3            1 S1                 0.0000
     25 ****        -4.8984   2.8669   2.0013 C.3            1 S1                 0.0000
     26 ****        -6.3015   2.6656   2.1191 O.3            1 S1                 0.0000
     27 ****        -6.8848   2.1641   0.9227 C.3            1 S1                 0.0000
     28 ****        -6.3020   0.7779   0.5950 C.3            1 S1                 0.0000
     29 ****        -4.7062   1.0746  -1.4175 H              1 S1                 0.0000
     30 ****        -4.5498  -1.2583   1.1754 H              1 S1                 0.0000
     31 ****        -4.6103  -1.1031  -0.5594 H              1 S1                 0.0000
     32 ****        -2.2618  -1.0358   2.3722 H              1 S1                 0.0000
     33 ****         1.3427  -2.4934   0.2778 H              1 S1                 0.0000
     34 ****         2.1399  -2.8543  -1.2326 H              1 S1                 0.0000
     35 ****         3.3387  -1.4661   1.2029 H              1 S1                 0.0000
     36 ****         3.7371  -3.0664   0.6469 H              1 S1                 0.0000
     37 ****         5.4725  -2.0444  -2.2099 H              1 S1                 0.0000
     38 ****         6.1796  -2.2599   0.6482 H              1 S1                 0.0000
     39 ****         6.7110  -1.1372  -0.5741 H              1 S1                 0.0000
     40 ****         5.2413  -0.4004   1.9937 H              1 S1                 0.0000
     41 ****         6.9091  -0.0724   1.6072 H              1 S1                 0.0000
     42 ****         5.4738   1.9425   1.2528 H              1 S1                 0.0000
     43 ****         6.2572   1.4417  -0.2265 H              1 S1                 0.0000
     44 ****         3.3688   0.8629   0.5786 H              1 S1                 0.0000
     45 ****         3.8888   1.9650  -0.6669 H              1 S1                 0.0000
     46 ****         4.8280   0.1487  -1.9934 H              1 S1                 0.0000
     47 ****         2.7987  -0.8785  -2.7682 H              1 S1                 0.0000
     48 ****         2.3976   0.7363  -2.2203 H              1 S1                 0.0000
     49 ****        -1.4303  -0.1986  -3.9577 H              1 S1                 0.0000
     50 ****        -4.3116   0.8903   2.6158 H              1 S1                 0.0000
     51 ****        -3.1190   1.6970   1.6272 H              1 S1                 0.0000
     52 ****        -4.5287   3.3060   2.9281 H              1 S1                 0.0000
     53 ****        -4.6873   3.5847   1.2072 H              1 S1                 0.0000
     54 ****        -7.9632   2.0897   1.0637 H              1 S1                 0.0000
     55 ****        -6.7228   2.8646   0.1020 H              1 S1                 0.0000
     56 ****        -6.7380   0.3975  -0.3296 H              1 S1                 0.0000
     57 ****        -6.6046   0.0850   1.3814 H              1 S1                 0.0000
     58 ****        -3.4010   1.6254  -0.6943 LP             1 S1                 0.0000
     59 ****        -4.8108   2.4461  -0.6188 LP             1 S1                 0.0000
     60 ****         0.1361  -1.0694   1.6771 LP             1 S1                 0.0000
     61 ****         1.8138  -0.1921  -0.1988 LP             1 S1                 0.0000
     62 ****         3.9627  -2.5425  -2.1622 LP             1 S1                 0.0000
     63 ****         5.1142  -3.2701  -1.2616 LP             1 S1                 0.0000
     64 ****         0.7640  -0.4133  -3.2928 LP             1 S1                 0.0000
     65 ****        -3.2419  -0.3284  -2.4332 LP             1 S1                 0.0000
     66 ****        -6.7326   3.5395   2.3437 LP             1 S1                 0.0000
     67 ****        -6.4703   2.0114   2.8564 LP             1 S1                 0.0000
@<TRIPOS>BOND
    1    1    2 1     
    2    1   29 1     
    3    2   28 1     
    4    2    3 1     
    5    2   24 1     
    6    3    4 1     
    7    3   30 1     
    8    3   31 1     
    9    4   23 1     
   10    4    5 1     
   11    5    6 2     
   12    5   32 1     
   13    6    7 1     
   14    7   23 ar    
   15    7    8 ar    
   16    8    9 1     
   17    8   20 ar    
   18    9   19 1     
   19    9   10 1     
   20   10   11 1     
   21   10   33 1     
   22   10   34 1     
   23   11   12 1     
   24   11   35 1     
   25   11   36 1     
   26   12   18 1     
   27   12   13 1     
   28   12   14 1     
   29   13   37 1     
   30   14   15 1     
   31   14   38 1     
   32   14   39 1     
   33   15   16 1     
   34   15   40 1     
   35   15   41 1     
   36   16   17 1     
   37   16   42 1     
   38   16   43 1     
   39   17   18 1     
   40   17   44 1     
   41   17   45 1     
   42   18   19 1     
   43   18   46 1     
   44   19   47 1     
   45   19   48 1     
   46   20   21 ar    
   47   21   22 ar    
   48   21   49 1     
   49   22   23 ar    
   50   24   25 1     
   51   24   50 1     
   52   24   51 1     
   53   25   26 1     
   54   25   52 1     
   55   25   53 1     
   56   26   27 1     
   57   27   28 1     
   58   27   54 1     
   59   27   55 1     
   60   28   56 1     
   61   28   57 1     
   62    1   58 1     
   63    1   59 1     
   64    6   60 1     
   65    9   61 1     
   66   13   62 1     
   67   13   63 1     
   68   20   64 1     
   69   22   65 1     
   70   26   66 1     
   71   26   67 1     
@<TRIPOS>SUBSTRUCTURE
      1 S1             1
@<TRIPOS>SET
LONE_PAIRS      STATIC     ATOMS    <user>   **** ""
10 58 59 60 61 62 63 64 65 66 67
DONOR_HYDROGENS      STATIC     ATOMS    <user>   **** ""
2 29 37
ATOM$BLUE        STATIC     ATOMS    COLORGROUP SYSTEM
10 58 59 60 61 62 63 64 65 66 67
ATOM$RED        STATIC     ATOMS    COLORGROUP SYSTEM
2 29 37
