#       Name:                AV-unprocessed.smi:72
#       Creating user name   scv26
#       Creation time:       Thu Mar 26 17:04:47 2020


#       File generated by GOLD software.
#

@<TRIPOS>MOLECULE
AV-unprocessed.smi:72
    41    42     1
SMALL
NO_CHARGES


@<TRIPOS>ATOM
      1 ****        -4.0201   2.6329   2.1455 N.2            1 S1                 0.0000
      2 ****        -3.0447   2.1902   1.4812 C.2            1 S1                 0.0000
      3 ****        -1.7602   1.9988   2.1172 N.2            1 S1                 0.0000
      4 ****        -0.7964   1.5096   1.3993 C.2            1 S1                 0.0000
      5 ****        -0.9875   1.1347   0.0020 N.am           1 S1                 0.0000
      6 ****         0.1348   0.5684  -0.8568 C.3            1 S1                 0.0000
      7 ****         1.3345   0.5460  -0.1392 O.3            1 S1                 0.0000
      8 ****         1.5316  -0.7519   0.4014 C.3            1 S1                 0.0000
      9 ****         2.9952  -0.9501   0.8344 C.3            1 S1                 0.0000
     10 ****         3.8670  -1.0857  -0.2691 O.3            1 S1                 0.0000
     11 ****         0.9830  -1.6957  -0.6711 C.3            1 S1                 0.0000
     12 ****         0.5017  -2.8846  -0.0762 O.3            1 S1                 0.0000
     13 ****        -0.1661  -0.8913  -1.2791 C.3            1 S1                 0.0000
     14 ****        -0.1685  -1.0336  -2.6849 O.3            1 S1                 0.0000
     15 ****        -2.2470   1.3873  -0.6072 C.2            1 S1                 0.0000
     16 ****        -2.3751   1.1260  -1.8038 O.2            1 S1                 0.0000
     17 ****        -3.2529   1.9065   0.1503 N.pl3          1 S1                -1.0000
     18 ****         0.2253   1.2698  -1.6883 H              1 S1                 0.0000
     19 ****         0.9034  -0.8230   1.2909 H              1 S1                 0.0000
     20 ****         1.7369  -1.9251  -1.4249 H              1 S1                 0.0000
     21 ****        -1.1295  -1.2073  -0.8748 H              1 S1                 0.0000
     22 ****        -4.8559   2.7223   1.5859 H              1 S1                 0.0000
     23 ****         0.2047   1.3560   1.8010 H              1 S1                 0.0000
     24 ****         3.3239  -0.1193   1.4592 H              1 S1                 0.0000
     25 ****         3.0784  -1.8546   1.4370 H              1 S1                 0.0000
     26 ****         4.7446  -1.2171   0.0556 H              1 S1                 0.0000
     27 ****         0.1036  -3.4130  -0.7511 H              1 S1                 0.0000
     28 ****        -0.8632  -0.4951  -3.0337 H              1 S1                 0.0000
     29 ****        -3.9719   2.8687   3.1161 LP             1 S1                 0.0000
     30 ****        -1.6194   2.2356   3.0785 LP             1 S1                 0.0000
     31 ****         1.2925   1.2146   0.6032 LP             1 S1                 0.0000
     32 ****         2.0934   0.7728  -0.7496 LP             1 S1                 0.0000
     33 ****         3.8348  -0.2571  -0.8280 LP             1 S1                 0.0000
     34 ****         3.5909  -1.8717  -0.8223 LP             1 S1                 0.0000
     35 ****        -0.1770  -2.6620   0.6237 LP             1 S1                 0.0000
     36 ****         1.2600  -3.3848   0.3419 LP             1 S1                 0.0000
     37 ****        -0.3267  -1.9905  -2.9284 LP             1 S1                 0.0000
     38 ****         0.7105  -0.7359  -3.0572 LP             1 S1                 0.0000
     39 ****        -1.6056   0.7474  -2.3181 LP             1 S1                 0.0000
     40 ****        -3.2487   1.2924  -2.2612 LP             1 S1                 0.0000
     41 ****        -4.1468   2.0824  -0.2622 LP             1 S1                 0.0000
@<TRIPOS>BOND
    1    1    2 2     
    2    1   22 1     
    3    2   17 1     
    4    2    3 1     
    5    3    4 2     
    6    4    5 1     
    7    4   23 1     
    8    5    6 1     
    9    5   15 am    
   10    6   18 1     
   11    6   13 1     
   12    6    7 1     
   13    7    8 1     
   14    8   19 1     
   15    8    9 1     
   16    8   11 1     
   17    9   10 1     
   18    9   24 1     
   19    9   25 1     
   20   10   26 1     
   21   11   20 1     
   22   11   12 1     
   23   11   13 1     
   24   12   27 1     
   25   13   21 1     
   26   13   14 1     
   27   14   28 1     
   28   15   16 2     
   29   15   17 1     
   30    1   29 1     
   31    3   30 1     
   32    7   31 1     
   33    7   32 1     
   34   10   33 1     
   35   10   34 1     
   36   12   35 1     
   37   12   36 1     
   38   14   37 1     
   39   14   38 1     
   40   16   39 1     
   41   16   40 1     
   42   17   41 1     
@<TRIPOS>SUBSTRUCTURE
      1 S1             1
@<TRIPOS>SET
LONE_PAIRS      STATIC     ATOMS    <user>   **** ""
13 29 30 31 32 33 34 35 36 37 38 39 40 41
DONOR_HYDROGENS      STATIC     ATOMS    <user>   **** ""
4 22 26 27 28
ATOM$BLUE        STATIC     ATOMS    COLORGROUP SYSTEM
13 29 30 31 32 33 34 35 36 37 38 39 40 41
ATOM$RED        STATIC     ATOMS    COLORGROUP SYSTEM
4 22 26 27 28
