AV-unprocessed.smi:3230|AV-procd|sdf|12329|dock10
  -GOLD-   2272018183D 1   1.00000     0.00000
 Structure written by MMmdl.
 40 40  0  0  0  0  0  0  0  0  1 V2000
  144.8089  134.7147  150.7670 C   0  0  0  0  0  0  0  0  0  0  0  0
  145.5408  136.0653  150.7807 C   0  0  0  0  0  0  0  0  0  0  0  0
  145.4618  136.8251  152.1305 C   0  0  0  0  0  0  0  0  0  0  0  0
  143.9995  136.9528  152.6285 C   0  0  0  0  0  0  0  0  0  0  0  0
  143.4415  135.6921  153.3063 C   0  0  0  0  0  0  0  0  0  0  0  0
  146.1894  138.1985  152.0822 C   0  0  2  0  0  0  0  0  0  0  0  0
  147.4249  138.0534  151.4080 O   0  0  0  0  0  0  0  0  0  0  0  0
  146.4571  138.8018  153.4802 C   0  0  0  0  0  0  0  0  0  0  0  0
  147.7180  139.5350  153.5320 N   0  0  0  0  0  0  0  0  0  0  0  0
  148.2302  140.1168  154.6278 C   0  0  0  0  0  0  0  0  0  0  0  0
  147.6701  140.1070  155.7243 O   0  0  0  0  0  0  0  0  0  0  0  0
  149.5800  140.8171  154.4646 C   0  0  0  0  0  0  0  0  0  0  0  0
  150.5796  140.2447  155.4323 C   0  0  0  0  0  0  0  0  0  0  0  0
  150.4119  139.9777  156.8197 C   0  0  0  0  0  0  0  0  0  0  0  0
  151.6206  139.4684  157.1995 C   0  0  0  0  0  0  0  0  0  0  0  0
  152.1506  138.9723  158.5011 C   0  0  0  0  0  0  0  0  0  0  0  0
  152.4670  139.4279  156.1384 O   0  0  0  0  0  0  0  0  0  0  0  0
  151.7962  139.9277  155.0167 N   0  0  0  0  0  0  0  0  0  0  0  0
  144.9914  134.1914  149.8282 H   0  0  0  0  0  0  0  0  0  0  0  0
  143.7302  134.8306  150.8648 H   0  0  0  0  0  0  0  0  0  0  0  0
  145.1550  134.0701  151.5753 H   0  0  0  0  0  0  0  0  0  0  0  0
  146.5813  135.8623  150.5311 H   0  0  0  0  0  0  0  0  0  0  0  0
  145.1592  136.6930  149.9745 H   0  0  0  0  0  0  0  0  0  0  0  0
  145.9917  136.2181  152.8662 H   0  0  0  0  0  0  0  0  0  0  0  0
  143.9028  137.8040  153.3032 H   0  0  0  0  0  0  0  0  0  0  0  0
  143.3451  137.1711  151.7861 H   0  0  0  0  0  0  0  0  0  0  0  0
  142.3774  135.8088  153.5120 H   0  0  0  0  0  0  0  0  0  0  0  0
  143.9307  135.4873  154.2580 H   0  0  0  0  0  0  0  0  0  0  0  0
  143.5597  134.8158  152.6686 H   0  0  0  0  0  0  0  0  0  0  0  0
  145.5789  138.8987  151.5142 H   0  0  0  0  0  0  0  0  0  0  0  0
  147.9372  137.4011  151.8609 H   0  0  0  0  0  0  0  0  0  0  0  0
  145.6530  139.4865  153.7549 H   0  0  0  0  0  0  0  0  0  0  0  0
  146.4706  138.0283  154.2486 H   0  0  0  0  0  0  0  0  0  0  0  0
  148.2437  139.5951  152.6718 H   0  0  0  0  0  0  0  0  0  0  0  0
  149.9331  140.7207  153.4366 H   0  0  0  0  0  0  0  0  0  0  0  0
  149.4469  141.8842  154.6455 H   0  0  0  0  0  0  0  0  0  0  0  0
  149.5390  140.1318  157.4365 H   0  0  0  0  0  0  0  0  0  0  0  0
  151.4735  139.2229  159.3177 H   0  0  0  0  0  0  0  0  0  0  0  0
  153.1218  139.4169  158.7193 H   0  0  0  0  0  0  0  0  0  0  0  0
  152.2701  137.8889  158.4806 H   0  0  0  0  0  0  0  0  0  0  0  0
  1  2  1  0  0  0  0
  1 19  1  0  0  0  0
  1 20  1  0  0  0  0
  1 21  1  0  0  0  0
  2  3  1  0  0  0  0
  2 22  1  0  0  0  0
  2 23  1  0  0  0  0
  3  4  1  0  0  0  0
  3  6  1  0  0  0  0
  3 24  1  0  0  0  0
  4  5  1  0  0  0  0
  4 25  1  0  0  0  0
  4 26  1  0  0  0  0
  5 27  1  0  0  0  0
  5 28  1  0  0  0  0
  5 29  1  0  0  0  0
  6  7  1  0  0  0  0
  6  8  1  0  0  0  0
  6 30  1  0  0  0  0
  7 31  1  0  0  0  0
  8  9  1  0  0  0  0
  8 32  1  0  0  0  0
  8 33  1  0  0  0  0
  9 10  1  0  0  0  0
  9 34  1  0  0  0  0
 10 11  2  0  0  0  0
 10 12  1  0  0  0  0
 12 13  1  0  0  0  0
 12 35  1  0  0  0  0
 12 36  1  0  0  0  0
 13 18  2  0  0  0  0
 13 14  1  0  0  0  0
 14 15  2  0  0  0  0
 14 37  1  0  0  0  0
 15 16  1  0  0  0  0
 15 17  1  0  0  0  0
 16 38  1  0  0  0  0
 16 39  1  0  0  0  0
 16 40  1  0  0  0  0
 17 18  1  0  0  0  0
M  END
> <s_m_source_file>
AV-unprocessed.smi

> <i_m_source_file_index>
3230

> <i_lp_mmshare_version>
43012

> <i_f3d_flags>
0

> <s_epik_input>
W0NIM11bQ0gyXVtDSF0oW0NIMl1bQ0gzXSlbQ0BIXShbT0hdKVtDSDJdW05IXUMoPU8pW0NIMl1jMVtjSF1jKFtDSDNdKW9uMQ==

> <s_epik_cmdline>
J2VwaWtfcHl0aG9uJywgJy1waCcsICc3LjAnLCAnLXRuJywgJzgnLCAnLW1hJywgJzIwMCcsICctbWV0YWxfYmluZGluZycsICctaW1hZScsICc8aW5maWxlLm1hZT4nLCAnLW9tYWUnLCAnPG91dGZpbGUubWFlPic=

> <r_lp_tautomer_probability>
1

> <r_epik_Ionization_Penalty>
2.40054e-07

> <r_epik_Ionization_Penalty_Charging>
0

> <r_epik_Ionization_Penalty_Neutral>
2.40054e-07

> <r_epik_State_Penalty>
-0

> <r_epik_Charging_Adjusted_Penalty>
0

> <i_epik_Tot_Q>
0

> <i_epik_Tot_abs_Q>
0

> <r_epik_Metal_State_Penalty>
-0

> <b_epik_Metal_Only>
0

> <s_lp_Force_Field>
OPLS_2005

> <r_lp_Energy>
9.05643

> <b_lp_Chiralities_Consistent>
1

> <s_lp_Variant>
AV-unprocessed.smi:3230-1

> <Gold.Version>
5.8.1

> <Gold.Id.Protein>
6NUR|6NUR_protein|mol2

> <Gold.PLP.Fitness>
44.2828

> <Gold.PLP.PLP>
-32.3267

> <Gold.PLP.part.hbond>
-5.4289

> <Gold.PLP.part.metal>
0.0000

> <Gold.PLP.part.buried>
-2.8647

> <Gold.PLP.part.nonpolar>
-25.2389

> <Gold.PLP.part.repulsive>
0.0896

> <Gold.PLP.ligand.clash>
0.0000

> <Gold.PLP.ligand.torsion>
1.0981

> <Gold.PLP.Chemscore.Hbond>
4.6640

> <Gold.PLP.Chemscore.CHOScore>
0.0000

> <Gold.PLP.Chemscore.Metal>
0.0000

> <Gold.Chemscore.Hbonds>
donor molecule, donor type, donor heavy atom, donor atom, acceptor molecule, acceptor atom, score
      L1  H     7    31       P1  7948  0.97
      L1  H     9    34       P1  7957  0.89
      P1  H  7954  7966       L1     7  0.80
      P1  H  7989  7998       L1    18  0.68
      P1  H  7997  8008       L1    17  1.00

> <Gold.PLP.Chemscore.Internal.Correction>
0.1603

> <Gold.Rescore>
     Score         DG    S(hbond)    S(metal)    S(lipo)     H(rot)  DE(clash)    DE(int)     intcor
     16.02     -18.72       3.46        0.00      70.66       2.57       0.46       2.24       ----

> <Gold.Chemscore.Fitness>
16.0199

> <Gold.Chemscore.DG>
-18.7202

> <Gold.Chemscore.ZeroCoef>
-5.4800

> <Gold.Chemscore.Hbond>
3.4599

> <Gold.Chemscore.Metal>
0.0000

> <Gold.Chemscore.Lipo>
70.6602

> <Gold.Chemscore.Internal_Hbond>
0.0000

> <Gold.Chemscore.DEClash>
0.4614

> <Gold.Chemscore.DEInternal>
2.2389

> <Gold.Chemscore.Rot>
2.5715

> <Gold.Chemscore.Internal.Correction>
   9.000000E+99

> <Gold.Chemscore.Hbonds>
donor molecule, donor type, donor heavy atom, donor atom, acceptor molecule, acceptor atom, score
      L1  H     7    31       P1  7948  0.85
      L1  H     9    34       P1  7957  0.86
      P1  H  7954  7966       L1     7  0.12
      P1  H  7989  7998       L1    18  0.07
      P1  H  7997  8008       L1    17  0.83

> <Gold.Chemscore.Hbond.Weighted>
-11.5560

> <Gold.Chemscore.Metal.Weighted>
-0.0000

> <Gold.Chemscore.Lipo.Weighted>
-8.2672

> <Gold.Chemscore.Internal_Hbond.Weighted>
0.0000

> <Gold.Chemscore.DEClash.Weighted>
0.4614

> <Gold.Chemscore.DEInternal.Weighted>
2.2389

> <Gold.Chemscore.Rot.Weighted>
6.5831

> <Gold.Chemscore.Internal.Correction.Weighted>
   9.000000E+99

> <Gold.Protein.RotatedTorsions>
[ 6907 6896 6895 6894 ] final  -74.90 input  -60.11 | X-H torsion
[ 7974 7965 7964 7962 ] final  132.30 input  175.53 | X-H torsion
[ 8008 7997 7996 7995 ] final  -48.34 input   59.86 | X-H torsion
[ 10167 10162 10161 10158 ] final  114.08 input  -65.29 | X-H torsion
[ 10718 10713 10712 10709 ] final  -93.17 input   66.30 | X-H torsion
[ 10763 10752 10751 10750 ] final  103.83 input  -60.55 | X-H torsion
[ 11005 11000 10999 10996 ] final -143.35 input  -57.11 | X-H torsion

> <Gold.Protein.ActiveResidues>
 VAL166  LYS551  ARG553  GLY616  TRP617  ASP618  TYR619  PRO620  LYS621  CYS622 
 ASP623  PHE694  ASN695  SER759  ASP760  ASP761  ALA762  ILE779  LEU786  VAL792 
 PHE793  MET794  SER795  GLU796  ALA797  LYS798  CYS799  TRP800  GLU811  SER814 

> <Gold.Protein.RotatedAtoms>
  150.7077  134.4801  159.5465 H   0  0  0  0  0  0  0  0  0  0  0  0  # atno 6907 bound_to 6896
  152.2439  134.8198  160.0465 H   0  0  0  0  0  0  0  0  0  0  0  0  # atno 6908 bound_to 6896
  151.8969  133.3494  159.3854 H   0  0  0  0  0  0  0  0  0  0  0  0  # atno 6909 bound_to 6896
  144.9983  139.4337  143.5305 H   0  0  0  0  0  0  0  0  0  0  0  0  # atno 7974 bound_to 7965
  154.4028  140.1324  156.4323 H   0  0  0  0  0  0  0  0  0  0  0  0  # atno 8008 bound_to 7997
  155.7539  140.3487  155.5144 H   0  0  0  0  0  0  0  0  0  0  0  0  # atno 8009 bound_to 7997
  155.8923  140.1005  157.1400 H   0  0  0  0  0  0  0  0  0  0  0  0  # atno 8010 bound_to 7997
  139.6415  144.7124  151.2228 H   0  0  0  0  0  0  0  0  0  0  0  0  # atno 10167 bound_to 10162
  156.0010  130.5016  150.5736 H   0  0  0  0  0  0  0  0  0  0  0  0  # atno 10718 bound_to 10713
  153.3578  135.3963  155.1695 H   0  0  0  0  0  0  0  0  0  0  0  0  # atno 10763 bound_to 10752
  154.8674  135.3672  154.5138 H   0  0  0  0  0  0  0  0  0  0  0  0  # atno 10764 bound_to 10752
  153.5595  135.7081  153.5614 H   0  0  0  0  0  0  0  0  0  0  0  0  # atno 10765 bound_to 10752
  140.8134  134.2718  157.4931 H   0  0  0  0  0  0  0  0  0  0  0  0  # atno 11005 bound_to 11000
  146.3446  139.9356  142.8747 LP  0  0  0  0  0  0  0  0  0  0  0  0  # atno 17320 bound_to 7965
  145.2189  140.9927  143.4057 LP  0  0  0  0  0  0  0  0  0  0  0  0  # atno 17321 bound_to 7965
  140.7493  143.6304  150.8428 LP  0  0  0  0  0  0  0  0  0  0  0  0  # atno 17342 bound_to 10162
  139.9942  143.5814  152.2899 LP  0  0  0  0  0  0  0  0  0  0  0  0  # atno 17343 bound_to 10162
  157.3628  131.0752  151.1623 LP  0  0  0  0  0  0  0  0  0  0  0  0  # atno 17370 bound_to 10713
  157.2402  130.6566  149.5886 LP  0  0  0  0  0  0  0  0  0  0  0  0  # atno 17371 bound_to 10713
  139.8712  134.9495  156.4029 LP  0  0  0  0  0  0  0  0  0  0  0  0  # atno 17394 bound_to 11000
  140.9174  133.7668  155.9865 LP  0  0  0  0  0  0  0  0  0  0  0  0  # atno 17395 bound_to 11000

$$$$
