AV-unprocessed.smi:413|AV-procd|sdf|2513|dock8
  -GOLD-   2262022463D 1   1.00000     0.00000
 Structure written by MMmdl.
 40 42  0  0  0  0  0  0  0  0  1 V2000
  155.1774  137.8665  162.2386 C   0  0  0  0  0  0  0  0  0  0  0  0
  154.2776  138.2275  161.1500 N   0  0  0  0  0  0  0  0  0  0  0  0
  153.7384  137.3958  160.2279 C   0  0  0  0  0  0  0  0  0  0  0  0
  153.9222  136.1810  160.1524 O   0  0  0  0  0  0  0  0  0  0  0  0
  152.9650  138.1356  159.3985 N   0  0  0  0  0  0  0  0  0  0  0  0
  152.2127  137.6471  158.2451 C   0  0  0  0  0  0  0  0  0  0  0  0
  153.1477  137.1580  157.1206 C   0  0  1  0  0  0  0  0  0  0  0  0
  152.9773  135.7725  156.9015 O   0  0  0  0  0  0  0  0  0  0  0  0
  152.9106  137.8792  155.7835 C   0  0  0  0  0  0  0  0  0  0  0  0
  152.7473  139.2743  156.0098 O   0  0  0  0  0  0  0  0  0  0  0  0
  151.5621  139.8654  155.6292 C   0  0  0  0  0  0  0  0  0  0  0  0
  150.8306  139.2281  154.6057 C   0  0  0  0  0  0  0  0  0  0  0  0
  149.6073  139.7603  154.1551 C   0  0  0  0  0  0  0  0  0  0  0  0
  149.1015  140.9420  154.7270 C   0  0  0  0  0  0  0  0  0  0  0  0
  147.9253  141.4554  154.2956 F   0  0  0  0  0  0  0  0  0  0  0  0
  149.8211  141.5891  155.7486 C   0  0  0  0  0  0  0  0  0  0  0  0
  151.0450  141.0567  156.1991 C   0  0  0  0  0  0  0  0  0  0  0  0
  153.0232  139.4799  159.7928 C   0  0  0  0  0  0  0  0  0  0  0  0
  152.4172  140.6297  159.2571 C   0  0  0  0  0  0  0  0  0  0  0  0
  152.6875  141.8612  159.8989 C   0  0  0  0  0  0  0  0  0  0  0  0
  153.5379  141.9186  161.0340 C   0  0  0  0  0  0  0  0  0  0  0  0
  154.1362  140.7456  161.5516 C   0  0  0  0  0  0  0  0  0  0  0  0
  153.8494  139.5364  160.8952 C   0  0  0  0  0  0  0  0  0  0  0  0
  155.2781  136.7856  162.3447 H   0  0  0  0  0  0  0  0  0  0  0  0
  154.8050  138.2616  163.1842 H   0  0  0  0  0  0  0  0  0  0  0  0
  156.1688  138.2835  162.0606 H   0  0  0  0  0  0  0  0  0  0  0  0
  151.5107  136.8648  158.5389 H   0  0  0  0  0  0  0  0  0  0  0  0
  151.5990  138.4712  157.8796 H   0  0  0  0  0  0  0  0  0  0  0  0
  154.1885  137.3172  157.4060 H   0  0  0  0  0  0  0  0  0  0  0  0
  152.0967  135.6250  156.5907 H   0  0  0  0  0  0  0  0  0  0  0  0
  153.7815  137.7224  155.1449 H   0  0  0  0  0  0  0  0  0  0  0  0
  152.0437  137.4586  155.2708 H   0  0  0  0  0  0  0  0  0  0  0  0
  151.2118  138.3202  154.1615 H   0  0  0  0  0  0  0  0  0  0  0  0
  149.0574  139.2609  153.3712 H   0  0  0  0  0  0  0  0  0  0  0  0
  149.4339  142.4962  156.1885 H   0  0  0  0  0  0  0  0  0  0  0  0
  151.5676  141.5820  156.9837 H   0  0  0  0  0  0  0  0  0  0  0  0
  151.7734  140.5796  158.3914 H   0  0  0  0  0  0  0  0  0  0  0  0
  152.2421  142.7690  159.5196 H   0  0  0  0  0  0  0  0  0  0  0  0
  153.7318  142.8695  161.5082 H   0  0  0  0  0  0  0  0  0  0  0  0
  154.7859  140.7809  162.4136 H   0  0  0  0  0  0  0  0  0  0  0  0
  1  2  1  0  0  0  0
  1 24  1  0  0  0  0
  1 25  1  0  0  0  0
  1 26  1  0  0  0  0
  2 23  1  0  0  0  0
  2  3  1  0  0  0  0
  3  4  2  0  0  0  0
  3  5  1  0  0  0  0
  5  6  1  0  0  0  0
  5 18  1  0  0  0  0
  6  7  1  0  0  0  0
  6 27  1  0  0  0  0
  6 28  1  0  0  0  0
  7  8  1  0  0  0  0
  7  9  1  0  0  0  0
  7 29  1  0  0  0  0
  8 30  1  0  0  0  0
  9 10  1  0  0  0  0
  9 31  1  0  0  0  0
  9 32  1  0  0  0  0
 10 11  1  0  0  0  0
 11 17  1  0  0  0  0
 11 12  2  0  0  0  0
 12 13  1  0  0  0  0
 12 33  1  0  0  0  0
 13 14  2  0  0  0  0
 13 34  1  0  0  0  0
 14 15  1  0  0  0  0
 14 16  1  0  0  0  0
 16 17  2  0  0  0  0
 16 35  1  0  0  0  0
 17 36  1  0  0  0  0
 18 23  2  0  0  0  0
 18 19  1  0  0  0  0
 19 20  2  0  0  0  0
 19 37  1  0  0  0  0
 20 21  1  0  0  0  0
 20 38  1  0  0  0  0
 21 22  2  0  0  0  0
 21 39  1  0  0  0  0
 22 23  1  0  0  0  0
 22 40  1  0  0  0  0
M  END
> <s_m_source_file>
AV-unprocessed.smi

> <i_m_source_file_index>
413

> <i_lp_mmshare_version>
43012

> <i_f3d_flags>
0

> <s_epik_input>
W2NIXTFbY0hdW2NIXVtjSF1jKGMxMiluKFtDSDNdKWMoPU8pbjJbQ0gyXVtDQEhdKFtPSF0pW0NIMl1PYzNbY0hdW2NIXWMoRilbY0hdW2NIXTM=

> <s_epik_cmdline>
J2VwaWtfcHl0aG9uJywgJy1waCcsICc3LjAnLCAnLXRuJywgJzgnLCAnLW1hJywgJzIwMCcsICctbWV0YWxfYmluZGluZycsICctaW1hZScsICc8aW5maWxlLm1hZT4nLCAnLW9tYWUnLCAnPG91dGZpbGUubWFlPic=

> <r_lp_tautomer_probability>
1

> <r_epik_Ionization_Penalty>
2.40172e-06

> <r_epik_Ionization_Penalty_Charging>
2.42369e-09

> <r_epik_Ionization_Penalty_Neutral>
2.3993e-06

> <r_epik_State_Penalty>
-0

> <r_epik_Charging_Adjusted_Penalty>
2.42369e-09

> <i_epik_Tot_Q>
0

> <i_epik_Tot_abs_Q>
0

> <r_epik_Metal_State_Penalty>
-0

> <b_epik_Metal_Only>
0

> <s_lp_Force_Field>
OPLS_2005

> <r_lp_Energy>
47.225

> <b_lp_Chiralities_Consistent>
1

> <s_lp_Variant>
AV-unprocessed.smi:413-2

> <Gold.Version>
5.8.1

> <Gold.Id.Protein>
6NUR|6NUR_protein|mol2

> <Gold.PLP.Fitness>
51.9032

> <Gold.PLP.PLP>
-46.3334

> <Gold.PLP.part.hbond>
-3.0000

> <Gold.PLP.part.metal>
0.0000

> <Gold.PLP.part.buried>
-1.5466

> <Gold.PLP.part.nonpolar>
-41.7022

> <Gold.PLP.part.repulsive>
0.0000

> <Gold.PLP.ligand.clash>
0.1914

> <Gold.PLP.ligand.torsion>
1.6415

> <Gold.PLP.Chemscore.Hbond>
3.0000

> <Gold.PLP.Chemscore.CHOScore>
0.0000

> <Gold.PLP.Chemscore.Metal>
0.0000

> <Gold.Chemscore.Hbonds>
donor molecule, donor type, donor heavy atom, donor atom, acceptor molecule, acceptor atom, score
      P1  H  6896  6908       L1     4  0.78
      P1  H  7997  8009       L1    10  1.00
      P1  H 10752 10763       L1     8  0.80

> <Gold.PLP.Chemscore.Internal.Correction>
0.0442

> <Gold.Rescore>
     Score         DG    S(hbond)    S(metal)    S(lipo)     H(rot)  DE(clash)    DE(int)     intcor
     19.09     -20.70       2.26        0.00     115.18       2.27       0.11       1.50       ----

> <Gold.Chemscore.Fitness>
19.0894

> <Gold.Chemscore.DG>
-20.7015

> <Gold.Chemscore.ZeroCoef>
-5.4800

> <Gold.Chemscore.Hbond>
2.2630

> <Gold.Chemscore.Metal>
0.0000

> <Gold.Chemscore.Lipo>
115.1788

> <Gold.Chemscore.Internal_Hbond>
0.0000

> <Gold.Chemscore.DEClash>
0.1111

> <Gold.Chemscore.DEInternal>
1.5009

> <Gold.Chemscore.Rot>
2.2706

> <Gold.Chemscore.Internal.Correction>
   9.000000E+99

> <Gold.Chemscore.Hbonds>
donor molecule, donor type, donor heavy atom, donor atom, acceptor molecule, acceptor atom, score
      P1  H  6896  6908       L1     4  0.77
      P1  H  7997  8009       L1    10  0.82
      P1  H 10752 10763       L1     8  0.08

> <Gold.Chemscore.Hbond.Weighted>
-7.5584

> <Gold.Chemscore.Metal.Weighted>
-0.0000

> <Gold.Chemscore.Lipo.Weighted>
-13.4759

> <Gold.Chemscore.Internal_Hbond.Weighted>
0.0000

> <Gold.Chemscore.DEClash.Weighted>
0.1111

> <Gold.Chemscore.DEInternal.Weighted>
1.5009

> <Gold.Chemscore.Rot.Weighted>
5.8128

> <Gold.Chemscore.Internal.Correction.Weighted>
   9.000000E+99

> <Gold.Protein.RotatedTorsions>
[ 6907 6896 6895 6894 ] final  -57.15 input  -60.11 | X-H torsion
[ 7974 7965 7964 7962 ] final  119.45 input  175.53 | X-H torsion
[ 8008 7997 7996 7995 ] final -156.45 input   59.86 | X-H torsion
[ 10167 10162 10161 10158 ] final   -3.70 input  -65.29 | X-H torsion
[ 10718 10713 10712 10709 ] final   96.91 input   66.30 | X-H torsion
[ 10763 10752 10751 10750 ] final  132.82 input  -60.55 | X-H torsion
[ 11005 11000 10999 10996 ] final  -68.10 input  -57.11 | X-H torsion

> <Gold.Protein.ActiveResidues>
 VAL166  LYS551  ARG553  GLY616  TRP617  ASP618  TYR619  PRO620  LYS621  CYS622 
 ASP623  PHE694  ASN695  SER759  ASP760  ASP761  ALA762  ILE779  LEU786  VAL792 
 PHE793  MET794  SER795  GLU796  ALA797  LYS798  CYS799  TRP800  GLU811  SER814 

> <Gold.Protein.RotatedAtoms>
  150.8110  134.7264  159.6687 H   0  0  0  0  0  0  0  0  0  0  0  0  # atno 6907 bound_to 6896
  152.4229  134.5918  159.9986 H   0  0  0  0  0  0  0  0  0  0  0  0  # atno 6908 bound_to 6896
  151.6128  133.3308  159.3107 H   0  0  0  0  0  0  0  0  0  0  0  0  # atno 6909 bound_to 6896
  145.1430  139.3256  143.4606 H   0  0  0  0  0  0  0  0  0  0  0  0  # atno 7974 bound_to 7965
  155.7174  140.0786  157.2345 H   0  0  0  0  0  0  0  0  0  0  0  0  # atno 8008 bound_to 7997
  154.4050  140.1619  156.2418 H   0  0  0  0  0  0  0  0  0  0  0  0  # atno 8009 bound_to 7997
  155.9227  140.3396  155.6188 H   0  0  0  0  0  0  0  0  0  0  0  0  # atno 8010 bound_to 7997
  140.6900  143.6510  150.8350 H   0  0  0  0  0  0  0  0  0  0  0  0  # atno 10167 bound_to 10162
  157.6920  131.0593  150.4563 H   0  0  0  0  0  0  0  0  0  0  0  0  # atno 10718 bound_to 10713
  153.7970  135.3147  155.3385 H   0  0  0  0  0  0  0  0  0  0  0  0  # atno 10763 bound_to 10752
  154.8103  135.4671  154.0503 H   0  0  0  0  0  0  0  0  0  0  0  0  # atno 10764 bound_to 10752
  153.1839  135.6898  153.8528 H   0  0  0  0  0  0  0  0  0  0  0  0  # atno 10765 bound_to 10752
  141.1524  133.6733  156.6393 H   0  0  0  0  0  0  0  0  0  0  0  0  # atno 11005 bound_to 11000
  146.3503  140.1474  142.8593 LP  0  0  0  0  0  0  0  0  0  0  0  0  # atno 17320 bound_to 7965
  145.0512  140.9019  143.4994 LP  0  0  0  0  0  0  0  0  0  0  0  0  # atno 17321 bound_to 7965
  140.0221  143.5531  152.2796 LP  0  0  0  0  0  0  0  0  0  0  0  0  # atno 17342 bound_to 10162
  139.6293  144.7642  151.2570 LP  0  0  0  0  0  0  0  0  0  0  0  0  # atno 17343 bound_to 10162
  156.4910  130.4095  149.6406 LP  0  0  0  0  0  0  0  0  0  0  0  0  # atno 17370 bound_to 10713
  156.3417  130.7385  151.2331 LP  0  0  0  0  0  0  0  0  0  0  0  0  # atno 17371 bound_to 10713
  140.3405  134.7853  157.4394 LP  0  0  0  0  0  0  0  0  0  0  0  0  # atno 17394 bound_to 11000
  140.0941  134.5560  155.8415 LP  0  0  0  0  0  0  0  0  0  0  0  0  # atno 17395 bound_to 11000

$$$$
