AV-unprocessed.smi:1487|AV-procd|sdf|6008|dock1
  -GOLD-   22720 6103D 1   1.00000     0.00000
 Structure written by MMmdl.
 48 50  0  0  0  0  0  0  0  0  2 V2000
  153.3865  142.6912  162.5204 C   0  0  0  0  0  0  0  0  0  0  0  0
  152.9962  142.1996  161.1380 C   0  0  0  0  0  0  0  0  0  0  0  0
  153.3003  140.8693  160.7711 C   0  0  0  0  0  0  0  0  0  0  0  0
  152.9570  140.3737  159.4944 C   0  0  0  0  0  0  0  0  0  0  0  0
  153.1544  139.1241  158.9321 N   0  0  0  0  0  0  0  0  0  0  0  0
  152.6197  139.2851  157.7252 C   0  0  0  0  0  0  0  0  0  0  0  0
  152.0934  140.4918  157.4400 N   0  0  0  0  0  0  0  0  0  0  0  0
  151.4608  140.8984  156.1976 C   0  0  0  0  0  0  0  0  0  0  0  0
  150.0372  141.4492  156.4095 C   0  0  1  0  0  0  0  0  0  0  0  0
  150.1000  142.8473  156.6177 O   0  0  0  0  0  0  0  0  0  0  0  0
  149.1360  141.1776  155.1888 C   0  0  0  0  0  0  0  0  0  0  0  0
  147.9260  142.0394  155.1713 N   0  3  1  0  0  0  0  0  0  0  0  0
  147.1803  141.9422  153.8891 C   0  0  0  0  0  0  0  0  0  0  0  0
  146.0170  142.9476  153.8423 C   0  0  0  0  0  0  0  0  0  0  0  0
  145.0736  142.7560  155.0365 C   0  0  0  0  0  0  0  0  0  0  0  0
  145.8712  142.8316  156.3464 C   0  0  1  0  0  0  0  0  0  0  0  0
  145.0138  142.5648  157.4359 O   0  0  0  0  0  0  0  0  0  0  0  0
  147.0341  141.8223  156.3421 C   0  0  0  0  0  0  0  0  0  0  0  0
  152.2952  141.2522  158.5872 C   0  0  0  0  0  0  0  0  0  0  0  0
  151.9861  142.5776  158.9412 C   0  0  0  0  0  0  0  0  0  0  0  0
  152.3373  143.0569  160.2204 C   0  0  0  0  0  0  0  0  0  0  0  0
  152.0021  144.4905  160.5919 C   0  0  0  0  0  0  0  0  0  0  0  0
  153.8263  141.8919  163.1176 H   0  0  0  0  0  0  0  0  0  0  0  0
  152.5138  143.0649  163.0563 H   0  0  0  0  0  0  0  0  0  0  0  0
  154.1185  143.4957  162.4450 H   0  0  0  0  0  0  0  0  0  0  0  0
  153.8031  140.2167  161.4695 H   0  0  0  0  0  0  0  0  0  0  0  0
  152.6089  138.4786  157.0067 H   0  0  0  0  0  0  0  0  0  0  0  0
  152.0920  141.6446  155.7132 H   0  0  0  0  0  0  0  0  0  0  0  0
  151.4348  140.0355  155.5308 H   0  0  0  0  0  0  0  0  0  0  0  0
  149.6181  140.9910  157.3050 H   0  0  0  0  0  0  0  0  0  0  0  0
  149.6050  143.2756  155.9352 H   0  0  0  0  0  0  0  0  0  0  0  0
  149.7244  141.3447  154.2848 H   0  0  0  0  0  0  0  0  0  0  0  0
  148.8322  140.1300  155.1598 H   0  0  0  0  0  0  0  0  0  0  0  0
  147.8544  142.1413  153.0547 H   0  0  0  0  0  0  0  0  0  0  0  0
  146.8063  140.9253  153.7595 H   0  0  0  0  0  0  0  0  0  0  0  0
  146.4116  143.9646  153.8466 H   0  0  0  0  0  0  0  0  0  0  0  0
  145.4637  142.8350  152.9094 H   0  0  0  0  0  0  0  0  0  0  0  0
  144.2910  143.5158  155.0222 H   0  0  0  0  0  0  0  0  0  0  0  0
  144.5739  141.7895  154.9556 H   0  0  0  0  0  0  0  0  0  0  0  0
  146.2685  143.8398  156.4729 H   0  0  0  0  0  0  0  0  0  0  0  0
  145.2846  143.0903  158.1734 H   0  0  0  0  0  0  0  0  0  0  0  0
  146.6486  140.8015  156.3171 H   0  0  0  0  0  0  0  0  0  0  0  0
  147.5977  141.9228  157.2693 H   0  0  0  0  0  0  0  0  0  0  0  0
  151.4831  143.2209  158.2344 H   0  0  0  0  0  0  0  0  0  0  0  0
  151.5248  145.0158  159.7639 H   0  0  0  0  0  0  0  0  0  0  0  0
  152.9067  145.0384  160.8577 H   0  0  0  0  0  0  0  0  0  0  0  0
  151.3195  144.5149  161.4416 H   0  0  0  0  0  0  0  0  0  0  0  0
  148.2616  142.9909  155.2264 H   0  0  0  0  0  0  0  0  0  0  0  0
  1  2  1  0  0  0  0
  1 23  1  0  0  0  0
  1 24  1  0  0  0  0
  1 25  1  0  0  0  0
  2 21  1  0  0  0  0
  2  3  2  0  0  0  0
  3  4  1  0  0  0  0
  3 26  1  0  0  0  0
  4 19  2  0  0  0  0
  4  5  1  0  0  0  0
  5  6  2  0  0  0  0
  6  7  1  0  0  0  0
  6 27  1  0  0  0  0
  7  8  1  0  0  0  0
  7 19  1  0  0  0  0
  8  9  1  0  0  0  0
  8 28  1  0  0  0  0
  8 29  1  0  0  0  0
  9 10  1  0  0  0  0
  9 11  1  0  0  0  0
  9 30  1  0  0  0  0
 10 31  1  0  0  0  0
 11 12  1  0  0  0  0
 11 32  1  0  0  0  0
 11 33  1  0  0  0  0
 12 18  1  0  0  0  0
 12 13  1  0  0  0  0
 12 48  1  0  0  0  0
 13 14  1  0  0  0  0
 13 34  1  0  0  0  0
 13 35  1  0  0  0  0
 14 15  1  0  0  0  0
 14 36  1  0  0  0  0
 14 37  1  0  0  0  0
 15 16  1  0  0  0  0
 15 38  1  0  0  0  0
 15 39  1  0  0  0  0
 16 17  1  0  0  0  0
 16 18  1  0  0  0  0
 16 40  1  0  0  0  0
 17 41  1  0  0  0  0
 18 42  1  0  0  0  0
 18 43  1  0  0  0  0
 19 20  1  0  0  0  0
 20 21  2  0  0  0  0
 20 44  1  0  0  0  0
 21 22  1  0  0  0  0
 22 45  1  0  0  0  0
 22 46  1  0  0  0  0
 22 47  1  0  0  0  0
M  CHG  1  12   1
M  END
> <s_m_source_file>
AV-unprocessed.smi

> <i_m_source_file_index>
1487

> <i_lp_mmshare_version>
43012

> <i_f3d_flags>
0

> <s_epik_input>
W0NIM11jKFtjSF0xKWMoW0NIM10pW2NIXWMoYzEyKW4oW2NIXW4yKVtDSDJdW0NASF0oW09IXSlbQ0gyXU4zW0NIMl1bQ0gyXVtDSDJdW0NAQEhdKFtPSF0pW0NIMl0z

> <s_epik_cmdline>
J2VwaWtfcHl0aG9uJywgJy1waCcsICc3LjAnLCAnLXRuJywgJzgnLCAnLW1hJywgJzIwMCcsICctbWV0YWxfYmluZGluZycsICctaW1hZScsICc8aW5maWxlLm1hZT4nLCAnLW9tYWUnLCAnPG91dGZpbGUubWFlPic=

> <r_epik_Ionization_Penalty>
0.0940186

> <r_epik_Ionization_Penalty_Charging>
0.00679686

> <r_epik_Ionization_Penalty_Neutral>
0.0872218

> <r_epik_State_Penalty>
0.0799311

> <r_epik_Charging_Adjusted_Penalty>
0.086728

> <i_epik_Tot_Q>
1

> <i_epik_Tot_abs_Q>
1

> <r_epik_Metal_State_Penalty>
7.95545e-05

> <b_epik_Metal_Only>
0

> <s_lp_Force_Field>
OPLS_2005

> <r_lp_Energy>
21.5016

> <b_lp_Chiralities_Consistent>
1

> <s_lp_Variant>
AV-unprocessed.smi:1487-2

> <Gold.Version>
5.8.1

> <Gold.Id.Protein>
6NUR|6NUR_protein|mol2

> <Gold.PLP.Fitness>
55.4635

> <Gold.PLP.PLP>
-47.9589

> <Gold.PLP.part.hbond>
-1.5424

> <Gold.PLP.part.metal>
0.0000

> <Gold.PLP.part.buried>
-7.6245

> <Gold.PLP.part.nonpolar>
-38.9701

> <Gold.PLP.part.repulsive>
0.1090

> <Gold.PLP.ligand.clash>
0.0000

> <Gold.PLP.ligand.torsion>
0.5844

> <Gold.PLP.Chemscore.Hbond>
2.8320

> <Gold.PLP.Chemscore.CHOScore>
0.0000

> <Gold.PLP.Chemscore.Metal>
0.0000

> <Gold.Chemscore.Hbonds>
donor molecule, donor type, donor heavy atom, donor atom, acceptor molecule, acceptor atom, score
      L1  H    10    31       P1  8028  0.77
      L1  H    12    48       P1  8028  2.00

> <Gold.PLP.Chemscore.Internal.Correction>
0.1775

> <Gold.Rescore>
     Score         DG    S(hbond)    S(metal)    S(lipo)     H(rot)  DE(clash)    DE(int)     intcor
     17.76     -19.46       1.89        0.00     124.11       2.67       0.02       1.69       ----

> <Gold.Chemscore.Fitness>
17.7605

> <Gold.Chemscore.DG>
-19.4649

> <Gold.Chemscore.ZeroCoef>
-5.4800

> <Gold.Chemscore.Hbond>
1.8869

> <Gold.Chemscore.Metal>
0.0000

> <Gold.Chemscore.Lipo>
124.1122

> <Gold.Chemscore.Internal_Hbond>
0.0000

> <Gold.Chemscore.DEClash>
0.0173

> <Gold.Chemscore.DEInternal>
1.6871

> <Gold.Chemscore.Rot>
2.6712

> <Gold.Chemscore.Internal.Correction>
   9.000000E+99

> <Gold.Chemscore.Hbonds>
donor molecule, donor type, donor heavy atom, donor atom, acceptor molecule, acceptor atom, score
      L1  H    10    31       P1  8028  0.77
      L1  H    12    48       P1  8028  0.98

> <Gold.Chemscore.Hbond.Weighted>
-6.3021

> <Gold.Chemscore.Metal.Weighted>
-0.0000

> <Gold.Chemscore.Lipo.Weighted>
-14.5211

> <Gold.Chemscore.Internal_Hbond.Weighted>
0.0000

> <Gold.Chemscore.DEClash.Weighted>
0.0173

> <Gold.Chemscore.DEInternal.Weighted>
1.6871

> <Gold.Chemscore.Rot.Weighted>
6.8383

> <Gold.Chemscore.Internal.Correction.Weighted>
   9.000000E+99

> <Gold.Protein.RotatedTorsions>
[ 6907 6896 6895 6894 ] final -162.40 input  -60.11 | X-H torsion
[ 7974 7965 7964 7962 ] final  -22.09 input  175.53 | X-H torsion
[ 8008 7997 7996 7995 ] final  -29.29 input   59.86 | X-H torsion
[ 10167 10162 10161 10158 ] final   54.66 input  -65.29 | X-H torsion
[ 10718 10713 10712 10709 ] final    3.59 input   66.30 | X-H torsion
[ 10763 10752 10751 10750 ] final   12.09 input  -60.55 | X-H torsion
[ 11005 11000 10999 10996 ] final   48.61 input  -57.11 | X-H torsion

> <Gold.Protein.ActiveResidues>
 VAL166  LYS551  ARG553  GLY616  TRP617  ASP618  TYR619  PRO620  LYS621  CYS622 
 ASP623  PHE694  ASN695  SER759  ASP760  ASP761  ALA762  ILE779  LEU786  VAL792 
 PHE793  MET794  SER795  GLU796  ALA797  LYS798  CYS799  TRP800  GLU811  SER814 

> <Gold.Protein.RotatedAtoms>
  151.3797  133.3825  159.2708 H   0  0  0  0  0  0  0  0  0  0  0  0  # atno 6907 bound_to 6896
  150.9587  134.8978  159.7727 H   0  0  0  0  0  0  0  0  0  0  0  0  # atno 6908 bound_to 6896
  152.5141  134.3756  159.9385 H   0  0  0  0  0  0  0  0  0  0  0  0  # atno 6909 bound_to 6896
  146.1695  140.4432  142.8538 H   0  0  0  0  0  0  0  0  0  0  0  0  # atno 7974 bound_to 7965
  154.4296  140.1822  156.1224 H   0  0  0  0  0  0  0  0  0  0  0  0  # atno 8008 bound_to 7997
  156.0132  140.3348  155.6937 H   0  0  0  0  0  0  0  0  0  0  0  0  # atno 8009 bound_to 7997
  155.6081  140.0647  157.2705 H   0  0  0  0  0  0  0  0  0  0  0  0  # atno 8010 bound_to 7997
  140.2277  144.3720  150.6426 H   0  0  0  0  0  0  0  0  0  0  0  0  # atno 10167 bound_to 10162
  156.8800  130.5650  149.5653 H   0  0  0  0  0  0  0  0  0  0  0  0  # atno 10718 bound_to 10713
  153.1859  135.6835  153.8416 H   0  0  0  0  0  0  0  0  0  0  0  0  # atno 10763 bound_to 10752
  153.7732  135.3193  155.3356 H   0  0  0  0  0  0  0  0  0  0  0  0  # atno 10764 bound_to 10752
  154.8088  135.4731  154.0558 H   0  0  0  0  0  0  0  0  0  0  0  0  # atno 10765 bound_to 10752
  140.1176  134.4872  155.8624 H   0  0  0  0  0  0  0  0  0  0  0  0  # atno 11005 bound_to 11000
  144.8142  140.6439  143.6395 LP  0  0  0  0  0  0  0  0  0  0  0  0  # atno 17320 bound_to 7965
  145.4377  139.1540  143.3987 LP  0  0  0  0  0  0  0  0  0  0  0  0  # atno 17321 bound_to 7965
  140.6208  143.2176  151.6697 LP  0  0  0  0  0  0  0  0  0  0  0  0  # atno 17342 bound_to 10162
  139.5121  144.3487  152.0673 LP  0  0  0  0  0  0  0  0  0  0  0  0  # atno 17343 bound_to 10162
  156.0682  130.5720  150.9330 LP  0  0  0  0  0  0  0  0  0  0  0  0  # atno 17370 bound_to 10713
  157.6146  131.0934  150.8734 LP  0  0  0  0  0  0  0  0  0  0  0  0  # atno 17371 bound_to 10713
  141.2144  133.6749  156.6826 LP  0  0  0  0  0  0  0  0  0  0  0  0  # atno 17394 bound_to 11000
  140.3008  134.8165  157.4096 LP  0  0  0  0  0  0  0  0  0  0  0  0  # atno 17395 bound_to 11000

$$$$
