AV-unprocessed.smi:3231|AV-procd|sdf|12335|dock10
  -GOLD-   2272018193D 1   1.00000     0.00000
 Structure written by MMmdl.
 42 43  0  0  0  0  0  0  0  0  3 V2000
  149.4730  141.1041  153.2835 O   0  0  0  0  0  0  0  0  0  0  0  0
  148.3957  141.5874  154.0630 C   0  0  2  0  0  0  0  0  0  0  0  0
  148.7061  141.2836  155.5402 C   0  0  0  0  0  0  0  0  0  0  0  0
  149.9290  141.9793  155.9913 N   0  3  0  0  0  0  0  0  0  0  0  0
  150.5840  141.3517  157.1552 C   0  0  0  0  0  0  0  0  0  0  0  0
  150.1565  142.0353  158.4622 C   0  0  0  0  0  0  0  0  0  0  0  0
  151.0064  143.1660  158.7821 N   0  0  0  0  0  0  0  0  0  0  0  0
  151.4141  144.1954  157.9596 C   0  0  0  0  0  0  0  0  0  0  0  0
  152.2092  145.0188  158.7043 C   0  0  0  0  0  0  0  0  0  0  0  0
  152.2311  144.4002  159.9856 C   0  0  0  0  0  0  0  0  0  0  0  0
  151.5109  143.2907  160.0286 N   0  0  0  0  0  0  0  0  0  0  0  0
  147.0964  140.8903  153.6030 C   0  0  0  0  0  0  0  0  0  0  0  0
  145.8661  141.4753  154.1986 N   0  3  0  0  0  0  0  0  0  0  0  0
  145.6475  141.0182  155.5925 C   0  0  0  0  0  0  0  0  0  0  0  0
  144.3402  141.6007  156.1564 C   0  0  0  0  0  0  0  0  0  0  0  0
  144.3805  143.0198  156.0808 O   0  0  0  0  0  0  0  0  0  0  0  0
  144.4970  143.4771  154.7398 C   0  0  0  0  0  0  0  0  0  0  0  0
  145.8094  142.9573  154.1270 C   0  0  0  0  0  0  0  0  0  0  0  0
  149.1389  140.5073  152.6310 H   0  0  0  0  0  0  0  0  0  0  0  0
  148.3198  142.6667  153.9349 H   0  0  0  0  0  0  0  0  0  0  0  0
  147.8761  141.6119  156.1674 H   0  0  0  0  0  0  0  0  0  0  0  0
  148.8149  140.2086  155.6937 H   0  0  0  0  0  0  0  0  0  0  0  0
  150.5867  141.9907  155.2243 H   0  0  0  0  0  0  0  0  0  0  0  0
  150.3273  140.2919  157.1871 H   0  0  0  0  0  0  0  0  0  0  0  0
  151.6660  141.4187  157.0323 H   0  0  0  0  0  0  0  0  0  0  0  0
  149.1262  142.3875  158.3917 H   0  0  0  0  0  0  0  0  0  0  0  0
  150.1938  141.3276  159.2915 H   0  0  0  0  0  0  0  0  0  0  0  0
  151.1088  144.2568  156.9251 H   0  0  0  0  0  0  0  0  0  0  0  0
  152.7020  145.9244  158.3825 H   0  0  0  0  0  0  0  0  0  0  0  0
  152.7458  144.7216  160.8791 H   0  0  0  0  0  0  0  0  0  0  0  0
  147.0369  140.9552  152.5150 H   0  0  0  0  0  0  0  0  0  0  0  0
  147.1322  139.8257  153.8401 H   0  0  0  0  0  0  0  0  0  0  0  0
  145.6034  139.9290  155.6235 H   0  0  0  0  0  0  0  0  0  0  0  0
  146.4904  141.3232  156.2150 H   0  0  0  0  0  0  0  0  0  0  0  0
  143.4751  141.2182  155.6123 H   0  0  0  0  0  0  0  0  0  0  0  0
  144.2162  141.3058  157.1985 H   0  0  0  0  0  0  0  0  0  0  0  0
  143.6361  143.1495  154.1546 H   0  0  0  0  0  0  0  0  0  0  0  0
  144.4867  144.5672  154.7367 H   0  0  0  0  0  0  0  0  0  0  0  0
  146.6610  143.3834  154.6598 H   0  0  0  0  0  0  0  0  0  0  0  0
  145.8767  143.2956  153.0940 H   0  0  0  0  0  0  0  0  0  0  0  0
  149.6926  142.9321  156.2282 H   0  0  0  0  0  0  0  0  0  0  0  0
  145.0859  141.1212  153.6639 H   0  0  0  0  0  0  0  0  0  0  0  0
  1  2  1  0  0  0  0
  1 19  1  0  0  0  0
  2  3  1  0  0  0  0
  2 12  1  0  0  0  0
  2 20  1  0  0  0  0
  3  4  1  0  0  0  0
  3 21  1  0  0  0  0
  3 22  1  0  0  0  0
  4  5  1  0  0  0  0
  4 23  1  0  0  0  0
  4 41  1  0  0  0  0
  5  6  1  0  0  0  0
  5 24  1  0  0  0  0
  5 25  1  0  0  0  0
  6  7  1  0  0  0  0
  6 26  1  0  0  0  0
  6 27  1  0  0  0  0
  7 11  1  0  0  0  0
  7  8  1  0  0  0  0
  8  9  2  0  0  0  0
  8 28  1  0  0  0  0
  9 10  1  0  0  0  0
  9 29  1  0  0  0  0
 10 11  2  0  0  0  0
 10 30  1  0  0  0  0
 12 13  1  0  0  0  0
 12 31  1  0  0  0  0
 12 32  1  0  0  0  0
 13 18  1  0  0  0  0
 13 14  1  0  0  0  0
 13 42  1  0  0  0  0
 14 15  1  0  0  0  0
 14 33  1  0  0  0  0
 14 34  1  0  0  0  0
 15 16  1  0  0  0  0
 15 35  1  0  0  0  0
 15 36  1  0  0  0  0
 16 17  1  0  0  0  0
 17 18  1  0  0  0  0
 17 37  1  0  0  0  0
 17 38  1  0  0  0  0
 18 39  1  0  0  0  0
 18 40  1  0  0  0  0
M  CHG  1   4   1
M  CHG  1  13   1
M  END
> <s_m_source_file>
AV-unprocessed.smi

> <i_m_source_file_index>
3231

> <i_lp_mmshare_version>
43012

> <i_f3d_flags>
0

> <s_epik_input>
W0NIMl0xW0NIMl1PW0NIMl1bQ0gyXU4xW0NIMl1bQ0BIXShbT0hdKVtDSDJdW05IXVtDSDJdW0NIMl1uMltjSF1bY0hdW2NIXW4y

> <s_epik_cmdline>
J2VwaWtfcHl0aG9uJywgJy1waCcsICc3LjAnLCAnLXRuJywgJzgnLCAnLW1hJywgJzIwMCcsICctbWV0YWxfYmluZGluZycsICctaW1hZScsICc8aW5maWxlLm1hZT4nLCAnLW9tYWUnLCAnPG91dGZpbGUubWFlPic=

> <r_lp_tautomer_probability>
1

> <r_epik_Ionization_Penalty>
2.09881

> <r_epik_Ionization_Penalty_Charging>
2.09628

> <r_epik_Ionization_Penalty_Neutral>
0.0025303

> <r_epik_State_Penalty>
1.58657

> <r_epik_Charging_Adjusted_Penalty>
3.68285

> <i_epik_Tot_Q>
2

> <i_epik_Tot_abs_Q>
2

> <r_epik_Metal_State_Penalty>
1.58685

> <b_epik_Metal_Only>
0

> <s_lp_Force_Field>
OPLS_2005

> <r_lp_Energy>
26.6316

> <b_lp_Chiralities_Consistent>
1

> <s_lp_Variant>
AV-unprocessed.smi:3231-5

> <Gold.Version>
5.8.1

> <Gold.Id.Protein>
6NUR|6NUR_protein|mol2

> <Gold.PLP.Fitness>
56.9401

> <Gold.PLP.PLP>
-38.1090

> <Gold.PLP.part.hbond>
-4.5124

> <Gold.PLP.part.metal>
0.0000

> <Gold.PLP.part.buried>
-5.5382

> <Gold.PLP.part.nonpolar>
-29.5789

> <Gold.PLP.part.repulsive>
0.2349

> <Gold.PLP.ligand.clash>
0.0000

> <Gold.PLP.ligand.torsion>
0.8436

> <Gold.PLP.Chemscore.Hbond>
5.8102

> <Gold.PLP.Chemscore.CHOScore>
1.0000

> <Gold.PLP.Chemscore.Metal>
0.0000

> <Gold.Chemscore.Hbonds>
donor molecule, donor type, donor heavy atom, donor atom, acceptor molecule, acceptor atom, score
      L1  H     1    19       P1  7957  0.70
      L1  H     4    41       P1  8028  1.90
      L1  H    13    42       P1 10175  2.00
      P1  H  7989  7998       L1     1  0.11
      P1  H  8011  8017       L1     1  1.00
      L1  C     8    28       P1  8028  0.90

> <Gold.PLP.Chemscore.Internal.Correction>
0.0877

> <Gold.Rescore>
     Score         DG    S(hbond)    S(metal)    S(lipo)     H(rot)  DE(clash)    DE(int)     intcor
     17.29     -18.34       3.13        0.00      84.93       2.94       0.16       0.89       ----

> <Gold.Chemscore.Fitness>
17.2903

> <Gold.Chemscore.DG>
-18.3405

> <Gold.Chemscore.ZeroCoef>
-5.4800

> <Gold.Chemscore.Hbond>
3.1315

> <Gold.Chemscore.Metal>
0.0000

> <Gold.Chemscore.Lipo>
84.9323

> <Gold.Chemscore.Internal_Hbond>
0.0000

> <Gold.Chemscore.DEClash>
0.1632

> <Gold.Chemscore.DEInternal>
0.8869

> <Gold.Chemscore.Rot>
2.9437

> <Gold.Chemscore.Internal.Correction>
   9.000000E+99

> <Gold.Chemscore.Hbonds>
donor molecule, donor type, donor heavy atom, donor atom, acceptor molecule, acceptor atom, score
      L1  H     1    19       P1  7957  0.69
      L1  H     4    41       P1  8028  0.85
      L1  H    13    42       P1 10175  0.60
      P1  H  7989  7998       L1     1  0.08
      P1  H  8011  8017       L1     1  0.09

> <Gold.Chemscore.Hbond.Weighted>
-10.4593

> <Gold.Chemscore.Metal.Weighted>
-0.0000

> <Gold.Chemscore.Lipo.Weighted>
-9.9371

> <Gold.Chemscore.Internal_Hbond.Weighted>
0.0000

> <Gold.Chemscore.DEClash.Weighted>
0.1632

> <Gold.Chemscore.DEInternal.Weighted>
0.8869

> <Gold.Chemscore.Rot.Weighted>
7.5359

> <Gold.Chemscore.Internal.Correction.Weighted>
   9.000000E+99

> <Gold.Protein.RotatedTorsions>
[ 6907 6896 6895 6894 ] final   58.30 input  -60.11 | X-H torsion
[ 7974 7965 7964 7962 ] final  111.20 input  175.53 | X-H torsion
[ 8008 7997 7996 7995 ] final   60.15 input   59.86 | X-H torsion
[ 10167 10162 10161 10158 ] final   99.10 input  -65.29 | X-H torsion
[ 10718 10713 10712 10709 ] final -120.87 input   66.30 | X-H torsion
[ 10763 10752 10751 10750 ] final   38.71 input  -60.55 | X-H torsion
[ 11005 11000 10999 10996 ] final  -62.33 input  -57.11 | X-H torsion

> <Gold.Protein.ActiveResidues>
 VAL166  LYS551  ARG553  GLY616  TRP617  ASP618  TYR619  PRO620  LYS621  CYS622 
 ASP623  PHE694  ASN695  SER759  ASP760  ASP761  ALA762  ILE779  LEU786  VAL792 
 PHE793  MET794  SER795  GLU796  ALA797  LYS798  CYS799  TRP800  GLU811  SER814 

> <Gold.Protein.RotatedAtoms>
  152.3811  134.6588  160.0142 H   0  0  0  0  0  0  0  0  0  0  0  0  # atno 6907 bound_to 6896
  151.6851  133.3306  159.3237 H   0  0  0  0  0  0  0  0  0  0  0  0  # atno 6908 bound_to 6896
  150.7748  134.6683  159.6422 H   0  0  0  0  0  0  0  0  0  0  0  0  # atno 6909 bound_to 6896
  145.2453  139.2762  143.4096 H   0  0  0  0  0  0  0  0  0  0  0  0  # atno 7974 bound_to 7965
  155.5777  140.3491  155.4532 H   0  0  0  0  0  0  0  0  0  0  0  0  # atno 8008 bound_to 7997
  156.0397  140.1293  157.0195 H   0  0  0  0  0  0  0  0  0  0  0  0  # atno 8009 bound_to 7997
  154.4386  140.1026  156.6204 H   0  0  0  0  0  0  0  0  0  0  0  0  # atno 8010 bound_to 7997
  139.7648  144.6942  151.0240 H   0  0  0  0  0  0  0  0  0  0  0  0  # atno 10167 bound_to 10162
  156.1292  130.6382  150.9593 H   0  0  0  0  0  0  0  0  0  0  0  0  # atno 10718 bound_to 10713
  152.9992  135.6241  154.2348 H   0  0  0  0  0  0  0  0  0  0  0  0  # atno 10763 bound_to 10752
  154.2089  135.2801  155.2967 H   0  0  0  0  0  0  0  0  0  0  0  0  # atno 10764 bound_to 10752
  154.5622  135.5701  153.7077 H   0  0  0  0  0  0  0  0  0  0  0  0  # atno 10765 bound_to 10752
  141.1356  133.6639  156.5512 H   0  0  0  0  0  0  0  0  0  0  0  0  # atno 11005 bound_to 11000
  146.3317  140.2828  142.8611 LP  0  0  0  0  0  0  0  0  0  0  0  0  # atno 17320 bound_to 7965
  144.9552  140.8219  143.5547 LP  0  0  0  0  0  0  0  0  0  0  0  0  # atno 17321 bound_to 7965
  140.7810  143.4655  151.0218 LP  0  0  0  0  0  0  0  0  0  0  0  0  # atno 17342 bound_to 10162
  139.8340  143.7652  152.3180 LP  0  0  0  0  0  0  0  0  0  0  0  0  # atno 17343 bound_to 10162
  157.6471  131.0902  150.8130 LP  0  0  0  0  0  0  0  0  0  0  0  0  # atno 17370 bound_to 10713
  156.8217  130.4986  149.5342 LP  0  0  0  0  0  0  0  0  0  0  0  0  # atno 17371 bound_to 10713
  140.4062  134.7312  157.4809 LP  0  0  0  0  0  0  0  0  0  0  0  0  # atno 17394 bound_to 11000
  140.0460  134.6199  155.8921 LP  0  0  0  0  0  0  0  0  0  0  0  0  # atno 17395 bound_to 11000

$$$$
