#       Name:                AV-unprocessed.smi:855
#       Creating user name   scv26
#       Creation time:       Fri Mar 27 01:42:38 2020


#       File generated by GOLD software.
#

@<TRIPOS>MOLECULE
AV-unprocessed.smi:855
    41    42     1
SMALL
NO_CHARGES


@<TRIPOS>ATOM
      1 ****        -6.2612   3.9846   1.0222 C.3            1 S1                 0.0000
      2 ****        -4.9195   3.3383   0.9641 C.2            1 S1                 0.0000
      3 ****        -4.4937   2.0583   1.1835 C.2            1 S1                 0.0000
      4 ****        -3.0948   2.1430   0.9533 C.2            1 S1                 0.0000
      5 ****        -2.2653   0.9993   1.0784 N.am           1 S1                 0.0000
      6 ****        -0.9384   0.9254   0.8775 C.2            1 S1                 0.0000
      7 ****        -0.2154   1.8666   0.5491 O.2            1 S1                 0.0000
      8 ****        -0.4808  -0.3192   1.0774 N.am           1 S1                 0.0000
      9 ****         0.9151  -0.7227   0.9534 C.3            1 S1                 0.0000
     10 ****         1.3299  -0.8977  -0.5197 C.3            1 S1                 0.0000
     11 ****         2.7527  -1.2880  -0.6501 N.4            1 S1                 1.0000
     12 ****         3.0850  -2.6477  -0.1589 C.3            1 S1                 0.0000
     13 ****         4.0417  -3.2720  -1.1840 C.3            1 S1                 0.0000
     14 ****         4.4965  -2.1015  -2.0497 C.3            1 S1                 0.0000
     15 ****         3.2898  -1.1695  -2.0205 C.3            1 S1                 0.0000
     16 ****        -2.7016   3.3643   0.6257 N.2            1 S1                 0.0000
     17 ****        -3.8689   4.1369   0.6321 O.3            1 S1                 0.0000
     18 ****        -7.0536   3.2469   0.8941 H              1 S1                 0.0000
     19 ****        -6.3675   4.7325   0.2362 H              1 S1                 0.0000
     20 ****        -6.4101   4.4785   1.9823 H              1 S1                 0.0000
     21 ****        -5.0901   1.2021   1.4618 H              1 S1                 0.0000
     22 ****        -2.7338   0.1468   1.3472 H              1 S1                 0.0000
     23 ****        -1.1418  -1.0334   1.3471 H              1 S1                 0.0000
     24 ****         1.5572   0.0089   1.4470 H              1 S1                 0.0000
     25 ****         1.0374  -1.6590   1.4978 H              1 S1                 0.0000
     26 ****         0.6961  -1.6351  -1.0147 H              1 S1                 0.0000
     27 ****         1.1856   0.0450  -1.0498 H              1 S1                 0.0000
     28 ****         3.5575  -2.5623   0.8200 H              1 S1                 0.0000
     29 ****         2.1966  -3.2707  -0.0440 H              1 S1                 0.0000
     30 ****         4.8757  -3.7967  -0.7167 H              1 S1                 0.0000
     31 ****         3.5001  -3.9921  -1.7991 H              1 S1                 0.0000
     32 ****         5.3564  -1.6113  -1.5909 H              1 S1                 0.0000
     33 ****         4.7771  -2.4031  -3.0594 H              1 S1                 0.0000
     34 ****         2.5445  -1.5119  -2.7408 H              1 S1                 0.0000
     35 ****         3.5486  -0.1386  -2.2645 H              1 S1                 0.0000
     36 ****         3.2913  -0.6438  -0.0885 H              1 S1                 0.0000
     37 ****        -0.6094   2.7752   0.4110 LP             1 S1                 0.0000
     38 ****         0.7658   1.7222   0.4206 LP             1 S1                 0.0000
     39 ****        -1.7718   3.6688   0.4186 LP             1 S1                 0.0000
     40 ****        -3.7811   4.8734   1.3028 LP             1 S1                 0.0000
     41 ****        -4.0179   4.5287  -0.2757 LP             1 S1                 0.0000
@<TRIPOS>BOND
    1    1    2 1     
    2    1   18 1     
    3    1   19 1     
    4    1   20 1     
    5    2   17 1     
    6    2    3 2     
    7    3    4 1     
    8    3   21 1     
    9    4    5 1     
   10    4   16 2     
   11    5    6 am    
   12    5   22 1     
   13    6    7 2     
   14    6    8 am    
   15    8    9 1     
   16    8   23 1     
   17    9   10 1     
   18    9   24 1     
   19    9   25 1     
   20   10   11 1     
   21   10   26 1     
   22   10   27 1     
   23   11   15 1     
   24   11   12 1     
   25   11   36 1     
   26   12   13 1     
   27   12   28 1     
   28   12   29 1     
   29   13   14 1     
   30   13   30 1     
   31   13   31 1     
   32   14   15 1     
   33   14   32 1     
   34   14   33 1     
   35   15   34 1     
   36   15   35 1     
   37   16   17 1     
   38    7   37 1     
   39    7   38 1     
   40   16   39 1     
   41   17   40 1     
   42   17   41 1     
@<TRIPOS>SUBSTRUCTURE
      1 S1             1
@<TRIPOS>SET
LONE_PAIRS      STATIC     ATOMS    <user>   **** ""
5 37 38 39 40 41
DONOR_HYDROGENS      STATIC     ATOMS    <user>   **** ""
3 22 23 36
ATOM$BLUE        STATIC     ATOMS    COLORGROUP SYSTEM
5 37 38 39 40 41
ATOM$RED        STATIC     ATOMS    COLORGROUP SYSTEM
3 22 23 36
