AV-unprocessed.smi:3303|AV-procd|sdf|12660|dock2
  -GOLD-   2272018593D 1   1.00000     0.00000
 Structure written by MMmdl.
 45 46  0  0  0  0  0  0  0  0  3 V2000
  150.9387  138.0738  155.1282 C   0  0  0  0  0  0  0  0  0  0  0  0
  150.1191  139.1335  154.3725 C   0  0  1  0  0  0  0  0  0  0  0  0
  148.7381  138.6021  153.9386 C   0  0  0  0  0  0  0  0  0  0  0  0
  148.0121  139.6057  153.1194 N   0  3  1  0  0  0  0  0  0  0  0  0
  146.7869  139.0592  152.4923 C   0  0  0  0  0  0  0  0  0  0  0  0
  147.8152  140.9108  153.8137 C   0  0  1  0  0  0  0  0  0  0  0  0
  146.7338  140.8695  154.9158 C   0  0  0  0  0  0  0  0  0  0  0  0
  149.1699  141.4703  154.3075 C   0  0  0  0  0  0  0  0  0  0  0  0
  150.0002  140.4679  155.1435 C   0  0  1  0  0  0  0  0  0  0  0  0
  149.4541  140.2659  156.5082 N   0  3  0  0  0  0  0  0  0  0  0  0
  149.5386  141.4349  157.4079 C   0  0  0  0  0  0  0  0  0  0  0  0
  150.8071  141.3717  158.2687 C   0  0  0  0  0  0  0  0  0  0  0  0
  151.1856  142.7302  158.8264 C   0  0  0  0  0  0  0  0  0  0  0  0
  152.2390  142.8621  159.7561 C   0  0  0  0  0  0  0  0  0  0  0  0
  152.5520  144.1490  160.2356 C   0  0  0  0  0  0  0  0  0  0  0  0
  151.8046  145.2473  159.7682 C   0  0  0  0  0  0  0  0  0  0  0  0
  150.7728  145.0098  158.8384 C   0  0  0  0  0  0  0  0  0  0  0  0
  150.4650  143.7799  158.3715 N   0  0  0  0  0  0  0  0  0  0  0  0
  150.4359  137.7433  156.0375 H   0  0  0  0  0  0  0  0  0  0  0  0
  151.9186  138.4612  155.4092 H   0  0  0  0  0  0  0  0  0  0  0  0
  151.1022  137.1924  154.5072 H   0  0  0  0  0  0  0  0  0  0  0  0
  150.6739  139.3485  153.4574 H   0  0  0  0  0  0  0  0  0  0  0  0
  148.8738  137.6968  153.3448 H   0  0  0  0  0  0  0  0  0  0  0  0
  148.1403  138.3157  154.8045 H   0  0  0  0  0  0  0  0  0  0  0  0
  146.0757  138.7079  153.2405 H   0  0  0  0  0  0  0  0  0  0  0  0
  147.0359  138.2167  151.8465 H   0  0  0  0  0  0  0  0  0  0  0  0
  146.2971  139.8139  151.8760 H   0  0  0  0  0  0  0  0  0  0  0  0
  147.4530  141.6104  153.0588 H   0  0  0  0  0  0  0  0  0  0  0  0
  146.6773  141.8251  155.4379 H   0  0  0  0  0  0  0  0  0  0  0  0
  146.9208  140.0993  155.6625 H   0  0  0  0  0  0  0  0  0  0  0  0
  145.7447  140.6828  154.4973 H   0  0  0  0  0  0  0  0  0  0  0  0
  149.7597  141.7353  153.4289 H   0  0  0  0  0  0  0  0  0  0  0  0
  149.0231  142.4106  154.8382 H   0  0  0  0  0  0  0  0  0  0  0  0
  151.0070  140.8715  155.2621 H   0  0  0  0  0  0  0  0  0  0  0  0
  148.4898  139.9744  156.4384 H   0  0  0  0  0  0  0  0  0  0  0  0
  149.5393  142.3499  156.8141 H   0  0  0  0  0  0  0  0  0  0  0  0
  148.6620  141.4690  158.0545 H   0  0  0  0  0  0  0  0  0  0  0  0
  150.6624  140.6789  159.0993 H   0  0  0  0  0  0  0  0  0  0  0  0
  151.6391  140.9789  157.6825 H   0  0  0  0  0  0  0  0  0  0  0  0
  152.7957  142.0010  160.0962 H   0  0  0  0  0  0  0  0  0  0  0  0
  153.3512  144.2907  160.9483 H   0  0  0  0  0  0  0  0  0  0  0  0
  152.0166  146.2484  160.1144 H   0  0  0  0  0  0  0  0  0  0  0  0
  150.1795  145.8283  158.4587 H   0  0  0  0  0  0  0  0  0  0  0  0
  149.9822  139.5211  156.9410 H   0  0  0  0  0  0  0  0  0  0  0  0
  148.6293  139.8117  152.3463 H   0  0  0  0  0  0  0  0  0  0  0  0
  1  2  1  0  0  0  0
  1 19  1  0  0  0  0
  1 20  1  0  0  0  0
  1 21  1  0  0  0  0
  2  9  1  0  0  0  0
  2  3  1  0  0  0  0
  2 22  1  0  0  0  0
  3  4  1  0  0  0  0
  3 23  1  0  0  0  0
  3 24  1  0  0  0  0
  4  5  1  0  0  0  0
  4  6  1  0  0  0  0
  4 45  1  0  0  0  0
  5 25  1  0  0  0  0
  5 26  1  0  0  0  0
  5 27  1  0  0  0  0
  6  7  1  0  0  0  0
  6  8  1  0  0  0  0
  6 28  1  0  0  0  0
  7 29  1  0  0  0  0
  7 30  1  0  0  0  0
  7 31  1  0  0  0  0
  8  9  1  0  0  0  0
  8 32  1  0  0  0  0
  8 33  1  0  0  0  0
  9 10  1  0  0  0  0
  9 34  1  0  0  0  0
 10 11  1  0  0  0  0
 10 35  1  0  0  0  0
 10 44  1  0  0  0  0
 11 12  1  0  0  0  0
 11 36  1  0  0  0  0
 11 37  1  0  0  0  0
 12 13  1  0  0  0  0
 12 38  1  0  0  0  0
 12 39  1  0  0  0  0
 13 18  1  0  0  0  0
 13 14  2  0  0  0  0
 14 15  1  0  0  0  0
 14 40  1  0  0  0  0
 15 16  2  0  0  0  0
 15 41  1  0  0  0  0
 16 17  1  0  0  0  0
 16 42  1  0  0  0  0
 17 18  2  0  0  0  0
 17 43  1  0  0  0  0
M  CHG  1   4   1
M  CHG  1  10   1
M  END
> <s_m_source_file>
AV-unprocessed.smi

> <i_m_source_file_index>
3303

> <i_lp_mmshare_version>
43012

> <i_f3d_flags>
0

> <s_epik_input>
W0NIM11bQ0BASF0xW0NIMl1OKFtDSDNdKVtDQEBIXShbQ0gzXSlbQ0gyXVtDQEhdMVtOSF1bQ0gyXVtDSDJdYzJbY0hdW2NIXVtjSF1bY0hdbjI=

> <s_epik_cmdline>
J2VwaWtfcHl0aG9uJywgJy1waCcsICc3LjAnLCAnLXRuJywgJzgnLCAnLW1hJywgJzIwMCcsICctbWV0YWxfYmluZGluZycsICctaW1hZScsICc8aW5maWxlLm1hZT4nLCAnLW9tYWUnLCAnPG91dGZpbGUubWFlPic=

> <r_epik_Ionization_Penalty>
0.0769462

> <r_epik_Ionization_Penalty_Charging>
0.0759813

> <r_epik_Ionization_Penalty_Neutral>
0.000964829

> <r_epik_State_Penalty>
0.0654373

> <r_epik_Charging_Adjusted_Penalty>
0.141419

> <i_epik_Tot_Q>
2

> <i_epik_Tot_abs_Q>
2

> <r_epik_Metal_State_Penalty>
0.0656439

> <b_epik_Metal_Only>
0

> <s_lp_Force_Field>
OPLS_2005

> <r_lp_Energy>
33.2065

> <b_lp_Chiralities_Consistent>
1

> <s_lp_Variant>
AV-unprocessed.smi:3303-4

> <Gold.Version>
5.8.1

> <Gold.Id.Protein>
6NUR|6NUR_protein|mol2

> <Gold.PLP.Fitness>
43.5114

> <Gold.PLP.PLP>
-38.3592

> <Gold.PLP.part.hbond>
-1.0000

> <Gold.PLP.part.metal>
0.0000

> <Gold.PLP.part.buried>
-2.2593

> <Gold.PLP.part.nonpolar>
-35.3461

> <Gold.PLP.part.repulsive>
0.2759

> <Gold.PLP.ligand.clash>
0.0000

> <Gold.PLP.ligand.torsion>
0.4173

> <Gold.PLP.Chemscore.Hbond>
1.0000

> <Gold.PLP.Chemscore.CHOScore>
0.9913

> <Gold.PLP.Chemscore.Metal>
0.0000

> <Gold.Chemscore.Hbonds>
donor molecule, donor type, donor heavy atom, donor atom, acceptor molecule, acceptor atom, score
      L1  H     4    45       P1  7957  1.00
      L1  C    17    43       P1  8029  0.95

> <Gold.PLP.Chemscore.Internal.Correction>
0.0129

> <Gold.Rescore>
     Score         DG    S(hbond)    S(metal)    S(lipo)     H(rot)  DE(clash)    DE(int)     intcor
     18.98     -19.45       1.00        0.00     120.93       1.37       0.10       0.37       ----

> <Gold.Chemscore.Fitness>
18.9836

> <Gold.Chemscore.DG>
-19.4493

> <Gold.Chemscore.ZeroCoef>
-5.4800

> <Gold.Chemscore.Hbond>
0.9995

> <Gold.Chemscore.Metal>
0.0000

> <Gold.Chemscore.Lipo>
120.9345

> <Gold.Chemscore.Internal_Hbond>
0.0000

> <Gold.Chemscore.DEClash>
0.0966

> <Gold.Chemscore.DEInternal>
0.3690

> <Gold.Chemscore.Rot>
1.3744

> <Gold.Chemscore.Internal.Correction>
   9.000000E+99

> <Gold.Chemscore.Hbonds>
donor molecule, donor type, donor heavy atom, donor atom, acceptor molecule, acceptor atom, score
      L1  H     4    45       P1  7957  0.95

> <Gold.Chemscore.Hbond.Weighted>
-3.3384

> <Gold.Chemscore.Metal.Weighted>
-0.0000

> <Gold.Chemscore.Lipo.Weighted>
-14.1493

> <Gold.Chemscore.Internal_Hbond.Weighted>
0.0000

> <Gold.Chemscore.DEClash.Weighted>
0.0966

> <Gold.Chemscore.DEInternal.Weighted>
0.3690

> <Gold.Chemscore.Rot.Weighted>
3.5185

> <Gold.Chemscore.Internal.Correction.Weighted>
   9.000000E+99

> <Gold.Protein.RotatedTorsions>
[ 6907 6896 6895 6894 ] final  -76.85 input  -60.11 | X-H torsion
[ 7974 7965 7964 7962 ] final   79.31 input  175.53 | X-H torsion
[ 8008 7997 7996 7995 ] final -162.26 input   59.86 | X-H torsion
[ 10167 10162 10161 10158 ] final  -90.08 input  -65.29 | X-H torsion
[ 10718 10713 10712 10709 ] final  -85.29 input   66.30 | X-H torsion
[ 10763 10752 10751 10750 ] final  -85.81 input  -60.55 | X-H torsion
[ 11005 11000 10999 10996 ] final   61.61 input  -57.11 | X-H torsion

> <Gold.Protein.ActiveResidues>
 VAL166  LYS551  ARG553  GLY616  TRP617  ASP618  TYR619  PRO620  LYS621  CYS622 
 ASP623  PHE694  ASN695  SER759  ASP760  ASP761  ALA762  ILE779  LEU786  VAL792 
 PHE793  MET794  SER795  GLU796  ALA797  LYS798  CYS799  TRP800  GLU811  SER814 

> <Gold.Protein.RotatedAtoms>
  150.7015  134.4511  159.5336 H   0  0  0  0  0  0  0  0  0  0  0  0  # atno 6907 bound_to 6896
  152.2203  134.8416  160.0496 H   0  0  0  0  0  0  0  0  0  0  0  0  # atno 6908 bound_to 6896
  151.9269  133.3565  159.3953 H   0  0  0  0  0  0  0  0  0  0  0  0  # atno 6909 bound_to 6896
  145.6658  139.2483  143.1896 H   0  0  0  0  0  0  0  0  0  0  0  0  # atno 7974 bound_to 7965
  155.8042  140.0896  157.1940 H   0  0  0  0  0  0  0  0  0  0  0  0  # atno 8008 bound_to 7997
  154.3981  140.1466  156.3369 H   0  0  0  0  0  0  0  0  0  0  0  0  # atno 8009 bound_to 7997
  155.8431  140.3438  155.5647 H   0  0  0  0  0  0  0  0  0  0  0  0  # atno 8010 bound_to 7997
  140.3584  143.2854  151.9643 H   0  0  0  0  0  0  0  0  0  0  0  0  # atno 10167 bound_to 10162
  155.9998  130.4726  150.4539 H   0  0  0  0  0  0  0  0  0  0  0  0  # atno 10718 bound_to 10713
  154.6153  135.5472  153.7517 H   0  0  0  0  0  0  0  0  0  0  0  0  # atno 10763 bound_to 10752
  153.0213  135.6399  154.1519 H   0  0  0  0  0  0  0  0  0  0  0  0  # atno 10764 bound_to 10752
  154.1455  135.2906  155.3129 H   0  0  0  0  0  0  0  0  0  0  0  0  # atno 10765 bound_to 10752
  140.0149  134.6240  155.9724 H   0  0  0  0  0  0  0  0  0  0  0  0  # atno 11005 bound_to 11000
  146.1087  140.7455  142.9514 LP  0  0  0  0  0  0  0  0  0  0  0  0  # atno 17320 bound_to 7965
  144.7073  140.3903  143.7108 LP  0  0  0  0  0  0  0  0  0  0  0  0  # atno 17321 bound_to 7965
  139.4817  144.6014  151.7598 LP  0  0  0  0  0  0  0  0  0  0  0  0  # atno 17342 bound_to 10162
  140.5151  144.0966  150.6006 LP  0  0  0  0  0  0  0  0  0  0  0  0  # atno 17343 bound_to 10162
  157.2570  131.0558  151.2344 LP  0  0  0  0  0  0  0  0  0  0  0  0  # atno 17370 bound_to 10713
  157.3472  130.7064  149.6418 LP  0  0  0  0  0  0  0  0  0  0  0  0  # atno 17371 bound_to 10713
  141.1736  133.6539  156.4744 LP  0  0  0  0  0  0  0  0  0  0  0  0  # atno 17394 bound_to 11000
  140.4488  134.6948  157.5029 LP  0  0  0  0  0  0  0  0  0  0  0  0  # atno 17395 bound_to 11000

$$$$
