AV-unprocessed.smi:946|AV-procd|sdf|4235|dock5
  -GOLD-   22720 2143D 1   1.00000     0.00000
 Structure written by MMmdl.
 42 43  0  0  0  0  0  0  0  0  1 V2000
  151.9594  136.1709  157.1170 C   0  0  0  0  0  0  0  0  0  0  0  0
  152.1080  137.5413  156.4402 C   0  0  1  0  0  0  0  0  0  0  0  0
  150.8031  137.9858  156.0794 O   0  0  0  0  0  0  0  0  0  0  0  0
  150.6936  138.5754  154.7888 C   0  0  0  0  0  0  0  0  0  0  0  0
  149.4721  139.5039  154.7744 C   0  0  2  0  0  0  0  0  0  0  0  0
  148.3967  139.0279  153.7782 C   0  0  0  0  0  0  0  0  0  0  0  0
  147.2308  140.0222  153.7287 C   0  0  0  0  0  0  0  0  0  0  0  0
  147.7643  141.4310  153.4479 C   0  0  0  0  0  0  0  0  0  0  0  0
  148.8817  141.7882  154.4409 C   0  0  0  0  0  0  0  0  0  0  0  0
  149.9106  140.8048  154.3880 O   0  0  0  0  0  0  0  0  0  0  0  0
  152.7738  138.5577  157.3814 C   0  0  0  0  0  0  0  0  0  0  0  0
  153.9530  138.4079  157.7032 O   0  0  0  0  0  0  0  0  0  0  0  0
  151.9861  139.5639  157.8053 N   0  0  0  0  0  0  0  0  0  0  0  0
  152.3143  140.6245  158.6901 C   0  0  0  0  0  0  0  0  0  0  0  0
  153.1606  140.2699  159.7637 C   0  0  0  0  0  0  0  0  0  0  0  0
  153.5471  141.2537  160.6935 C   0  0  0  0  0  0  0  0  0  0  0  0
  153.0807  142.5694  160.5249 C   0  0  0  0  0  0  0  0  0  0  0  0
  152.2405  142.8453  159.4251 C   0  0  0  0  0  0  0  0  0  0  0  0
  151.6976  144.2435  159.1654 C   0  0  0  0  0  0  0  0  0  0  0  0
  150.3692  144.1982  159.0590 F   0  0  0  0  0  0  0  0  0  0  0  0
  152.0136  145.0861  160.1498 F   0  0  0  0  0  0  0  0  0  0  0  0
  152.2047  144.7174  158.0270 F   0  0  0  0  0  0  0  0  0  0  0  0
  151.8698  141.8958  158.5365 N   0  0  0  0  0  0  0  0  0  0  0  0
  152.9275  135.7740  157.4250 H   0  0  0  0  0  0  0  0  0  0  0  0
  151.5112  135.4493  156.4336 H   0  0  0  0  0  0  0  0  0  0  0  0
  151.3224  136.2250  158.0009 H   0  0  0  0  0  0  0  0  0  0  0  0
  152.7105  137.4144  155.5386 H   0  0  0  0  0  0  0  0  0  0  0  0
  151.5909  139.1315  154.5141 H   0  0  0  0  0  0  0  0  0  0  0  0
  150.5627  137.7819  154.0517 H   0  0  0  0  0  0  0  0  0  0  0  0
  149.0435  139.5415  155.7778 H   0  0  0  0  0  0  0  0  0  0  0  0
  148.8339  138.9283  152.7836 H   0  0  0  0  0  0  0  0  0  0  0  0
  148.0300  138.0402  154.0589 H   0  0  0  0  0  0  0  0  0  0  0  0
  146.5107  139.7281  152.9648 H   0  0  0  0  0  0  0  0  0  0  0  0
  146.7001  140.0130  154.6816 H   0  0  0  0  0  0  0  0  0  0  0  0
  148.1539  141.4789  152.4303 H   0  0  0  0  0  0  0  0  0  0  0  0
  146.9562  142.1605  153.5092 H   0  0  0  0  0  0  0  0  0  0  0  0
  149.3093  142.7590  154.1901 H   0  0  0  0  0  0  0  0  0  0  0  0
  148.4910  141.8659  155.4567 H   0  0  0  0  0  0  0  0  0  0  0  0
  151.0415  139.5705  157.4496 H   0  0  0  0  0  0  0  0  0  0  0  0
  153.5121  139.2547  159.8785 H   0  0  0  0  0  0  0  0  0  0  0  0
  154.1926  141.0021  161.5219 H   0  0  0  0  0  0  0  0  0  0  0  0
  153.3663  143.3405  161.2248 H   0  0  0  0  0  0  0  0  0  0  0  0
  1  2  1  0  0  0  0
  1 24  1  0  0  0  0
  1 25  1  0  0  0  0
  1 26  1  0  0  0  0
  2  3  1  0  0  0  0
  2 11  1  0  0  0  0
  2 27  1  0  0  0  0
  3  4  1  0  0  0  0
  4  5  1  0  0  0  0
  4 28  1  0  0  0  0
  4 29  1  0  0  0  0
  5 10  1  0  0  0  0
  5  6  1  0  0  0  0
  5 30  1  0  0  0  0
  6  7  1  0  0  0  0
  6 31  1  0  0  0  0
  6 32  1  0  0  0  0
  7  8  1  0  0  0  0
  7 33  1  0  0  0  0
  7 34  1  0  0  0  0
  8  9  1  0  0  0  0
  8 35  1  0  0  0  0
  8 36  1  0  0  0  0
  9 10  1  0  0  0  0
  9 37  1  0  0  0  0
  9 38  1  0  0  0  0
 11 12  2  0  0  0  0
 11 13  1  0  0  0  0
 13 14  1  0  0  0  0
 13 39  1  0  0  0  0
 14 23  1  0  0  0  0
 14 15  2  0  0  0  0
 15 16  1  0  0  0  0
 15 40  1  0  0  0  0
 16 17  2  0  0  0  0
 16 41  1  0  0  0  0
 17 18  1  0  0  0  0
 17 42  1  0  0  0  0
 18 19  1  0  0  0  0
 18 23  2  0  0  0  0
 19 20  1  0  0  0  0
 19 21  1  0  0  0  0
 19 22  1  0  0  0  0
M  END
> <s_m_source_file>
AV-unprocessed.smi

> <i_m_source_file_index>
946

> <i_lp_mmshare_version>
43012

> <i_f3d_flags>
0

> <s_epik_input>
TzFbQ0gyXVtDSDJdW0NIMl1bQ0gyXVtDQEhdMVtDSDJdT1tDQEBIXShbQ0gzXSlDKD1PKVtOSF1jMltjSF1bY0hdW2NIXWMobjIpQyhGKShGKUY=

> <s_epik_cmdline>
J2VwaWtfcHl0aG9uJywgJy1waCcsICc3LjAnLCAnLXRuJywgJzgnLCAnLW1hJywgJzIwMCcsICctbWV0YWxfYmluZGluZycsICctaW1hZScsICc8aW5maWxlLm1hZT4nLCAnLW9tYWUnLCAnPG91dGZpbGUubWFlPic=

> <r_lp_tautomer_probability>
1

> <r_epik_Ionization_Penalty>
1.32683e-06

> <r_epik_Ionization_Penalty_Charging>
0

> <r_epik_Ionization_Penalty_Neutral>
1.32683e-06

> <r_epik_State_Penalty>
-0

> <r_epik_Charging_Adjusted_Penalty>
0

> <i_epik_Tot_Q>
0

> <i_epik_Tot_abs_Q>
0

> <r_epik_Metal_State_Penalty>
-0

> <b_epik_Metal_Only>
0

> <s_lp_Force_Field>
OPLS_2005

> <r_lp_Energy>
15.913

> <b_lp_Chiralities_Consistent>
1

> <s_lp_Variant>
AV-unprocessed.smi:946-2

> <Gold.Version>
5.8.1

> <Gold.Id.Protein>
6NUR|6NUR_protein|mol2

> <Gold.PLP.Fitness>
50.0744

> <Gold.PLP.PLP>
-48.9069

> <Gold.PLP.part.hbond>
-2.0000

> <Gold.PLP.part.metal>
0.0000

> <Gold.PLP.part.buried>
-5.1419

> <Gold.PLP.part.nonpolar>
-41.5230

> <Gold.PLP.part.repulsive>
0.2039

> <Gold.PLP.ligand.clash>
0.0000

> <Gold.PLP.ligand.torsion>
1.9520

> <Gold.PLP.Chemscore.Hbond>
1.6640

> <Gold.PLP.Chemscore.CHOScore>
0.0000

> <Gold.PLP.Chemscore.Metal>
0.0000

> <Gold.Chemscore.Hbonds>
donor molecule, donor type, donor heavy atom, donor atom, acceptor molecule, acceptor atom, score
      P1  H  7989  7998       L1    10  0.67
      P1  H  7997  8009       L1    12  0.93

> <Gold.PLP.Chemscore.Internal.Correction>
0.0795

> <Gold.Rescore>
     Score         DG    S(hbond)    S(metal)    S(lipo)     H(rot)  DE(clash)    DE(int)     intcor
     13.72     -17.32       1.47        0.00      97.63       1.76       0.05       3.55       ----

> <Gold.Chemscore.Fitness>
13.7221

> <Gold.Chemscore.DG>
-17.3159

> <Gold.Chemscore.ZeroCoef>
-5.4800

> <Gold.Chemscore.Hbond>
1.4693

> <Gold.Chemscore.Metal>
0.0000

> <Gold.Chemscore.Lipo>
97.6343

> <Gold.Chemscore.Internal_Hbond>
0.0000

> <Gold.Chemscore.DEClash>
0.0456

> <Gold.Chemscore.DEInternal>
3.5483

> <Gold.Chemscore.Rot>
1.7557

> <Gold.Chemscore.Internal.Correction>
   9.000000E+99

> <Gold.Chemscore.Hbonds>
donor molecule, donor type, donor heavy atom, donor atom, acceptor molecule, acceptor atom, score
      P1  H  7989  7998       L1    10  0.63
      P1  H  7997  8009       L1    12  0.20

> <Gold.Chemscore.Hbond.Weighted>
-4.9074

> <Gold.Chemscore.Metal.Weighted>
-0.0000

> <Gold.Chemscore.Lipo.Weighted>
-11.4232

> <Gold.Chemscore.Internal_Hbond.Weighted>
0.0000

> <Gold.Chemscore.DEClash.Weighted>
0.0456

> <Gold.Chemscore.DEInternal.Weighted>
3.5483

> <Gold.Chemscore.Rot.Weighted>
4.4946

> <Gold.Chemscore.Internal.Correction.Weighted>
   9.000000E+99

> <Gold.Protein.RotatedTorsions>
[ 6907 6896 6895 6894 ] final  156.98 input  -60.11 | X-H torsion
[ 7974 7965 7964 7962 ] final  -19.96 input  175.53 | X-H torsion
[ 8008 7997 7996 7995 ] final  153.58 input   59.86 | X-H torsion
[ 10167 10162 10161 10158 ] final    9.90 input  -65.29 | X-H torsion
[ 10718 10713 10712 10709 ] final -161.87 input   66.30 | X-H torsion
[ 10763 10752 10751 10750 ] final  155.05 input  -60.55 | X-H torsion
[ 11005 11000 10999 10996 ] final   88.57 input  -57.11 | X-H torsion

> <Gold.Protein.ActiveResidues>
 VAL166  LYS551  ARG553  GLY616  TRP617  ASP618  TYR619  PRO620  LYS621  CYS622 
 ASP623  PHE694  ASN695  SER759  ASP760  ASP761  ALA762  ILE779  LEU786  VAL792 
 PHE793  MET794  SER795  GLU796  ALA797  LYS798  CYS799  TRP800  GLU811  SER814 

> <Gold.Protein.RotatedAtoms>
  152.0217  133.3901  159.4260 H   0  0  0  0  0  0  0  0  0  0  0  0  # atno 6907 bound_to 6896
  150.6889  134.3618  159.4963 H   0  0  0  0  0  0  0  0  0  0  0  0  # atno 6908 bound_to 6896
  152.1393  134.9075  160.0605 H   0  0  0  0  0  0  0  0  0  0  0  0  # atno 6909 bound_to 6896
  146.1814  140.4135  142.8493 H   0  0  0  0  0  0  0  0  0  0  0  0  # atno 7974 bound_to 7965
  156.2574  140.1990  156.6512 H   0  0  0  0  0  0  0  0  0  0  0  0  # atno 8008 bound_to 7997
  154.6535  140.0569  157.0007 H   0  0  0  0  0  0  0  0  0  0  0  0  # atno 8009 bound_to 7997
  155.1382  140.3240  155.4461 H   0  0  0  0  0  0  0  0  0  0  0  0  # atno 8010 bound_to 7997
  140.6227  143.8169  150.7194 H   0  0  0  0  0  0  0  0  0  0  0  0  # atno 10167 bound_to 10162
  156.6024  130.8816  151.2917 H   0  0  0  0  0  0  0  0  0  0  0  0  # atno 10718 bound_to 10713
  154.1622  135.2809  155.3105 H   0  0  0  0  0  0  0  0  0  0  0  0  # atno 10763 bound_to 10752
  154.6138  135.5490  153.7505 H   0  0  0  0  0  0  0  0  0  0  0  0  # atno 10764 bound_to 10752
  153.0189  135.6422  154.1764 H   0  0  0  0  0  0  0  0  0  0  0  0  # atno 10765 bound_to 10752
  139.8893  134.8496  156.3019 H   0  0  0  0  0  0  0  0  0  0  0  0  # atno 11005 bound_to 11000
  144.8321  140.6724  143.6284 LP  0  0  0  0  0  0  0  0  0  0  0  0  # atno 17320 bound_to 7965
  145.4066  139.1588  143.4149 LP  0  0  0  0  0  0  0  0  0  0  0  0  # atno 17321 bound_to 7965
  140.1763  143.4152  152.1965 LP  0  0  0  0  0  0  0  0  0  0  0  0  # atno 17342 bound_to 10162
  139.5452  144.7292  151.4605 LP  0  0  0  0  0  0  0  0  0  0  0  0  # atno 17343 bound_to 10162
  157.7276  130.9645  150.1706 LP  0  0  0  0  0  0  0  0  0  0  0  0  # atno 17370 bound_to 10713
  156.2458  130.3695  149.8286 LP  0  0  0  0  0  0  0  0  0  0  0  0  # atno 17371 bound_to 10713
  140.9908  133.7210  156.0810 LP  0  0  0  0  0  0  0  0  0  0  0  0  # atno 17394 bound_to 11000
  140.7628  134.3920  157.5522 LP  0  0  0  0  0  0  0  0  0  0  0  0  # atno 17395 bound_to 11000

$$$$
