AV-unprocessed.smi:2267|AV-procd|sdf|9149|dock8
  -GOLD-   2272012353D 1   1.00000     0.00000
 Structure written by MMmdl.
 41 42  0  0  0  0  0  0  0  0  1 V2000
  152.8502  142.9284  162.1274 C   0  0  0  0  0  0  0  0  0  0  0  0
  152.3758  143.5095  160.8115 C   0  0  0  0  0  0  0  0  0  0  0  0
  152.2286  144.9029  160.6612 C   0  0  0  0  0  0  0  0  0  0  0  0
  151.7860  145.4340  159.4359 C   0  0  0  0  0  0  0  0  0  0  0  0
  151.4905  144.5742  158.3611 C   0  0  0  0  0  0  0  0  0  0  0  0
  151.6317  143.1777  158.4940 C   0  0  0  0  0  0  0  0  0  0  0  0
  151.3212  142.4110  157.3912 O   0  0  0  0  0  0  0  0  0  0  0  0
  151.8592  141.0977  157.3088 C   0  0  0  0  0  0  0  0  0  0  0  0
  151.4919  140.4942  155.9423 C   0  0  1  0  0  0  0  0  0  0  0  0
  152.4844  139.5366  155.6291 O   0  0  0  0  0  0  0  0  0  0  0  0
  150.1278  139.7680  155.9806 C   0  0  0  0  0  0  0  0  0  0  0  0
  149.0164  140.6518  155.5889 N   0  0  0  0  0  0  0  0  0  0  0  0
  148.9476  141.0008  154.2302 C   0  0  0  0  0  0  0  0  0  0  0  0
  148.0142  141.7693  153.7724 N   0  0  0  0  0  0  0  0  0  0  0  0
  147.0429  142.2786  154.6390 C   0  0  0  0  0  0  0  0  0  0  0  0
  145.9945  143.1705  153.9975 C   0  0  0  0  0  0  0  0  0  0  0  0
  147.0568  141.9845  155.9678 C   0  0  0  0  0  0  0  0  0  0  0  0
  146.0273  142.5126  156.9591 C   0  0  0  0  0  0  0  0  0  0  0  0
  148.1144  141.1121  156.5037 C   0  0  0  0  0  0  0  0  0  0  0  0
  148.1924  140.8110  157.6964 O   0  0  0  0  0  0  0  0  0  0  0  0
  152.0773  142.6509  159.7331 C   0  0  0  0  0  0  0  0  0  0  0  0
  153.2439  143.7041  162.7848 H   0  0  0  0  0  0  0  0  0  0  0  0
  153.6400  142.1960  161.9577 H   0  0  0  0  0  0  0  0  0  0  0  0
  152.0250  142.4323  162.6386 H   0  0  0  0  0  0  0  0  0  0  0  0
  152.4537  145.5678  161.4823 H   0  0  0  0  0  0  0  0  0  0  0  0
  151.6730  146.5017  159.3196 H   0  0  0  0  0  0  0  0  0  0  0  0
  151.1515  144.9910  157.4239 H   0  0  0  0  0  0  0  0  0  0  0  0
  152.9406  141.0928  157.4572 H   0  0  0  0  0  0  0  0  0  0  0  0
  151.4109  140.4995  158.1038 H   0  0  0  0  0  0  0  0  0  0  0  0
  151.4838  141.2822  155.1881 H   0  0  0  0  0  0  0  0  0  0  0  0
  152.1711  138.6829  155.8860 H   0  0  0  0  0  0  0  0  0  0  0  0
  150.1611  138.8567  155.3795 H   0  0  0  0  0  0  0  0  0  0  0  0
  149.9329  139.4092  156.9929 H   0  0  0  0  0  0  0  0  0  0  0  0
  149.7325  140.5831  153.5974 H   0  0  0  0  0  0  0  0  0  0  0  0
  144.9969  142.7544  154.1420 H   0  0  0  0  0  0  0  0  0  0  0  0
  146.1618  143.2711  152.9243 H   0  0  0  0  0  0  0  0  0  0  0  0
  146.0238  144.1689  154.4348 H   0  0  0  0  0  0  0  0  0  0  0  0
  146.5193  143.1047  157.7313 H   0  0  0  0  0  0  0  0  0  0  0  0
  145.5126  141.6829  157.4445 H   0  0  0  0  0  0  0  0  0  0  0  0
  145.2689  143.1424  156.4969 H   0  0  0  0  0  0  0  0  0  0  0  0
  152.1976  141.5885  159.8808 H   0  0  0  0  0  0  0  0  0  0  0  0
  1  2  1  0  0  0  0
  1 22  1  0  0  0  0
  1 23  1  0  0  0  0
  1 24  1  0  0  0  0
  2 21  1  0  0  0  0
  2  3  2  0  0  0  0
  3  4  1  0  0  0  0
  3 25  1  0  0  0  0
  4  5  2  0  0  0  0
  4 26  1  0  0  0  0
  5  6  1  0  0  0  0
  5 27  1  0  0  0  0
  6  7  1  0  0  0  0
  6 21  2  0  0  0  0
  7  8  1  0  0  0  0
  8  9  1  0  0  0  0
  8 28  1  0  0  0  0
  8 29  1  0  0  0  0
  9 10  1  0  0  0  0
  9 11  1  0  0  0  0
  9 30  1  0  0  0  0
 10 31  1  0  0  0  0
 11 12  1  0  0  0  0
 11 32  1  0  0  0  0
 11 33  1  0  0  0  0
 12 19  1  0  0  0  0
 12 13  1  0  0  0  0
 13 14  2  0  0  0  0
 13 34  1  0  0  0  0
 14 15  1  0  0  0  0
 15 16  1  0  0  0  0
 15 17  2  0  0  0  0
 16 35  1  0  0  0  0
 16 36  1  0  0  0  0
 16 37  1  0  0  0  0
 17 18  1  0  0  0  0
 17 19  1  0  0  0  0
 18 38  1  0  0  0  0
 18 39  1  0  0  0  0
 18 40  1  0  0  0  0
 19 20  2  0  0  0  0
 21 41  1  0  0  0  0
M  END
> <s_m_source_file>
AV-unprocessed.smi

> <i_m_source_file_index>
2267

> <i_lp_mmshare_version>
43012

> <i_f3d_flags>
0

> <s_epik_input>
W0NIM11jMVtjSF1bY0hdW2NIXWMoW2NIXTEpT1tDSDJdW0NASF0oW09IXSlbQ0gyXW4yW2NIXW5jKFtDSDNdKWMoW0NIM10pYzI9Tw==

> <s_epik_cmdline>
J2VwaWtfcHl0aG9uJywgJy1waCcsICc3LjAnLCAnLXRuJywgJzgnLCAnLW1hJywgJzIwMCcsICctbWV0YWxfYmluZGluZycsICctaW1hZScsICc8aW5maWxlLm1hZT4nLCAnLW9tYWUnLCAnPG91dGZpbGUubWFlPic=

> <r_lp_tautomer_probability>
1

> <r_epik_Ionization_Penalty>
3.72236e-05

> <r_epik_Ionization_Penalty_Charging>
8.38864e-08

> <r_epik_Ionization_Penalty_Neutral>
3.71397e-05

> <r_epik_State_Penalty>
-0

> <r_epik_Charging_Adjusted_Penalty>
8.38864e-08

> <i_epik_Tot_Q>
0

> <i_epik_Tot_abs_Q>
0

> <r_epik_Metal_State_Penalty>
-0

> <b_epik_Metal_Only>
0

> <s_lp_Force_Field>
OPLS_2005

> <r_lp_Energy>
23.9214

> <b_lp_Chiralities_Consistent>
1

> <s_lp_Variant>
AV-unprocessed.smi:2267-2

> <Gold.Version>
5.8.1

> <Gold.Id.Protein>
6NUR|6NUR_protein|mol2

> <Gold.PLP.Fitness>
50.7205

> <Gold.PLP.PLP>
-47.1365

> <Gold.PLP.part.hbond>
-2.0000

> <Gold.PLP.part.metal>
0.0000

> <Gold.PLP.part.buried>
-4.1734

> <Gold.PLP.part.nonpolar>
-39.8195

> <Gold.PLP.part.repulsive>
0.2628

> <Gold.PLP.ligand.clash>
0.0000

> <Gold.PLP.ligand.torsion>
1.1585

> <Gold.PLP.Chemscore.Hbond>
1.0161

> <Gold.PLP.Chemscore.CHOScore>
0.9346

> <Gold.PLP.Chemscore.Metal>
0.0000

> <Gold.Chemscore.Hbonds>
donor molecule, donor type, donor heavy atom, donor atom, acceptor molecule, acceptor atom, score
      P1  H  7997  8009       L1    10  0.98
      L1  C    13    34       P1  7957  0.96

> <Gold.PLP.Chemscore.Internal.Correction>
0.0490

> <Gold.Rescore>
     Score         DG    S(hbond)    S(metal)    S(lipo)     H(rot)  DE(clash)    DE(int)     intcor
     15.10     -16.07       0.95        0.00     114.87       2.35       0.06       0.90       ----

> <Gold.Chemscore.Fitness>
15.1043

> <Gold.Chemscore.DG>
-16.0684

> <Gold.Chemscore.ZeroCoef>
-5.4800

> <Gold.Chemscore.Hbond>
0.9467

> <Gold.Chemscore.Metal>
0.0000

> <Gold.Chemscore.Lipo>
114.8699

> <Gold.Chemscore.Internal_Hbond>
0.0000

> <Gold.Chemscore.DEClash>
0.0614

> <Gold.Chemscore.DEInternal>
0.9026

> <Gold.Chemscore.Rot>
2.3490

> <Gold.Chemscore.Internal.Correction>
   9.000000E+99

> <Gold.Chemscore.Hbonds>
donor molecule, donor type, donor heavy atom, donor atom, acceptor molecule, acceptor atom, score
      P1  H  7997  8009       L1    10  0.74

> <Gold.Chemscore.Hbond.Weighted>
-3.1621

> <Gold.Chemscore.Metal.Weighted>
-0.0000

> <Gold.Chemscore.Lipo.Weighted>
-13.4398

> <Gold.Chemscore.Internal_Hbond.Weighted>
0.0000

> <Gold.Chemscore.DEClash.Weighted>
0.0614

> <Gold.Chemscore.DEInternal.Weighted>
0.9026

> <Gold.Chemscore.Rot.Weighted>
6.0136

> <Gold.Chemscore.Internal.Correction.Weighted>
   9.000000E+99

> <Gold.Protein.RotatedTorsions>
[ 6907 6896 6895 6894 ] final  -65.18 input  -60.11 | X-H torsion
[ 7974 7965 7964 7962 ] final -150.09 input  175.53 | X-H torsion
[ 8008 7997 7996 7995 ] final -154.59 input   59.86 | X-H torsion
[ 10167 10162 10161 10158 ] final  -26.22 input  -65.29 | X-H torsion
[ 10718 10713 10712 10709 ] final  -18.32 input   66.30 | X-H torsion
[ 10763 10752 10751 10750 ] final  -87.00 input  -60.55 | X-H torsion
[ 11005 11000 10999 10996 ] final  145.63 input  -57.11 | X-H torsion

> <Gold.Protein.ActiveResidues>
 VAL166  LYS551  ARG553  GLY616  TRP617  ASP618  TYR619  PRO620  LYS621  CYS622 
 ASP623  PHE694  ASN695  SER759  ASP760  ASP761  ALA762  ILE779  LEU786  VAL792 
 PHE793  MET794  SER795  GLU796  ALA797  LYS798  CYS799  TRP800  GLU811  SER814 

> <Gold.Protein.RotatedAtoms>
  150.7540  134.6196  159.6128 H   0  0  0  0  0  0  0  0  0  0  0  0  # atno 6907 bound_to 6896
  152.3506  134.7007  160.0246 H   0  0  0  0  0  0  0  0  0  0  0  0  # atno 6908 bound_to 6896
  151.7429  133.3287  159.3407 H   0  0  0  0  0  0  0  0  0  0  0  0  # atno 6909 bound_to 6896
  144.7928  140.4979  143.5760 H   0  0  0  0  0  0  0  0  0  0  0  0  # atno 7974 bound_to 7965
  155.6888  140.0753  157.2456 H   0  0  0  0  0  0  0  0  0  0  0  0  # atno 8008 bound_to 7997
  154.4092  140.1668  156.2115 H   0  0  0  0  0  0  0  0  0  0  0  0  # atno 8009 bound_to 7997
  155.9470  140.3380  155.6378 H   0  0  0  0  0  0  0  0  0  0  0  0  # atno 8010 bound_to 7997
  140.7283  143.4197  151.0971 H   0  0  0  0  0  0  0  0  0  0  0  0  # atno 10167 bound_to 10162
  156.5612  130.4726  149.6406 H   0  0  0  0  0  0  0  0  0  0  0  0  # atno 10718 bound_to 10713
  154.6287  135.5429  153.7656 H   0  0  0  0  0  0  0  0  0  0  0  0  # atno 10763 bound_to 10752
  153.0274  135.6430  154.1333 H   0  0  0  0  0  0  0  0  0  0  0  0  # atno 10764 bound_to 10752
  154.1264  135.2917  155.3176 H   0  0  0  0  0  0  0  0  0  0  0  0  # atno 10765 bound_to 10752
  140.0728  134.9142  157.1373 H   0  0  0  0  0  0  0  0  0  0  0  0  # atno 11005 bound_to 11000
  145.5749  139.1485  143.3267 LP  0  0  0  0  0  0  0  0  0  0  0  0  # atno 17320 bound_to 7965
  146.2187  140.5881  142.9027 LP  0  0  0  0  0  0  0  0  0  0  0  0  # atno 17321 bound_to 7965
  139.7841  143.8312  152.3142 LP  0  0  0  0  0  0  0  0  0  0  0  0  # atno 17342 bound_to 10162
  139.8273  144.7269  150.9495 LP  0  0  0  0  0  0  0  0  0  0  0  0  # atno 17343 bound_to 10162
  156.2797  130.7064  151.1884 LP  0  0  0  0  0  0  0  0  0  0  0  0  # atno 17370 bound_to 10713
  157.7368  131.0558  150.5393 LP  0  0  0  0  0  0  0  0  0  0  0  0  # atno 17371 bound_to 10713
  140.3602  134.2503  155.7188 LP  0  0  0  0  0  0  0  0  0  0  0  0  # atno 17394 bound_to 11000
  141.2018  133.7953  157.0421 LP  0  0  0  0  0  0  0  0  0  0  0  0  # atno 17395 bound_to 11000

$$$$
