AV-unprocessed.smi:1492|AV-procd|sdf|6044|dock1
  -GOLD-   22720 6153D 1   1.00000     0.00000
 Structure written by MMmdl.
 51 52  0  0  0  0  0  0  0  0  2 V2000
  147.5542  133.0659  162.3206 C   0  0  0  0  0  0  0  0  0  0  0  0
  147.1245  134.4349  162.8750 C   0  0  0  0  0  0  0  0  0  0  0  0
  147.1591  135.6165  161.8493 C   0  0  1  0  0  0  0  0  0  0  0  0
  147.6242  136.8690  162.6390 C   0  0  0  0  0  0  0  0  0  0  0  0
  148.2375  135.3033  160.7566 C   0  0  0  0  0  0  0  0  0  0  0  0
  148.0886  136.0854  159.5323 N   0  0  0  0  0  0  0  0  0  0  0  0
  149.0588  136.4056  158.6632 C   0  0  0  0  0  0  0  0  0  0  0  0
  150.2536  136.1825  158.8569 O   0  0  0  0  0  0  0  0  0  0  0  0
  148.5946  137.0464  157.3547 C   0  0  0  0  0  0  0  0  0  0  0  0
  149.7028  137.2595  156.3222 C   0  0  0  0  0  0  0  0  0  0  0  0
  150.0998  138.4931  155.8976 C   0  0  0  0  0  0  0  0  0  0  0  0
  149.4639  139.7808  156.3911 C   0  0  0  0  0  0  0  0  0  0  0  0
  151.1456  138.6414  154.9708 N   0  0  0  0  0  0  0  0  0  0  0  0
  151.7419  137.6028  154.5234 C   0  0  0  0  0  0  0  0  0  0  0  0
  152.8712  137.7672  153.5290 C   0  0  0  0  0  0  0  0  0  0  0  0
  151.4220  136.3149  154.8902 N   0  5  0  0  0  0  0  0  0  0  0  0
  150.4168  136.0880  155.7823 C   0  0  0  0  0  0  0  0  0  0  0  0
  150.1119  134.9534  156.1482 O   0  0  0  0  0  0  0  0  0  0  0  0
  145.8235  135.8206  161.2108 N   0  0  0  0  0  0  0  0  0  0  0  0
  145.3555  134.7152  160.3632 C   0  0  0  0  0  0  0  0  0  0  0  0
  144.0388  135.0508  159.6432 C   0  0  0  0  0  0  0  0  0  0  0  0
  143.0439  135.3938  160.5990 O   0  0  0  0  0  0  0  0  0  0  0  0
  143.4276  136.5038  161.4002 C   0  0  0  0  0  0  0  0  0  0  0  0
  144.7417  136.1872  162.1347 C   0  0  0  0  0  0  0  0  0  0  0  0
  147.4682  132.2995  163.0909 H   0  0  0  0  0  0  0  0  0  0  0  0
  148.5917  133.0722  161.9873 H   0  0  0  0  0  0  0  0  0  0  0  0
  146.9317  132.7582  161.4805 H   0  0  0  0  0  0  0  0  0  0  0  0
  146.1331  134.3396  163.3163 H   0  0  0  0  0  0  0  0  0  0  0  0
  147.7523  134.6603  163.7376 H   0  0  0  0  0  0  0  0  0  0  0  0
  148.5690  136.6906  163.1523 H   0  0  0  0  0  0  0  0  0  0  0  0
  146.9135  137.1587  163.4120 H   0  0  0  0  0  0  0  0  0  0  0  0
  147.7783  137.7301  161.9894 H   0  0  0  0  0  0  0  0  0  0  0  0
  149.2342  135.5082  161.1483 H   0  0  0  0  0  0  0  0  0  0  0  0
  148.2364  134.2451  160.4944 H   0  0  0  0  0  0  0  0  0  0  0  0
  147.1425  136.3273  159.2731 H   0  0  0  0  0  0  0  0  0  0  0  0
  147.7847  136.4463  156.9387 H   0  0  0  0  0  0  0  0  0  0  0  0
  148.1374  138.0092  157.5837 H   0  0  0  0  0  0  0  0  0  0  0  0
  148.4162  139.8266  156.0940 H   0  0  0  0  0  0  0  0  0  0  0  0
  149.9687  140.6541  155.9766 H   0  0  0  0  0  0  0  0  0  0  0  0
  149.5210  139.8480  157.4774 H   0  0  0  0  0  0  0  0  0  0  0  0
  152.5962  137.3274  152.5699 H   0  0  0  0  0  0  0  0  0  0  0  0
  153.7711  137.2701  153.8925 H   0  0  0  0  0  0  0  0  0  0  0  0
  153.1049  138.8206  153.3695 H   0  0  0  0  0  0  0  0  0  0  0  0
  146.0866  134.4708  159.5958 H   0  0  0  0  0  0  0  0  0  0  0  0
  145.2068  133.8157  160.9604 H   0  0  0  0  0  0  0  0  0  0  0  0
  144.1816  135.8744  158.9417 H   0  0  0  0  0  0  0  0  0  0  0  0
  143.6950  134.1935  159.0645 H   0  0  0  0  0  0  0  0  0  0  0  0
  143.5387  137.3917  160.7761 H   0  0  0  0  0  0  0  0  0  0  0  0
  142.6348  136.7147  162.1179 H   0  0  0  0  0  0  0  0  0  0  0  0
  144.5624  135.3793  162.8442 H   0  0  0  0  0  0  0  0  0  0  0  0
  145.0033  137.0685  162.7164 H   0  0  0  0  0  0  0  0  0  0  0  0
  1  2  1  0  0  0  0
  1 25  1  0  0  0  0
  1 26  1  0  0  0  0
  1 27  1  0  0  0  0
  2  3  1  0  0  0  0
  2 28  1  0  0  0  0
  2 29  1  0  0  0  0
  3  4  1  0  0  0  0
  3  5  1  0  0  0  0
  3 19  1  0  0  0  0
  4 30  1  0  0  0  0
  4 31  1  0  0  0  0
  4 32  1  0  0  0  0
  5  6  1  0  0  0  0
  5 33  1  0  0  0  0
  5 34  1  0  0  0  0
  6  7  1  0  0  0  0
  6 35  1  0  0  0  0
  7  8  2  0  0  0  0
  7  9  1  0  0  0  0
  9 10  1  0  0  0  0
  9 36  1  0  0  0  0
  9 37  1  0  0  0  0
 10 17  1  0  0  0  0
 10 11  2  0  0  0  0
 11 12  1  0  0  0  0
 11 13  1  0  0  0  0
 12 38  1  0  0  0  0
 12 39  1  0  0  0  0
 12 40  1  0  0  0  0
 13 14  2  0  0  0  0
 14 15  1  0  0  0  0
 14 16  1  0  0  0  0
 15 41  1  0  0  0  0
 15 42  1  0  0  0  0
 15 43  1  0  0  0  0
 16 17  1  0  0  0  0
 17 18  2  0  0  0  0
 19 24  1  0  0  0  0
 19 20  1  0  0  0  0
 20 21  1  0  0  0  0
 20 44  1  0  0  0  0
 20 45  1  0  0  0  0
 21 22  1  0  0  0  0
 21 46  1  0  0  0  0
 21 47  1  0  0  0  0
 22 23  1  0  0  0  0
 23 24  1  0  0  0  0
 23 48  1  0  0  0  0
 23 49  1  0  0  0  0
 24 50  1  0  0  0  0
 24 51  1  0  0  0  0
M  CHG  1  16  -1
M  END
> <s_m_source_file>
AV-unprocessed.smi

> <i_m_source_file_index>
1492

> <i_lp_mmshare_version>
43012

> <i_f3d_flags>
0

> <s_epik_input>
W0NIMl0xW0NIMl1PW0NIMl1bQ0gyXU4xW0NAQF0oW0NIM10pKFtDSDJdW0NIM10pW0NIMl1bTkhdQyg9TylbQ0gyXWMyYyhbQ0gzXSluYyhbQ0gzXSlbbkhdYzI9Tw==

> <s_epik_cmdline>
J2VwaWtfcHl0aG9uJywgJy1waCcsICc3LjAnLCAnLXRuJywgJzgnLCAnLW1hJywgJzIwMCcsICctbWV0YWxfYmluZGluZycsICctaW1hZScsICc8aW5maWxlLm1hZT4nLCAnLW9tYWUnLCAnPG91dGZpbGUubWFlPic=

> <r_lp_tautomer_probability>
0.839158

> <r_epik_Ionization_Penalty>
6.88574

> <r_epik_Ionization_Penalty_Charging>
6.74373e-08

> <r_epik_Ionization_Penalty_Neutral>
6.88574

> <r_epik_State_Penalty>
4.79448

> <r_epik_Charging_Adjusted_Penalty>
4.79448

> <i_epik_Tot_Q>
-1

> <i_epik_Tot_abs_Q>
1

> <r_epik_Metal_State_Penalty>
1.16421

> <b_epik_Metal_Only>
1

> <s_lp_Force_Field>
OPLS_2005

> <r_lp_Energy>
44.9842

> <b_lp_Chiralities_Consistent>
1

> <s_lp_Variant>
AV-unprocessed.smi:1492-9

> <Gold.Version>
5.8.1

> <Gold.Id.Protein>
6NUR|6NUR_protein|mol2

> <Gold.PLP.Fitness>
39.1580

> <Gold.PLP.PLP>
-32.3990

> <Gold.PLP.part.hbond>
-2.0000

> <Gold.PLP.part.metal>
0.0000

> <Gold.PLP.part.buried>
-5.4047

> <Gold.PLP.part.nonpolar>
-25.3607

> <Gold.PLP.part.repulsive>
0.2745

> <Gold.PLP.ligand.clash>
0.0000

> <Gold.PLP.ligand.torsion>
1.2374

> <Gold.PLP.Chemscore.Hbond>
2.9840

> <Gold.PLP.Chemscore.CHOScore>
0.0000

> <Gold.PLP.Chemscore.Metal>
0.0000

> <Gold.Chemscore.Hbonds>
donor molecule, donor type, donor heavy atom, donor atom, acceptor molecule, acceptor atom, score
      P1  H  6896  6907       L1     8  1.00
      P1  H 10752 10764       L1    16  1.90

> <Gold.PLP.Chemscore.Internal.Correction>
0.2819

> <Gold.Rescore>
     Score         DG    S(hbond)    S(metal)    S(lipo)     H(rot)  DE(clash)    DE(int)     intcor
     13.69     -14.91       1.83        0.00      73.24       2.05       0.05       1.18       ----

> <Gold.Chemscore.Fitness>
13.6850

> <Gold.Chemscore.DG>
-14.9134

> <Gold.Chemscore.ZeroCoef>
-5.4800

> <Gold.Chemscore.Hbond>
1.8269

> <Gold.Chemscore.Metal>
0.0000

> <Gold.Chemscore.Lipo>
73.2441

> <Gold.Chemscore.Internal_Hbond>
0.0000

> <Gold.Chemscore.DEClash>
0.0532

> <Gold.Chemscore.DEInternal>
1.1752

> <Gold.Chemscore.Rot>
2.0461

> <Gold.Chemscore.Internal.Correction>
   9.000000E+99

> <Gold.Chemscore.Hbonds>
donor molecule, donor type, donor heavy atom, donor atom, acceptor molecule, acceptor atom, score
      P1  H  6896  6907       L1     8  0.98
      P1  H 10752 10764       L1    16  0.22

> <Gold.Chemscore.Hbond.Weighted>
-6.1019

> <Gold.Chemscore.Metal.Weighted>
-0.0000

> <Gold.Chemscore.Lipo.Weighted>
-8.5696

> <Gold.Chemscore.Internal_Hbond.Weighted>
0.0000

> <Gold.Chemscore.DEClash.Weighted>
0.0532

> <Gold.Chemscore.DEInternal.Weighted>
1.1752

> <Gold.Chemscore.Rot.Weighted>
5.2381

> <Gold.Chemscore.Internal.Correction.Weighted>
   9.000000E+99

> <Gold.Protein.RotatedTorsions>
[ 6907 6896 6895 6894 ] final  -50.59 input  -60.11 | X-H torsion
[ 7974 7965 7964 7962 ] final   87.58 input  175.53 | X-H torsion
[ 8008 7997 7996 7995 ] final -103.20 input   59.86 | X-H torsion
[ 10167 10162 10161 10158 ] final  143.46 input  -65.29 | X-H torsion
[ 10718 10713 10712 10709 ] final  -33.13 input   66.30 | X-H torsion
[ 10763 10752 10751 10750 ] final  -56.52 input  -60.55 | X-H torsion
[ 11005 11000 10999 10996 ] final -145.93 input  -57.11 | X-H torsion

> <Gold.Protein.ActiveResidues>
 VAL166  LYS551  ARG553  GLY616  TRP617  ASP618  TYR619  PRO620  LYS621  CYS622 
 ASP623  PHE694  ASN695  SER759  ASP760  ASP761  ALA762  ILE779  LEU786  VAL792 
 PHE793  MET794  SER795  GLU796  ALA797  LYS798  CYS799  TRP800  GLU811  SER814 

> <Gold.Protein.RotatedAtoms>
  150.8692  134.8062  159.7141 H   0  0  0  0  0  0  0  0  0  0  0  0  # atno 6907 bound_to 6896
  152.4703  134.4974  159.9724 H   0  0  0  0  0  0  0  0  0  0  0  0  # atno 6908 bound_to 6896
  151.5065  133.3455  159.2913 H   0  0  0  0  0  0  0  0  0  0  0  0  # atno 6909 bound_to 6896
  145.5570  139.2300  143.2480 H   0  0  0  0  0  0  0  0  0  0  0  0  # atno 7974 bound_to 7965
  154.8675  140.0424  157.1703 H   0  0  0  0  0  0  0  0  0  0  0  0  # atno 8008 bound_to 7997
  154.8775  140.2967  155.5424 H   0  0  0  0  0  0  0  0  0  0  0  0  # atno 8009 bound_to 7997
  156.2999  140.2417  156.3772 H   0  0  0  0  0  0  0  0  0  0  0  0  # atno 8010 bound_to 7997
  139.4969  144.6039  151.6422 H   0  0  0  0  0  0  0  0  0  0  0  0  # atno 10167 bound_to 10162
  156.3664  130.4332  149.7581 H   0  0  0  0  0  0  0  0  0  0  0  0  # atno 10718 bound_to 10713
  154.2079  135.6399  153.5106 H   0  0  0  0  0  0  0  0  0  0  0  0  # atno 10763 bound_to 10752
  152.9996  135.5467  154.6246 H   0  0  0  0  0  0  0  0  0  0  0  0  # atno 10764 bound_to 10752
  154.5675  135.2914  155.0833 H   0  0  0  0  0  0  0  0  0  0  0  0  # atno 10765 bound_to 10752
  140.7872  134.3010  157.5025 H   0  0  0  0  0  0  0  0  0  0  0  0  # atno 11005 bound_to 11000
  146.1877  140.6394  142.9160 LP  0  0  0  0  0  0  0  0  0  0  0  0  # atno 17320 bound_to 7965
  144.7501  140.5169  143.6808 LP  0  0  0  0  0  0  0  0  0  0  0  0  # atno 17321 bound_to 7965
  140.5695  144.0132  150.6209 LP  0  0  0  0  0  0  0  0  0  0  0  0  # atno 17342 bound_to 10162
  140.3245  143.3116  152.0750 LP  0  0  0  0  0  0  0  0  0  0  0  0  # atno 17343 bound_to 10162
  156.4725  130.8003  151.3020 LP  0  0  0  0  0  0  0  0  0  0  0  0  # atno 17370 bound_to 10713
  157.7479  131.0031  150.3026 LP  0  0  0  0  0  0  0  0  0  0  0  0  # atno 17371 bound_to 10713
  139.8735  134.9353  156.3631 LP  0  0  0  0  0  0  0  0  0  0  0  0  # atno 17394 bound_to 11000
  140.9425  133.7505  156.0164 LP  0  0  0  0  0  0  0  0  0  0  0  0  # atno 17395 bound_to 11000

$$$$
