AV-unprocessed.smi:3314|AV-procd|sdf|12743|dock10
  -GOLD-   2272019 83D 1   1.00000     0.00000
 Structure written by MMmdl.
 37 38  0  0  0  0  0  0  0  0  3 V2000
  154.0077  140.7774  160.4708 C   0  0  0  0  0  0  0  0  0  0  0  0
  153.1572  141.6077  159.5328 C   0  0  0  0  0  0  0  0  0  0  0  0
  153.1360  143.0121  159.6279 C   0  0  0  0  0  0  0  0  0  0  0  0
  152.3179  143.7245  158.7296 C   0  0  0  0  0  0  0  0  0  0  0  0
  152.2469  145.2364  158.7750 C   0  0  0  0  0  0  0  0  0  0  0  0
  151.5608  143.1245  157.7858 N   0  0  0  0  0  0  0  0  0  0  0  0
  151.5794  141.7746  157.6778 C   0  0  0  0  0  0  0  0  0  0  0  0
  150.8149  141.1912  156.7434 N   0  5  0  0  0  0  0  0  0  0  0  0
  151.3594  140.2971  155.8825 C   0  0  0  0  0  0  0  0  0  0  0  0
  152.5326  139.9303  155.7898 O   0  0  0  0  0  0  0  0  0  0  0  0
  150.3102  139.7196  154.9219 C   0  0  2  0  0  0  0  0  0  0  0  0
  149.2609  140.7762  154.5129 C   0  0  0  0  0  0  0  0  0  0  0  0
  148.2202  140.1596  153.6591 N   0  3  2  0  0  0  0  0  0  0  0  0
  147.2126  141.1355  153.1925 C   0  0  0  0  0  0  0  0  0  0  0  0
  147.6141  138.9873  154.3301 C   0  0  0  0  0  0  0  0  0  0  0  0
  148.7062  137.9912  154.7533 C   0  0  0  0  0  0  0  0  0  0  0  0
  149.6506  138.6472  155.5889 O   0  0  0  0  0  0  0  0  0  0  0  0
  152.3666  140.9838  158.5470 C   0  0  0  0  0  0  0  0  0  0  0  0
  154.7019  141.4024  161.0332 H   0  0  0  0  0  0  0  0  0  0  0  0
  154.5882  140.0451  159.9093 H   0  0  0  0  0  0  0  0  0  0  0  0
  153.3740  140.2444  161.1799 H   0  0  0  0  0  0  0  0  0  0  0  0
  153.7280  143.5287  160.3692 H   0  0  0  0  0  0  0  0  0  0  0  0
  152.6577  145.6214  159.7085 H   0  0  0  0  0  0  0  0  0  0  0  0
  151.2135  145.5749  158.6957 H   0  0  0  0  0  0  0  0  0  0  0  0
  152.8142  145.6640  157.9480 H   0  0  0  0  0  0  0  0  0  0  0  0
  150.7931  139.3315  154.0209 H   0  0  0  0  0  0  0  0  0  0  0  0
  148.7882  141.2157  155.3934 H   0  0  0  0  0  0  0  0  0  0  0  0
  149.7432  141.5889  153.9677 H   0  0  0  0  0  0  0  0  0  0  0  0
  146.6614  141.5615  154.0320 H   0  0  0  0  0  0  0  0  0  0  0  0
  146.4986  140.6591  152.5202 H   0  0  0  0  0  0  0  0  0  0  0  0
  147.6906  141.9501  152.6477 H   0  0  0  0  0  0  0  0  0  0  0  0
  147.0511  139.3158  155.2052 H   0  0  0  0  0  0  0  0  0  0  0  0
  146.9079  138.5003  153.6566 H   0  0  0  0  0  0  0  0  0  0  0  0
  148.2644  137.1609  155.3044 H   0  0  0  0  0  0  0  0  0  0  0  0
  149.2059  137.5647  153.8822 H   0  0  0  0  0  0  0  0  0  0  0  0
  152.3653  139.9070  158.4569 H   0  0  0  0  0  0  0  0  0  0  0  0
  148.6928  139.8114  152.8370 H   0  0  0  0  0  0  0  0  0  0  0  0
  1  2  1  0  0  0  0
  1 19  1  0  0  0  0
  1 20  1  0  0  0  0
  1 21  1  0  0  0  0
  2 18  2  0  0  0  0
  2  3  1  0  0  0  0
  3  4  2  0  0  0  0
  3 22  1  0  0  0  0
  4  5  1  0  0  0  0
  4  6  1  0  0  0  0
  5 23  1  0  0  0  0
  5 24  1  0  0  0  0
  5 25  1  0  0  0  0
  6  7  2  0  0  0  0
  7  8  1  0  0  0  0
  7 18  1  0  0  0  0
  8  9  1  0  0  0  0
  9 10  2  0  0  0  0
  9 11  1  0  0  0  0
 11 17  1  0  0  0  0
 11 12  1  0  0  0  0
 11 26  1  0  0  0  0
 12 13  1  0  0  0  0
 12 27  1  0  0  0  0
 12 28  1  0  0  0  0
 13 14  1  0  0  0  0
 13 15  1  0  0  0  0
 13 37  1  0  0  0  0
 14 29  1  0  0  0  0
 14 30  1  0  0  0  0
 14 31  1  0  0  0  0
 15 16  1  0  0  0  0
 15 32  1  0  0  0  0
 15 33  1  0  0  0  0
 16 17  1  0  0  0  0
 16 34  1  0  0  0  0
 16 35  1  0  0  0  0
 18 36  1  0  0  0  0
M  CHG  1   8  -1
M  CHG  1  13   1
M  END
> <s_m_source_file>
AV-unprocessed.smi

> <i_m_source_file_index>
3314

> <i_lp_mmshare_version>
43012

> <i_f3d_flags>
0

> <s_epik_input>
W0NIM11jMVtjSF1jKFtDSDNdKW5jKFtjSF0xKVtOSF1DKD1PKVtDQEBIXTJbQ0gyXU4oW0NIM10pW0NIMl1bQ0gyXU8y

> <s_epik_cmdline>
J2VwaWtfcHl0aG9uJywgJy1waCcsICc3LjAnLCAnLXRuJywgJzgnLCAnLW1hJywgJzIwMCcsICctbWV0YWxfYmluZGluZycsICctaW1hZScsICc8aW5maWxlLm1hZT4nLCAnLW9tYWUnLCAnPG91dGZpbGUubWFlPic=

> <r_epik_Ionization_Penalty>
13.8964

> <r_epik_Ionization_Penalty_Charging>
7.88995

> <r_epik_Ionization_Penalty_Neutral>
6.00641

> <r_epik_State_Penalty>
8.39989

> <r_epik_Charging_Adjusted_Penalty>
16.2898

> <i_epik_Tot_Q>
0

> <i_epik_Tot_abs_Q>
2

> <r_epik_Metal_State_Penalty>
4.31145

> <b_epik_Metal_Only>
1

> <s_lp_Force_Field>
OPLS_2005

> <r_lp_Energy>
9.48457

> <b_lp_Chiralities_Consistent>
1

> <s_lp_Variant>
AV-unprocessed.smi:3314-13

> <Gold.Version>
5.8.1

> <Gold.Id.Protein>
6NUR|6NUR_protein|mol2

> <Gold.PLP.Fitness>
42.1936

> <Gold.PLP.PLP>
-38.4481

> <Gold.PLP.part.hbond>
-2.0000

> <Gold.PLP.part.metal>
0.0000

> <Gold.PLP.part.buried>
-5.0912

> <Gold.PLP.part.nonpolar>
-31.2374

> <Gold.PLP.part.repulsive>
0.2616

> <Gold.PLP.ligand.clash>
0.0000

> <Gold.PLP.ligand.torsion>
1.1303

> <Gold.PLP.Chemscore.Hbond>
2.0000

> <Gold.PLP.Chemscore.CHOScore>
0.0000

> <Gold.PLP.Chemscore.Metal>
0.0000

> <Gold.Chemscore.Hbonds>
donor molecule, donor type, donor heavy atom, donor atom, acceptor molecule, acceptor atom, score
      L1  H    13    37       P1  7957  1.00
      P1  H  7997  8010       L1    10  1.00

> <Gold.PLP.Chemscore.Internal.Correction>
0.0062

> <Gold.Rescore>
     Score         DG    S(hbond)    S(metal)    S(lipo)     H(rot)  DE(clash)    DE(int)     intcor
     18.16     -20.86       1.97        0.00      97.16       1.00       0.64       2.06       ----

> <Gold.Chemscore.Fitness>
18.1564

> <Gold.Chemscore.DG>
-20.8558

> <Gold.Chemscore.ZeroCoef>
-5.4800

> <Gold.Chemscore.Hbond>
1.9664

> <Gold.Chemscore.Metal>
0.0000

> <Gold.Chemscore.Lipo>
97.1637

> <Gold.Chemscore.Internal_Hbond>
0.0000

> <Gold.Chemscore.DEClash>
0.6422

> <Gold.Chemscore.DEInternal>
2.0572

> <Gold.Chemscore.Rot>
1.0000

> <Gold.Chemscore.Internal.Correction>
   9.000000E+99

> <Gold.Chemscore.Hbonds>
donor molecule, donor type, donor heavy atom, donor atom, acceptor molecule, acceptor atom, score
      L1  H    13    37       P1  7957  0.96
      P1  H  7997  8010       L1    10  0.99

> <Gold.Chemscore.Hbond.Weighted>
-6.5677

> <Gold.Chemscore.Metal.Weighted>
-0.0000

> <Gold.Chemscore.Lipo.Weighted>
-11.3682

> <Gold.Chemscore.Internal_Hbond.Weighted>
0.0000

> <Gold.Chemscore.DEClash.Weighted>
0.6422

> <Gold.Chemscore.DEInternal.Weighted>
2.0572

> <Gold.Chemscore.Rot.Weighted>
2.5600

> <Gold.Chemscore.Internal.Correction.Weighted>
   9.000000E+99

> <Gold.Protein.RotatedTorsions>
[ 6907 6896 6895 6894 ] final  107.87 input  -60.11 | X-H torsion
[ 7974 7965 7964 7962 ] final -178.33 input  175.53 | X-H torsion
[ 8008 7997 7996 7995 ] final   98.98 input   59.86 | X-H torsion
[ 10167 10162 10161 10158 ] final   40.62 input  -65.29 | X-H torsion
[ 10718 10713 10712 10709 ] final -143.68 input   66.30 | X-H torsion
[ 10763 10752 10751 10750 ] final   92.89 input  -60.55 | X-H torsion
[ 11005 11000 10999 10996 ] final  -83.28 input  -57.11 | X-H torsion

> <Gold.Protein.ActiveResidues>
 VAL166  LYS551  ARG553  GLY616  TRP617  ASP618  TYR619  PRO620  LYS621  CYS622 
 ASP623  PHE694  ASN695  SER759  ASP760  ASP761  ALA762  ILE779  LEU786  VAL792 
 PHE793  MET794  SER795  GLU796  ALA797  LYS798  CYS799  TRP800  GLU811  SER814 

> <Gold.Protein.RotatedAtoms>
  152.5136  133.9172  159.7516 H   0  0  0  0  0  0  0  0  0  0  0  0  # atno 6907 bound_to 6896
  150.9552  133.6497  159.2771 H   0  0  0  0  0  0  0  0  0  0  0  0  # atno 6908 bound_to 6896
  151.3761  135.0936  159.9534 H   0  0  0  0  0  0  0  0  0  0  0  0  # atno 6909 bound_to 6896
  144.7130  140.0884  143.6422 H   0  0  0  0  0  0  0  0  0  0  0  0  # atno 7974 bound_to 7965
  156.1059  140.3235  155.8006 H   0  0  0  0  0  0  0  0  0  0  0  0  # atno 8008 bound_to 7997
  155.4756  140.0550  157.2991 H   0  0  0  0  0  0  0  0  0  0  0  0  # atno 8009 bound_to 7997
  154.4727  140.2018  155.9968 H   0  0  0  0  0  0  0  0  0  0  0  0  # atno 8010 bound_to 7997
  140.3723  144.2088  150.6132 H   0  0  0  0  0  0  0  0  0  0  0  0  # atno 10167 bound_to 10162
  156.3609  130.7737  151.1905 H   0  0  0  0  0  0  0  0  0  0  0  0  # atno 10718 bound_to 10713
  153.2242  135.4345  155.0523 H   0  0  0  0  0  0  0  0  0  0  0  0  # atno 10763 bound_to 10752
  154.8265  135.3363  154.6882 H   0  0  0  0  0  0  0  0  0  0  0  0  # atno 10764 bound_to 10752
  153.7312  135.7011  153.5045 H   0  0  0  0  0  0  0  0  0  0  0  0  # atno 10765 bound_to 10752
  141.1658  133.7286  156.8696 H   0  0  0  0  0  0  0  0  0  0  0  0  # atno 11005 bound_to 11000
  145.9641  139.2822  143.1138 LP  0  0  0  0  0  0  0  0  0  0  0  0  # atno 17320 bound_to 7965
  145.9188  140.9129  143.0416 LP  0  0  0  0  0  0  0  0  0  0  0  0  # atno 17321 bound_to 7965
  140.5020  143.2315  151.8664 LP  0  0  0  0  0  0  0  0  0  0  0  0  # atno 17342 bound_to 10162
  139.4802  144.5048  151.9012 LP  0  0  0  0  0  0  0  0  0  0  0  0  # atno 17343 bound_to 10162
  157.7473  131.0400  150.4578 LP  0  0  0  0  0  0  0  0  0  0  0  0  # atno 17370 bound_to 10713
  156.4789  130.4069  149.6473 LP  0  0  0  0  0  0  0  0  0  0  0  0  # atno 17371 bound_to 10713
  140.1791  134.9046  157.2926 LP  0  0  0  0  0  0  0  0  0  0  0  0  # atno 17394 bound_to 11000
  140.2416  134.3789  155.7478 LP  0  0  0  0  0  0  0  0  0  0  0  0  # atno 17395 bound_to 11000

$$$$
