#       Name:                AV-unprocessed.smi:1047
#       Creating user name   scv26
#       Creation time:       Fri Mar 27 03:07:18 2020


#       File generated by GOLD software.
#

@<TRIPOS>MOLECULE
AV-unprocessed.smi:1047
    62    64     1
SMALL
NO_CHARGES


@<TRIPOS>ATOM
      1 ****        -1.6041   5.5055  -1.6021 C.3            1 S1                 0.0000
      2 ****        -2.9526   5.1124  -2.2219 C.3            1 S1                 0.0000
      3 ****        -3.6984   4.0972  -1.4804 N.3            1 S1                 0.0000
      4 ****        -5.0487   3.9488  -2.0108 C.3            1 S1                 0.0000
      5 ****        -5.8511   2.8840  -1.2452 C.3            1 S1                 0.0000
      6 ****        -5.1502   1.6452  -1.2834 O.3            1 S1                 0.0000
      7 ****        -3.8419   1.7263  -0.7237 C.3            1 S1                 0.0000
      8 ****        -3.2066   0.3306  -0.8130 C.3            1 S1                 0.0000
      9 ****        -1.9933   0.2435  -0.0057 N.3            1 S1                 0.0000
     10 ****        -1.3681  -1.0753  -0.0390 C.3            1 S1                 0.0000
     11 ****        -0.1206  -1.1264   0.8589 C.3            1 S1                 0.0000
     12 ****         0.9495  -0.5119   0.1681 O.3            1 S1                 0.0000
     13 ****         0.2710  -2.5760   1.2045 C.3            1 S1                 0.0000
     14 ****         1.4362  -2.6512   2.0686 N.pl3          1 S1                 0.0000
     15 ****         1.4584  -2.5234   3.4090 C.2            1 S1                 0.0000
     16 ****         2.6383  -2.6334   4.0125 N.2            1 S1                 0.0000
     17 ****         3.4809  -2.8582   2.9371 C.ar           1 S1                 0.0000
     18 ****         4.8771  -3.0654   2.8950 C.ar           1 S1                 0.0000
     19 ****         5.5417  -3.2787   1.6663 C.ar           1 S1                 0.0000
     20 ****         7.0441  -3.4998   1.6676 C.3            1 S1                 0.0000
     21 ****         4.8073  -3.2836   0.4531 C.ar           1 S1                 0.0000
     22 ****         5.5004  -3.5047  -0.8798 C.3            1 S1                 0.0000
     23 ****         3.4115  -3.0806   0.4775 C.ar           1 S1                 0.0000
     24 ****         2.7610  -2.8727   1.7066 C.ar           1 S1                 0.0000
     25 ****        -3.0384   2.7936  -1.4967 C.3            1 S1                 0.0000
     26 ****        -1.1624   6.3408  -2.1458 H              1 S1                 0.0000
     27 ****        -0.8867   4.6861  -1.6311 H              1 S1                 0.0000
     28 ****        -1.7245   5.8138  -0.5634 H              1 S1                 0.0000
     29 ****        -3.5582   6.0175  -2.2837 H              1 S1                 0.0000
     30 ****        -2.7991   4.7836  -3.2507 H              1 S1                 0.0000
     31 ****        -5.5747   4.9028  -1.9576 H              1 S1                 0.0000
     32 ****        -5.0042   3.6755  -3.0664 H              1 S1                 0.0000
     33 ****        -6.0118   3.1895  -0.2100 H              1 S1                 0.0000
     34 ****        -6.8344   2.7520  -1.6967 H              1 S1                 0.0000
     35 ****        -3.9345   2.0149   0.3254 H              1 S1                 0.0000
     36 ****        -3.9270  -0.4073  -0.4577 H              1 S1                 0.0000
     37 ****        -2.9944   0.0803  -1.8531 H              1 S1                 0.0000
     38 ****        -2.2022   0.5003   0.9538 H              1 S1                 0.0000
     39 ****        -2.0887  -1.8125   0.3174 H              1 S1                 0.0000
     40 ****        -1.1166  -1.3613  -1.0613 H              1 S1                 0.0000
     41 ****        -0.3039  -0.5790   1.7849 H              1 S1                 0.0000
     42 ****         0.6969   0.3740  -0.0433 H              1 S1                 0.0000
     43 ****        -0.5557  -3.0782   1.7089 H              1 S1                 0.0000
     44 ****         0.4705  -3.1460   0.2961 H              1 S1                 0.0000
     45 ****         0.5558  -2.3405   3.9735 H              1 S1                 0.0000
     46 ****         5.4358  -3.0596   3.8191 H              1 S1                 0.0000
     47 ****         7.2885  -4.4650   1.2237 H              1 S1                 0.0000
     48 ****         7.4480  -3.4862   2.6804 H              1 S1                 0.0000
     49 ****         7.5455  -2.7184   1.0964 H              1 S1                 0.0000
     50 ****         4.7958  -3.4427  -1.7093 H              1 S1                 0.0000
     51 ****         5.9671  -4.4895  -0.9090 H              1 S1                 0.0000
     52 ****         6.2711  -2.7505  -1.0403 H              1 S1                 0.0000
     53 ****         2.8400  -3.0807  -0.4389 H              1 S1                 0.0000
     54 ****        -2.8955   2.4658  -2.5277 H              1 S1                 0.0000
     55 ****        -2.0455   2.8720  -1.0548 H              1 S1                 0.0000
     56 ****        -3.7369   4.4184  -0.5342 LP             1 S1                 0.0000
     57 ****        -5.0712   1.3534  -2.2366 LP             1 S1                 0.0000
     58 ****        -5.6748   0.9666  -0.7695 LP             1 S1                 0.0000
     59 ****        -1.3354   0.8820  -0.4052 LP             1 S1                 0.0000
     60 ****         1.1442  -1.0176  -0.6724 LP             1 S1                 0.0000
     61 ****         1.7646  -0.5019   0.7474 LP             1 S1                 0.0000
     62 ****         2.8588  -2.5703   4.9858 LP             1 S1                 0.0000
@<TRIPOS>BOND
    1    1    2 1     
    2    1   26 1     
    3    1   27 1     
    4    1   28 1     
    5    2    3 1     
    6    2   29 1     
    7    2   30 1     
    8    3   25 1     
    9    3    4 1     
   10    4    5 1     
   11    4   31 1     
   12    4   32 1     
   13    5    6 1     
   14    5   33 1     
   15    5   34 1     
   16    6    7 1     
   17    7    8 1     
   18    7   25 1     
   19    7   35 1     
   20    8    9 1     
   21    8   36 1     
   22    8   37 1     
   23    9   10 1     
   24    9   38 1     
   25   10   11 1     
   26   10   39 1     
   27   10   40 1     
   28   11   12 1     
   29   11   13 1     
   30   11   41 1     
   31   12   42 1     
   32   13   14 1     
   33   13   43 1     
   34   13   44 1     
   35   14   24 1     
   36   14   15 1     
   37   15   16 2     
   38   15   45 1     
   39   16   17 1     
   40   17   24 ar    
   41   17   18 ar    
   42   18   19 ar    
   43   18   46 1     
   44   19   20 1     
   45   19   21 ar    
   46   20   47 1     
   47   20   48 1     
   48   20   49 1     
   49   21   22 1     
   50   21   23 ar    
   51   22   50 1     
   52   22   51 1     
   53   22   52 1     
   54   23   24 ar    
   55   23   53 1     
   56   25   54 1     
   57   25   55 1     
   58    3   56 1     
   59    6   57 1     
   60    6   58 1     
   61    9   59 1     
   62   12   60 1     
   63   12   61 1     
   64   16   62 1     
@<TRIPOS>SUBSTRUCTURE
      1 S1             1
@<TRIPOS>SET
LONE_PAIRS      STATIC     ATOMS    <user>   **** ""
7 56 57 58 59 60 61 62
DONOR_HYDROGENS      STATIC     ATOMS    <user>   **** ""
2 38 42
ATOM$BLUE        STATIC     ATOMS    COLORGROUP SYSTEM
7 56 57 58 59 60 61 62
ATOM$RED        STATIC     ATOMS    COLORGROUP SYSTEM
2 38 42
