AV-unprocessed.smi:33|AV-procd|sdf|204|dock7
  -GOLD-   2262015483D 1   1.00000     0.00000
 Structure written by MMmdl.
 67 72  0  0  0  0  0  0  0  0  1 V2000
  151.8720  140.6950  157.0258 O   0  0  0  0  0  0  0  0  0  0  0  0
  151.1875  141.7139  157.1395 C   0  0  0  0  0  0  0  0  0  0  0  0
  150.0464  141.9271  156.4465 O   0  0  0  0  0  0  0  0  0  0  0  0
  149.4958  140.8785  155.6611 C   0  0  0  0  0  0  0  0  0  0  0  0
  148.3259  141.3319  154.7651 C   0  0  1  0  0  0  0  0  0  0  0  0
  147.9686  140.3490  153.7966 O   0  0  0  0  0  0  0  0  0  0  0  0
  146.8173  139.6524  154.1856 C   0  0  1  0  0  0  0  0  0  0  0  0
  147.2156  138.2446  154.5072 N   0  0  0  0  0  0  0  0  0  0  0  0
  146.9687  137.0825  153.8053 C   0  0  0  0  0  0  0  0  0  0  0  0
  147.4565  135.9932  154.3350 N   0  0  0  0  0  0  0  0  0  0  0  0
  148.0363  136.4288  155.5187 C   0  0  0  0  0  0  0  0  0  0  0  0
  148.7162  135.7799  156.5836 C   0  0  0  0  0  0  0  0  0  0  0  0
  148.9566  134.4487  156.5887 N   0  0  0  0  0  0  0  0  0  0  0  0
  148.9331  133.7730  157.8914 C   0  0  0  0  0  0  0  0  0  0  0  0
  149.6860  132.8205  158.1016 O   0  0  0  0  0  0  0  0  0  0  0  0
  148.0338  134.2770  158.9840 C   0  0  0  0  0  0  0  0  0  0  0  0
  148.4147  134.1393  160.3367 C   0  0  0  0  0  0  0  0  0  0  0  0
  147.5610  134.5882  161.3630 C   0  0  0  0  0  0  0  0  0  0  0  0
  146.3144  135.1599  161.0440 C   0  0  0  0  0  0  0  0  0  0  0  0
  145.9173  135.2749  159.6983 C   0  0  0  0  0  0  0  0  0  0  0  0
  146.7705  134.8278  158.6715 C   0  0  0  0  0  0  0  0  0  0  0  0
  149.2541  133.8039  155.3003 C   0  0  0  0  0  0  0  0  0  0  0  0
  149.6029  134.4887  154.3366 O   0  0  0  0  0  0  0  0  0  0  0  0
  149.1692  132.3104  155.1590 C   0  0  0  0  0  0  0  0  0  0  0  0
  149.9495  131.6500  154.1850 C   0  0  0  0  0  0  0  0  0  0  0  0
  149.8663  130.2520  154.0366 C   0  0  0  0  0  0  0  0  0  0  0  0
  148.9891  129.5079  154.8482 C   0  0  0  0  0  0  0  0  0  0  0  0
  148.1881  130.1631  155.8027 C   0  0  0  0  0  0  0  0  0  0  0  0
  148.2714  131.5610  155.9525 C   0  0  0  0  0  0  0  0  0  0  0  0
  149.1373  136.5382  157.6284 N   0  0  0  0  0  0  0  0  0  0  0  0
  148.9195  137.8569  157.6198 C   0  0  0  0  0  0  0  0  0  0  0  0
  148.3118  138.5978  156.6896 N   0  0  0  0  0  0  0  0  0  0  0  0
  147.8788  137.8353  155.6442 C   0  0  0  0  0  0  0  0  0  0  0  0
  146.2537  140.3497  155.4397 C   0  0  2  0  0  0  0  0  0  0  0  0
  144.8600  140.5809  155.3832 O   0  0  0  0  0  0  0  0  0  0  0  0
  147.0172  141.6663  155.4754 C   0  0  2  0  0  0  0  0  0  0  0  0
  146.3951  142.5942  154.7422 F   0  0  0  0  0  0  0  0  0  0  0  0
  151.5257  142.8240  158.0762 C   0  0  0  0  0  0  0  0  0  0  0  0
  152.5141  142.6144  159.0665 C   0  0  0  0  0  0  0  0  0  0  0  0
  152.8552  143.6401  159.9690 C   0  0  0  0  0  0  0  0  0  0  0  0
  152.2153  144.8899  159.8886 C   0  0  0  0  0  0  0  0  0  0  0  0
  151.2277  145.1100  158.9110 C   0  0  0  0  0  0  0  0  0  0  0  0
  150.8841  144.0844  158.0100 C   0  0  0  0  0  0  0  0  0  0  0  0
  150.2912  140.4675  155.0385 H   0  0  0  0  0  0  0  0  0  0  0  0
  149.1479  140.0686  156.3042 H   0  0  0  0  0  0  0  0  0  0  0  0
  148.6791  142.2088  154.2210 H   0  0  0  0  0  0  0  0  0  0  0  0
  146.1136  139.5639  153.3569 H   0  0  0  0  0  0  0  0  0  0  0  0
  146.4330  137.0636  152.8676 H   0  0  0  0  0  0  0  0  0  0  0  0
  149.3681  133.7000  160.5931 H   0  0  0  0  0  0  0  0  0  0  0  0
  147.8622  134.4920  162.3957 H   0  0  0  0  0  0  0  0  0  0  0  0
  145.6597  135.5032  161.8315 H   0  0  0  0  0  0  0  0  0  0  0  0
  144.9570  135.7039  159.4528 H   0  0  0  0  0  0  0  0  0  0  0  0
  146.4510  134.9123  157.6425 H   0  0  0  0  0  0  0  0  0  0  0  0
  150.6264  132.2113  153.5569 H   0  0  0  0  0  0  0  0  0  0  0  0
  150.4752  129.7508  153.2989 H   0  0  0  0  0  0  0  0  0  0  0  0
  148.9258  128.4359  154.7341 H   0  0  0  0  0  0  0  0  0  0  0  0
  147.5088  129.5940  156.4198 H   0  0  0  0  0  0  0  0  0  0  0  0
  147.6483  132.0533  156.6852 H   0  0  0  0  0  0  0  0  0  0  0  0
  149.2862  138.3962  158.4807 H   0  0  0  0  0  0  0  0  0  0  0  0
  146.4856  139.7632  156.3271 H   0  0  0  0  0  0  0  0  0  0  0  0
  144.5771  140.4857  154.4865 H   0  0  0  0  0  0  0  0  0  0  0  0
  147.1491  142.0718  156.4790 H   0  0  0  0  0  0  0  0  0  0  0  0
  153.0199  141.6630  159.1476 H   0  0  0  0  0  0  0  0  0  0  0  0
  153.6086  143.4675  160.7236 H   0  0  0  0  0  0  0  0  0  0  0  0
  152.4746  145.6764  160.5819 H   0  0  0  0  0  0  0  0  0  0  0  0
  150.7293  146.0667  158.8545 H   0  0  0  0  0  0  0  0  0  0  0  0
  150.1241  144.2882  157.2728 H   0  0  0  0  0  0  0  0  0  0  0  0
  1  2  2  0  0  0  0
  2  3  1  0  0  0  0
  2 38  1  0  0  0  0
  3  4  1  0  0  0  0
  4  5  1  0  0  0  0
  4 44  1  0  0  0  0
  4 45  1  0  0  0  0
  5 36  1  0  0  0  0
  5  6  1  0  0  0  0
  5 46  1  0  0  0  0
  6  7  1  0  0  0  0
  7  8  1  0  0  0  0
  7 34  1  0  0  0  0
  7 47  1  0  0  0  0
  8 33  1  0  0  0  0
  8  9  1  0  0  0  0
  9 10  2  0  0  0  0
  9 48  1  0  0  0  0
 10 11  1  0  0  0  0
 11 33  2  0  0  0  0
 11 12  1  0  0  0  0
 12 13  1  0  0  0  0
 12 30  2  0  0  0  0
 13 14  1  0  0  0  0
 13 22  1  0  0  0  0
 14 15  2  0  0  0  0
 14 16  1  0  0  0  0
 16 21  1  0  0  0  0
 16 17  2  0  0  0  0
 17 18  1  0  0  0  0
 17 49  1  0  0  0  0
 18 19  2  0  0  0  0
 18 50  1  0  0  0  0
 19 20  1  0  0  0  0
 19 51  1  0  0  0  0
 20 21  2  0  0  0  0
 20 52  1  0  0  0  0
 21 53  1  0  0  0  0
 22 23  2  0  0  0  0
 22 24  1  0  0  0  0
 24 29  1  0  0  0  0
 24 25  2  0  0  0  0
 25 26  1  0  0  0  0
 25 54  1  0  0  0  0
 26 27  2  0  0  0  0
 26 55  1  0  0  0  0
 27 28  1  0  0  0  0
 27 56  1  0  0  0  0
 28 29  2  0  0  0  0
 28 57  1  0  0  0  0
 29 58  1  0  0  0  0
 30 31  1  0  0  0  0
 31 32  2  0  0  0  0
 31 59  1  0  0  0  0
 32 33  1  0  0  0  0
 34 35  1  0  0  0  0
 34 36  1  0  0  0  0
 34 60  1  0  0  0  0
 35 61  1  0  0  0  0
 36 37  1  0  0  0  0
 36 62  1  0  0  0  0
 38 43  1  0  0  0  0
 38 39  2  0  0  0  0
 39 40  1  0  0  0  0
 39 63  1  0  0  0  0
 40 41  2  0  0  0  0
 40 64  1  0  0  0  0
 41 42  1  0  0  0  0
 41 65  1  0  0  0  0
 42 43  2  0  0  0  0
 42 66  1  0  0  0  0
 43 67  1  0  0  0  0
M  END
> <s_m_source_file>
AV-unprocessed.smi

> <i_m_source_file_index>
33

> <i_lp_mmshare_version>
43012

> <i_f3d_flags>
0

> <s_epik_input>
W2NIXTFbY0hdW2NIXVtjSF1bY0hdYzFDKD1PKU9bQ0gyXVtDQEBIXTJPW0NASF0oW0NAQEhdKFtPSF0pW0NAQEhdMkYpbihbY0hdbjMpYyhjMzQpbltjSF1uYzROKEMoPU8pYzVbY0hdW2NIXVtjSF1bY0hdW2NIXTUpQyg9TyljNltjSF1bY0hdW2NIXVtjSF1bY0hdNg==

> <s_epik_cmdline>
J2VwaWtfcHl0aG9uJywgJy1waCcsICc3LjAnLCAnLXRuJywgJzgnLCAnLW1hJywgJzIwMCcsICctbWV0YWxfYmluZGluZycsICctaW1hZScsICc8aW5maWxlLm1hZT4nLCAnLW9tYWUnLCAnPG91dGZpbGUubWFlPic=

> <r_lp_tautomer_probability>
1

> <r_epik_Ionization_Penalty>
0.00067664

> <r_epik_Ionization_Penalty_Charging>
0

> <r_epik_Ionization_Penalty_Neutral>
0.00067664

> <r_epik_State_Penalty>
0.000428095

> <r_epik_Charging_Adjusted_Penalty>
0.000428095

> <i_epik_Tot_Q>
0

> <i_epik_Tot_abs_Q>
0

> <r_epik_Metal_State_Penalty>
-0

> <b_epik_Metal_Only>
0

> <s_epik_Chemistry_Notes>
This compound has an ester and may undergo hydrolysis at high or low pH. This compound contains an acetal/aminal-like group ( X-CH(R)-Y where X, Y are N, S, or O) that may be acid/base labile, releasing an aldehyde.

> <s_lp_Force_Field>
OPLS_2005

> <r_lp_Energy>
67.2923

> <b_lp_Chiralities_Consistent>
1

> <s_lp_Variant>
AV-unprocessed.smi:33-6

> <Gold.Version>
5.8.1

> <Gold.Id.Protein>
6NUR|6NUR_protein|mol2

> <Gold.PLP.Fitness>
53.1709

> <Gold.PLP.PLP>
-48.0832

> <Gold.PLP.part.hbond>
-2.0000

> <Gold.PLP.part.metal>
0.0000

> <Gold.PLP.part.buried>
-6.3869

> <Gold.PLP.part.nonpolar>
-42.3149

> <Gold.PLP.part.repulsive>
2.0525

> <Gold.PLP.ligand.clash>
0.0000

> <Gold.PLP.ligand.torsion>
2.3715

> <Gold.PLP.Chemscore.Hbond>
1.9913

> <Gold.PLP.Chemscore.CHOScore>
0.0035

> <Gold.PLP.Chemscore.Metal>
0.0000

> <Gold.Chemscore.Hbonds>
donor molecule, donor type, donor heavy atom, donor atom, acceptor molecule, acceptor atom, score
      L1  H    35    61       P1 10175  0.62
      P1  H  6896  6907       L1    15  1.00
      L1  C     9    48       P1  7948  0.02

> <Gold.PLP.Chemscore.Internal.Correction>
3.8464

> <Gold.Rescore>
     Score         DG    S(hbond)    S(metal)    S(lipo)     H(rot)  DE(clash)    DE(int)     intcor
      4.85     -18.37       1.44        0.00     124.17       2.52       0.47      13.04       ----

> <Gold.Chemscore.Fitness>
4.8545

> <Gold.Chemscore.DG>
-18.3668

> <Gold.Chemscore.ZeroCoef>
-5.4800

> <Gold.Chemscore.Hbond>
1.4437

> <Gold.Chemscore.Metal>
0.0000

> <Gold.Chemscore.Lipo>
124.1708

> <Gold.Chemscore.Internal_Hbond>
0.0000

> <Gold.Chemscore.DEClash>
0.4741

> <Gold.Chemscore.DEInternal>
13.0382

> <Gold.Chemscore.Rot>
2.5247

> <Gold.Chemscore.Internal.Correction>
   9.000000E+99

> <Gold.Chemscore.Hbonds>
donor molecule, donor type, donor heavy atom, donor atom, acceptor molecule, acceptor atom, score
      L1  H    35    61       P1 10175  0.60
      P1  H  6896  6907       L1    15  0.26

> <Gold.Chemscore.Hbond.Weighted>
-4.8221

> <Gold.Chemscore.Metal.Weighted>
-0.0000

> <Gold.Chemscore.Lipo.Weighted>
-14.5280

> <Gold.Chemscore.Internal_Hbond.Weighted>
0.0000

> <Gold.Chemscore.DEClash.Weighted>
0.4741

> <Gold.Chemscore.DEInternal.Weighted>
13.0382

> <Gold.Chemscore.Rot.Weighted>
6.4633

> <Gold.Chemscore.Internal.Correction.Weighted>
   9.000000E+99

> <Gold.Protein.RotatedTorsions>
[ 6907 6896 6895 6894 ] final -132.32 input  -60.11 | X-H torsion
[ 7974 7965 7964 7962 ] final  -79.36 input  175.53 | X-H torsion
[ 8008 7997 7996 7995 ] final   64.80 input   59.86 | X-H torsion
[ 10167 10162 10161 10158 ] final   54.21 input  -65.29 | X-H torsion
[ 10718 10713 10712 10709 ] final  -70.04 input   66.30 | X-H torsion
[ 10763 10752 10751 10750 ] final   93.71 input  -60.55 | X-H torsion
[ 11005 11000 10999 10996 ] final  144.44 input  -57.11 | X-H torsion

> <Gold.Protein.ActiveResidues>
 VAL166  LYS551  ARG553  GLY616  TRP617  ASP618  TYR619  PRO620  LYS621  CYS622 
 ASP623  PHE694  ASN695  SER759  ASP760  ASP761  ALA762  ILE779  LEU786  VAL792 
 PHE793  MET794  SER795  GLU796  ALA797  LYS798  CYS799  TRP800  GLU811  SER814 

> <Gold.Protein.RotatedAtoms>
  150.9610  133.6445  159.2754 H   0  0  0  0  0  0  0  0  0  0  0  0  # atno 6907 bound_to 6896
  151.3768  135.0931  159.9493 H   0  0  0  0  0  0  0  0  0  0  0  0  # atno 6908 bound_to 6896
  152.5147  133.9153  159.7562 H   0  0  0  0  0  0  0  0  0  0  0  0  # atno 6909 bound_to 6896
  145.5743  140.9460  143.1378 H   0  0  0  0  0  0  0  0  0  0  0  0  # atno 7974 bound_to 7965
  155.6517  140.3497  155.4750 H   0  0  0  0  0  0  0  0  0  0  0  0  # atno 8008 bound_to 7997
  155.9842  140.1180  157.0721 H   0  0  0  0  0  0  0  0  0  0  0  0  # atno 8009 bound_to 7997
  154.4200  140.1132  156.5463 H   0  0  0  0  0  0  0  0  0  0  0  0  # atno 8010 bound_to 7997
  140.2326  144.3671  150.6409 H   0  0  0  0  0  0  0  0  0  0  0  0  # atno 10167 bound_to 10162
  156.0426  130.4324  150.2236 H   0  0  0  0  0  0  0  0  0  0  0  0  # atno 10718 bound_to 10713
  153.2333  135.4316  155.0619 H   0  0  0  0  0  0  0  0  0  0  0  0  # atno 10763 bound_to 10752
  154.8307  135.3385  154.6755 H   0  0  0  0  0  0  0  0  0  0  0  0  # atno 10764 bound_to 10752
  153.7181  135.7018  153.5076 H   0  0  0  0  0  0  0  0  0  0  0  0  # atno 10765 bound_to 10752
  140.0632  134.9193  157.1220 H   0  0  0  0  0  0  0  0  0  0  0  0  # atno 11005 bound_to 11000
  144.7423  139.7414  143.7306 LP  0  0  0  0  0  0  0  0  0  0  0  0  # atno 17320 bound_to 7965
  146.1762  139.4934  142.9896 LP  0  0  0  0  0  0  0  0  0  0  0  0  # atno 17321 bound_to 7965
  140.6174  143.2173  151.6764 LP  0  0  0  0  0  0  0  0  0  0  0  0  # atno 17342 bound_to 10162
  139.5105  144.3541  152.0624 LP  0  0  0  0  0  0  0  0  0  0  0  0  # atno 17343 bound_to 10162
  157.0330  131.0013  151.3306 LP  0  0  0  0  0  0  0  0  0  0  0  0  # atno 17370 bound_to 10713
  157.5264  130.8030  149.7867 LP  0  0  0  0  0  0  0  0  0  0  0  0  # atno 17371 bound_to 10713
  140.3738  134.2361  155.7176 LP  0  0  0  0  0  0  0  0  0  0  0  0  # atno 17394 bound_to 11000
  141.1982  133.8041  157.0593 LP  0  0  0  0  0  0  0  0  0  0  0  0  # atno 17395 bound_to 11000

$$$$
