AV-unprocessed.smi:72|AV-procd|sdf|752|dock6
  -GOLD-   2262017 83D 1   1.00000     0.00000
 Structure written by MMmdl.
 29 30  0  0  0  0  0  0  0  0  1 V2000
  145.7219  135.4518  150.3082 N   0  0  0  0  0  0  0  0  0  0  0  0
  145.9984  136.3729  151.2962 C   0  0  0  0  0  0  0  0  0  0  0  0
  146.5555  137.5879  150.8765 N   0  0  0  0  0  0  0  0  0  0  0  0
  146.8028  138.4625  151.7993 C   0  0  0  0  0  0  0  0  0  0  0  0
  146.4879  138.2016  153.1959 N   0  0  0  0  0  0  0  0  0  0  0  0
  146.7902  139.1952  154.3086 C   0  0  1  0  0  0  0  0  0  0  0  0
  147.8702  138.7541  155.0762 O   0  0  0  0  0  0  0  0  0  0  0  0
  149.0745  139.3228  154.5770 C   0  0  2  0  0  0  0  0  0  0  0  0
  150.1714  139.2528  155.6497 C   0  0  0  0  0  0  0  0  0  0  0  0
  151.3056  139.9791  155.2267 O   0  0  0  0  0  0  0  0  0  0  0  0
  148.6357  140.7478  154.2363 C   0  0  1  0  0  0  0  0  0  0  0  0
  149.4538  141.2820  153.2150 O   0  0  0  0  0  0  0  0  0  0  0  0
  147.2003  140.5735  153.7420 C   0  0  2  0  0  0  0  0  0  0  0  0
  146.3828  141.6082  154.2499 O   0  0  0  0  0  0  0  0  0  0  0  0
  145.9736  136.9229  153.5525 C   0  0  0  0  0  0  0  0  0  0  0  0
  145.7692  136.6466  154.7346 O   0  0  0  0  0  0  0  0  0  0  0  0
  145.7172  136.0176  152.5164 N   0  0  0  0  0  0  0  0  0  0  0  0
  145.8845  139.2073  154.9179 H   0  0  0  0  0  0  0  0  0  0  0  0
  149.3848  138.8057  153.6669 H   0  0  0  0  0  0  0  0  0  0  0  0
  148.6734  141.3779  155.1267 H   0  0  0  0  0  0  0  0  0  0  0  0
  147.1526  140.5636  152.6518 H   0  0  0  0  0  0  0  0  0  0  0  0
  145.3226  134.5429  150.4925 H   0  0  0  0  0  0  0  0  0  0  0  0
  145.9026  135.6159  149.3286 H   0  0  0  0  0  0  0  0  0  0  0  0
  147.2576  139.4288  151.5820 H   0  0  0  0  0  0  0  0  0  0  0  0
  149.8190  139.7073  156.5762 H   0  0  0  0  0  0  0  0  0  0  0  0
  150.4419  138.2212  155.8762 H   0  0  0  0  0  0  0  0  0  0  0  0
  152.0598  139.6617  155.6995 H   0  0  0  0  0  0  0  0  0  0  0  0
  149.6644  140.5887  152.6080 H   0  0  0  0  0  0  0  0  0  0  0  0
  145.9119  141.2776  154.9996 H   0  0  0  0  0  0  0  0  0  0  0  0
  1  2  1  0  0  0  0
  1 22  1  0  0  0  0
  1 23  1  0  0  0  0
  2 17  2  0  0  0  0
  2  3  1  0  0  0  0
  3  4  2  0  0  0  0
  4  5  1  0  0  0  0
  4 24  1  0  0  0  0
  5  6  1  0  0  0  0
  5 15  1  0  0  0  0
  6 18  1  0  0  0  0
  6 13  1  0  0  0  0
  6  7  1  0  0  0  0
  7  8  1  0  0  0  0
  8 19  1  0  0  0  0
  8  9  1  0  0  0  0
  8 11  1  0  0  0  0
  9 10  1  0  0  0  0
  9 25  1  0  0  0  0
  9 26  1  0  0  0  0
 10 27  1  0  0  0  0
 11 20  1  0  0  0  0
 11 12  1  0  0  0  0
 11 13  1  0  0  0  0
 12 28  1  0  0  0  0
 13 21  1  0  0  0  0
 13 14  1  0  0  0  0
 14 29  1  0  0  0  0
 15 16  2  0  0  0  0
 15 17  1  0  0  0  0
M  END
> <s_m_source_file>
AV-unprocessed.smi

> <i_m_source_file_index>
72

> <i_lp_mmshare_version>
43012

> <i_f3d_flags>
0

> <s_epik_input>
W05IMl1jMW5bY0hdbihjKD1PKW4xKVtDQEBIXTJPW0NASF0oW0NIMl1bT0hdKVtDQEBIXShbT0hdKVtDQEhdMltPSF0=

> <s_epik_cmdline>
J2VwaWtfcHl0aG9uJywgJy1waCcsICc3LjAnLCAnLXRuJywgJzgnLCAnLW1hJywgJzIwMCcsICctbWV0YWxfYmluZGluZycsICctaW1hZScsICc8aW5maWxlLm1hZT4nLCAnLW9tYWUnLCAnPG91dGZpbGUubWFlPic=

> <r_lp_tautomer_probability>
4.77166e-05

> <r_epik_Ionization_Penalty>
1.3546

> <r_epik_Ionization_Penalty_Charging>
1.46833e-10

> <r_epik_Ionization_Penalty_Neutral>
1.3546

> <r_epik_State_Penalty>
3.51908

> <r_epik_Charging_Adjusted_Penalty>
3.51908

> <i_epik_Tot_Q>
0

> <i_epik_Tot_abs_Q>
0

> <r_epik_Metal_State_Penalty>
3.44088

> <b_epik_Metal_Only>
1

> <s_epik_Chemistry_Notes>
This compound contains an acetal/aminal-like group ( X-CH(R)-Y where X, Y are N, S, or O) that may be acid/base labile, releasing an aldehyde.

> <s_lp_Force_Field>
OPLS_2005

> <r_lp_Energy>
23.1081

> <b_lp_Chiralities_Consistent>
1

> <s_lp_Variant>
AV-unprocessed.smi:72-90

> <Gold.Version>
5.8.1

> <Gold.Id.Protein>
6NUR|6NUR_protein|mol2

> <Gold.PLP.Fitness>
36.4176

> <Gold.PLP.PLP>
-20.4142

> <Gold.PLP.part.hbond>
-5.2172

> <Gold.PLP.part.metal>
0.0000

> <Gold.PLP.part.buried>
-1.4835

> <Gold.PLP.part.nonpolar>
-16.2712

> <Gold.PLP.part.repulsive>
2.7308

> <Gold.PLP.ligand.clash>
0.0000

> <Gold.PLP.ligand.torsion>
0.1994

> <Gold.PLP.Chemscore.Hbond>
4.4541

> <Gold.PLP.Chemscore.CHOScore>
0.9993

> <Gold.PLP.Chemscore.Metal>
0.0000

> <Gold.Chemscore.Hbonds>
donor molecule, donor type, donor heavy atom, donor atom, acceptor molecule, acceptor atom, score
      L1  H     1    23       P1  7921  0.93
      L1  H    12    28       P1  7957  0.96
      P1  H  7954  7966       L1     3  0.85
      P1  H  7989  7998       L1    10  1.00
      P1  H  8011  8017       L1    12  0.73
      L1  C     4    24       P1  7957  1.00

> <Gold.PLP.Chemscore.Internal.Correction>
0.0422

> <Gold.Rescore>
     Score         DG    S(hbond)    S(metal)    S(lipo)     H(rot)  DE(clash)    DE(int)     intcor
      5.80      -7.69       2.92        0.00      24.42       4.06       1.43       0.46       ----

> <Gold.Chemscore.Fitness>
5.8023

> <Gold.Chemscore.DG>
-7.6925

> <Gold.Chemscore.ZeroCoef>
-5.4800

> <Gold.Chemscore.Hbond>
2.9188

> <Gold.Chemscore.Metal>
0.0000

> <Gold.Chemscore.Lipo>
24.4223

> <Gold.Chemscore.Internal_Hbond>
0.0000

> <Gold.Chemscore.DEClash>
1.4300

> <Gold.Chemscore.DEInternal>
0.4602

> <Gold.Chemscore.Rot>
4.0600

> <Gold.Chemscore.Internal.Correction>
   9.000000E+99

> <Gold.Chemscore.Hbonds>
donor molecule, donor type, donor heavy atom, donor atom, acceptor molecule, acceptor atom, score
      L1  H     1    23       P1  7921  0.90
      L1  H    12    28       P1  7957  0.87
      P1  H  7954  7966       L1     3  0.14
      P1  H  7989  7998       L1    10  0.92
      P1  H  8011  8017       L1    12  0.12

> <Gold.Chemscore.Hbond.Weighted>
-9.7487

> <Gold.Chemscore.Metal.Weighted>
-0.0000

> <Gold.Chemscore.Lipo.Weighted>
-2.8574

> <Gold.Chemscore.Internal_Hbond.Weighted>
0.0000

> <Gold.Chemscore.DEClash.Weighted>
1.4300

> <Gold.Chemscore.DEInternal.Weighted>
0.4602

> <Gold.Chemscore.Rot.Weighted>
10.3936

> <Gold.Chemscore.Internal.Correction.Weighted>
   9.000000E+99

> <Gold.Protein.RotatedTorsions>
[ 6907 6896 6895 6894 ] final   93.78 input  -60.11 | X-H torsion
[ 7974 7965 7964 7962 ] final -132.40 input  175.53 | X-H torsion
[ 8008 7997 7996 7995 ] final  -35.14 input   59.86 | X-H torsion
[ 10167 10162 10161 10158 ] final -169.26 input  -65.29 | X-H torsion
[ 10718 10713 10712 10709 ] final -175.89 input   66.30 | X-H torsion
[ 10763 10752 10751 10750 ] final  -97.11 input  -60.55 | X-H torsion
[ 11005 11000 10999 10996 ] final -162.39 input  -57.11 | X-H torsion

> <Gold.Protein.ActiveResidues>
 VAL166  LYS551  ARG553  GLY616  TRP617  ASP618  TYR619  PRO620  LYS621  CYS622 
 ASP623  PHE694  ASN695  SER759  ASP760  ASP761  ALA762  ILE779  LEU786  VAL792 
 PHE793  MET794  SER795  GLU796  ALA797  LYS798  CYS799  TRP800  GLU811  SER814 

> <Gold.Protein.RotatedAtoms>
  152.5451  134.1294  159.8432 H   0  0  0  0  0  0  0  0  0  0  0  0  # atno 6907 bound_to 6896
  151.1342  133.5009  159.2606 H   0  0  0  0  0  0  0  0  0  0  0  0  # atno 6908 bound_to 6896
  151.1643  135.0298  159.8778 H   0  0  0  0  0  0  0  0  0  0  0  0  # atno 6909 bound_to 6896
  144.9289  140.7105  143.4918 H   0  0  0  0  0  0  0  0  0  0  0  0  # atno 7974 bound_to 7965
  154.4103  140.1665  156.2163 H   0  0  0  0  0  0  0  0  0  0  0  0  # atno 8008 bound_to 7997
  155.9401  140.3408  155.6297 H   0  0  0  0  0  0  0  0  0  0  0  0  # atno 8009 bound_to 7997
  155.6999  140.0744  157.2405 H   0  0  0  0  0  0  0  0  0  0  0  0  # atno 8010 bound_to 7997
  139.5934  144.1165  152.1660 H   0  0  0  0  0  0  0  0  0  0  0  0  # atno 10167 bound_to 10162
  156.8065  130.9571  151.3117 H   0  0  0  0  0  0  0  0  0  0  0  0  # atno 10718 bound_to 10713
  154.7299  135.5059  153.8947 H   0  0  0  0  0  0  0  0  0  0  0  0  # atno 10763 bound_to 10752
  153.0940  135.6667  153.9808 H   0  0  0  0  0  0  0  0  0  0  0  0  # atno 10764 bound_to 10752
  153.9612  135.3048  155.3412 H   0  0  0  0  0  0  0  0  0  0  0  0  # atno 10765 bound_to 10752
  140.6098  134.4861  157.5214 H   0  0  0  0  0  0  0  0  0  0  0  0  # atno 11005 bound_to 11000
  145.3174  139.1799  143.4606 LP  0  0  0  0  0  0  0  0  0  0  0  0  # atno 17320 bound_to 7965
  146.3238  140.3186  142.8631 LP  0  0  0  0  0  0  0  0  0  0  0  0  # atno 17321 bound_to 7965
  140.0744  144.5752  150.7168 LP  0  0  0  0  0  0  0  0  0  0  0  0  # atno 17342 bound_to 10162
  140.7192  143.2572  151.4336 LP  0  0  0  0  0  0  0  0  0  0  0  0  # atno 17343 bound_to 10162
  157.6527  130.8898  149.9666 LP  0  0  0  0  0  0  0  0  0  0  0  0  # atno 17370 bound_to 10713
  156.1069  130.3652  150.0117 LP  0  0  0  0  0  0  0  0  0  0  0  0  # atno 17371 bound_to 10713
  139.9197  134.8174  156.1251 LP  0  0  0  0  0  0  0  0  0  0  0  0  # atno 17394 bound_to 11000
  141.0816  133.6752  156.2348 LP  0  0  0  0  0  0  0  0  0  0  0  0  # atno 17395 bound_to 11000

$$$$
