AV-unprocessed.smi:528|AV-procd|sdf|2837|dock3
  -GOLD-   2262023323D 1   1.00000     0.00000
 Structure written by MMmdl.
 45 47  0  0  0  0  0  0  0  0  1 V2000
  146.0399  134.7976  153.1843 C   0  0  0  0  0  0  0  0  0  0  0  0
  146.8450  133.4954  153.3117 C   0  0  2  0  0  0  0  0  0  0  0  0
  148.2353  133.8339  153.6135 N   0  0  0  0  0  0  0  0  0  0  0  0
  148.9892  133.2960  154.5852 C   0  0  0  0  0  0  0  0  0  0  0  0
  148.5722  132.4482  155.3757 O   0  0  0  0  0  0  0  0  0  0  0  0
  150.4368  133.8018  154.6605 C   0  0  0  0  0  0  0  0  0  0  0  0
  150.5888  134.9979  155.5052 N   0  0  0  0  0  0  0  0  0  0  0  0
  150.8141  136.2187  154.8394 C   0  0  0  0  0  0  0  0  0  0  0  0
  150.9987  137.3845  155.4875 C   0  0  0  0  0  0  0  0  0  0  0  0
  151.1986  138.6919  154.7371 C   0  0  0  0  0  0  0  0  0  0  0  0
  151.3487  139.7132  155.5807 F   0  0  0  0  0  0  0  0  0  0  0  0
  152.2911  138.6158  153.9783 F   0  0  0  0  0  0  0  0  0  0  0  0
  150.1598  138.9537  153.9426 F   0  0  0  0  0  0  0  0  0  0  0  0
  150.9163  137.3381  156.9343 C   0  0  0  0  0  0  0  0  0  0  0  0
  150.6973  136.1794  157.5864 C   0  0  0  0  0  0  0  0  0  0  0  0
  150.5302  134.9139  156.8680 C   0  0  0  0  0  0  0  0  0  0  0  0
  150.3492  133.8467  157.4546 O   0  0  0  0  0  0  0  0  0  0  0  0
  146.7843  132.6348  152.0251 C   0  0  1  0  0  0  0  0  0  0  0  0
  146.4783  131.1348  152.2487 C   0  0  0  0  0  0  0  0  0  0  0  0
  145.3527  130.8539  151.2365 C   0  0  1  0  0  0  0  0  0  0  0  0
  144.0461  131.4829  151.7536 C   0  0  0  0  0  0  0  0  0  0  0  0
  144.2910  132.9881  151.5436 C   0  0  0  0  0  0  0  0  0  0  0  0
  145.7220  133.0265  150.9677 C   0  0  2  0  0  0  0  0  0  0  0  0
  145.7154  131.7828  150.0838 C   0  0  0  0  0  0  0  0  0  0  0  0
  144.9790  134.5957  153.0359 H   0  0  0  0  0  0  0  0  0  0  0  0
  146.3861  135.3994  152.3433 H   0  0  0  0  0  0  0  0  0  0  0  0
  146.1300  135.4033  154.0867 H   0  0  0  0  0  0  0  0  0  0  0  0
  146.4248  132.9298  154.1434 H   0  0  0  0  0  0  0  0  0  0  0  0
  148.6661  134.5276  153.0195 H   0  0  0  0  0  0  0  0  0  0  0  0
  151.0715  133.0013  155.0447 H   0  0  0  0  0  0  0  0  0  0  0  0
  150.7956  133.9848  153.6464 H   0  0  0  0  0  0  0  0  0  0  0  0
  150.8359  136.1435  153.7617 H   0  0  0  0  0  0  0  0  0  0  0  0
  151.0366  138.2465  157.5060 H   0  0  0  0  0  0  0  0  0  0  0  0
  150.6448  136.1818  158.6654 H   0  0  0  0  0  0  0  0  0  0  0  0
  147.7603  132.7052  151.5405 H   0  0  0  0  0  0  0  0  0  0  0  0
  147.3600  130.5291  152.0361 H   0  0  0  0  0  0  0  0  0  0  0  0
  146.1607  130.9068  153.2664 H   0  0  0  0  0  0  0  0  0  0  0  0
  145.2558  129.8010  150.9711 H   0  0  0  0  0  0  0  0  0  0  0  0
  143.1914  131.1479  151.1648 H   0  0  0  0  0  0  0  0  0  0  0  0
  143.8516  131.2347  152.7977 H   0  0  0  0  0  0  0  0  0  0  0  0
  143.5809  133.3858  150.8175 H   0  0  0  0  0  0  0  0  0  0  0  0
  144.1729  133.5682  152.4577 H   0  0  0  0  0  0  0  0  0  0  0  0
  145.9537  133.9508  150.4377 H   0  0  0  0  0  0  0  0  0  0  0  0
  146.6859  131.5601  149.6370 H   0  0  0  0  0  0  0  0  0  0  0  0
  144.9589  131.8122  149.2976 H   0  0  0  0  0  0  0  0  0  0  0  0
  1  2  1  0  0  0  0
  1 25  1  0  0  0  0
  1 26  1  0  0  0  0
  1 27  1  0  0  0  0
  2  3  1  0  0  0  0
  2 18  1  0  0  0  0
  2 28  1  0  0  0  0
  3  4  1  0  0  0  0
  3 29  1  0  0  0  0
  4  5  2  0  0  0  0
  4  6  1  0  0  0  0
  6  7  1  0  0  0  0
  6 30  1  0  0  0  0
  6 31  1  0  0  0  0
  7 16  1  0  0  0  0
  7  8  1  0  0  0  0
  8  9  2  0  0  0  0
  8 32  1  0  0  0  0
  9 10  1  0  0  0  0
  9 14  1  0  0  0  0
 10 11  1  0  0  0  0
 10 12  1  0  0  0  0
 10 13  1  0  0  0  0
 14 15  2  0  0  0  0
 14 33  1  0  0  0  0
 15 16  1  0  0  0  0
 15 34  1  0  0  0  0
 16 17  2  0  0  0  0
 18 23  1  0  0  0  0
 18 19  1  0  0  0  0
 18 35  1  0  0  0  0
 19 20  1  0  0  0  0
 19 36  1  0  0  0  0
 19 37  1  0  0  0  0
 20 24  1  0  0  0  0
 20 21  1  0  0  0  0
 20 38  1  0  0  0  0
 21 22  1  0  0  0  0
 21 39  1  0  0  0  0
 21 40  1  0  0  0  0
 22 23  1  0  0  0  0
 22 41  1  0  0  0  0
 22 42  1  0  0  0  0
 23 24  1  0  0  0  0
 23 43  1  0  0  0  0
 24 44  1  0  0  0  0
 24 45  1  0  0  0  0
M  END
> <s_m_source_file>
AV-unprocessed.smi

> <i_m_source_file_index>
528

> <i_lp_mmshare_version>
43012

> <i_f3d_flags>
0

> <s_epik_input>
W0NIMl0xW0NIMl1bQ0BASF0oW0NIMl0yKVtDQEBIXShbQ0gyXVtDQEhdMTIpW0NASF0oW0NIM10pW05IXUMoPU8pW0NIMl1uM1tjSF1jKEMoRikoRilGKVtjSF1bY0hdYzM9Tw==

> <s_epik_cmdline>
J2VwaWtfcHl0aG9uJywgJy1waCcsICc3LjAnLCAnLXRuJywgJzgnLCAnLW1hJywgJzIwMCcsICctbWV0YWxfYmluZGluZycsICctaW1hZScsICc8aW5maWxlLm1hZT4nLCAnLW9tYWUnLCAnPG91dGZpbGUubWFlPic=

> <r_lp_tautomer_probability>
1

> <r_epik_Ionization_Penalty>
4.09479e-08

> <r_epik_Ionization_Penalty_Charging>
1.9321e-08

> <r_epik_Ionization_Penalty_Neutral>
2.16269e-08

> <r_epik_State_Penalty>
-0

> <r_epik_Charging_Adjusted_Penalty>
1.9321e-08

> <i_epik_Tot_Q>
0

> <i_epik_Tot_abs_Q>
0

> <r_epik_Metal_State_Penalty>
-0

> <b_epik_Metal_Only>
0

> <s_lp_Force_Field>
OPLS_2005

> <r_lp_Energy>
63.2054

> <b_lp_Chiralities_Consistent>
1

> <s_lp_Variant>
AV-unprocessed.smi:528-7

> <Gold.Version>
5.8.1

> <Gold.Id.Protein>
6NUR|6NUR_protein|mol2

> <Gold.PLP.Fitness>
47.5325

> <Gold.PLP.PLP>
-43.0897

> <Gold.PLP.part.hbond>
-2.0000

> <Gold.PLP.part.metal>
0.0000

> <Gold.PLP.part.buried>
-4.0602

> <Gold.PLP.part.nonpolar>
-36.1169

> <Gold.PLP.part.repulsive>
0.0000

> <Gold.PLP.ligand.clash>
0.0000

> <Gold.PLP.ligand.torsion>
2.0209

> <Gold.PLP.Chemscore.Hbond>
1.9750

> <Gold.PLP.Chemscore.CHOScore>
0.8348

> <Gold.PLP.Chemscore.Metal>
0.0000

> <Gold.Chemscore.Hbonds>
donor molecule, donor type, donor heavy atom, donor atom, acceptor molecule, acceptor atom, score
      L1  H     3    29       P1  7948  0.84
      P1  H  6896  6908       L1    17  0.80
      L1  C     8    32       P1  7948  0.02
      L1  C     8    32       P1  7949  0.75

> <Gold.PLP.Chemscore.Internal.Correction>
0.0551

> <Gold.Rescore>
     Score         DG    S(hbond)    S(metal)    S(lipo)     H(rot)  DE(clash)    DE(int)     intcor
     15.44     -17.14       1.83        0.00      84.77       1.71       0.33       1.37       ----

> <Gold.Chemscore.Fitness>
15.4368

> <Gold.Chemscore.DG>
-17.1358

> <Gold.Chemscore.ZeroCoef>
-5.4800

> <Gold.Chemscore.Hbond>
1.8327

> <Gold.Chemscore.Metal>
0.0000

> <Gold.Chemscore.Lipo>
84.7737

> <Gold.Chemscore.Internal_Hbond>
0.0000

> <Gold.Chemscore.DEClash>
0.3316

> <Gold.Chemscore.DEInternal>
1.3674

> <Gold.Chemscore.Rot>
1.7125

> <Gold.Chemscore.Internal.Correction>
   9.000000E+99

> <Gold.Chemscore.Hbonds>
donor molecule, donor type, donor heavy atom, donor atom, acceptor molecule, acceptor atom, score
      L1  H     3    29       P1  7948  0.14
      P1  H  6896  6908       L1    17  0.68

> <Gold.Chemscore.Hbond.Weighted>
-6.1212

> <Gold.Chemscore.Metal.Weighted>
-0.0000

> <Gold.Chemscore.Lipo.Weighted>
-9.9185

> <Gold.Chemscore.Internal_Hbond.Weighted>
0.0000

> <Gold.Chemscore.DEClash.Weighted>
0.3316

> <Gold.Chemscore.DEInternal.Weighted>
1.3674

> <Gold.Chemscore.Rot.Weighted>
4.3840

> <Gold.Chemscore.Internal.Correction.Weighted>
   9.000000E+99

> <Gold.Protein.RotatedTorsions>
[ 6907 6896 6895 6894 ] final  130.31 input  -60.11 | X-H torsion
[ 7974 7965 7964 7962 ] final   84.99 input  175.53 | X-H torsion
[ 8008 7997 7996 7995 ] final -158.00 input   59.86 | X-H torsion
[ 10167 10162 10161 10158 ] final   11.72 input  -65.29 | X-H torsion
[ 10718 10713 10712 10709 ] final  122.72 input   66.30 | X-H torsion
[ 10763 10752 10751 10750 ] final  161.70 input  -60.55 | X-H torsion
[ 11005 11000 10999 10996 ] final  -30.74 input  -57.11 | X-H torsion

> <Gold.Protein.ActiveResidues>
 VAL166  LYS551  ARG553  GLY616  TRP617  ASP618  TYR619  PRO620  LYS621  CYS622 
 ASP623  PHE694  ASN695  SER759  ASP760  ASP761  ALA762  ILE779  LEU786  VAL792 
 PHE793  MET794  SER795  GLU796  ALA797  LYS798  CYS799  TRP800  GLU811  SER814 

> <Gold.Protein.RotatedAtoms>
  152.3539  133.6213  159.5964 H   0  0  0  0  0  0  0  0  0  0  0  0  # atno 6907 bound_to 6896
  150.7556  133.9531  159.3500 H   0  0  0  0  0  0  0  0  0  0  0  0  # atno 6908 bound_to 6896
  151.7379  135.0861  160.0362 H   0  0  0  0  0  0  0  0  0  0  0  0  # atno 6909 bound_to 6896
  145.5914  139.2338  143.2297 H   0  0  0  0  0  0  0  0  0  0  0  0  # atno 7974 bound_to 7965
  155.7410  140.0814  157.2246 H   0  0  0  0  0  0  0  0  0  0  0  0  # atno 8008 bound_to 7997
  154.4022  140.1578  156.2671 H   0  0  0  0  0  0  0  0  0  0  0  0  # atno 8009 bound_to 7997
  155.9020  140.3409  155.6037 H   0  0  0  0  0  0  0  0  0  0  0  0  # atno 8010 bound_to 7997
  140.6114  143.8400  150.7069 H   0  0  0  0  0  0  0  0  0  0  0  0  # atno 10167 bound_to 10162
  157.5720  131.1082  150.8349 H   0  0  0  0  0  0  0  0  0  0  0  0  # atno 10718 bound_to 10713
  154.2670  135.2767  155.2754 H   0  0  0  0  0  0  0  0  0  0  0  0  # atno 10763 bound_to 10752
  154.5335  135.5723  153.6782 H   0  0  0  0  0  0  0  0  0  0  0  0  # atno 10764 bound_to 10752
  152.9952  135.6233  154.2822 H   0  0  0  0  0  0  0  0  0  0  0  0  # atno 10765 bound_to 10752
  140.9409  133.7280  156.1074 H   0  0  0  0  0  0  0  0  0  0  0  0  # atno 11005 bound_to 11000
  146.1644  140.6740  142.9262 LP  0  0  0  0  0  0  0  0  0  0  0  0  # atno 17320 bound_to 7965
  144.7350  140.4781  143.6910 LP  0  0  0  0  0  0  0  0  0  0  0  0  # atno 17321 bound_to 7965
  140.1970  143.3990  152.1821 LP  0  0  0  0  0  0  0  0  0  0  0  0  # atno 17342 bound_to 10162
  139.5364  144.7213  151.4880 LP  0  0  0  0  0  0  0  0  0  0  0  0  # atno 17343 bound_to 10162
  156.8818  130.5182  149.5290 LP  0  0  0  0  0  0  0  0  0  0  0  0  # atno 17370 bound_to 10713
  156.0765  130.5786  150.9484 LP  0  0  0  0  0  0  0  0  0  0  0  0  # atno 17371 bound_to 10713
  140.7736  134.3805  157.5502 LP  0  0  0  0  0  0  0  0  0  0  0  0  # atno 17394 bound_to 11000
  139.8820  134.9037  156.2862 LP  0  0  0  0  0  0  0  0  0  0  0  0  # atno 17395 bound_to 11000

$$$$
