AV-unprocessed.smi:20|AV-procd|sdf|116|dock1
  -GOLD-   2262015283D 1   1.00000     0.00000
 Structure written by MMmdl.
 57 61  0  0  0  0  0  0  0  0  1 V2000
  141.9443  135.4777  154.3902 O   0  0  0  0  0  0  0  0  0  0  0  0
  143.1636  135.5324  154.2484 C   0  0  0  0  0  0  0  0  0  0  0  0
  143.9090  136.7863  153.8241 C   0  0  0  0  0  0  0  0  0  0  0  0
  145.3088  136.2563  153.4299 C   0  0  1  0  0  0  0  0  0  0  0  0
  145.4101  135.9719  151.9070 C   0  0  0  0  0  0  0  0  0  0  0  0
  145.4798  137.2658  151.0765 C   0  0  0  0  0  0  0  0  0  0  0  0
  146.5940  138.1924  151.5841 C   0  0  0  0  0  0  0  0  0  0  0  0
  146.4550  138.4272  153.0211 N   0  0  0  0  0  0  0  0  0  0  0  0
  147.1157  139.4831  153.5606 C   0  0  0  0  0  0  0  0  0  0  0  0
  146.5837  140.7321  153.4742 N   0  0  0  0  0  0  0  0  0  0  0  0
  147.2308  141.7798  153.9927 C   0  0  0  0  0  0  0  0  0  0  0  0
  148.4013  141.8041  154.6323 N   0  0  0  0  0  0  0  0  0  0  0  0
  148.9366  140.5540  154.7312 C   0  0  0  0  0  0  0  0  0  0  0  0
  148.3663  139.3501  154.2284 C   0  0  0  0  0  0  0  0  0  0  0  0
  149.1944  138.2746  154.5288 N   0  0  0  0  0  0  0  0  0  0  0  0
  150.2000  138.8129  155.1627 C   0  0  0  0  0  0  0  0  0  0  0  0
  150.1195  140.1753  155.3423 N   0  0  0  0  0  0  0  0  0  0  0  0
  151.0975  141.0230  156.0025 C   0  0  0  0  0  0  0  0  0  0  0  0
  151.1750  140.8312  157.5392 C   0  0  1  0  0  0  0  0  0  0  0  0
  151.6612  139.3972  157.8546 C   0  0  0  0  0  0  0  0  0  0  0  0
  153.0485  139.2533  157.6258 O   0  0  0  0  0  0  0  0  0  0  0  0
  152.0168  141.9160  158.2722 C   0  0  2  0  0  0  0  0  0  0  0  0
  152.0732  141.7606  159.7839 C   0  0  0  0  0  0  0  0  0  0  0  0
  152.5292  143.1413  160.2312 C   0  0  0  0  0  0  0  0  0  0  0  0
  151.8503  144.0343  159.3620 O   0  0  0  0  0  0  0  0  0  0  0  0
  151.5012  143.3599  158.1559 C   0  0  0  0  0  0  0  0  0  0  0  0
  146.4453  137.2180  153.8442 C   0  0  0  0  0  0  0  0  0  0  0  0
  145.3962  134.9248  154.2135 C   0  0  0  0  0  0  0  0  0  0  0  0
  144.0189  134.5309  154.4376 N   0  0  0  0  0  0  0  0  0  0  0  0
  143.3904  137.3021  153.0168 H   0  0  0  0  0  0  0  0  0  0  0  0
  143.9600  137.4625  154.6785 H   0  0  0  0  0  0  0  0  0  0  0  0
  146.3110  135.3902  151.7068 H   0  0  0  0  0  0  0  0  0  0  0  0
  144.5734  135.3589  151.5697 H   0  0  0  0  0  0  0  0  0  0  0  0
  145.6498  137.0250  150.0270 H   0  0  0  0  0  0  0  0  0  0  0  0
  144.5254  137.7905  151.1154 H   0  0  0  0  0  0  0  0  0  0  0  0
  147.5694  137.7457  151.3862 H   0  0  0  0  0  0  0  0  0  0  0  0
  146.5535  139.1365  151.0389 H   0  0  0  0  0  0  0  0  0  0  0  0
  146.7405  142.7354  153.8789 H   0  0  0  0  0  0  0  0  0  0  0  0
  151.0308  138.2258  155.5260 H   0  0  0  0  0  0  0  0  0  0  0  0
  152.0650  140.8023  155.5502 H   0  0  0  0  0  0  0  0  0  0  0  0
  150.8826  142.0650  155.7635 H   0  0  0  0  0  0  0  0  0  0  0  0
  150.1577  140.8892  157.9286 H   0  0  0  0  0  0  0  0  0  0  0  0
  151.4451  139.1269  158.8881 H   0  0  0  0  0  0  0  0  0  0  0  0
  151.1310  138.6717  157.2369 H   0  0  0  0  0  0  0  0  0  0  0  0
  153.4858  139.1808  158.4605 H   0  0  0  0  0  0  0  0  0  0  0  0
  153.0409  141.8889  157.8960 H   0  0  0  0  0  0  0  0  0  0  0  0
  151.0814  141.5469  160.1853 H   0  0  0  0  0  0  0  0  0  0  0  0
  152.7540  140.9741  160.1111 H   0  0  0  0  0  0  0  0  0  0  0  0
  152.2987  143.3443  161.2772 H   0  0  0  0  0  0  0  0  0  0  0  0
  153.6048  143.2541  160.0881 H   0  0  0  0  0  0  0  0  0  0  0  0
  151.9330  143.8797  157.3015 H   0  0  0  0  0  0  0  0  0  0  0  0
  150.4157  143.3885  158.0576 H   0  0  0  0  0  0  0  0  0  0  0  0
  146.3588  137.4542  154.9043 H   0  0  0  0  0  0  0  0  0  0  0  0
  147.4083  136.7202  153.7230 H   0  0  0  0  0  0  0  0  0  0  0  0
  145.9470  134.1490  153.6807 H   0  0  0  0  0  0  0  0  0  0  0  0
  145.8731  135.0621  155.1852 H   0  0  0  0  0  0  0  0  0  0  0  0
  143.7537  133.5999  154.7249 H   0  0  0  0  0  0  0  0  0  0  0  0
  1  2  2  0  0  0  0
  2 29  1  0  0  0  0
  2  3  1  0  0  0  0
  3  4  1  0  0  0  0
  3 30  1  0  0  0  0
  3 31  1  0  0  0  0
  4 27  1  0  0  0  0
  4  5  1  0  0  0  0
  4 28  1  0  0  0  0
  5  6  1  0  0  0  0
  5 32  1  0  0  0  0
  5 33  1  0  0  0  0
  6  7  1  0  0  0  0
  6 34  1  0  0  0  0
  6 35  1  0  0  0  0
  7  8  1  0  0  0  0
  7 36  1  0  0  0  0
  7 37  1  0  0  0  0
  8  9  1  0  0  0  0
  8 27  1  0  0  0  0
  9 14  1  0  0  0  0
  9 10  2  0  0  0  0
 10 11  1  0  0  0  0
 11 12  2  0  0  0  0
 11 38  1  0  0  0  0
 12 13  1  0  0  0  0
 13 17  1  0  0  0  0
 13 14  2  0  0  0  0
 14 15  1  0  0  0  0
 15 16  2  0  0  0  0
 16 17  1  0  0  0  0
 16 39  1  0  0  0  0
 17 18  1  0  0  0  0
 18 19  1  0  0  0  0
 18 40  1  0  0  0  0
 18 41  1  0  0  0  0
 19 20  1  0  0  0  0
 19 22  1  0  0  0  0
 19 42  1  0  0  0  0
 20 21  1  0  0  0  0
 20 43  1  0  0  0  0
 20 44  1  0  0  0  0
 21 45  1  0  0  0  0
 22 26  1  0  0  0  0
 22 23  1  0  0  0  0
 22 46  1  0  0  0  0
 23 24  1  0  0  0  0
 23 47  1  0  0  0  0
 23 48  1  0  0  0  0
 24 25  1  0  0  0  0
 24 49  1  0  0  0  0
 24 50  1  0  0  0  0
 25 26  1  0  0  0  0
 26 51  1  0  0  0  0
 26 52  1  0  0  0  0
 27 53  1  0  0  0  0
 27 54  1  0  0  0  0
 28 29  1  0  0  0  0
 28 55  1  0  0  0  0
 28 56  1  0  0  0  0
 29 57  1  0  0  0  0
M  END
> <s_m_source_file>
AV-unprocessed.smi

> <i_m_source_file_index>
20

> <i_lp_mmshare_version>
43012

> <i_f3d_flags>
0

> <s_epik_input>
W0NIMl0xW05IXUMoPU8pW0NIMl1bQ0BAXTEyW0NIMl1bQ0gyXVtDSDJdTihbQ0gyXTIpYyhuW2NIXW4zKWMoYzM0KW5bY0hdbjRbQ0gyXVtDQEhdKFtDSDJdW09IXSlbQ0BASF01W0NIMl1bQ0gyXU9bQ0gyXTU=

> <s_epik_cmdline>
J2VwaWtfcHl0aG9uJywgJy1waCcsICc3LjAnLCAnLXRuJywgJzgnLCAnLW1hJywgJzIwMCcsICctbWV0YWxfYmluZGluZycsICctaW1hZScsICc8aW5maWxlLm1hZT4nLCAnLW9tYWUnLCAnPG91dGZpbGUubWFlPic=

> <r_lp_tautomer_probability>
1

> <r_epik_Ionization_Penalty>
0.0019697

> <r_epik_Ionization_Penalty_Charging>
0

> <r_epik_Ionization_Penalty_Neutral>
0.0019697

> <r_epik_State_Penalty>
0.00113613

> <r_epik_Charging_Adjusted_Penalty>
0.00113613

> <i_epik_Tot_Q>
0

> <i_epik_Tot_abs_Q>
0

> <r_epik_Metal_State_Penalty>
-0

> <b_epik_Metal_Only>
0

> <s_lp_Force_Field>
OPLS_2005

> <r_lp_Energy>
60.744

> <b_lp_Chiralities_Consistent>
1

> <s_lp_Variant>
AV-unprocessed.smi:20-4

> <Gold.Version>
5.8.1

> <Gold.Id.Protein>
6NUR|6NUR_protein|mol2

> <Gold.PLP.Fitness>
45.6941

> <Gold.PLP.PLP>
-41.6631

> <Gold.PLP.part.hbond>
-2.2105

> <Gold.PLP.part.metal>
0.0000

> <Gold.PLP.part.buried>
-0.5052

> <Gold.PLP.part.nonpolar>
-39.4421

> <Gold.PLP.part.repulsive>
0.8965

> <Gold.PLP.ligand.clash>
0.0000

> <Gold.PLP.ligand.torsion>
0.7611

> <Gold.PLP.Chemscore.Hbond>
1.6500

> <Gold.PLP.Chemscore.CHOScore>
0.0000

> <Gold.PLP.Chemscore.Metal>
0.0000

> <Gold.Chemscore.Hbonds>
donor molecule, donor type, donor heavy atom, donor atom, acceptor molecule, acceptor atom, score
      L1  H    29    57       P1 10957  0.75
      P1  H  7997  8009       L1    21  0.90

> <Gold.PLP.Chemscore.Internal.Correction>
0.6033

> <Gold.Rescore>
     Score         DG    S(hbond)    S(metal)    S(lipo)     H(rot)  DE(clash)    DE(int)     intcor
      8.97     -13.15       1.22        0.00      90.72       2.74       1.88       2.30       ----

> <Gold.Chemscore.Fitness>
8.9744

> <Gold.Chemscore.DG>
-13.1515

> <Gold.Chemscore.ZeroCoef>
-5.4800

> <Gold.Chemscore.Hbond>
1.2201

> <Gold.Chemscore.Metal>
0.0000

> <Gold.Chemscore.Lipo>
90.7235

> <Gold.Chemscore.Internal_Hbond>
0.0000

> <Gold.Chemscore.DEClash>
1.8763

> <Gold.Chemscore.DEInternal>
2.3008

> <Gold.Chemscore.Rot>
2.7415

> <Gold.Chemscore.Internal.Correction>
   9.000000E+99

> <Gold.Chemscore.Hbonds>
donor molecule, donor type, donor heavy atom, donor atom, acceptor molecule, acceptor atom, score
      L1  H    29    57       P1 10957  0.74
      P1  H  7997  8009       L1    21  0.18

> <Gold.Chemscore.Hbond.Weighted>
-4.0750

> <Gold.Chemscore.Metal.Weighted>
-0.0000

> <Gold.Chemscore.Lipo.Weighted>
-10.6147

> <Gold.Chemscore.Internal_Hbond.Weighted>
0.0000

> <Gold.Chemscore.DEClash.Weighted>
1.8763

> <Gold.Chemscore.DEInternal.Weighted>
2.3008

> <Gold.Chemscore.Rot.Weighted>
7.0182

> <Gold.Chemscore.Internal.Correction.Weighted>
   9.000000E+99

> <Gold.Protein.RotatedTorsions>
[ 6907 6896 6895 6894 ] final -117.71 input  -60.11 | X-H torsion
[ 7974 7965 7964 7962 ] final   97.76 input  175.53 | X-H torsion
[ 8008 7997 7996 7995 ] final  177.67 input   59.86 | X-H torsion
[ 10167 10162 10161 10158 ] final  -73.27 input  -65.29 | X-H torsion
[ 10718 10713 10712 10709 ] final   99.53 input   66.30 | X-H torsion
[ 10763 10752 10751 10750 ] final -116.11 input  -60.55 | X-H torsion
[ 11005 11000 10999 10996 ] final  -72.67 input  -57.11 | X-H torsion

> <Gold.Protein.ActiveResidues>
 VAL166  LYS551  ARG553  GLY616  TRP617  ASP618  TYR619  PRO620  LYS621  CYS622 
 ASP623  PHE694  ASN695  SER759  ASP760  ASP761  ALA762  ILE779  LEU786  VAL792 
 PHE793  MET794  SER795  GLU796  ALA797  LYS798  CYS799  TRP800  GLU811  SER814 

> <Gold.Protein.RotatedAtoms>
  150.8159  133.8338  159.3160 H   0  0  0  0  0  0  0  0  0  0  0  0  # atno 6907 bound_to 6896
  151.6110  135.1038  160.0090 H   0  0  0  0  0  0  0  0  0  0  0  0  # atno 6908 bound_to 6896
  152.4251  133.7140  159.6552 H   0  0  0  0  0  0  0  0  0  0  0  0  # atno 6909 bound_to 6896
  145.4212  139.2321  143.3195 H   0  0  0  0  0  0  0  0  0  0  0  0  # atno 7974 bound_to 7965
  156.0631  140.1352  156.9918 H   0  0  0  0  0  0  0  0  0  0  0  0  # atno 8008 bound_to 7997
  154.4492  140.0987  156.6618 H   0  0  0  0  0  0  0  0  0  0  0  0  # atno 8009 bound_to 7997
  155.5346  140.3459  155.4436 H   0  0  0  0  0  0  0  0  0  0  0  0  # atno 8010 bound_to 7997
  140.5124  143.2343  151.7571 H   0  0  0  0  0  0  0  0  0  0  0  0  # atno 10167 bound_to 10162
  157.6874  131.0672  150.4963 H   0  0  0  0  0  0  0  0  0  0  0  0  # atno 10718 bound_to 10713
  154.8507  135.4357  154.1769 H   0  0  0  0  0  0  0  0  0  0  0  0  # atno 10763 bound_to 10752
  153.2869  135.6958  153.7336 H   0  0  0  0  0  0  0  0  0  0  0  0  # atno 10764 bound_to 10752
  153.6519  135.3450  155.3077 H   0  0  0  0  0  0  0  0  0  0  0  0  # atno 10765 bound_to 10752
  141.1612  133.6854  156.7094 H   0  0  0  0  0  0  0  0  0  0  0  0  # atno 11005 bound_to 11000
  146.2655  140.4937  142.8836 LP  0  0  0  0  0  0  0  0  0  0  0  0  # atno 17320 bound_to 7965
  144.8244  140.6603  143.6332 LP  0  0  0  0  0  0  0  0  0  0  0  0  # atno 17321 bound_to 7965
  139.4900  144.4372  151.9806 LP  0  0  0  0  0  0  0  0  0  0  0  0  # atno 17342 bound_to 10162
  140.3465  144.3141  150.5957 LP  0  0  0  0  0  0  0  0  0  0  0  0  # atno 17343 bound_to 10162
  156.5287  130.4179  149.6213 LP  0  0  0  0  0  0  0  0  0  0  0  0  # atno 17370 bound_to 10713
  156.3089  130.7218  151.2106 LP  0  0  0  0  0  0  0  0  0  0  0  0  # atno 17371 bound_to 10713
  140.2898  134.8249  157.4007 LP  0  0  0  0  0  0  0  0  0  0  0  0  # atno 17394 bound_to 11000
  140.1357  134.5037  155.8070 LP  0  0  0  0  0  0  0  0  0  0  0  0  # atno 17395 bound_to 11000

$$$$
