#       Name:                AV-unprocessed.smi:188
#       Creating user name   scv26
#       Creation time:       Thu Mar 26 19:29:10 2020


#       File generated by GOLD software.
#

@<TRIPOS>MOLECULE
AV-unprocessed.smi:188
    61    65     1
SMALL
NO_CHARGES


@<TRIPOS>ATOM
      1 ****        -3.9471   7.1156  -0.2966 O.2            1 S1                 0.0000
      2 ****        -3.5432   6.0315   0.1173 C.2            1 S1                 0.0000
      3 ****        -4.0006   5.3787   1.1896 N.am           1 S1                 0.0000
      4 ****        -3.3684   4.2244   1.3926 C.2            1 S1                 0.0000
      5 ****        -3.5841   3.4241   2.3011 O.2            1 S1                 0.0000
      6 ****        -2.3166   4.0574   0.2963 C.3            1 S1                 0.0000
      7 ****        -2.5702   2.8293  -0.6085 C.3            1 S1                 0.0000
      8 ****        -2.1818   1.5046   0.0749 C.3            1 S1                 0.0000
      9 ****        -0.8120   1.5581   0.5856 N.3            1 S1                 0.0000
     10 ****        -0.2785   0.3474   0.8902 C.ar           1 S1                 0.0000
     11 ****         0.0621   0.0589   2.1751 N.ar           1 S1                 0.0000
     12 ****         0.5742  -1.1351   2.4868 C.ar           1 S1                 0.0000
     13 ****         0.8299  -2.1685   1.6828 N.ar           1 S1                 0.0000
     14 ****         0.5042  -1.8830   0.3901 C.ar           1 S1                 0.0000
     15 ****        -0.0531  -0.6625  -0.0878 C.ar           1 S1                 0.0000
     16 ****        -0.2465  -0.7381  -1.4621 N.2            1 S1                 0.0000
     17 ****         0.1627  -1.9367  -1.7763 C.2            1 S1                 0.0000
     18 ****         0.6396  -2.6898  -0.7267 N.pl3          1 S1                 0.0000
     19 ****         1.1575  -4.0483  -0.7998 C.3            1 S1                 0.0000
     20 ****         2.6981  -4.1420  -0.7911 C.3            1 S1                 0.0000
     21 ****         3.3103  -3.2208  -1.8612 C.3            1 S1                 0.0000
     22 ****         2.8676  -3.5704  -3.1574 O.3            1 S1                 0.0000
     23 ****         3.3712  -4.0452   0.5860 C.3            1 S1                 0.0000
     24 ****         4.1436  -5.2415   0.3533 O.3            1 S1                 0.0000
     25 ****         3.2799  -5.5623  -0.7574 C.3            1 S1                 0.0000
     26 ****        -0.5269   2.6690   1.4960 C.3            1 S1                 0.0000
     27 ****        -0.8712   4.0204   0.8434 C.3            1 S1                 0.0000
     28 ****        -2.5656   5.2948  -0.4272 N.am           1 S1                 0.0000
     29 ****        -4.7433   5.7224   1.7808 H              1 S1                 0.0000
     30 ****        -3.6163   2.7870  -0.9156 H              1 S1                 0.0000
     31 ****        -1.9913   2.9342  -1.5273 H              1 S1                 0.0000
     32 ****        -2.8573   1.2921   0.9040 H              1 S1                 0.0000
     33 ****        -2.3074   0.6895  -0.6370 H              1 S1                 0.0000
     34 ****         0.8134  -1.2830   3.5295 H              1 S1                 0.0000
     35 ****         0.1367  -2.3039  -2.7920 H              1 S1                 0.0000
     36 ****         0.7345  -4.6105   0.0336 H              1 S1                 0.0000
     37 ****         0.7545  -4.5168  -1.6985 H              1 S1                 0.0000
     38 ****         3.0782  -2.1726  -1.6729 H              1 S1                 0.0000
     39 ****         4.3985  -3.2928  -1.8506 H              1 S1                 0.0000
     40 ****         3.2904  -3.0015  -3.7826 H              1 S1                 0.0000
     41 ****         3.9928  -3.1588   0.7179 H              1 S1                 0.0000
     42 ****         2.6900  -4.1718   1.4284 H              1 S1                 0.0000
     43 ****         2.5532  -6.3330  -0.4947 H              1 S1                 0.0000
     44 ****         3.8344  -5.8396  -1.6547 H              1 S1                 0.0000
     45 ****        -1.0939   2.5366   2.4180 H              1 S1                 0.0000
     46 ****         0.5293   2.6635   1.7692 H              1 S1                 0.0000
     47 ****        -0.1727   4.2058   0.0261 H              1 S1                 0.0000
     48 ****        -0.7108   4.8237   1.5640 H              1 S1                 0.0000
     49 ****        -2.0473   5.5587  -1.2526 H              1 S1                 0.0000
     50 ****        -3.5371   7.5236  -1.1124 LP             1 S1                 0.0000
     51 ****        -4.6858   7.5899   0.1823 LP             1 S1                 0.0000
     52 ****        -4.2946   3.6159   2.9781 LP             1 S1                 0.0000
     53 ****        -3.0490   2.5816   2.3627 LP             1 S1                 0.0000
     54 ****        -0.2588   1.8273  -0.2028 LP             1 S1                 0.0000
     55 ****        -0.0716   0.7446   2.8906 LP             1 S1                 0.0000
     56 ****         1.2115  -3.0406   1.9890 LP             1 S1                 0.0000
     57 ****        -0.6148  -0.0351  -2.0706 LP             1 S1                 0.0000
     58 ****         1.8756  -3.4585  -3.2166 LP             1 S1                 0.0000
     59 ****         3.1078  -4.5217  -3.3507 LP             1 S1                 0.0000
     60 ****         4.1119  -5.9030   1.1025 LP             1 S1                 0.0000
     61 ****         5.0955  -5.0725   0.0978 LP             1 S1                 0.0000
@<TRIPOS>BOND
    1    1    2 2     
    2    2   28 am    
    3    2    3 am    
    4    3    4 am    
    5    3   29 1     
    6    4    5 2     
    7    4    6 1     
    8    6   27 1     
    9    6    7 1     
   10    6   28 1     
   11    7    8 1     
   12    7   30 1     
   13    7   31 1     
   14    8    9 1     
   15    8   32 1     
   16    8   33 1     
   17    9   10 1     
   18    9   26 1     
   19   10   15 ar    
   20   10   11 ar    
   21   11   12 ar    
   22   12   13 ar    
   23   12   34 1     
   24   13   14 ar    
   25   14   18 1     
   26   14   15 ar    
   27   15   16 1     
   28   16   17 2     
   29   17   18 1     
   30   17   35 1     
   31   18   19 1     
   32   19   20 1     
   33   19   36 1     
   34   19   37 1     
   35   20   25 1     
   36   20   21 1     
   37   20   23 1     
   38   21   22 1     
   39   21   38 1     
   40   21   39 1     
   41   22   40 1     
   42   23   24 1     
   43   23   41 1     
   44   23   42 1     
   45   24   25 1     
   46   25   43 1     
   47   25   44 1     
   48   26   27 1     
   49   26   45 1     
   50   26   46 1     
   51   27   47 1     
   52   27   48 1     
   53   28   49 1     
   54    1   50 1     
   55    1   51 1     
   56    5   52 1     
   57    5   53 1     
   58    9   54 1     
   59   11   55 1     
   60   13   56 1     
   61   16   57 1     
   62   22   58 1     
   63   22   59 1     
   64   24   60 1     
   65   24   61 1     
@<TRIPOS>SUBSTRUCTURE
      1 S1             1
@<TRIPOS>SET
LONE_PAIRS      STATIC     ATOMS    <user>   **** ""
12 50 51 52 53 54 55 56 57 58 59 60 61
DONOR_HYDROGENS      STATIC     ATOMS    <user>   **** ""
3 29 40 49
ATOM$BLUE        STATIC     ATOMS    COLORGROUP SYSTEM
12 50 51 52 53 54 55 56 57 58 59 60 61
ATOM$RED        STATIC     ATOMS    COLORGROUP SYSTEM
3 29 40 49
