#       Name:                AV-unprocessed.smi:2999
#       Creating user name   scv26
#       Creation time:       Fri Mar 27 16:35:17 2020


#       File generated by GOLD software.
#

@<TRIPOS>MOLECULE
AV-unprocessed.smi:2999
    43    45     1
SMALL
NO_CHARGES


@<TRIPOS>ATOM
      1 ****        -1.0680   0.9469   2.3677 O.2            1 S1                 0.0000
      2 ****        -1.6842  -0.0940   2.1279 C.2            1 S1                 0.0000
      3 ****        -1.0151  -1.2396   1.9341 N.am           1 S1                 0.0000
      4 ****         0.4362  -1.4054   1.9497 C.3            1 S1                 0.0000
      5 ****         1.0540  -1.3602   0.5385 C.3            1 S1                 0.0000
      6 ****         0.7977  -0.0396  -0.2253 C.3            1 S1                 0.0000
      7 ****         1.3684  -0.0818  -1.5913 N.4            1 S1                 1.0000
      8 ****         2.8375   0.1047  -1.6238 C.3            1 S1                 0.0000
      9 ****         3.2657   1.5519  -1.5534 C.3            1 S1                 0.0000
     10 ****         3.3288   0.8066  -2.8680 C.3            1 S1                 0.0000
     11 ****         0.9102  -1.2892  -2.3184 C.3            1 S1                 0.0000
     12 ****         1.1602  -2.5673  -1.4963 C.3            1 S1                 0.0000
     13 ****         0.5402  -2.4505  -0.2213 O.3            1 S1                 0.0000
     14 ****        -3.0246  -0.2237   2.0142 N.pl3          1 S1                -1.0000
     15 ****        -3.8178   0.8512   2.1521 C.2            1 S1                 0.0000
     16 ****        -4.2940   1.5440   1.1112 N.2            1 S1                 0.0000
     17 ****        -5.1046   2.6182   1.4838 C.2            1 S1                 0.0000
     18 ****        -5.2547   2.7414   2.8397 C.2            1 S1                 0.0000
     19 ****        -4.3767   1.5051   3.6942 S.3            1 S1                 0.0000
     20 ****        -1.5641  -2.0650   1.7425 H              1 S1                 0.0000
     21 ****         0.9052  -0.6545   2.5873 H              1 S1                 0.0000
     22 ****         0.6564  -2.3680   2.4117 H              1 S1                 0.0000
     23 ****         2.1291  -1.5032   0.6573 H              1 S1                 0.0000
     24 ****        -0.2731   0.1339  -0.3318 H              1 S1                 0.0000
     25 ****         1.1971   0.8121   0.3264 H              1 S1                 0.0000
     26 ****         3.4434  -0.6682  -1.1552 H              1 S1                 0.0000
     27 ****         2.4948   2.3125  -1.4429 H              1 S1                 0.0000
     28 ****         4.2096   1.7720  -1.0589 H              1 S1                 0.0000
     29 ****         4.3146   0.5364  -3.2407 H              1 S1                 0.0000
     30 ****         2.6001   1.0736  -3.6315 H              1 S1                 0.0000
     31 ****        -0.1585  -1.1884  -2.5119 H              1 S1                 0.0000
     32 ****         1.3979  -1.3530  -3.2918 H              1 S1                 0.0000
     33 ****         0.7388  -3.4301  -2.0123 H              1 S1                 0.0000
     34 ****         2.2272  -2.7619  -1.3802 H              1 S1                 0.0000
     35 ****        -5.5358   3.2430   0.7159 H              1 S1                 0.0000
     36 ****        -5.8247   3.4781   3.3855 H              1 S1                 0.0000
     37 ****         0.9843   0.7126  -2.0833 H              1 S1                 0.0000
     38 ****        -0.0693   0.9365   2.4176 LP             1 S1                 0.0000
     39 ****        -1.5670   1.8013   2.5122 LP             1 S1                 0.0000
     40 ****        -0.4417  -2.3145  -0.3536 LP             1 S1                 0.0000
     41 ****         0.6937  -3.2970   0.2885 LP             1 S1                 0.0000
     42 ****        -3.4260  -1.1204   1.8273 LP             1 S1                 0.0000
     43 ****        -4.0895   1.3149   0.1595 LP             1 S1                 0.0000
@<TRIPOS>BOND
    1    1    2 2     
    2    2    3 am    
    3    2   14 1     
    4    3    4 1     
    5    3   20 1     
    6    4    5 1     
    7    4   21 1     
    8    4   22 1     
    9    5   13 1     
   10    5    6 1     
   11    5   23 1     
   12    6    7 1     
   13    6   24 1     
   14    6   25 1     
   15    7    8 1     
   16    7   11 1     
   17    7   37 1     
   18    8   10 1     
   19    8    9 1     
   20    8   26 1     
   21    9   10 1     
   22    9   27 1     
   23    9   28 1     
   24   10   29 1     
   25   10   30 1     
   26   11   12 1     
   27   11   31 1     
   28   11   32 1     
   29   12   13 1     
   30   12   33 1     
   31   12   34 1     
   32   14   15 1     
   33   15   19 1     
   34   15   16 2     
   35   16   17 1     
   36   17   18 2     
   37   17   35 1     
   38   18   19 1     
   39   18   36 1     
   40    1   38 1     
   41    1   39 1     
   42   13   40 1     
   43   13   41 1     
   44   14   42 1     
   45   16   43 1     
@<TRIPOS>SUBSTRUCTURE
      1 S1             1
@<TRIPOS>SET
LONE_PAIRS      STATIC     ATOMS    <user>   **** ""
6 38 39 40 41 42 43
DONOR_HYDROGENS      STATIC     ATOMS    <user>   **** ""
2 20 37
ATOM$BLUE        STATIC     ATOMS    COLORGROUP SYSTEM
6 38 39 40 41 42 43
ATOM$RED        STATIC     ATOMS    COLORGROUP SYSTEM
2 20 37
