AV-unprocessed.smi:3260|AV-procd|sdf|12477|dock8
  -GOLD-   2272018373D 1   1.00000     0.00000
 Structure written by MMmdl.
 38 39  0  0  0  0  0  0  0  0  1 V2000
  151.0178  142.1215  156.3535 C   0  0  0  0  0  0  0  0  0  0  0  0
  150.2270  141.2565  155.5043 N   0  0  0  0  0  0  0  0  0  0  0  0
  148.9234  141.4179  155.0871 C   0  0  0  0  0  0  0  0  0  0  0  0
  148.6086  140.3447  154.3017 C   0  0  0  0  0  0  0  0  0  0  0  0
  147.3139  140.0349  153.6034 C   0  0  0  0  0  0  0  0  0  0  0  0
  146.7123  138.7066  154.0905 C   0  0  0  0  0  0  0  0  0  0  0  0
  146.7827  137.6770  153.0603 N   0  0  0  0  0  0  0  0  0  0  0  0
  145.7248  137.1679  152.4140 C   0  0  0  0  0  0  0  0  0  0  0  0
  144.5608  137.5125  152.6196 O   0  0  0  0  0  0  0  0  0  0  0  0
  146.0886  136.2405  151.5174 N   0  0  0  0  0  0  0  0  0  0  0  0
  145.1732  135.5293  150.6325 C   0  0  0  0  0  0  0  0  0  0  0  0
  144.8934  134.1068  151.1441 C   0  0  1  0  0  0  0  0  0  0  0  0
  144.0707  133.2559  150.1798 C   0  0  0  0  0  0  0  0  0  0  0  0
  144.4327  131.8318  150.5704 C   0  0  0  0  0  0  0  0  0  0  0  0
  145.7239  131.9838  151.3807 C   0  0  0  0  0  0  0  0  0  0  0  0
  146.0892  133.3512  151.2541 O   0  0  0  0  0  0  0  0  0  0  0  0
  149.8068  139.5750  154.2988 C   0  0  0  0  0  0  0  0  0  0  0  0
  150.7729  140.1233  155.0177 N   0  0  0  0  0  0  0  0  0  0  0  0
  150.3941  142.9178  156.7605 H   0  0  0  0  0  0  0  0  0  0  0  0
  151.8279  142.5652  155.7743 H   0  0  0  0  0  0  0  0  0  0  0  0
  151.4394  141.5462  157.1785 H   0  0  0  0  0  0  0  0  0  0  0  0
  148.3317  142.2719  155.3821 H   0  0  0  0  0  0  0  0  0  0  0  0
  146.5934  140.8372  153.7655 H   0  0  0  0  0  0  0  0  0  0  0  0
  147.4683  139.9901  152.5245 H   0  0  0  0  0  0  0  0  0  0  0  0
  147.2187  138.3660  154.9955 H   0  0  0  0  0  0  0  0  0  0  0  0
  145.6641  138.8466  154.3564 H   0  0  0  0  0  0  0  0  0  0  0  0
  147.7004  137.3318  152.8207 H   0  0  0  0  0  0  0  0  0  0  0  0
  147.0705  136.0258  151.4248 H   0  0  0  0  0  0  0  0  0  0  0  0
  144.2414  136.0943  150.5998 H   0  0  0  0  0  0  0  0  0  0  0  0
  145.5548  135.5060  149.6100 H   0  0  0  0  0  0  0  0  0  0  0  0
  144.4011  134.1410  152.1182 H   0  0  0  0  0  0  0  0  0  0  0  0
  143.0012  133.4571  150.2470 H   0  0  0  0  0  0  0  0  0  0  0  0
  144.3848  133.4422  149.1518 H   0  0  0  0  0  0  0  0  0  0  0  0
  143.6512  131.3776  151.1803 H   0  0  0  0  0  0  0  0  0  0  0  0
  144.5762  131.2067  149.6885 H   0  0  0  0  0  0  0  0  0  0  0  0
  145.5453  131.7552  152.4324 H   0  0  0  0  0  0  0  0  0  0  0  0
  146.5226  131.3338  151.0224 H   0  0  0  0  0  0  0  0  0  0  0  0
  150.0009  138.6377  153.7980 H   0  0  0  0  0  0  0  0  0  0  0  0
  1  2  1  0  0  0  0
  1 19  1  0  0  0  0
  1 20  1  0  0  0  0
  1 21  1  0  0  0  0
  2 18  1  0  0  0  0
  2  3  1  0  0  0  0
  3  4  2  0  0  0  0
  3 22  1  0  0  0  0
  4  5  1  0  0  0  0
  4 17  1  0  0  0  0
  5  6  1  0  0  0  0
  5 23  1  0  0  0  0
  5 24  1  0  0  0  0
  6  7  1  0  0  0  0
  6 25  1  0  0  0  0
  6 26  1  0  0  0  0
  7  8  1  0  0  0  0
  7 27  1  0  0  0  0
  8  9  2  0  0  0  0
  8 10  1  0  0  0  0
 10 11  1  0  0  0  0
 10 28  1  0  0  0  0
 11 12  1  0  0  0  0
 11 29  1  0  0  0  0
 11 30  1  0  0  0  0
 12 16  1  0  0  0  0
 12 13  1  0  0  0  0
 12 31  1  0  0  0  0
 13 14  1  0  0  0  0
 13 32  1  0  0  0  0
 13 33  1  0  0  0  0
 14 15  1  0  0  0  0
 14 34  1  0  0  0  0
 14 35  1  0  0  0  0
 15 16  1  0  0  0  0
 15 36  1  0  0  0  0
 15 37  1  0  0  0  0
 17 18  2  0  0  0  0
 17 38  1  0  0  0  0
M  END
> <s_m_source_file>
AV-unprocessed.smi

> <i_m_source_file_index>
3260

> <i_lp_mmshare_version>
43012

> <i_f3d_flags>
0

> <s_epik_input>
W0NIM11uMVtjSF1jKFtjSF1uMSlbQ0gyXVtDSDJdW05IXUMoPU8pW05IXVtDSDJdW0NAQEhdMltDSDJdW0NIMl1bQ0gyXU8y

> <s_epik_cmdline>
J2VwaWtfcHl0aG9uJywgJy1waCcsICc3LjAnLCAnLXRuJywgJzgnLCAnLW1hJywgJzIwMCcsICctbWV0YWxfYmluZGluZycsICctaW1hZScsICc8aW5maWxlLm1hZT4nLCAnLW9tYWUnLCAnPG91dGZpbGUubWFlPic=

> <r_lp_tautomer_probability>
1

> <r_epik_Ionization_Penalty>
0.000550106

> <r_epik_Ionization_Penalty_Charging>
0

> <r_epik_Ionization_Penalty_Neutral>
0.000550106

> <r_epik_State_Penalty>
-0

> <r_epik_Charging_Adjusted_Penalty>
0

> <i_epik_Tot_Q>
0

> <i_epik_Tot_abs_Q>
0

> <r_epik_Metal_State_Penalty>
-0

> <b_epik_Metal_Only>
0

> <s_lp_Force_Field>
OPLS_2005

> <r_lp_Energy>
10.8429

> <b_lp_Chiralities_Consistent>
1

> <s_lp_Variant>
AV-unprocessed.smi:3260-2

> <Gold.Version>
5.8.1

> <Gold.Id.Protein>
6NUR|6NUR_protein|mol2

> <Gold.PLP.Fitness>
44.9049

> <Gold.PLP.PLP>
-34.8173

> <Gold.PLP.part.hbond>
-3.0000

> <Gold.PLP.part.metal>
0.0000

> <Gold.PLP.part.buried>
-5.6713

> <Gold.PLP.part.nonpolar>
-27.2067

> <Gold.PLP.part.repulsive>
1.0057

> <Gold.PLP.ligand.clash>
0.0000

> <Gold.PLP.ligand.torsion>
0.5223

> <Gold.PLP.Chemscore.Hbond>
2.7000

> <Gold.PLP.Chemscore.CHOScore>
1.0000

> <Gold.PLP.Chemscore.Metal>
0.0000

> <Gold.Chemscore.Hbonds>
donor molecule, donor type, donor heavy atom, donor atom, acceptor molecule, acceptor atom, score
      L1  H     7    27       P1  7948  1.00
      L1  H    10    28       P1  7948  1.00
      P1  H  7989  7998       L1    18  0.63
      L1  C     3    22       P1  8028  1.00

> <Gold.PLP.Chemscore.Internal.Correction>
0.0322

> <Gold.Rescore>
     Score         DG    S(hbond)    S(metal)    S(lipo)     H(rot)  DE(clash)    DE(int)     intcor
     16.00     -16.67       1.97        0.00      79.92       1.85       0.17       0.50       ----

> <Gold.Chemscore.Fitness>
15.9994

> <Gold.Chemscore.DG>
-16.6698

> <Gold.Chemscore.ZeroCoef>
-5.4800

> <Gold.Chemscore.Hbond>
1.9707

> <Gold.Chemscore.Metal>
0.0000

> <Gold.Chemscore.Lipo>
79.9222

> <Gold.Chemscore.Internal_Hbond>
0.0000

> <Gold.Chemscore.DEClash>
0.1695

> <Gold.Chemscore.DEInternal>
0.5009

> <Gold.Chemscore.Rot>
1.8528

> <Gold.Chemscore.Internal.Correction>
   9.000000E+99

> <Gold.Chemscore.Hbonds>
donor molecule, donor type, donor heavy atom, donor atom, acceptor molecule, acceptor atom, score
      L1  H     7    27       P1  7948  0.98
      L1  H    10    28       P1  7948  0.98
      P1  H  7989  7998       L1    18  0.01

> <Gold.Chemscore.Hbond.Weighted>
-6.5821

> <Gold.Chemscore.Metal.Weighted>
-0.0000

> <Gold.Chemscore.Lipo.Weighted>
-9.3509

> <Gold.Chemscore.Internal_Hbond.Weighted>
0.0000

> <Gold.Chemscore.DEClash.Weighted>
0.1695

> <Gold.Chemscore.DEInternal.Weighted>
0.5009

> <Gold.Chemscore.Rot.Weighted>
4.7433

> <Gold.Chemscore.Internal.Correction.Weighted>
   9.000000E+99

> <Gold.Protein.RotatedTorsions>
[ 6907 6896 6895 6894 ] final   50.71 input  -60.11 | X-H torsion
[ 7974 7965 7964 7962 ] final  -39.60 input  175.53 | X-H torsion
[ 8008 7997 7996 7995 ] final  102.54 input   59.86 | X-H torsion
[ 10167 10162 10161 10158 ] final   31.90 input  -65.29 | X-H torsion
[ 10718 10713 10712 10709 ] final  100.17 input   66.30 | X-H torsion
[ 10763 10752 10751 10750 ] final -128.43 input  -60.55 | X-H torsion
[ 11005 11000 10999 10996 ] final -123.18 input  -57.11 | X-H torsion

> <Gold.Protein.ActiveResidues>
 VAL166  LYS551  ARG553  GLY616  TRP617  ASP618  TYR619  PRO620  LYS621  CYS622 
 ASP623  PHE694  ASN695  SER759  ASP760  ASP761  ALA762  ILE779  LEU786  VAL792 
 PHE793  MET794  SER795  GLU796  ALA797  LYS798  CYS799  TRP800  GLU811  SER814 

> <Gold.Protein.RotatedAtoms>
  152.3048  134.7568  160.0349 H   0  0  0  0  0  0  0  0  0  0  0  0  # atno 6907 bound_to 6896
  151.8069  133.3371  159.3551 H   0  0  0  0  0  0  0  0  0  0  0  0  # atno 6908 bound_to 6896
  150.7291  134.5631  159.5897 H   0  0  0  0  0  0  0  0  0  0  0  0  # atno 6909 bound_to 6896
  146.0381  140.6644  142.9100 H   0  0  0  0  0  0  0  0  0  0  0  0  # atno 7974 bound_to 7965
  156.1402  140.3179  155.8484 H   0  0  0  0  0  0  0  0  0  0  0  0  # atno 8008 bound_to 7997
  155.4168  140.0509  157.3045 H   0  0  0  0  0  0  0  0  0  0  0  0  # atno 8009 bound_to 7997
  154.4970  140.2114  155.9438 H   0  0  0  0  0  0  0  0  0  0  0  0  # atno 8010 bound_to 7997
  140.4547  144.0996  150.6199 H   0  0  0  0  0  0  0  0  0  0  0  0  # atno 10167 bound_to 10162
  157.6860  131.0691  150.5060 H   0  0  0  0  0  0  0  0  0  0  0  0  # atno 10718 bound_to 10713
  154.8756  135.3929  154.3755 H   0  0  0  0  0  0  0  0  0  0  0  0  # atno 10763 bound_to 10752
  153.4510  135.7028  153.6114 H   0  0  0  0  0  0  0  0  0  0  0  0  # atno 10764 bound_to 10752
  153.4654  135.3802  155.2330 H   0  0  0  0  0  0  0  0  0  0  0  0  # atno 10765 bound_to 10752
  140.9939  134.0500  157.3621 H   0  0  0  0  0  0  0  0  0  0  0  0  # atno 11005 bound_to 11000
  144.7061  140.3858  143.7117 LP  0  0  0  0  0  0  0  0  0  0  0  0  # atno 17320 bound_to 7965
  145.6930  139.1643  143.2636 LP  0  0  0  0  0  0  0  0  0  0  0  0  # atno 17321 bound_to 7965
  140.4165  143.2632  151.9768 LP  0  0  0  0  0  0  0  0  0  0  0  0  # atno 17342 bound_to 10162
  139.4800  144.5869  151.7838 LP  0  0  0  0  0  0  0  0  0  0  0  0  # atno 17343 bound_to 10162
  156.5379  130.4201  149.6168 LP  0  0  0  0  0  0  0  0  0  0  0  0  # atno 17370 bound_to 10713
  156.3011  130.7177  151.2049 LP  0  0  0  0  0  0  0  0  0  0  0  0  # atno 17371 bound_to 10713
  139.9005  135.0162  156.7245 LP  0  0  0  0  0  0  0  0  0  0  0  0  # atno 17394 bound_to 11000
  140.6997  133.9317  155.8016 LP  0  0  0  0  0  0  0  0  0  0  0  0  # atno 17395 bound_to 11000

$$$$
