AV-unprocessed.smi:3245|AV-procd|sdf|12409|dock6
  -GOLD-   2272018293D 1   1.00000     0.00000
 Structure written by MMmdl.
 34 35  0  0  0  0  0  0  0  0  2 V2000
  152.4975  140.4265  159.2861 C   0  0  0  0  0  0  0  0  0  0  0  0
  153.6198  141.4622  159.5017 C   0  0  1  0  0  0  0  0  0  0  0  0
  153.2083  142.5935  160.4668 C   0  0  0  0  0  0  0  0  0  0  0  0
  152.2250  143.4970  159.8966 N   0  0  0  0  0  0  0  0  0  0  0  0
  151.5899  144.5626  160.4995 C   0  0  0  0  0  0  0  0  0  0  0  0
  150.7571  145.1177  159.5706 C   0  0  0  0  0  0  0  0  0  0  0  0
  150.9595  144.3152  158.4129 C   0  0  0  0  0  0  0  0  0  0  0  0
  151.8411  143.3482  158.6100 N   0  0  0  0  0  0  0  0  0  0  0  0
  154.8020  140.8212  160.0642 N   0  0  0  0  0  0  0  0  0  0  0  0
  154.5426  140.2134  161.3622 C   0  0  0  0  0  0  0  0  0  0  0  0
  155.7487  139.3650  161.8038 C   0  0  0  0  0  0  0  0  0  0  0  0
  155.3967  138.4079  162.8606 N   0  0  0  0  0  0  0  0  0  0  0  0
  154.5694  137.3724  162.6875 C   0  0  0  0  0  0  0  0  0  0  0  0
  153.9801  137.0385  161.6592 O   0  0  0  0  0  0  0  0  0  0  0  0
  154.4640  136.6463  164.0082 C   0  0  0  0  0  0  0  0  0  0  0  0
  155.3262  137.4315  164.8618 N   0  5  0  0  0  0  0  0  0  0  0  0
  155.8392  138.4504  164.1327 C   0  0  0  0  0  0  0  0  0  0  0  0
  156.6095  139.3231  164.5328 O   0  0  0  0  0  0  0  0  0  0  0  0
  151.6023  140.8918  158.8735 H   0  0  0  0  0  0  0  0  0  0  0  0
  152.2180  139.9470  160.2247 H   0  0  0  0  0  0  0  0  0  0  0  0
  152.7903  139.6435  158.5877 H   0  0  0  0  0  0  0  0  0  0  0  0
  153.8839  141.9133  158.5440 H   0  0  0  0  0  0  0  0  0  0  0  0
  152.7941  142.1747  161.3856 H   0  0  0  0  0  0  0  0  0  0  0  0
  154.0805  143.1810  160.7581 H   0  0  0  0  0  0  0  0  0  0  0  0
  151.7794  144.8316  161.5283 H   0  0  0  0  0  0  0  0  0  0  0  0
  150.1037  145.9679  159.6981 H   0  0  0  0  0  0  0  0  0  0  0  0
  150.4963  144.4070  157.4416 H   0  0  0  0  0  0  0  0  0  0  0  0
  155.1322  140.1065  159.4314 H   0  0  0  0  0  0  0  0  0  0  0  0
  154.3193  140.9694  162.1141 H   0  0  0  0  0  0  0  0  0  0  0  0
  153.6642  139.5724  161.2803 H   0  0  0  0  0  0  0  0  0  0  0  0
  156.1250  138.8092  160.9435 H   0  0  0  0  0  0  0  0  0  0  0  0
  156.5747  140.0078  162.1126 H   0  0  0  0  0  0  0  0  0  0  0  0
  153.4258  136.6313  164.3416 H   0  0  0  0  0  0  0  0  0  0  0  0
  154.7965  135.6143  163.8920 H   0  0  0  0  0  0  0  0  0  0  0  0
  1  2  1  0  0  0  0
  1 19  1  0  0  0  0
  1 20  1  0  0  0  0
  1 21  1  0  0  0  0
  2  3  1  0  0  0  0
  2  9  1  0  0  0  0
  2 22  1  0  0  0  0
  3  4  1  0  0  0  0
  3 23  1  0  0  0  0
  3 24  1  0  0  0  0
  4  8  1  0  0  0  0
  4  5  1  0  0  0  0
  5  6  2  0  0  0  0
  5 25  1  0  0  0  0
  6  7  1  0  0  0  0
  6 26  1  0  0  0  0
  7  8  2  0  0  0  0
  7 27  1  0  0  0  0
  9 10  1  0  0  0  0
  9 28  1  0  0  0  0
 10 11  1  0  0  0  0
 10 29  1  0  0  0  0
 10 30  1  0  0  0  0
 11 12  1  0  0  0  0
 11 31  1  0  0  0  0
 11 32  1  0  0  0  0
 12 17  1  0  0  0  0
 12 13  1  0  0  0  0
 13 14  2  0  0  0  0
 13 15  1  0  0  0  0
 15 16  1  0  0  0  0
 15 33  1  0  0  0  0
 15 34  1  0  0  0  0
 16 17  1  0  0  0  0
 17 18  2  0  0  0  0
M  CHG  1  16  -1
M  END
> <s_m_source_file>
AV-unprocessed.smi

> <i_m_source_file_index>
3245

> <i_lp_mmshare_version>
43012

> <i_f3d_flags>
0

> <s_epik_input>
bjFbY0hdW2NIXVtjSF1uMVtDSDJdW0NAQEhdKFtDSDNdKVtOSF1bQ0gyXVtDSDJdTjJDKD1PKVtDSDJdW05IXUMyPU8=

> <s_epik_cmdline>
J2VwaWtfcHl0aG9uJywgJy1waCcsICc3LjAnLCAnLXRuJywgJzgnLCAnLW1hJywgJzIwMCcsICctbWV0YWxfYmluZGluZycsICctaW1hZScsICc8aW5maWxlLm1hZT4nLCAnLW9tYWUnLCAnPG91dGZpbGUubWFlPic=

> <r_lp_tautomer_probability>
1

> <r_epik_Ionization_Penalty>
8.62027

> <r_epik_Ionization_Penalty_Charging>
6.28132

> <r_epik_Ionization_Penalty_Neutral>
2.33895

> <r_epik_State_Penalty>
8.57043

> <r_epik_Charging_Adjusted_Penalty>
14.8517

> <i_epik_Tot_Q>
-1

> <i_epik_Tot_abs_Q>
1

> <r_epik_Metal_State_Penalty>
4.56785

> <b_epik_Metal_Only>
1

> <s_lp_Force_Field>
OPLS_2005

> <r_lp_Energy>
21.4513

> <b_lp_Chiralities_Consistent>
1

> <s_lp_Variant>
AV-unprocessed.smi:3245-8

> <Gold.Version>
5.8.1

> <Gold.Id.Protein>
6NUR|6NUR_protein|mol2

> <Gold.PLP.Fitness>
44.1174

> <Gold.PLP.PLP>
-41.5060

> <Gold.PLP.part.hbond>
0.0000

> <Gold.PLP.part.metal>
0.0000

> <Gold.PLP.part.buried>
-7.1199

> <Gold.PLP.part.nonpolar>
-34.3270

> <Gold.PLP.part.repulsive>
0.1208

> <Gold.PLP.ligand.clash>
0.0000

> <Gold.PLP.ligand.torsion>
0.2335

> <Gold.PLP.Chemscore.Hbond>
0.0000

> <Gold.PLP.Chemscore.CHOScore>
1.0000

> <Gold.PLP.Chemscore.Metal>
0.0000

> <Gold.Chemscore.Hbonds>
donor molecule, donor type, donor heavy atom, donor atom, acceptor molecule, acceptor atom, score
      L1  C     7    27       P1  8028  1.00

> <Gold.PLP.Chemscore.Internal.Correction>
0.0784

> <Gold.Rescore>
     Score         DG    S(hbond)    S(metal)    S(lipo)     H(rot)  DE(clash)    DE(int)     intcor
      9.22      -9.69       0.00        0.00      92.47       2.58       0.09       0.38       ----

> <Gold.Chemscore.Fitness>
9.2234

> <Gold.Chemscore.DG>
-9.6910

> <Gold.Chemscore.ZeroCoef>
-5.4800

> <Gold.Chemscore.Hbond>
0.0000

> <Gold.Chemscore.Metal>
0.0000

> <Gold.Chemscore.Lipo>
92.4662

> <Gold.Chemscore.Internal_Hbond>
0.0000

> <Gold.Chemscore.DEClash>
0.0914

> <Gold.Chemscore.DEInternal>
0.3762

> <Gold.Chemscore.Rot>
2.5811

> <Gold.Chemscore.Internal.Correction>
   9.000000E+99

> <Gold.Chemscore.Hbond.Weighted>
-0.0000

> <Gold.Chemscore.Metal.Weighted>
-0.0000

> <Gold.Chemscore.Lipo.Weighted>
-10.8185

> <Gold.Chemscore.Internal_Hbond.Weighted>
0.0000

> <Gold.Chemscore.DEClash.Weighted>
0.0914

> <Gold.Chemscore.DEInternal.Weighted>
0.3762

> <Gold.Chemscore.Rot.Weighted>
6.6076

> <Gold.Chemscore.Internal.Correction.Weighted>
   9.000000E+99

> <Gold.Protein.RotatedTorsions>
[ 6907 6896 6895 6894 ] final   21.82 input  -60.11 | X-H torsion
[ 7974 7965 7964 7962 ] final   22.61 input  175.53 | X-H torsion
[ 8008 7997 7996 7995 ] final  124.42 input   59.86 | X-H torsion
[ 10167 10162 10161 10158 ] final   97.27 input  -65.29 | X-H torsion
[ 10718 10713 10712 10709 ] final   11.05 input   66.30 | X-H torsion
[ 10763 10752 10751 10750 ] final  166.34 input  -60.55 | X-H torsion
[ 11005 11000 10999 10996 ] final  -88.31 input  -57.11 | X-H torsion

> <Gold.Protein.ActiveResidues>
 VAL166  LYS551  ARG553  GLY616  TRP617  ASP618  TYR619  PRO620  LYS621  CYS622 
 ASP623  PHE694  ASN695  SER759  ASP760  ASP761  ALA762  ILE779  LEU786  VAL792 
 PHE793  MET794  SER795  GLU796  ALA797  LYS798  CYS799  TRP800  GLU811  SER814 

> <Gold.Protein.RotatedAtoms>
  151.9177  135.0312  160.0519 H   0  0  0  0  0  0  0  0  0  0  0  0  # atno 6907 bound_to 6896
  152.2226  133.4991  159.5179 H   0  0  0  0  0  0  0  0  0  0  0  0  # atno 6908 bound_to 6896
  150.7004  134.1239  159.4087 H   0  0  0  0  0  0  0  0  0  0  0  0  # atno 6909 bound_to 6896
  146.2021  139.7860  142.8754 H   0  0  0  0  0  0  0  0  0  0  0  0  # atno 7974 bound_to 7965
  156.2801  140.2740  156.1786 H   0  0  0  0  0  0  0  0  0  0  0  0  # atno 8008 bound_to 7997
  155.0580  140.0386  157.2585 H   0  0  0  0  0  0  0  0  0  0  0  0  # atno 8009 bound_to 7997
  154.7140  140.2674  155.6608 H   0  0  0  0  0  0  0  0  0  0  0  0  # atno 8010 bound_to 7997
  139.7817  144.6886  151.0014 H   0  0  0  0  0  0  0  0  0  0  0  0  # atno 10167 bound_to 10162
  156.9899  130.6038  149.5685 H   0  0  0  0  0  0  0  0  0  0  0  0  # atno 10718 bound_to 10713
  154.3375  135.2754  155.2440 H   0  0  0  0  0  0  0  0  0  0  0  0  # atno 10763 bound_to 10752
  154.4725  135.5879  153.6335 H   0  0  0  0  0  0  0  0  0  0  0  0  # atno 10764 bound_to 10752
  152.9860  135.6091  154.3573 H   0  0  0  0  0  0  0  0  0  0  0  0  # atno 10765 bound_to 10752
  141.1604  133.7562  156.9432 H   0  0  0  0  0  0  0  0  0  0  0  0  # atno 11005 bound_to 11000
  145.3448  141.0295  143.3372 LP  0  0  0  0  0  0  0  0  0  0  0  0  # atno 17320 bound_to 7965
  144.8707  139.5042  143.6769 LP  0  0  0  0  0  0  0  0  0  0  0  0  # atno 17321 bound_to 7965
  140.7818  143.4476  151.0459 LP  0  0  0  0  0  0  0  0  0  0  0  0  # atno 17342 bound_to 10162
  139.8156  143.7890  152.3174 LP  0  0  0  0  0  0  0  0  0  0  0  0  # atno 17343 bound_to 10162
  156.0211  130.5306  150.8278 LP  0  0  0  0  0  0  0  0  0  0  0  0  # atno 17370 bound_to 10713
  157.5466  131.0942  150.9754 LP  0  0  0  0  0  0  0  0  0  0  0  0  # atno 17371 bound_to 10713
  140.1307  134.9358  157.2333 LP  0  0  0  0  0  0  0  0  0  0  0  0  # atno 17394 bound_to 11000
  140.2957  134.3190  155.7303 LP  0  0  0  0  0  0  0  0  0  0  0  0  # atno 17395 bound_to 11000

$$$$
