AV-unprocessed.smi:2060|AV-procd|sdf|8354|dock1
  -GOLD-   2272011 23D 1   1.00000     0.00000
 Structure written by MMmdl.
 45 46  0  0  0  0  0  0  0  0  1 V2000
  150.6615  138.6779  155.5027 C   0  0  0  0  0  0  0  0  0  0  0  0
  151.1519  139.8948  156.3087 C   0  0  0  0  0  0  0  0  0  0  0  0
  150.5327  140.0559  157.7337 C   0  0  1  0  0  0  0  0  0  0  0  0
  149.0064  140.2521  157.5272 C   0  0  0  0  0  0  0  0  0  0  0  0
  150.7641  138.7254  158.5226 C   0  0  0  0  0  0  0  0  0  0  0  0
  149.6821  138.3842  159.4466 N   0  0  0  0  0  0  0  0  0  0  0  0
  149.3629  137.1488  159.8597 C   0  0  0  0  0  0  0  0  0  0  0  0
  149.9594  136.1350  159.4974 O   0  0  0  0  0  0  0  0  0  0  0  0
  148.3237  137.1776  160.7106 N   0  0  0  0  0  0  0  0  0  0  0  0
  147.7074  136.0935  161.3875 C   0  0  0  0  0  0  0  0  0  0  0  0
  146.9421  136.1714  162.5877 C   0  0  0  0  0  0  0  0  0  0  0  0
  146.5773  134.8725  162.8032 C   0  0  0  0  0  0  0  0  0  0  0  0
  145.7673  134.2092  163.8639 C   0  0  0  0  0  0  0  0  0  0  0  0
  147.0757  134.0713  161.8235 O   0  0  0  0  0  0  0  0  0  0  0  0
  147.7975  134.8614  160.9212 N   0  0  0  0  0  0  0  0  0  0  0  0
  151.1154  141.2321  158.4406 N   0  0  0  0  0  0  0  0  0  0  0  0
  151.0464  142.5009  157.7054 C   0  0  0  0  0  0  0  0  0  0  0  0
  151.5324  143.6875  158.5548 C   0  0  0  0  0  0  0  0  0  0  0  0
  152.8593  143.4429  159.0051 O   0  0  0  0  0  0  0  0  0  0  0  0
  152.9613  142.2489  159.7715 C   0  0  0  0  0  0  0  0  0  0  0  0
  152.4867  141.0507  158.9318 C   0  0  0  0  0  0  0  0  0  0  0  0
  151.1421  138.6503  154.5248 H   0  0  0  0  0  0  0  0  0  0  0  0
  149.5851  138.7088  155.3336 H   0  0  0  0  0  0  0  0  0  0  0  0
  150.8956  137.7392  156.0037 H   0  0  0  0  0  0  0  0  0  0  0  0
  152.2372  139.8182  156.3814 H   0  0  0  0  0  0  0  0  0  0  0  0
  150.9836  140.7958  155.7188 H   0  0  0  0  0  0  0  0  0  0  0  0
  148.5947  139.5417  156.8099 H   0  0  0  0  0  0  0  0  0  0  0  0
  148.7741  141.2509  157.1568 H   0  0  0  0  0  0  0  0  0  0  0  0
  148.4483  140.1116  158.4531 H   0  0  0  0  0  0  0  0  0  0  0  0
  150.8413  137.8848  157.8338 H   0  0  0  0  0  0  0  0  0  0  0  0
  151.7104  138.7494  159.0633 H   0  0  0  0  0  0  0  0  0  0  0  0
  149.1342  139.1554  159.7992 H   0  0  0  0  0  0  0  0  0  0  0  0
  147.9281  138.0858  160.9041 H   0  0  0  0  0  0  0  0  0  0  0  0
  146.6904  137.0254  163.1980 H   0  0  0  0  0  0  0  0  0  0  0  0
  145.5713  134.8937  164.6894 H   0  0  0  0  0  0  0  0  0  0  0  0
  146.2885  133.3390  164.2629 H   0  0  0  0  0  0  0  0  0  0  0  0
  144.8087  133.8771  163.4650 H   0  0  0  0  0  0  0  0  0  0  0  0
  151.6558  142.4486  156.8034 H   0  0  0  0  0  0  0  0  0  0  0  0
  150.0278  142.7140  157.3869 H   0  0  0  0  0  0  0  0  0  0  0  0
  151.5206  144.6046  157.9656 H   0  0  0  0  0  0  0  0  0  0  0  0
  150.8725  143.8469  159.4089 H   0  0  0  0  0  0  0  0  0  0  0  0
  153.9982  142.1097  160.0771 H   0  0  0  0  0  0  0  0  0  0  0  0
  152.3685  142.3401  160.6830 H   0  0  0  0  0  0  0  0  0  0  0  0
  152.5641  140.1603  159.5533 H   0  0  0  0  0  0  0  0  0  0  0  0
  153.1743  140.9161  158.0971 H   0  0  0  0  0  0  0  0  0  0  0  0
  1  2  1  0  0  0  0
  1 22  1  0  0  0  0
  1 23  1  0  0  0  0
  1 24  1  0  0  0  0
  2  3  1  0  0  0  0
  2 25  1  0  0  0  0
  2 26  1  0  0  0  0
  3  4  1  0  0  0  0
  3  5  1  0  0  0  0
  3 16  1  0  0  0  0
  4 27  1  0  0  0  0
  4 28  1  0  0  0  0
  4 29  1  0  0  0  0
  5  6  1  0  0  0  0
  5 30  1  0  0  0  0
  5 31  1  0  0  0  0
  6  7  1  0  0  0  0
  6 32  1  0  0  0  0
  7  8  2  0  0  0  0
  7  9  1  0  0  0  0
  9 10  1  0  0  0  0
  9 33  1  0  0  0  0
 10 15  2  0  0  0  0
 10 11  1  0  0  0  0
 11 12  2  0  0  0  0
 11 34  1  0  0  0  0
 12 13  1  0  0  0  0
 12 14  1  0  0  0  0
 13 35  1  0  0  0  0
 13 36  1  0  0  0  0
 13 37  1  0  0  0  0
 14 15  1  0  0  0  0
 16 21  1  0  0  0  0
 16 17  1  0  0  0  0
 17 18  1  0  0  0  0
 17 38  1  0  0  0  0
 17 39  1  0  0  0  0
 18 19  1  0  0  0  0
 18 40  1  0  0  0  0
 18 41  1  0  0  0  0
 19 20  1  0  0  0  0
 20 21  1  0  0  0  0
 20 42  1  0  0  0  0
 20 43  1  0  0  0  0
 21 44  1  0  0  0  0
 21 45  1  0  0  0  0
M  END
> <s_m_source_file>
AV-unprocessed.smi

> <i_m_source_file_index>
2060

> <i_lp_mmshare_version>
43012

> <i_f3d_flags>
0

> <s_epik_input>
W0NIMl0xW0NIMl1PW0NIMl1bQ0gyXU4xW0NAQF0oW0NIM10pKFtDSDJdW0NIM10pW0NIMl1bTkhdQyg9TylbTkhdYzJbY0hdYyhbQ0gzXSlvbjI=

> <s_epik_cmdline>
J2VwaWtfcHl0aG9uJywgJy1waCcsICc3LjAnLCAnLXRuJywgJzgnLCAnLW1hJywgJzIwMCcsICctbWV0YWxfYmluZGluZycsICctaW1hZScsICc8aW5maWxlLm1hZT4nLCAnLW9tYWUnLCAnPG91dGZpbGUubWFlPic=

> <r_epik_Ionization_Penalty>
0.289127

> <r_epik_Ionization_Penalty_Charging>
0

> <r_epik_Ionization_Penalty_Neutral>
0.289127

> <r_epik_State_Penalty>
0.282056

> <r_epik_Charging_Adjusted_Penalty>
0.282056

> <i_epik_Tot_Q>
0

> <i_epik_Tot_abs_Q>
0

> <r_epik_Metal_State_Penalty>
0.284526

> <b_epik_Metal_Only>
0

> <s_lp_Force_Field>
OPLS_2005

> <r_lp_Energy>
41.8264

> <b_lp_Chiralities_Consistent>
1

> <s_lp_Variant>
AV-unprocessed.smi:2060-1

> <Gold.Version>
5.8.1

> <Gold.Id.Protein>
6NUR|6NUR_protein|mol2

> <Gold.PLP.Fitness>
37.8330

> <Gold.PLP.PLP>
-36.8953

> <Gold.PLP.part.hbond>
-1.4544

> <Gold.PLP.part.metal>
0.0000

> <Gold.PLP.part.buried>
-5.8955

> <Gold.PLP.part.nonpolar>
-30.6598

> <Gold.PLP.part.repulsive>
0.9937

> <Gold.PLP.ligand.clash>
0.0000

> <Gold.PLP.ligand.torsion>
1.0621

> <Gold.PLP.Chemscore.Hbond>
0.9760

> <Gold.PLP.Chemscore.CHOScore>
0.0000

> <Gold.PLP.Chemscore.Metal>
0.0000

> <Gold.Chemscore.Hbonds>
donor molecule, donor type, donor heavy atom, donor atom, acceptor molecule, acceptor atom, score
      P1  H  6896  6909       L1     8  1.00

> <Gold.PLP.Chemscore.Internal.Correction>
0.1339

> <Gold.Rescore>
     Score         DG    S(hbond)    S(metal)    S(lipo)     H(rot)  DE(clash)    DE(int)     intcor
     12.55     -14.96       0.89        0.00      92.96       1.71       0.05       2.36       ----

> <Gold.Chemscore.Fitness>
12.5487

> <Gold.Chemscore.DG>
-14.9563

> <Gold.Chemscore.ZeroCoef>
-5.4800

> <Gold.Chemscore.Hbond>
0.8948

> <Gold.Chemscore.Metal>
0.0000

> <Gold.Chemscore.Lipo>
92.9601

> <Gold.Chemscore.Internal_Hbond>
0.0000

> <Gold.Chemscore.DEClash>
0.0492

> <Gold.Chemscore.DEInternal>
2.3584

> <Gold.Chemscore.Rot>
1.7143

> <Gold.Chemscore.Internal.Correction>
   9.000000E+99

> <Gold.Chemscore.Hbonds>
donor molecule, donor type, donor heavy atom, donor atom, acceptor molecule, acceptor atom, score
      P1  H  6896  6909       L1     8  0.94

> <Gold.Chemscore.Hbond.Weighted>
-2.9885

> <Gold.Chemscore.Metal.Weighted>
-0.0000

> <Gold.Chemscore.Lipo.Weighted>
-10.8763

> <Gold.Chemscore.Internal_Hbond.Weighted>
0.0000

> <Gold.Chemscore.DEClash.Weighted>
0.0492

> <Gold.Chemscore.DEInternal.Weighted>
2.3584

> <Gold.Chemscore.Rot.Weighted>
4.3885

> <Gold.Chemscore.Internal.Correction.Weighted>
   9.000000E+99

> <Gold.Protein.RotatedTorsions>
[ 6907 6896 6895 6894 ] final   77.89 input  -60.11 | X-H torsion
[ 7974 7965 7964 7962 ] final   98.29 input  175.53 | X-H torsion
[ 8008 7997 7996 7995 ] final  134.66 input   59.86 | X-H torsion
[ 10167 10162 10161 10158 ] final -129.41 input  -65.29 | X-H torsion
[ 10718 10713 10712 10709 ] final   81.81 input   66.30 | X-H torsion
[ 10763 10752 10751 10750 ] final   78.20 input  -60.55 | X-H torsion
[ 11005 11000 10999 10996 ] final  163.19 input  -57.11 | X-H torsion

> <Gold.Protein.ActiveResidues>
 VAL166  LYS551  ARG553  GLY616  TRP617  ASP618  TYR619  PRO620  LYS621  CYS622 
 ASP623  PHE694  ASN695  SER759  ASP760  ASP761  ALA762  ILE779  LEU786  VAL792 
 PHE793  MET794  SER795  GLU796  ALA797  LYS798  CYS799  TRP800  GLU811  SER814 

> <Gold.Protein.RotatedAtoms>
  152.5137  134.3747  159.9330 H   0  0  0  0  0  0  0  0  0  0  0  0  # atno 6907 bound_to 6896
  151.3702  133.3851  159.2706 H   0  0  0  0  0  0  0  0  0  0  0  0  # atno 6908 bound_to 6896
  150.9583  134.8994  159.7773 H   0  0  0  0  0  0  0  0  0  0  0  0  # atno 6909 bound_to 6896
  145.4142  139.2330  143.3231 H   0  0  0  0  0  0  0  0  0  0  0  0  # atno 7974 bound_to 7965
  156.3000  140.2490  156.3453 H   0  0  0  0  0  0  0  0  0  0  0  0  # atno 8008 bound_to 7997
  154.9016  140.0406  157.1916 H   0  0  0  0  0  0  0  0  0  0  0  0  # atno 8009 bound_to 7997
  154.8495  140.2903  155.5612 H   0  0  0  0  0  0  0  0  0  0  0  0  # atno 8010 bound_to 7997
  139.9400  143.6174  152.2506 H   0  0  0  0  0  0  0  0  0  0  0  0  # atno 10167 bound_to 10162
  157.6842  131.0020  150.2281 H   0  0  0  0  0  0  0  0  0  0  0  0  # atno 10718 bound_to 10713
  153.0856  135.4886  154.8590 H   0  0  0  0  0  0  0  0  0  0  0  0  # atno 10763 bound_to 10752
  154.7206  135.3038  154.9055 H   0  0  0  0  0  0  0  0  0  0  0  0  # atno 10764 bound_to 10752
  153.9721  135.6800  153.4800 H   0  0  0  0  0  0  0  0  0  0  0  0  # atno 10765 bound_to 10752
  140.2333  134.8107  157.3339 H   0  0  0  0  0  0  0  0  0  0  0  0  # atno 11005 bound_to 11000
  146.2689  140.4857  142.8822 LP  0  0  0  0  0  0  0  0  0  0  0  0  # atno 17320 bound_to 7965
  144.8289  140.6673  143.6304 LP  0  0  0  0  0  0  0  0  0  0  0  0  # atno 17321 bound_to 7965
  139.6712  144.7661  151.1780 LP  0  0  0  0  0  0  0  0  0  0  0  0  # atno 17342 bound_to 10162
  140.7613  143.5862  150.8843 LP  0  0  0  0  0  0  0  0  0  0  0  0  # atno 17343 bound_to 10162
  156.2919  130.3747  149.7833 LP  0  0  0  0  0  0  0  0  0  0  0  0  # atno 17370 bound_to 10713
  156.5490  130.8333  151.3293 LP  0  0  0  0  0  0  0  0  0  0  0  0  # atno 17371 bound_to 10713
  140.1728  134.4587  155.7821 LP  0  0  0  0  0  0  0  0  0  0  0  0  # atno 17394 bound_to 11000
  141.2216  133.6949  156.7736 LP  0  0  0  0  0  0  0  0  0  0  0  0  # atno 17395 bound_to 11000

$$$$
