AV-unprocessed.smi:1934|AV-procd|sdf|7823|dock2
  -GOLD-   22720 9573D 1   1.00000     0.00000
 Structure written by MMmdl.
 46 47  0  0  0  0  0  0  0  0  2 V2000
  150.9814  142.2871  156.5896 C   0  0  0  0  0  0  0  0  0  0  0  0
  150.6832  141.0769  155.7548 C   0  0  0  0  0  0  0  0  0  0  0  0
  149.4572  140.7324  155.1150 C   0  0  0  0  0  0  0  0  0  0  0  0
  149.7591  139.5463  154.5035 C   0  0  0  0  0  0  0  0  0  0  0  0
  148.9629  138.7496  153.7419 N   0  0  0  0  0  0  0  0  0  0  0  0
  147.6953  138.9620  153.3473 C   0  0  0  0  0  0  0  0  0  0  0  0
  147.0113  139.9451  153.6336 O   0  0  0  0  0  0  0  0  0  0  0  0
  147.2462  137.9530  152.5868 N   0  0  0  0  0  0  0  0  0  0  0  0
  145.9177  137.8938  151.9885 C   0  0  0  0  0  0  0  0  0  0  0  0
  145.2171  136.5556  152.2941 C   0  0  0  0  0  0  0  0  0  0  0  0
  146.1078  135.3905  152.0656 N   0  3  1  0  0  0  0  0  0  0  0  0
  146.5134  134.7328  153.3346 C   0  0  0  0  0  0  0  0  0  0  0  0
  147.5426  133.6206  153.0773 C   0  0  0  0  0  0  0  0  0  0  0  0
  147.0021  132.5912  152.0766 C   0  0  0  0  0  0  0  0  0  0  0  0
  146.5566  133.2897  150.7806 C   0  0  1  0  0  0  0  0  0  0  0  0
  145.9851  132.2862  149.7690 C   0  0  0  0  0  0  0  0  0  0  0  0
  145.5448  134.4084  151.0997 C   0  0  0  0  0  0  0  0  0  0  0  0
  151.0716  139.2280  154.7739 N   0  0  0  0  0  0  0  0  0  0  0  0
  151.8462  138.0764  154.3545 C   0  0  0  0  0  0  0  0  0  0  0  0
  151.6388  140.1773  155.5492 N   0  0  0  0  0  0  0  0  0  0  0  0
  150.1150  142.9459  156.6519 H   0  0  0  0  0  0  0  0  0  0  0  0
  151.8052  142.8627  156.1668 H   0  0  0  0  0  0  0  0  0  0  0  0
  151.2571  142.0048  157.6059 H   0  0  0  0  0  0  0  0  0  0  0  0
  148.5264  141.2793  155.1180 H   0  0  0  0  0  0  0  0  0  0  0  0
  149.3915  137.8923  153.4252 H   0  0  0  0  0  0  0  0  0  0  0  0
  147.8705  137.1823  152.3964 H   0  0  0  0  0  0  0  0  0  0  0  0
  145.3325  138.7440  152.3397 H   0  0  0  0  0  0  0  0  0  0  0  0
  146.0257  138.0178  150.9108 H   0  0  0  0  0  0  0  0  0  0  0  0
  144.9041  136.5734  153.3392 H   0  0  0  0  0  0  0  0  0  0  0  0
  144.3066  136.4389  151.7041 H   0  0  0  0  0  0  0  0  0  0  0  0
  146.9480  135.4696  154.0114 H   0  0  0  0  0  0  0  0  0  0  0  0
  145.6325  134.3245  153.8325 H   0  0  0  0  0  0  0  0  0  0  0  0
  148.4655  134.0565  152.6924 H   0  0  0  0  0  0  0  0  0  0  0  0
  147.8012  133.1275  154.0150 H   0  0  0  0  0  0  0  0  0  0  0  0
  147.7684  131.8455  151.8618 H   0  0  0  0  0  0  0  0  0  0  0  0
  146.1613  132.0555  152.5200 H   0  0  0  0  0  0  0  0  0  0  0  0
  147.4348  133.7500  150.3248 H   0  0  0  0  0  0  0  0  0  0  0  0
  145.1010  131.7839  150.1629 H   0  0  0  0  0  0  0  0  0  0  0  0
  146.7193  131.5199  149.5188 H   0  0  0  0  0  0  0  0  0  0  0  0
  145.6997  132.7830  148.8410 H   0  0  0  0  0  0  0  0  0  0  0  0
  144.6274  133.9817  151.5091 H   0  0  0  0  0  0  0  0  0  0  0  0
  145.2684  134.9103  150.1731 H   0  0  0  0  0  0  0  0  0  0  0  0
  151.7285  137.9240  153.2813 H   0  0  0  0  0  0  0  0  0  0  0  0
  151.4953  137.1892  154.8820 H   0  0  0  0  0  0  0  0  0  0  0  0
  152.9044  138.2256  154.5741 H   0  0  0  0  0  0  0  0  0  0  0  0
  146.9562  135.7551  151.6561 H   0  0  0  0  0  0  0  0  0  0  0  0
  1  2  1  0  0  0  0
  1 21  1  0  0  0  0
  1 22  1  0  0  0  0
  1 23  1  0  0  0  0
  2 20  2  0  0  0  0
  2  3  1  0  0  0  0
  3  4  2  0  0  0  0
  3 24  1  0  0  0  0
  4  5  1  0  0  0  0
  4 18  1  0  0  0  0
  5  6  1  0  0  0  0
  5 25  1  0  0  0  0
  6  7  2  0  0  0  0
  6  8  1  0  0  0  0
  8  9  1  0  0  0  0
  8 26  1  0  0  0  0
  9 10  1  0  0  0  0
  9 27  1  0  0  0  0
  9 28  1  0  0  0  0
 10 11  1  0  0  0  0
 10 29  1  0  0  0  0
 10 30  1  0  0  0  0
 11 17  1  0  0  0  0
 11 12  1  0  0  0  0
 11 46  1  0  0  0  0
 12 13  1  0  0  0  0
 12 31  1  0  0  0  0
 12 32  1  0  0  0  0
 13 14  1  0  0  0  0
 13 33  1  0  0  0  0
 13 34  1  0  0  0  0
 14 15  1  0  0  0  0
 14 35  1  0  0  0  0
 14 36  1  0  0  0  0
 15 16  1  0  0  0  0
 15 17  1  0  0  0  0
 15 37  1  0  0  0  0
 16 38  1  0  0  0  0
 16 39  1  0  0  0  0
 16 40  1  0  0  0  0
 17 41  1  0  0  0  0
 17 42  1  0  0  0  0
 18 19  1  0  0  0  0
 18 20  1  0  0  0  0
 19 43  1  0  0  0  0
 19 44  1  0  0  0  0
 19 45  1  0  0  0  0
M  CHG  1  11   1
M  END
> <s_m_source_file>
AV-unprocessed.smi

> <i_m_source_file_index>
1934

> <i_lp_mmshare_version>
43012

> <i_f3d_flags>
0

> <s_epik_input>
W0NIM11jMVtjSF1jKG4objEpW0NIM10pW05IXUMoPU8pW05IXVtDSDJdW0NIMl1OMltDSDJdW0NIMl1bQ0gyXVtDQEBIXShbQ0gzXSlbQ0gyXTI=

> <s_epik_cmdline>
J2VwaWtfcHl0aG9uJywgJy1waCcsICc3LjAnLCAnLXRuJywgJzgnLCAnLW1hJywgJzIwMCcsICctbWV0YWxfYmluZGluZycsICctaW1hZScsICc8aW5maWxlLm1hZT4nLCAnLW9tYWUnLCAnPG91dGZpbGUubWFlPic=

> <r_lp_tautomer_probability>
1

> <r_epik_Ionization_Penalty>
0.00202955

> <r_epik_Ionization_Penalty_Charging>
0.00195276

> <r_epik_Ionization_Penalty_Neutral>
7.67968e-05

> <r_epik_State_Penalty>
0.00133177

> <r_epik_Charging_Adjusted_Penalty>
0.00328452

> <i_epik_Tot_Q>
1

> <i_epik_Tot_abs_Q>
1

> <r_epik_Metal_State_Penalty>
-0

> <b_epik_Metal_Only>
0

> <s_lp_Force_Field>
OPLS_2005

> <r_lp_Energy>
17.7582

> <b_lp_Chiralities_Consistent>
1

> <s_lp_Variant>
AV-unprocessed.smi:1934-1

> <Gold.Version>
5.8.1

> <Gold.Id.Protein>
6NUR|6NUR_protein|mol2

> <Gold.PLP.Fitness>
47.7521

> <Gold.PLP.PLP>
-39.5053

> <Gold.PLP.part.hbond>
-4.6621

> <Gold.PLP.part.metal>
0.0000

> <Gold.PLP.part.buried>
-0.5725

> <Gold.PLP.part.nonpolar>
-34.1684

> <Gold.PLP.part.repulsive>
0.3178

> <Gold.PLP.ligand.clash>
0.0000

> <Gold.PLP.ligand.torsion>
0.8058

> <Gold.PLP.Chemscore.Hbond>
3.2658

> <Gold.PLP.Chemscore.CHOScore>
0.0000

> <Gold.PLP.Chemscore.Metal>
0.0000

> <Gold.Chemscore.Hbonds>
donor molecule, donor type, donor heavy atom, donor atom, acceptor molecule, acceptor atom, score
      L1  H     5    25       P1  7948  0.26
      L1  H     8    26       P1  7948  0.99
      L1  H    11    46       P1  7948  2.00

> <Gold.PLP.Chemscore.Internal.Correction>
0.0609

> <Gold.Rescore>
     Score         DG    S(hbond)    S(metal)    S(lipo)     H(rot)  DE(clash)    DE(int)     intcor
     15.80     -17.76       2.07        0.00      78.44       1.48       0.01       1.95       ----

> <Gold.Chemscore.Fitness>
15.7965

> <Gold.Chemscore.DG>
-17.7586

> <Gold.Chemscore.ZeroCoef>
-5.4800

> <Gold.Chemscore.Hbond>
2.0657

> <Gold.Chemscore.Metal>
0.0000

> <Gold.Chemscore.Lipo>
78.4421

> <Gold.Chemscore.Internal_Hbond>
0.0000

> <Gold.Chemscore.DEClash>
0.0090

> <Gold.Chemscore.DEInternal>
1.9531

> <Gold.Chemscore.Rot>
1.4838

> <Gold.Chemscore.Internal.Correction>
   9.000000E+99

> <Gold.Chemscore.Hbonds>
donor molecule, donor type, donor heavy atom, donor atom, acceptor molecule, acceptor atom, score
      L1  H     5    25       P1  7948  0.26
      L1  H     8    26       P1  7948  0.92
      L1  H    11    46       P1  7948  0.88

> <Gold.Chemscore.Hbond.Weighted>
-6.8994

> <Gold.Chemscore.Metal.Weighted>
-0.0000

> <Gold.Chemscore.Lipo.Weighted>
-9.1777

> <Gold.Chemscore.Internal_Hbond.Weighted>
0.0000

> <Gold.Chemscore.DEClash.Weighted>
0.0090

> <Gold.Chemscore.DEInternal.Weighted>
1.9531

> <Gold.Chemscore.Rot.Weighted>
3.7985

> <Gold.Chemscore.Internal.Correction.Weighted>
   9.000000E+99

> <Gold.Protein.RotatedTorsions>
[ 6907 6896 6895 6894 ] final  -90.80 input  -60.11 | X-H torsion
[ 7974 7965 7964 7962 ] final  126.55 input  175.53 | X-H torsion
[ 8008 7997 7996 7995 ] final   65.18 input   59.86 | X-H torsion
[ 10167 10162 10161 10158 ] final   33.49 input  -65.29 | X-H torsion
[ 10718 10713 10712 10709 ] final   52.58 input   66.30 | X-H torsion
[ 10763 10752 10751 10750 ] final  -61.44 input  -60.55 | X-H torsion
[ 11005 11000 10999 10996 ] final  -31.26 input  -57.11 | X-H torsion

> <Gold.Protein.ActiveResidues>
 VAL166  LYS551  ARG553  GLY616  TRP617  ASP618  TYR619  PRO620  LYS621  CYS622 
 ASP623  PHE694  ASN695  SER759  ASP760  ASP761  ALA762  ILE779  LEU786  VAL792 
 PHE793  MET794  SER795  GLU796  ALA797  LYS798  CYS799  TRP800  GLU811  SER814 

> <Gold.Protein.RotatedAtoms>
  150.6885  134.2376  159.4459 H   0  0  0  0  0  0  0  0  0  0  0  0  # atno 6907 bound_to 6896
  152.0323  134.9758  160.0582 H   0  0  0  0  0  0  0  0  0  0  0  0  # atno 6908 bound_to 6896
  152.1293  133.4363  159.4750 H   0  0  0  0  0  0  0  0  0  0  0  0  # atno 6909 bound_to 6896
  145.0605  139.3809  143.5008 H   0  0  0  0  0  0  0  0  0  0  0  0  # atno 7974 bound_to 7965
  155.6577  140.3497  155.4771 H   0  0  0  0  0  0  0  0  0  0  0  0  # atno 8008 bound_to 7997
  155.9795  140.1171  157.0763 H   0  0  0  0  0  0  0  0  0  0  0  0  # atno 8009 bound_to 7997
  154.4187  140.1141  156.5401 H   0  0  0  0  0  0  0  0  0  0  0  0  # atno 8010 bound_to 7997
  140.4402  144.1198  150.6173 H   0  0  0  0  0  0  0  0  0  0  0  0  # atno 10167 bound_to 10162
  157.5088  130.8487  149.8408 H   0  0  0  0  0  0  0  0  0  0  0  0  # atno 10718 bound_to 10713
  154.2846  135.6265  153.5360 H   0  0  0  0  0  0  0  0  0  0  0  0  # atno 10763 bound_to 10752
  152.9861  135.5641  154.5458 H   0  0  0  0  0  0  0  0  0  0  0  0  # atno 10764 bound_to 10752
  154.5056  135.2874  155.1361 H   0  0  0  0  0  0  0  0  0  0  0  0  # atno 10765 bound_to 10752
  140.9453  133.7254  156.1137 H   0  0  0  0  0  0  0  0  0  0  0  0  # atno 11005 bound_to 11000
  146.3524  140.0300  142.8651 LP  0  0  0  0  0  0  0  0  0  0  0  0  # atno 17320 bound_to 7965
  145.1415  140.9574  143.4486 LP  0  0  0  0  0  0  0  0  0  0  0  0  # atno 17321 bound_to 7965
  140.4327  143.2561  151.9575 LP  0  0  0  0  0  0  0  0  0  0  0  0  # atno 17342 bound_to 10162
  139.4789  144.5729  151.8059 LP  0  0  0  0  0  0  0  0  0  0  0  0  # atno 17343 bound_to 10162
  156.0275  130.3775  150.1780 LP  0  0  0  0  0  0  0  0  0  0  0  0  # atno 17370 bound_to 10713
  156.9970  130.9911  151.3400 LP  0  0  0  0  0  0  0  0  0  0  0  0  # atno 17371 bound_to 10713
  140.7678  134.3867  157.5513 LP  0  0  0  0  0  0  0  0  0  0  0  0  # atno 17394 bound_to 11000
  139.8831  134.9002  156.2784 LP  0  0  0  0  0  0  0  0  0  0  0  0  # atno 17395 bound_to 11000

$$$$
