AV-unprocessed.smi:828|AV-procd|sdf|3864|dock3
  -GOLD-   22720 1313D 1   1.00000     0.00000
 Structure written by MMmdl.
 34 35  0  0  0  0  0  0  0  0  3 V2000
  149.1136  140.8393  154.5166 C   0  0  0  0  0  0  0  0  0  0  0  0
  149.4261  139.3900  154.6680 C   0  0  0  0  0  0  0  0  0  0  0  0
  148.5010  138.4799  154.9826 N   0  0  0  0  0  0  0  0  0  0  0  0
  149.0323  137.2009  155.0639 N   0  0  0  0  0  0  0  0  0  0  0  0
  150.3458  137.1597  154.7990 C   0  0  0  0  0  0  0  0  0  0  0  0
  151.0499  136.0160  154.8248 N   0  5  0  0  0  0  0  0  0  0  0  0
  150.4217  134.8422  155.0578 C   0  0  0  0  0  0  0  0  0  0  0  0
  150.6375  134.0677  155.9924 O   0  0  0  0  0  0  0  0  0  0  0  0
  149.4892  134.5455  154.1436 N   0  0  0  0  0  0  0  0  0  0  0  0
  148.6788  133.3326  154.1158 C   0  0  0  0  0  0  0  0  0  0  0  0
  147.8680  133.2315  152.8064 C   0  0  2  0  0  0  0  0  0  0  0  0
  146.5787  134.0520  152.8097 C   0  0  0  0  0  0  0  0  0  0  0  0
  145.8365  133.4935  151.6037 C   0  0  0  0  0  0  0  0  0  0  0  0
  146.1688  131.9999  151.6489 C   0  0  0  0  0  0  0  0  0  0  0  0
  147.4703  131.8653  152.3527 N   0  3  2  0  0  0  0  0  0  0  0  0
  147.4389  130.7924  153.3777 C   0  0  0  0  0  0  0  0  0  0  0  0
  151.0414  138.7404  154.4429 S   0  0  0  0  0  0  0  0  0  0  0  0
  148.7316  141.0343  153.5143 H   0  0  0  0  0  0  0  0  0  0  0  0
  150.0113  141.4379  154.6721 H   0  0  0  0  0  0  0  0  0  0  0  0
  148.3617  141.1432  155.2454 H   0  0  0  0  0  0  0  0  0  0  0  0
  149.3390  135.2169  153.4048 H   0  0  0  0  0  0  0  0  0  0  0  0
  149.2908  132.4406  154.2580 H   0  0  0  0  0  0  0  0  0  0  0  0
  147.9956  133.3724  154.9650 H   0  0  0  0  0  0  0  0  0  0  0  0
  148.4910  133.6323  152.0045 H   0  0  0  0  0  0  0  0  0  0  0  0
  146.0092  133.8647  153.7215 H   0  0  0  0  0  0  0  0  0  0  0  0
  146.7592  135.1248  152.7350 H   0  0  0  0  0  0  0  0  0  0  0  0
  144.7647  133.6907  151.6353 H   0  0  0  0  0  0  0  0  0  0  0  0
  146.2332  133.9356  150.6885 H   0  0  0  0  0  0  0  0  0  0  0  0
  145.3817  131.4771  152.1954 H   0  0  0  0  0  0  0  0  0  0  0  0
  146.2182  131.5633  150.6509 H   0  0  0  0  0  0  0  0  0  0  0  0
  146.7816  131.0560  154.2074 H   0  0  0  0  0  0  0  0  0  0  0  0
  148.4305  130.5767  153.7720 H   0  0  0  0  0  0  0  0  0  0  0  0
  147.0693  129.8653  152.9379 H   0  0  0  0  0  0  0  0  0  0  0  0
  148.1582  131.5818  151.6695 H   0  0  0  0  0  0  0  0  0  0  0  0
  1  2  1  0  0  0  0
  1 18  1  0  0  0  0
  1 19  1  0  0  0  0
  1 20  1  0  0  0  0
  2 17  1  0  0  0  0
  2  3  2  0  0  0  0
  3  4  1  0  0  0  0
  4  5  2  0  0  0  0
  5  6  1  0  0  0  0
  5 17  1  0  0  0  0
  6  7  1  0  0  0  0
  7  8  2  0  0  0  0
  7  9  1  0  0  0  0
  9 10  1  0  0  0  0
  9 21  1  0  0  0  0
 10 11  1  0  0  0  0
 10 22  1  0  0  0  0
 10 23  1  0  0  0  0
 11 15  1  0  0  0  0
 11 12  1  0  0  0  0
 11 24  1  0  0  0  0
 12 13  1  0  0  0  0
 12 25  1  0  0  0  0
 12 26  1  0  0  0  0
 13 14  1  0  0  0  0
 13 27  1  0  0  0  0
 13 28  1  0  0  0  0
 14 15  1  0  0  0  0
 14 29  1  0  0  0  0
 14 30  1  0  0  0  0
 15 16  1  0  0  0  0
 15 34  1  0  0  0  0
 16 31  1  0  0  0  0
 16 32  1  0  0  0  0
 16 33  1  0  0  0  0
M  CHG  1   6  -1
M  CHG  1  15   1
M  END
> <s_m_source_file>
AV-unprocessed.smi

> <i_m_source_file_index>
828

> <i_lp_mmshare_version>
43012

> <i_f3d_flags>
0

> <s_epik_input>
W0NIM11jMW5uYyhzMSlbTkhdQyg9TylbTkhdW0NIMl1bQ0BASF0yW0NIMl1bQ0gyXVtDSDJdTjJbQ0gzXQ==

> <s_epik_cmdline>
J2VwaWtfcHl0aG9uJywgJy1waCcsICc3LjAnLCAnLXRuJywgJzgnLCAnLW1hJywgJzIwMCcsICctbWV0YWxfYmluZGluZycsICctaW1hZScsICc8aW5maWxlLm1hZT4nLCAnLW9tYWUnLCAnPG91dGZpbGUubWFlPic=

> <r_lp_tautomer_probability>
1

> <r_epik_Ionization_Penalty>
3.94379

> <r_epik_Ionization_Penalty_Charging>
3.83377

> <r_epik_Ionization_Penalty_Neutral>
0.110023

> <r_epik_State_Penalty>
3.83036

> <r_epik_Charging_Adjusted_Penalty>
7.66413

> <i_epik_Tot_Q>
0

> <i_epik_Tot_abs_Q>
2

> <r_epik_Metal_State_Penalty>
0.575095

> <b_epik_Metal_Only>
1

> <s_lp_Force_Field>
OPLS_2005

> <r_lp_Energy>
28.5427

> <b_lp_Chiralities_Consistent>
1

> <s_lp_Variant>
AV-unprocessed.smi:828-7

> <Gold.Version>
5.8.1

> <Gold.Id.Protein>
6NUR|6NUR_protein|mol2

> <Gold.PLP.Fitness>
38.3561

> <Gold.PLP.PLP>
-28.6439

> <Gold.PLP.part.hbond>
-3.0000

> <Gold.PLP.part.metal>
0.0000

> <Gold.PLP.part.buried>
-3.5444

> <Gold.PLP.part.nonpolar>
-22.5728

> <Gold.PLP.part.repulsive>
0.4401

> <Gold.PLP.ligand.clash>
0.0000

> <Gold.PLP.ligand.torsion>
0.8596

> <Gold.PLP.Chemscore.Hbond>
3.8000

> <Gold.PLP.Chemscore.CHOScore>
0.0000

> <Gold.PLP.Chemscore.Metal>
0.0000

> <Gold.Chemscore.Hbonds>
donor molecule, donor type, donor heavy atom, donor atom, acceptor molecule, acceptor atom, score
      L1  H     9    21       P1  7948  0.80
      L1  H    15    34       P1 10747  1.00
      P1  H 10752 10764       L1     6  2.00

> <Gold.PLP.Chemscore.Internal.Correction>
0.0313

> <Gold.Rescore>
     Score         DG    S(hbond)    S(metal)    S(lipo)     H(rot)  DE(clash)    DE(int)     intcor
     14.85     -15.78       2.20        0.00      53.87       1.31       0.01       0.92       ----

> <Gold.Chemscore.Fitness>
14.8467

> <Gold.Chemscore.DG>
-15.7780

> <Gold.Chemscore.ZeroCoef>
-5.4800

> <Gold.Chemscore.Hbond>
2.2042

> <Gold.Chemscore.Metal>
0.0000

> <Gold.Chemscore.Lipo>
53.8652

> <Gold.Chemscore.Internal_Hbond>
0.0000

> <Gold.Chemscore.DEClash>
0.0064

> <Gold.Chemscore.DEInternal>
0.9250

> <Gold.Chemscore.Rot>
1.3149

> <Gold.Chemscore.Internal.Correction>
   9.000000E+99

> <Gold.Chemscore.Hbonds>
donor molecule, donor type, donor heavy atom, donor atom, acceptor molecule, acceptor atom, score
      L1  H     9    21       P1  7948  0.12
      L1  H    15    34       P1 10747  1.00
      P1  H 10752 10764       L1     6  0.49

> <Gold.Chemscore.Hbond.Weighted>
-7.3620

> <Gold.Chemscore.Metal.Weighted>
-0.0000

> <Gold.Chemscore.Lipo.Weighted>
-6.3022

> <Gold.Chemscore.Internal_Hbond.Weighted>
0.0000

> <Gold.Chemscore.DEClash.Weighted>
0.0064

> <Gold.Chemscore.DEInternal.Weighted>
0.9250

> <Gold.Chemscore.Rot.Weighted>
3.3662

> <Gold.Chemscore.Internal.Correction.Weighted>
   9.000000E+99

> <Gold.Protein.RotatedTorsions>
[ 6907 6896 6895 6894 ] final   71.87 input  -60.11 | X-H torsion
[ 7974 7965 7964 7962 ] final    0.48 input  175.53 | X-H torsion
[ 8008 7997 7996 7995 ] final   -3.74 input   59.86 | X-H torsion
[ 10167 10162 10161 10158 ] final  -75.14 input  -65.29 | X-H torsion
[ 10718 10713 10712 10709 ] final   47.58 input   66.30 | X-H torsion
[ 10763 10752 10751 10750 ] final  -55.98 input  -60.55 | X-H torsion
[ 11005 11000 10999 10996 ] final    5.91 input  -57.11 | X-H torsion

> <Gold.Protein.ActiveResidues>
 VAL166  LYS551  ARG553  GLY616  TRP617  ASP618  TYR619  PRO620  LYS621  CYS622 
 ASP623  PHE694  ASN695  SER759  ASP760  ASP761  ALA762  ILE779  LEU786  VAL792 
 PHE793  MET794  SER795  GLU796  ALA797  LYS798  CYS799  TRP800  GLU811  SER814 

> <Gold.Protein.RotatedAtoms>
  152.4835  134.4656  159.9618 H   0  0  0  0  0  0  0  0  0  0  0  0  # atno 6907 bound_to 6896
  151.4656  133.3575  159.2823 H   0  0  0  0  0  0  0  0  0  0  0  0  # atno 6908 bound_to 6896
  150.8927  134.8357  159.7365 H   0  0  0  0  0  0  0  0  0  0  0  0  # atno 6909 bound_to 6896
  146.2434  140.1131  142.8343 H   0  0  0  0  0  0  0  0  0  0  0  0  # atno 7974 bound_to 7965
  154.6216  140.2501  155.7542 H   0  0  0  0  0  0  0  0  0  0  0  0  # atno 8008 bound_to 7997
  156.2430  140.2925  156.0446 H   0  0  0  0  0  0  0  0  0  0  0  0  # atno 8009 bound_to 7997
  155.1887  140.0391  157.2886 H   0  0  0  0  0  0  0  0  0  0  0  0  # atno 8010 bound_to 7997
  140.4968  143.2369  151.7818 H   0  0  0  0  0  0  0  0  0  0  0  0  # atno 10167 bound_to 10162
  157.4599  130.8190  149.7876 H   0  0  0  0  0  0  0  0  0  0  0  0  # atno 10718 bound_to 10713
  154.1993  135.6414  153.5082 H   0  0  0  0  0  0  0  0  0  0  0  0  # atno 10763 bound_to 10752
  153.0016  135.5447  154.6332 H   0  0  0  0  0  0  0  0  0  0  0  0  # atno 10764 bound_to 10752
  154.5741  135.2919  155.0771 H   0  0  0  0  0  0  0  0  0  0  0  0  # atno 10765 bound_to 10752
  140.5654  134.0153  155.7988 H   0  0  0  0  0  0  0  0  0  0  0  0  # atno 11005 bound_to 11000
  145.0470  140.8989  143.5018 LP  0  0  0  0  0  0  0  0  0  0  0  0  # atno 17320 bound_to 7965
  145.1222  139.2686  143.5582 LP  0  0  0  0  0  0  0  0  0  0  0  0  # atno 17321 bound_to 7965
  139.4863  144.4576  151.9579 LP  0  0  0  0  0  0  0  0  0  0  0  0  # atno 17342 bound_to 10162
  140.3664  144.2909  150.5926 LP  0  0  0  0  0  0  0  0  0  0  0  0  # atno 17343 bound_to 10162
  156.0024  130.3873  150.2556 LP  0  0  0  0  0  0  0  0  0  0  0  0  # atno 17370 bound_to 10713
  157.0733  131.0123  151.3182 LP  0  0  0  0  0  0  0  0  0  0  0  0  # atno 17371 bound_to 10713
  141.1089  133.9649  157.2947 LP  0  0  0  0  0  0  0  0  0  0  0  0  # atno 17394 bound_to 11000
  139.9387  135.0193  156.8640 LP  0  0  0  0  0  0  0  0  0  0  0  0  # atno 17395 bound_to 11000

$$$$
