AV-unprocessed.smi:2032|AV-procd|sdf|8252|dock9
  -GOLD-   2272010523D 1   1.00000     0.00000
 Structure written by MMmdl.
 42 43  0  0  0  0  0  0  0  0  3 V2000
  148.6315  141.6109  154.4180 C   0  0  0  0  0  0  0  0  0  0  0  0
  149.1179  140.1935  154.7398 C   0  0  1  0  0  0  0  0  0  0  0  0
  148.7050  139.1804  153.6506 C   0  0  0  0  0  0  0  0  0  0  0  0
  149.2410  137.8225  153.9441 N   0  3  2  0  0  0  0  0  0  0  0  0
  148.5590  137.0808  155.0603 C   0  0  2  0  0  0  0  0  0  0  0  0
  149.2737  135.7453  155.3813 C   0  0  0  0  0  0  0  0  0  0  0  0
  147.0580  136.8154  154.7532 C   0  0  0  0  0  0  0  0  0  0  0  0
  146.8329  136.3245  153.3967 N   0  0  0  0  0  0  0  0  0  0  0  0
  145.8477  135.4962  153.0209 C   0  0  0  0  0  0  0  0  0  0  0  0
  145.0248  135.1043  153.8519 O   0  0  0  0  0  0  0  0  0  0  0  0
  145.8834  135.1676  151.7105 N   0  5  0  0  0  0  0  0  0  0  0  0
  145.0307  134.2502  151.2259 C   0  0  0  0  0  0  0  0  0  0  0  0
  145.3467  133.4131  150.2314 N   0  0  0  0  0  0  0  0  0  0  0  0
  144.3117  132.5402  149.8906 C   0  0  0  0  0  0  0  0  0  0  0  0
  143.1843  132.7114  150.6494 C   0  0  0  0  0  0  0  0  0  0  0  0
  143.3905  133.9809  151.8221 S   0  0  0  0  0  0  0  0  0  0  0  0
  150.7209  137.9371  154.0622 C   0  0  0  0  0  0  0  0  0  0  0  0
  151.1165  138.9631  155.1466 C   0  0  1  0  0  0  0  0  0  0  0  0
  152.6356  139.1464  155.2362 C   0  0  0  0  0  0  0  0  0  0  0  0
  150.5403  140.2254  154.8223 O   0  0  0  0  0  0  0  0  0  0  0  0
  147.5439  141.6462  154.3506 H   0  0  0  0  0  0  0  0  0  0  0  0
  149.0376  141.9628  153.4693 H   0  0  0  0  0  0  0  0  0  0  0  0
  148.9382  142.3138  155.1930 H   0  0  0  0  0  0  0  0  0  0  0  0
  148.7048  139.9049  155.7070 H   0  0  0  0  0  0  0  0  0  0  0  0
  147.6297  139.1854  153.4927 H   0  0  0  0  0  0  0  0  0  0  0  0
  149.1208  139.5036  152.6948 H   0  0  0  0  0  0  0  0  0  0  0  0
  148.6114  137.6933  155.9593 H   0  0  0  0  0  0  0  0  0  0  0  0
  148.7327  135.1576  156.1223 H   0  0  0  0  0  0  0  0  0  0  0  0
  150.2631  135.8982  155.8102 H   0  0  0  0  0  0  0  0  0  0  0  0
  149.3784  135.1274  154.4891 H   0  0  0  0  0  0  0  0  0  0  0  0
  146.6199  136.0776  155.4228 H   0  0  0  0  0  0  0  0  0  0  0  0
  146.4828  137.7324  154.8827 H   0  0  0  0  0  0  0  0  0  0  0  0
  147.4818  136.6262  152.6845 H   0  0  0  0  0  0  0  0  0  0  0  0
  144.4654  131.8267  149.0948 H   0  0  0  0  0  0  0  0  0  0  0  0
  142.2516  132.1710  150.5924 H   0  0  0  0  0  0  0  0  0  0  0  0
  151.2022  136.9759  154.2295 H   0  0  0  0  0  0  0  0  0  0  0  0
  151.1087  138.2734  153.0994 H   0  0  0  0  0  0  0  0  0  0  0  0
  150.7548  138.6424  156.1243 H   0  0  0  0  0  0  0  0  0  0  0  0
  153.1285  138.2105  155.5004 H   0  0  0  0  0  0  0  0  0  0  0  0
  152.8950  139.8836  155.9965 H   0  0  0  0  0  0  0  0  0  0  0  0
  153.0501  139.4871  154.2869 H   0  0  0  0  0  0  0  0  0  0  0  0
  149.0682  137.2675  153.1182 H   0  0  0  0  0  0  0  0  0  0  0  0
  1  2  1  0  0  0  0
  1 21  1  0  0  0  0
  1 22  1  0  0  0  0
  1 23  1  0  0  0  0
  2 20  1  0  0  0  0
  2  3  1  0  0  0  0
  2 24  1  0  0  0  0
  3  4  1  0  0  0  0
  3 25  1  0  0  0  0
  3 26  1  0  0  0  0
  4  5  1  0  0  0  0
  4 17  1  0  0  0  0
  4 42  1  0  0  0  0
  5  6  1  0  0  0  0
  5  7  1  0  0  0  0
  5 27  1  0  0  0  0
  6 28  1  0  0  0  0
  6 29  1  0  0  0  0
  6 30  1  0  0  0  0
  7  8  1  0  0  0  0
  7 31  1  0  0  0  0
  7 32  1  0  0  0  0
  8  9  1  0  0  0  0
  8 33  1  0  0  0  0
  9 10  2  0  0  0  0
  9 11  1  0  0  0  0
 11 12  1  0  0  0  0
 12 16  1  0  0  0  0
 12 13  2  0  0  0  0
 13 14  1  0  0  0  0
 14 15  2  0  0  0  0
 14 34  1  0  0  0  0
 15 16  1  0  0  0  0
 15 35  1  0  0  0  0
 17 18  1  0  0  0  0
 17 36  1  0  0  0  0
 17 37  1  0  0  0  0
 18 19  1  0  0  0  0
 18 20  1  0  0  0  0
 18 38  1  0  0  0  0
 19 39  1  0  0  0  0
 19 40  1  0  0  0  0
 19 41  1  0  0  0  0
M  CHG  1   4   1
M  CHG  1  11  -1
M  END
> <s_m_source_file>
AV-unprocessed.smi

> <i_m_source_file_index>
2032

> <i_lp_mmshare_version>
43012

> <i_f3d_flags>
0

> <s_epik_input>
W0NIM11bQ0BASF0xW0NIMl1OKFtDSDJdW0NASF0oTzEpW0NIM10pW0NASF0oW0NIM10pW0NIMl1bTkhdQyg9TylbTkhdYzJuW2NIXVtjSF1zMg==

> <s_epik_cmdline>
J2VwaWtfcHl0aG9uJywgJy1waCcsICc3LjAnLCAnLXRuJywgJzgnLCAnLW1hJywgJzIwMCcsICctbWV0YWxfYmluZGluZycsICctaW1hZScsICc8aW5maWxlLm1hZT4nLCAnLW9tYWUnLCAnPG91dGZpbGUubWFlPic=

> <r_lp_tautomer_probability>
0.999

> <r_epik_Ionization_Penalty>
6.71699

> <r_epik_Ionization_Penalty_Charging>
5.88592

> <r_epik_Ionization_Penalty_Neutral>
0.831074

> <r_epik_State_Penalty>
6.08365

> <r_epik_Charging_Adjusted_Penalty>
11.9696

> <i_epik_Tot_Q>
0

> <i_epik_Tot_abs_Q>
2

> <r_epik_Metal_State_Penalty>
2.0947

> <b_epik_Metal_Only>
1

> <s_lp_Force_Field>
OPLS_2005

> <r_lp_Energy>
10.9101

> <b_lp_Chiralities_Consistent>
1

> <s_lp_Variant>
AV-unprocessed.smi:2032-22

> <Gold.Version>
5.8.1

> <Gold.Id.Protein>
6NUR|6NUR_protein|mol2

> <Gold.PLP.Fitness>
46.1034

> <Gold.PLP.PLP>
-32.4048

> <Gold.PLP.part.hbond>
-3.0000

> <Gold.PLP.part.metal>
0.0000

> <Gold.PLP.part.buried>
-2.3180

> <Gold.PLP.part.nonpolar>
-28.4881

> <Gold.PLP.part.repulsive>
0.5593

> <Gold.PLP.ligand.clash>
0.0000

> <Gold.PLP.ligand.torsion>
0.6261

> <Gold.PLP.Chemscore.Hbond>
3.9600

> <Gold.PLP.Chemscore.CHOScore>
1.0000

> <Gold.PLP.Chemscore.Metal>
0.0000

> <Gold.Chemscore.Hbonds>
donor molecule, donor type, donor heavy atom, donor atom, acceptor molecule, acceptor atom, score
      L1  H     4    42       P1  7948  2.00
      L1  H     8    33       P1  7948  0.90
      P1  H  7989  7998       L1    20  1.00
      L1  C    15    35       P1 10186  0.09
      L1  C    15    35       P1 10952  1.00

> <Gold.PLP.Chemscore.Internal.Correction>
0.0708

> <Gold.Rescore>
     Score         DG    S(hbond)    S(metal)    S(lipo)     H(rot)  DE(clash)    DE(int)     intcor
     16.79     -19.79       2.83        0.00      76.15       1.58       1.02       1.98       ----

> <Gold.Chemscore.Fitness>
16.7920

> <Gold.Chemscore.DG>
-19.7865

> <Gold.Chemscore.ZeroCoef>
-5.4800

> <Gold.Chemscore.Hbond>
2.8263

> <Gold.Chemscore.Metal>
0.0000

> <Gold.Chemscore.Lipo>
76.1475

> <Gold.Chemscore.Internal_Hbond>
0.0000

> <Gold.Chemscore.DEClash>
1.0182

> <Gold.Chemscore.DEInternal>
1.9763

> <Gold.Chemscore.Rot>
1.5791

> <Gold.Chemscore.Internal.Correction>
   9.000000E+99

> <Gold.Chemscore.Hbonds>
donor molecule, donor type, donor heavy atom, donor atom, acceptor molecule, acceptor atom, score
      L1  H     4    42       P1  7948  0.99
      L1  H     8    33       P1  7948  0.88
      P1  H  7989  7998       L1    20  0.44

> <Gold.Chemscore.Hbond.Weighted>
-9.4398

> <Gold.Chemscore.Metal.Weighted>
-0.0000

> <Gold.Chemscore.Lipo.Weighted>
-8.9093

> <Gold.Chemscore.Internal_Hbond.Weighted>
0.0000

> <Gold.Chemscore.DEClash.Weighted>
1.0182

> <Gold.Chemscore.DEInternal.Weighted>
1.9763

> <Gold.Chemscore.Rot.Weighted>
4.0425

> <Gold.Chemscore.Internal.Correction.Weighted>
   9.000000E+99

> <Gold.Protein.RotatedTorsions>
[ 6907 6896 6895 6894 ] final  140.72 input  -60.11 | X-H torsion
[ 7974 7965 7964 7962 ] final -132.98 input  175.53 | X-H torsion
[ 8008 7997 7996 7995 ] final -136.81 input   59.86 | X-H torsion
[ 10167 10162 10161 10158 ] final -173.61 input  -65.29 | X-H torsion
[ 10718 10713 10712 10709 ] final  129.39 input   66.30 | X-H torsion
[ 10763 10752 10751 10750 ] final   47.33 input  -60.55 | X-H torsion
[ 11005 11000 10999 10996 ] final   62.46 input  -57.11 | X-H torsion

> <Gold.Protein.ActiveResidues>
 VAL166  LYS551  ARG553  GLY616  TRP617  ASP618  TYR619  PRO620  LYS621  CYS622 
 ASP623  PHE694  ASN695  SER759  ASP760  ASP761  ALA762  ILE779  LEU786  VAL792 
 PHE793  MET794  SER795  GLU796  ALA797  LYS798  CYS799  TRP800  GLU811  SER814 

> <Gold.Protein.RotatedAtoms>
  152.2397  133.5125  159.5262 H   0  0  0  0  0  0  0  0  0  0  0  0  # atno 6907 bound_to 6896
  150.7061  134.1106  159.4007 H   0  0  0  0  0  0  0  0  0  0  0  0  # atno 6908 bound_to 6896
  151.9026  135.0372  160.0558 H   0  0  0  0  0  0  0  0  0  0  0  0  # atno 6909 bound_to 6896
  144.9235  140.7042  143.4950 H   0  0  0  0  0  0  0  0  0  0  0  0  # atno 7974 bound_to 7965
  155.4013  140.0506  157.3036 H   0  0  0  0  0  0  0  0  0  0  0  0  # atno 8008 bound_to 7997
  154.4989  140.2149  155.9348 H   0  0  0  0  0  0  0  0  0  0  0  0  # atno 8009 bound_to 7997
  156.1442  140.3148  155.8548 H   0  0  0  0  0  0  0  0  0  0  0  0  # atno 8010 bound_to 7997
  139.5679  144.1712  152.1340 H   0  0  0  0  0  0  0  0  0  0  0  0  # atno 10167 bound_to 10162
  157.5159  131.1097  150.9225 H   0  0  0  0  0  0  0  0  0  0  0  0  # atno 10718 bound_to 10713
  152.9801  135.5979  154.3745 H   0  0  0  0  0  0  0  0  0  0  0  0  # atno 10763 bound_to 10752
  154.3416  135.2767  155.2421 H   0  0  0  0  0  0  0  0  0  0  0  0  # atno 10764 bound_to 10752
  154.4501  135.5992  153.6241 H   0  0  0  0  0  0  0  0  0  0  0  0  # atno 10765 bound_to 10752
  140.0090  134.6325  155.9809 H   0  0  0  0  0  0  0  0  0  0  0  0  # atno 11005 bound_to 11000
  145.3258  139.1774  143.4563 LP  0  0  0  0  0  0  0  0  0  0  0  0  # atno 17320 bound_to 7965
  146.3215  140.3281  142.8638 LP  0  0  0  0  0  0  0  0  0  0  0  0  # atno 17321 bound_to 7965
  140.1238  144.5349  150.6845 LP  0  0  0  0  0  0  0  0  0  0  0  0  # atno 17342 bound_to 10162
  140.6963  143.2406  151.4992 LP  0  0  0  0  0  0  0  0  0  0  0  0  # atno 17343 bound_to 10162
  156.9851  130.5542  149.5299 LP  0  0  0  0  0  0  0  0  0  0  0  0  # atno 17370 bound_to 10713
  156.0320  130.5410  150.8558 LP  0  0  0  0  0  0  0  0  0  0  0  0  # atno 17371 bound_to 10713
  141.1698  133.6537  156.4609 LP  0  0  0  0  0  0  0  0  0  0  0  0  # atno 17394 bound_to 11000
  140.4588  134.6860  157.5075 LP  0  0  0  0  0  0  0  0  0  0  0  0  # atno 17395 bound_to 11000

$$$$
