AV-unprocessed.smi:3018|AV-procd|sdf|11480|dock10
  -GOLD-   2272016423D 1   1.00000     0.00000
 Structure written by MMmdl.
 45 46  0  0  0  0  0  0  0  0  1 V2000
  148.3382  141.6393  155.4932 C   0  0  0  0  0  0  0  0  0  0  0  0
  149.3466  141.7019  156.6528 C   0  0  0  0  0  0  0  0  0  0  0  0
  150.7831  141.2449  156.3185 C   0  0  1  0  0  0  0  0  0  0  0  0
  151.5368  141.2273  157.5335 O   0  0  0  0  0  0  0  0  0  0  0  0
  151.3238  142.2819  158.4740 C   0  0  0  0  0  0  0  0  0  0  0  0
  151.5139  143.6043  157.7107 C   0  0  0  0  0  0  0  0  0  0  0  0
  151.3758  144.8209  158.6397 C   0  0  0  0  0  0  0  0  0  0  0  0
  152.3477  144.7283  159.8258 C   0  0  0  0  0  0  0  0  0  0  0  0
  152.1642  143.4096  160.5927 C   0  0  0  0  0  0  0  0  0  0  0  0
  152.3055  142.1949  159.6611 C   0  0  0  0  0  0  0  0  0  0  0  0
  150.8346  139.8743  155.6199 C   0  0  0  0  0  0  0  0  0  0  0  0
  151.6861  139.6419  154.7617 O   0  0  0  0  0  0  0  0  0  0  0  0
  149.8697  139.0038  155.9555 N   0  0  0  0  0  0  0  0  0  0  0  0
  149.6326  137.7101  155.3196 C   0  0  0  0  0  0  0  0  0  0  0  0
  148.1249  137.3941  155.2164 C   0  0  0  0  0  0  0  0  0  0  0  0
  147.3636  138.1746  154.1526 C   0  0  0  0  0  0  0  0  0  0  0  0
  146.4038  139.0144  154.3242 N   0  0  0  0  0  0  0  0  0  0  0  0
  146.1502  139.3917  153.0467 N   0  0  0  0  0  0  0  0  0  0  0  0
  146.9338  138.8078  152.1325 C   0  0  0  0  0  0  0  0  0  0  0  0
  146.9297  138.9812  150.9164 O   0  0  0  0  0  0  0  0  0  0  0  0
  147.7214  138.0062  152.8376 N   0  0  0  0  0  0  0  0  0  0  0  0
  145.4246  140.0710  152.8679 H   0  0  0  0  0  0  0  0  0  0  0  0
  148.4584  137.4096  152.4905 H   0  0  0  0  0  0  0  0  0  0  0  0
  147.3362  141.8868  155.8444 H   0  0  0  0  0  0  0  0  0  0  0  0
  148.2961  140.6414  155.0557 H   0  0  0  0  0  0  0  0  0  0  0  0
  148.5845  142.3458  154.7011 H   0  0  0  0  0  0  0  0  0  0  0  0
  149.3730  142.7197  157.0443 H   0  0  0  0  0  0  0  0  0  0  0  0
  148.9715  141.0829  157.4684 H   0  0  0  0  0  0  0  0  0  0  0  0
  151.2077  141.9947  155.6508 H   0  0  0  0  0  0  0  0  0  0  0  0
  150.3034  142.2658  158.8534 H   0  0  0  0  0  0  0  0  0  0  0  0
  152.4974  143.6178  157.2390 H   0  0  0  0  0  0  0  0  0  0  0  0
  150.7833  143.6734  156.9042 H   0  0  0  0  0  0  0  0  0  0  0  0
  151.5589  145.7383  158.0798 H   0  0  0  0  0  0  0  0  0  0  0  0
  150.3523  144.8856  159.0093 H   0  0  0  0  0  0  0  0  0  0  0  0
  153.3739  144.8001  159.4632 H   0  0  0  0  0  0  0  0  0  0  0  0
  152.1964  145.5740  160.4972 H   0  0  0  0  0  0  0  0  0  0  0  0
  152.8936  143.3447  161.4004 H   0  0  0  0  0  0  0  0  0  0  0  0
  151.1808  143.3955  161.0638 H   0  0  0  0  0  0  0  0  0  0  0  0
  152.1321  141.2881  160.2395 H   0  0  0  0  0  0  0  0  0  0  0  0
  153.3287  142.1365  159.2880 H   0  0  0  0  0  0  0  0  0  0  0  0
  149.2121  139.2853  156.6685 H   0  0  0  0  0  0  0  0  0  0  0  0
  150.1127  137.6403  154.3421 H   0  0  0  0  0  0  0  0  0  0  0  0
  150.1122  136.9516  155.9385 H   0  0  0  0  0  0  0  0  0  0  0  0
  147.9904  136.3306  155.0180 H   0  0  0  0  0  0  0  0  0  0  0  0
  147.6562  137.5800  156.1838 H   0  0  0  0  0  0  0  0  0  0  0  0
  1  2  1  0  0  0  0
  1 24  1  0  0  0  0
  1 25  1  0  0  0  0
  1 26  1  0  0  0  0
  2  3  1  0  0  0  0
  2 27  1  0  0  0  0
  2 28  1  0  0  0  0
  3  4  1  0  0  0  0
  3 11  1  0  0  0  0
  3 29  1  0  0  0  0
  4  5  1  0  0  0  0
  5 10  1  0  0  0  0
  5  6  1  0  0  0  0
  5 30  1  0  0  0  0
  6  7  1  0  0  0  0
  6 31  1  0  0  0  0
  6 32  1  0  0  0  0
  7  8  1  0  0  0  0
  7 33  1  0  0  0  0
  7 34  1  0  0  0  0
  8  9  1  0  0  0  0
  8 35  1  0  0  0  0
  8 36  1  0  0  0  0
  9 10  1  0  0  0  0
  9 37  1  0  0  0  0
  9 38  1  0  0  0  0
 10 39  1  0  0  0  0
 10 40  1  0  0  0  0
 11 12  2  0  0  0  0
 11 13  1  0  0  0  0
 13 14  1  0  0  0  0
 13 41  1  0  0  0  0
 14 15  1  0  0  0  0
 14 42  1  0  0  0  0
 14 43  1  0  0  0  0
 15 16  1  0  0  0  0
 15 44  1  0  0  0  0
 15 45  1  0  0  0  0
 16 21  1  0  0  0  0
 16 17  2  0  0  0  0
 17 18  1  0  0  0  0
 18 22  1  0  0  0  0
 18 19  1  0  0  0  0
 19 20  2  0  0  0  0
 19 21  1  0  0  0  0
 21 23  1  0  0  0  0
M  END
> <s_m_source_file>
AV-unprocessed.smi

> <i_m_source_file_index>
3018

> <i_lp_mmshare_version>
43012

> <i_f3d_flags>
0

> <s_epik_input>
W0NIMl0xW0NIMl1bQ0gyXVtDSDJdW0NIMl1bQ0hdMU9bQ0BASF0oW0NIMl1bQ0gzXSlDKD1PKVtOSF1bQ0gyXVtDSDJdYzJuW25IXWMoPU8pW25IXTI=

> <s_epik_cmdline>
J2VwaWtfcHl0aG9uJywgJy1waCcsICc3LjAnLCAnLXRuJywgJzgnLCAnLW1hJywgJzIwMCcsICctbWV0YWxfYmluZGluZycsICctaW1hZScsICc8aW5maWxlLm1hZT4nLCAnLW9tYWUnLCAnPG91dGZpbGUubWFlPic=

> <r_lp_tautomer_probability>
1

> <r_epik_Ionization_Penalty>
0.000773817

> <r_epik_Ionization_Penalty_Charging>
0.000773741

> <r_epik_Ionization_Penalty_Neutral>
7.58514e-08

> <r_epik_State_Penalty>
-0

> <r_epik_Charging_Adjusted_Penalty>
0.000773741

> <i_epik_Tot_Q>
0

> <i_epik_Tot_abs_Q>
0

> <r_epik_Metal_State_Penalty>
0.495152

> <b_epik_Metal_Only>
0

> <s_lp_Force_Field>
OPLS_2005

> <r_lp_Energy>
29.5576

> <b_lp_Chiralities_Consistent>
1

> <s_lp_Variant>
AV-unprocessed.smi:3018-2

> <Gold.Version>
5.8.1

> <Gold.Id.Protein>
6NUR|6NUR_protein|mol2

> <Gold.PLP.Fitness>
46.4090

> <Gold.PLP.PLP>
-37.6030

> <Gold.PLP.part.hbond>
-3.5594

> <Gold.PLP.part.metal>
0.0000

> <Gold.PLP.part.buried>
-5.1483

> <Gold.PLP.part.nonpolar>
-29.3826

> <Gold.PLP.part.repulsive>
1.3878

> <Gold.PLP.ligand.clash>
0.0009

> <Gold.PLP.ligand.torsion>
1.1627

> <Gold.PLP.Chemscore.Hbond>
3.6678

> <Gold.PLP.Chemscore.CHOScore>
0.0000

> <Gold.PLP.Chemscore.Metal>
0.0000

> <Gold.Chemscore.Hbonds>
donor molecule, donor type, donor heavy atom, donor atom, acceptor molecule, acceptor atom, score
      L1  H    18    22       P1 10175  1.00
      L1  H    21    23       P1  7948  0.68
      P1  H  7954  7966       L1    20  0.78
      P1  H  7989  7998       L1    12  1.00

> <Gold.PLP.Chemscore.Internal.Correction>
0.1290

> <Gold.Rescore>
     Score         DG    S(hbond)    S(metal)    S(lipo)     H(rot)  DE(clash)    DE(int)     intcor
     18.51     -19.82       3.57        0.00      87.21       3.04       0.18       1.13       ----

> <Gold.Chemscore.Fitness>
18.5078

> <Gold.Chemscore.DG>
-19.8227

> <Gold.Chemscore.ZeroCoef>
-5.4800

> <Gold.Chemscore.Hbond>
3.5667

> <Gold.Chemscore.Metal>
0.0000

> <Gold.Chemscore.Lipo>
87.2128

> <Gold.Chemscore.Internal_Hbond>
0.0000

> <Gold.Chemscore.DEClash>
0.1816

> <Gold.Chemscore.DEInternal>
1.1333

> <Gold.Chemscore.Rot>
3.0367

> <Gold.Chemscore.Internal.Correction>
   9.000000E+99

> <Gold.Chemscore.Hbonds>
donor molecule, donor type, donor heavy atom, donor atom, acceptor molecule, acceptor atom, score
      L1  H    18    22       P1 10175  0.94
      L1  H    21    23       P1  7948  0.67
      P1  H  7954  7966       L1    20  0.73
      P1  H  7989  7998       L1    12  0.77

> <Gold.Chemscore.Hbond.Weighted>
-11.9128

> <Gold.Chemscore.Metal.Weighted>
-0.0000

> <Gold.Chemscore.Lipo.Weighted>
-10.2039

> <Gold.Chemscore.Internal_Hbond.Weighted>
0.0000

> <Gold.Chemscore.DEClash.Weighted>
0.1816

> <Gold.Chemscore.DEInternal.Weighted>
1.1333

> <Gold.Chemscore.Rot.Weighted>
7.7739

> <Gold.Chemscore.Internal.Correction.Weighted>
   9.000000E+99

> <Gold.Protein.RotatedTorsions>
[ 6907 6896 6895 6894 ] final  125.81 input  -60.11 | X-H torsion
[ 7974 7965 7964 7962 ] final  -53.41 input  175.53 | X-H torsion
[ 8008 7997 7996 7995 ] final  -43.29 input   59.86 | X-H torsion
[ 10167 10162 10161 10158 ] final  131.65 input  -65.29 | X-H torsion
[ 10718 10713 10712 10709 ] final  -55.23 input   66.30 | X-H torsion
[ 10763 10752 10751 10750 ] final -155.17 input  -60.55 | X-H torsion
[ 11005 11000 10999 10996 ] final  -91.62 input  -57.11 | X-H torsion

> <Gold.Protein.ActiveResidues>
 VAL166  LYS551  ARG553  GLY616  TRP617  ASP618  TYR619  PRO620  LYS621  CYS622 
 ASP623  PHE694  ASN695  SER759  ASP760  ASP761  ALA762  ILE779  LEU786  VAL792 
 PHE793  MET794  SER795  GLU796  ALA797  LYS798  CYS799  TRP800  GLU811  SER814 

> <Gold.Protein.RotatedAtoms>
  152.3959  133.6746  159.6275 H   0  0  0  0  0  0  0  0  0  0  0  0  # atno 6907 bound_to 6896
  150.7858  133.8875  159.3312 H   0  0  0  0  0  0  0  0  0  0  0  0  # atno 6908 bound_to 6896
  151.6652  135.0985  160.0238 H   0  0  0  0  0  0  0  0  0  0  0  0  # atno 6909 bound_to 6896
  145.8972  140.8023  142.9762 H   0  0  0  0  0  0  0  0  0  0  0  0  # atno 7974 bound_to 7965
  154.3997  140.1451  156.3495 H   0  0  0  0  0  0  0  0  0  0  0  0  # atno 8008 bound_to 7997
  155.8282  140.3467  155.5535 H   0  0  0  0  0  0  0  0  0  0  0  0  # atno 8009 bound_to 7997
  155.8216  140.0899  157.1836 H   0  0  0  0  0  0  0  0  0  0  0  0  # atno 8010 bound_to 7997
  139.5374  144.6697  151.4738 H   0  0  0  0  0  0  0  0  0  0  0  0  # atno 10167 bound_to 10162
  156.1385  130.4155  150.0144 H   0  0  0  0  0  0  0  0  0  0  0  0  # atno 10718 bound_to 10713
  154.7806  135.3173  154.7997 H   0  0  0  0  0  0  0  0  0  0  0  0  # atno 10763 bound_to 10752
  153.8710  135.6844  153.4778 H   0  0  0  0  0  0  0  0  0  0  0  0  # atno 10764 bound_to 10752
  153.1442  135.4726  154.9478 H   0  0  0  0  0  0  0  0  0  0  0  0  # atno 10765 bound_to 10752
  141.1541  133.7767  156.9904 H   0  0  0  0  0  0  0  0  0  0  0  0  # atno 11005 bound_to 11000
  144.6733  140.1620  143.7421 LP  0  0  0  0  0  0  0  0  0  0  0  0  # atno 17320 bound_to 7965
  145.8836  139.2336  143.1591 LP  0  0  0  0  0  0  0  0  0  0  0  0  # atno 17321 bound_to 7965
  140.6588  143.8542  150.6864 LP  0  0  0  0  0  0  0  0  0  0  0  0  # atno 17342 bound_to 10162
  140.1930  143.4020  152.1849 LP  0  0  0  0  0  0  0  0  0  0  0  0  # atno 17343 bound_to 10162
  156.8036  130.9299  151.3645 LP  0  0  0  0  0  0  0  0  0  0  0  0  # atno 17370 bound_to 10713
  157.6554  130.8920  149.9718 LP  0  0  0  0  0  0  0  0  0  0  0  0  # atno 17371 bound_to 10713
  140.1006  134.9537  157.1917 LP  0  0  0  0  0  0  0  0  0  0  0  0  # atno 17394 bound_to 11000
  140.3323  134.2796  155.7226 LP  0  0  0  0  0  0  0  0  0  0  0  0  # atno 17395 bound_to 11000

$$$$
