AV-unprocessed.smi:531|AV-procd|sdf|2847|dock3
  -GOLD-   2262023333D 1   1.00000     0.00000
 Structure written by MMmdl.
 45 47  0  0  0  0  0  0  0  0  2 V2000
  150.1519  140.1013  155.0327 C   0  0  0  0  0  0  0  0  0  0  0  0
  150.8013  140.3681  156.3924 C   0  0  0  0  0  0  0  0  0  0  0  0
  150.8445  139.1531  157.1178 O   0  0  0  0  0  0  0  0  0  0  0  0
  151.2455  139.3242  158.4667 C   0  0  0  0  0  0  0  0  0  0  0  0
  152.6647  139.9074  158.5113 C   0  0  0  0  0  0  0  0  0  0  0  0
  153.3540  139.5599  159.7540 N   0  0  0  0  0  0  0  0  0  0  0  0
  153.7260  140.3920  160.7656 C   0  0  0  0  0  0  0  0  0  0  0  0
  153.5139  141.7717  160.7192 N   0  0  0  0  0  0  0  0  0  0  0  0
  153.6579  142.6287  159.5417 C   0  0  0  0  0  0  0  0  0  0  0  0
  152.4305  143.5369  159.3462 C   0  0  0  0  0  0  0  0  0  0  0  0
  152.2020  144.4039  160.5919 C   0  0  0  0  0  0  0  0  0  0  0  0
  152.1624  143.5200  161.8464 C   0  0  0  0  0  0  0  0  0  0  0  0
  153.4018  142.6093  161.9125 C   0  0  0  0  0  0  0  0  0  0  0  0
  154.2620  139.7783  161.8218 N   0  0  0  0  0  0  0  0  0  0  0  0
  154.2539  138.4446  161.4460 C   0  0  0  0  0  0  0  0  0  0  0  0
  153.7060  138.2831  160.2113 C   0  0  0  0  0  0  0  0  0  0  0  0
  153.5216  136.9625  159.5643 C   0  0  0  0  0  0  0  0  0  0  0  0
  153.0031  136.8599  158.4548 O   0  0  0  0  0  0  0  0  0  0  0  0
  153.9830  135.9343  160.3444 N   0  5  0  0  0  0  0  0  0  0  0  0
  154.5472  136.0556  161.5954 C   0  0  0  0  0  0  0  0  0  0  0  0
  154.9294  135.0742  162.2342 O   0  0  0  0  0  0  0  0  0  0  0  0
  154.6920  137.2956  162.1589 N   0  0  0  0  0  0  0  0  0  0  0  0
  155.2838  137.4548  163.4906 C   0  0  0  0  0  0  0  0  0  0  0  0
  150.0953  141.0149  154.4407 H   0  0  0  0  0  0  0  0  0  0  0  0
  149.1389  139.7162  155.1531 H   0  0  0  0  0  0  0  0  0  0  0  0
  150.7232  139.3674  154.4639 H   0  0  0  0  0  0  0  0  0  0  0  0
  151.8096  140.7619  156.2559 H   0  0  0  0  0  0  0  0  0  0  0  0
  150.2239  141.1138  156.9409 H   0  0  0  0  0  0  0  0  0  0  0  0
  150.5531  139.9906  158.9830 H   0  0  0  0  0  0  0  0  0  0  0  0
  151.2229  138.3647  158.9853 H   0  0  0  0  0  0  0  0  0  0  0  0
  153.2427  139.5655  157.6566 H   0  0  0  0  0  0  0  0  0  0  0  0
  152.6263  140.9856  158.3933 H   0  0  0  0  0  0  0  0  0  0  0  0
  154.5510  143.2425  159.6661 H   0  0  0  0  0  0  0  0  0  0  0  0
  153.8413  142.0269  158.6526 H   0  0  0  0  0  0  0  0  0  0  0  0
  152.5693  144.1713  158.4706 H   0  0  0  0  0  0  0  0  0  0  0  0
  151.5449  142.9309  159.1535 H   0  0  0  0  0  0  0  0  0  0  0  0
  153.0103  145.1302  160.6839 H   0  0  0  0  0  0  0  0  0  0  0  0
  151.2771  144.9732  160.4964 H   0  0  0  0  0  0  0  0  0  0  0  0
  152.1065  144.1420  162.7401 H   0  0  0  0  0  0  0  0  0  0  0  0
  151.2600  142.9076  161.8368 H   0  0  0  0  0  0  0  0  0  0  0  0
  153.3387  141.9758  162.7980 H   0  0  0  0  0  0  0  0  0  0  0  0
  154.3079  143.2066  162.0216 H   0  0  0  0  0  0  0  0  0  0  0  0
  156.2745  136.9996  163.5293 H   0  0  0  0  0  0  0  0  0  0  0  0
  154.6573  136.9744  164.2434 H   0  0  0  0  0  0  0  0  0  0  0  0
  155.3984  138.4996  163.7783 H   0  0  0  0  0  0  0  0  0  0  0  0
  1  2  1  0  0  0  0
  1 24  1  0  0  0  0
  1 25  1  0  0  0  0
  1 26  1  0  0  0  0
  2  3  1  0  0  0  0
  2 27  1  0  0  0  0
  2 28  1  0  0  0  0
  3  4  1  0  0  0  0
  4  5  1  0  0  0  0
  4 29  1  0  0  0  0
  4 30  1  0  0  0  0
  5  6  1  0  0  0  0
  5 31  1  0  0  0  0
  5 32  1  0  0  0  0
  6 16  1  0  0  0  0
  6  7  1  0  0  0  0
  7  8  1  0  0  0  0
  7 14  2  0  0  0  0
  8 13  1  0  0  0  0
  8  9  1  0  0  0  0
  9 10  1  0  0  0  0
  9 33  1  0  0  0  0
  9 34  1  0  0  0  0
 10 11  1  0  0  0  0
 10 35  1  0  0  0  0
 10 36  1  0  0  0  0
 11 12  1  0  0  0  0
 11 37  1  0  0  0  0
 11 38  1  0  0  0  0
 12 13  1  0  0  0  0
 12 39  1  0  0  0  0
 12 40  1  0  0  0  0
 13 41  1  0  0  0  0
 13 42  1  0  0  0  0
 14 15  1  0  0  0  0
 15 22  1  0  0  0  0
 15 16  2  0  0  0  0
 16 17  1  0  0  0  0
 17 18  2  0  0  0  0
 17 19  1  0  0  0  0
 19 20  1  0  0  0  0
 20 21  2  0  0  0  0
 20 22  1  0  0  0  0
 22 23  1  0  0  0  0
 23 43  1  0  0  0  0
 23 44  1  0  0  0  0
 23 45  1  0  0  0  0
M  CHG  1  19  -1
M  END
> <s_m_source_file>
AV-unprocessed.smi

> <i_m_source_file_index>
531

> <i_lp_mmshare_version>
43012

> <i_f3d_flags>
0

> <s_epik_input>
W0NIM11uMWMoPU8pW25IXWMoPU8pYyhjMTIpbihbQ0gyXVtDSDJdT1tDSDJdW0NIM10pYyhuMilOM1tDSDJdW0NIMl1bQ0gyXVtDSDJdW0NIMl0z

> <s_epik_cmdline>
J2VwaWtfcHl0aG9uJywgJy1waCcsICc3LjAnLCAnLXRuJywgJzgnLCAnLW1hJywgJzIwMCcsICctbWV0YWxfYmluZGluZycsICctaW1hZScsICc8aW5maWxlLm1hZT4nLCAnLW9tYWUnLCAnPG91dGZpbGUubWFlPic=

> <r_lp_tautomer_probability>
1

> <r_epik_Ionization_Penalty>
5.10252

> <r_epik_Ionization_Penalty_Charging>
0.0734613

> <r_epik_Ionization_Penalty_Neutral>
5.02906

> <r_epik_State_Penalty>
5.02576

> <r_epik_Charging_Adjusted_Penalty>
5.09922

> <i_epik_Tot_Q>
-1

> <i_epik_Tot_abs_Q>
1

> <r_epik_Metal_State_Penalty>
1.13821

> <b_epik_Metal_Only>
1

> <s_lp_Force_Field>
OPLS_2005

> <r_lp_Energy>
41.0851

> <b_lp_Chiralities_Consistent>
1

> <s_lp_Variant>
AV-unprocessed.smi:531-2

> <Gold.Version>
5.8.1

> <Gold.Id.Protein>
6NUR|6NUR_protein|mol2

> <Gold.PLP.Fitness>
49.9112

> <Gold.PLP.PLP>
-44.5074

> <Gold.PLP.part.hbond>
-1.0000

> <Gold.PLP.part.metal>
0.0000

> <Gold.PLP.part.buried>
-4.4894

> <Gold.PLP.part.nonpolar>
-37.7866

> <Gold.PLP.part.repulsive>
0.0000

> <Gold.PLP.ligand.clash>
0.0000

> <Gold.PLP.ligand.torsion>
0.5976

> <Gold.PLP.Chemscore.Hbond>
2.0000

> <Gold.PLP.Chemscore.CHOScore>
0.0000

> <Gold.PLP.Chemscore.Metal>
0.0000

> <Gold.Chemscore.Hbonds>
donor molecule, donor type, donor heavy atom, donor atom, acceptor molecule, acceptor atom, score
      P1  H  6896  6909       L1    19  1.85

> <Gold.PLP.Chemscore.Internal.Correction>
0.5990

> <Gold.Rescore>
     Score         DG    S(hbond)    S(metal)    S(lipo)     H(rot)  DE(clash)    DE(int)     intcor
     13.53     -14.98       0.68        0.00      96.60       1.59       0.10       1.34       ----

> <Gold.Chemscore.Fitness>
13.5294

> <Gold.Chemscore.DG>
-14.9752

> <Gold.Chemscore.ZeroCoef>
-5.4800

> <Gold.Chemscore.Hbond>
0.6793

> <Gold.Chemscore.Metal>
0.0000

> <Gold.Chemscore.Lipo>
96.5976

> <Gold.Chemscore.Internal_Hbond>
0.0000

> <Gold.Chemscore.DEClash>
0.1024

> <Gold.Chemscore.DEInternal>
1.3434

> <Gold.Chemscore.Rot>
1.5920

> <Gold.Chemscore.Internal.Correction>
   9.000000E+99

> <Gold.Chemscore.Hbonds>
donor molecule, donor type, donor heavy atom, donor atom, acceptor molecule, acceptor atom, score
      P1  H  6896  6909       L1    19  0.20

> <Gold.Chemscore.Hbond.Weighted>
-2.2689

> <Gold.Chemscore.Metal.Weighted>
-0.0000

> <Gold.Chemscore.Lipo.Weighted>
-11.3019

> <Gold.Chemscore.Internal_Hbond.Weighted>
0.0000

> <Gold.Chemscore.DEClash.Weighted>
0.1024

> <Gold.Chemscore.DEInternal.Weighted>
1.3434

> <Gold.Chemscore.Rot.Weighted>
4.0756

> <Gold.Chemscore.Internal.Correction.Weighted>
   9.000000E+99

> <Gold.Protein.RotatedTorsions>
[ 6907 6896 6895 6894 ] final -172.26 input  -60.11 | X-H torsion
[ 7974 7965 7964 7962 ] final -159.16 input  175.53 | X-H torsion
[ 8008 7997 7996 7995 ] final   31.93 input   59.86 | X-H torsion
[ 10167 10162 10161 10158 ] final  117.30 input  -65.29 | X-H torsion
[ 10718 10713 10712 10709 ] final  143.01 input   66.30 | X-H torsion
[ 10763 10752 10751 10750 ] final   55.10 input  -60.55 | X-H torsion
[ 11005 11000 10999 10996 ] final  173.52 input  -57.11 | X-H torsion

> <Gold.Protein.ActiveResidues>
 VAL166  LYS551  ARG553  GLY616  TRP617  ASP618  TYR619  PRO620  LYS621  CYS622 
 ASP623  PHE694  ASN695  SER759  ASP760  ASP761  ALA762  ILE779  LEU786  VAL792 
 PHE793  MET794  SER795  GLU796  ALA797  LYS798  CYS799  TRP800  GLU811  SER814 

> <Gold.Protein.RotatedAtoms>
  151.5371  133.3439  159.2928 H   0  0  0  0  0  0  0  0  0  0  0  0  # atno 6907 bound_to 6896
  150.8558  134.7899  159.7055 H   0  0  0  0  0  0  0  0  0  0  0  0  # atno 6908 bound_to 6896
  152.4592  134.5232  159.9840 H   0  0  0  0  0  0  0  0  0  0  0  0  # atno 6909 bound_to 6896
  144.7476  140.3724  143.6073 H   0  0  0  0  0  0  0  0  0  0  0  0  # atno 7974 bound_to 7965
  155.1143  140.3242  155.4513 H   0  0  0  0  0  0  0  0  0  0  0  0  # atno 8008 bound_to 7997
  156.2681  140.2038  156.6214 H   0  0  0  0  0  0  0  0  0  0  0  0  # atno 8009 bound_to 7997
  154.6732  140.0534  157.0174 H   0  0  0  0  0  0  0  0  0  0  0  0  # atno 8010 bound_to 7997
  139.6188  144.7097  151.2680 H   0  0  0  0  0  0  0  0  0  0  0  0  # atno 10167 bound_to 10162
  157.3739  131.0983  151.0802 H   0  0  0  0  0  0  0  0  0  0  0  0  # atno 10718 bound_to 10713
  152.9812  135.5722  154.5012 H   0  0  0  0  0  0  0  0  0  0  0  0  # atno 10763 bound_to 10752
  154.4531  135.2779  155.1769 H   0  0  0  0  0  0  0  0  0  0  0  0  # atno 10764 bound_to 10752
  154.3388  135.6234  153.5640 H   0  0  0  0  0  0  0  0  0  0  0  0  # atno 10765 bound_to 10752
  140.3414  134.7273  157.4205 H   0  0  0  0  0  0  0  0  0  0  0  0  # atno 11005 bound_to 11000
  145.7063  139.1673  143.2564 LP  0  0  0  0  0  0  0  0  0  0  0  0  # atno 17320 bound_to 7965
  146.1379  140.7098  142.9381 LP  0  0  0  0  0  0  0  0  0  0  0  0  # atno 17321 bound_to 7965
  140.7368  143.6695  150.8094 LP  0  0  0  0  0  0  0  0  0  0  0  0  # atno 17342 bound_to 10162
  140.0302  143.5451  152.2763 LP  0  0  0  0  0  0  0  0  0  0  0  0  # atno 17343 bound_to 10162
  157.1896  130.6346  149.5700 LP  0  0  0  0  0  0  0  0  0  0  0  0  # atno 17370 bound_to 10713
  155.9761  130.4726  150.6506 LP  0  0  0  0  0  0  0  0  0  0  0  0  # atno 17371 bound_to 10713
  140.0778  134.5773  155.8573 LP  0  0  0  0  0  0  0  0  0  0  0  0  # atno 17394 bound_to 11000
  141.2037  133.6634  156.6080 LP  0  0  0  0  0  0  0  0  0  0  0  0  # atno 17395 bound_to 11000

$$$$
