#       Name:                AV-unprocessed.smi:1920
#       Creating user name   scv26
#       Creation time:       Fri Mar 27 09:52:24 2020


#       File generated by GOLD software.
#

@<TRIPOS>MOLECULE
AV-unprocessed.smi:1920
    39    40     1
SMALL
NO_CHARGES


@<TRIPOS>ATOM
      1 ****        -2.1489  -2.8079  -2.0984 C.3            1 S1                 0.0000
      2 ****        -1.9174  -1.5534  -1.2454 C.3            1 S1                 0.0000
      3 ****        -2.4061  -1.7654   0.2032 C.3            1 S1                 0.0000
      4 ****        -2.3816  -0.5355   1.0024 N.pl3          1 S1                 0.0000
      5 ****        -3.2015   0.5560   0.8709 C.2            1 S1                 0.0000
      6 ****        -2.8087   1.4574   1.8263 C.2            1 S1                 0.0000
      7 ****        -1.7726   0.8751   2.5058 N.pl3          1 S1                 1.0000
      8 ****        -1.5164  -0.3379   2.0056 C.2            1 S1                 0.0000
      9 ****        -0.4945  -1.2171  -1.2751 N.am           1 S1                 0.0000
     10 ****         0.0196   0.0214  -1.3432 C.2            1 S1                 0.0000
     11 ****        -0.6720   1.0394  -1.3806 O.2            1 S1                 0.0000
     12 ****         1.5498   0.1181  -1.3653 C.3            1 S1                 0.0000
     13 ****         2.1209   1.3492  -0.6257 C.3            1 S1                 0.0000
     14 ****         1.7612   1.4005   0.8397 C.2            1 S1                 0.0000
     15 ****         2.8273   1.4993   1.6300 C.2            1 S1                 0.0000
     16 ****         4.1156   1.5328   0.8567 C.3            1 S1                 0.0000
     17 ****         3.6712   1.3835  -0.6158 C.3            1 S1                 0.0000
     18 ****        -3.2061  -3.0733  -2.1266 H              1 S1                 0.0000
     19 ****        -1.6016  -3.6648  -1.7036 H              1 S1                 0.0000
     20 ****        -1.8238  -2.6493  -3.1273 H              1 S1                 0.0000
     21 ****        -2.4972  -0.7475  -1.6989 H              1 S1                 0.0000
     22 ****        -3.4367  -2.1228   0.2048 H              1 S1                 0.0000
     23 ****        -1.8083  -2.5260   0.7087 H              1 S1                 0.0000
     24 ****        -3.9781   0.6113   0.1217 H              1 S1                 0.0000
     25 ****        -3.1801   2.4428   2.0674 H              1 S1                 0.0000
     26 ****        -0.7543  -1.0185   2.3413 H              1 S1                 0.0000
     27 ****         0.1533  -1.9918  -1.2541 H              1 S1                 0.0000
     28 ****         1.9701  -0.7915  -0.9328 H              1 S1                 0.0000
     29 ****         1.8695   0.1386  -2.4076 H              1 S1                 0.0000
     30 ****         1.7454   2.2629  -1.0889 H              1 S1                 0.0000
     31 ****         0.7383   1.3791   1.1830 H              1 S1                 0.0000
     32 ****         2.8010   1.5624   2.7079 H              1 S1                 0.0000
     33 ****         4.6315   2.4779   1.0285 H              1 S1                 0.0000
     34 ****         4.7684   0.7168   1.1682 H              1 S1                 0.0000
     35 ****         4.0895   0.4687  -1.0381 H              1 S1                 0.0000
     36 ****         4.0453   2.2100  -1.2212 H              1 S1                 0.0000
     37 ****        -1.2702   1.2996   3.2754 H              1 S1                 0.0000
     38 ****        -1.6693   0.9674  -1.3605 LP             1 S1                 0.0000
     39 ****        -0.2365   1.9382  -1.4310 LP             1 S1                 0.0000
@<TRIPOS>BOND
    1    1    2 1     
    2    1   18 1     
    3    1   19 1     
    4    1   20 1     
    5    2    3 1     
    6    2    9 1     
    7    2   21 1     
    8    3    4 1     
    9    3   22 1     
   10    3   23 1     
   11    4    8 1     
   12    4    5 1     
   13    5    6 2     
   14    5   24 1     
   15    6    7 1     
   16    6   25 1     
   17    7    8 2     
   18    7   37 1     
   19    8   26 1     
   20    9   10 am    
   21    9   27 1     
   22   10   11 2     
   23   10   12 1     
   24   12   13 1     
   25   12   28 1     
   26   12   29 1     
   27   13   17 1     
   28   13   14 1     
   29   13   30 1     
   30   14   15 2     
   31   14   31 1     
   32   15   16 1     
   33   15   32 1     
   34   16   17 1     
   35   16   33 1     
   36   16   34 1     
   37   17   35 1     
   38   17   36 1     
   39   11   38 1     
   40   11   39 1     
@<TRIPOS>SUBSTRUCTURE
      1 S1             1
@<TRIPOS>SET
LONE_PAIRS      STATIC     ATOMS    <user>   **** ""
2 38 39
DONOR_HYDROGENS      STATIC     ATOMS    <user>   **** ""
2 37 27
ATOM$BLUE        STATIC     ATOMS    COLORGROUP SYSTEM
2 38 39
ATOM$RED        STATIC     ATOMS    COLORGROUP SYSTEM
2 37 27
