AV-unprocessed.smi:1855|AV-procd|sdf|7532|dock10
  -GOLD-   22720 9243D 1   1.00000     0.00000
 Structure written by MMmdl.
 44 46  0  0  0  0  0  0  0  0  2 V2000
  153.7600  141.6502  161.4359 C   0  0  0  0  0  0  0  0  0  0  0  0
  152.8565  141.3692  160.3777 O   0  0  0  0  0  0  0  0  0  0  0  0
  152.5241  142.3905  159.5111 C   0  0  0  0  0  0  0  0  0  0  0  0
  153.0223  143.7132  159.6236 C   0  0  0  0  0  0  0  0  0  0  0  0
  152.6326  144.7029  158.7027 C   0  0  0  0  0  0  0  0  0  0  0  0
  151.7450  144.3841  157.6607 C   0  0  0  0  0  0  0  0  0  0  0  0
  151.2446  143.0750  157.5396 C   0  0  0  0  0  0  0  0  0  0  0  0
  151.6295  142.0726  158.4640 C   0  0  0  0  0  0  0  0  0  0  0  0
  151.1831  140.7710  158.4084 O   0  0  0  0  0  0  0  0  0  0  0  0
  150.2126  140.4172  157.4339 C   0  0  0  0  0  0  0  0  0  0  0  0
  150.8746  140.4466  156.0484 C   0  0  0  0  0  0  0  0  0  0  0  0
  150.0038  139.8731  155.0089 N   0  0  0  0  0  0  0  0  0  0  0  0
  150.1226  138.7157  154.2952 C   0  0  0  0  0  0  0  0  0  0  0  0
  151.2060  137.6887  154.4056 C   0  0  0  0  0  0  0  0  0  0  0  0
  150.7102  136.3242  154.2717 N   0  0  0  0  0  0  0  0  0  0  0  0
  150.1694  135.6032  155.2641 C   0  0  0  0  0  0  0  0  0  0  0  0
  150.0123  136.0109  156.4136 O   0  0  0  0  0  0  0  0  0  0  0  0
  149.0618  138.6583  153.4408 N   0  3  0  0  0  0  0  0  0  0  0  0
  148.2619  139.7895  153.6017 C   0  0  0  0  0  0  0  0  0  0  0  0
  147.0926  140.1774  152.9546 C   0  0  0  0  0  0  0  0  0  0  0  0
  146.5286  141.4078  153.3504 C   0  0  0  0  0  0  0  0  0  0  0  0
  147.1231  142.1983  154.3551 C   0  0  0  0  0  0  0  0  0  0  0  0
  148.3045  141.7908  155.0080 C   0  0  0  0  0  0  0  0  0  0  0  0
  148.8591  140.5746  154.6086 C   0  0  0  0  0  0  0  0  0  0  0  0
  153.9096  140.7476  162.0282 H   0  0  0  0  0  0  0  0  0  0  0  0
  153.3677  142.4199  162.1017 H   0  0  0  0  0  0  0  0  0  0  0  0
  154.7341  141.9613  161.0565 H   0  0  0  0  0  0  0  0  0  0  0  0
  153.7064  143.9948  160.4095 H   0  0  0  0  0  0  0  0  0  0  0  0
  153.0171  145.7079  158.7956 H   0  0  0  0  0  0  0  0  0  0  0  0
  151.4485  145.1436  156.9522 H   0  0  0  0  0  0  0  0  0  0  0  0
  150.5693  142.8615  156.7251 H   0  0  0  0  0  0  0  0  0  0  0  0
  149.8258  139.4154  157.6281 H   0  0  0  0  0  0  0  0  0  0  0  0
  149.3754  141.1159  157.4615 H   0  0  0  0  0  0  0  0  0  0  0  0
  151.1112  141.4720  155.7659 H   0  0  0  0  0  0  0  0  0  0  0  0
  151.8228  139.9092  156.0566 H   0  0  0  0  0  0  0  0  0  0  0  0
  151.9361  137.8674  153.6161 H   0  0  0  0  0  0  0  0  0  0  0  0
  151.7415  137.8015  155.3489 H   0  0  0  0  0  0  0  0  0  0  0  0
  150.7950  135.8923  153.3630 H   0  0  0  0  0  0  0  0  0  0  0  0
  149.8855  134.5999  154.9111 H   0  0  0  0  0  0  0  0  0  0  0  0
  146.6367  139.5748  152.1831 H   0  0  0  0  0  0  0  0  0  0  0  0
  145.6234  141.7535  152.8728 H   0  0  0  0  0  0  0  0  0  0  0  0
  146.6652  143.1375  154.6297 H   0  0  0  0  0  0  0  0  0  0  0  0
  148.7553  142.4093  155.7698 H   0  0  0  0  0  0  0  0  0  0  0  0
  148.9026  137.8997  152.7905 H   0  0  0  0  0  0  0  0  0  0  0  0
  1  2  1  0  0  0  0
  1 25  1  0  0  0  0
  1 26  1  0  0  0  0
  1 27  1  0  0  0  0
  2  3  1  0  0  0  0
  3  8  1  0  0  0  0
  3  4  2  0  0  0  0
  4  5  1  0  0  0  0
  4 28  1  0  0  0  0
  5  6  2  0  0  0  0
  5 29  1  0  0  0  0
  6  7  1  0  0  0  0
  6 30  1  0  0  0  0
  7  8  2  0  0  0  0
  7 31  1  0  0  0  0
  8  9  1  0  0  0  0
  9 10  1  0  0  0  0
 10 11  1  0  0  0  0
 10 32  1  0  0  0  0
 10 33  1  0  0  0  0
 11 12  1  0  0  0  0
 11 34  1  0  0  0  0
 11 35  1  0  0  0  0
 12 24  1  0  0  0  0
 12 13  1  0  0  0  0
 13 14  1  0  0  0  0
 13 18  2  0  0  0  0
 14 15  1  0  0  0  0
 14 36  1  0  0  0  0
 14 37  1  0  0  0  0
 15 16  1  0  0  0  0
 15 38  1  0  0  0  0
 16 17  2  0  0  0  0
 16 39  1  0  0  0  0
 18 19  1  0  0  0  0
 18 44  1  0  0  0  0
 19 24  2  0  0  0  0
 19 20  1  0  0  0  0
 20 21  2  0  0  0  0
 20 40  1  0  0  0  0
 21 22  1  0  0  0  0
 21 41  1  0  0  0  0
 22 23  2  0  0  0  0
 22 42  1  0  0  0  0
 23 24  1  0  0  0  0
 23 43  1  0  0  0  0
M  CHG  1  18   1
M  END
> <s_m_source_file>
AV-unprocessed.smi

> <i_m_source_file_index>
1855

> <i_lp_mmshare_version>
43012

> <i_f3d_flags>
0

> <s_epik_input>
W0NIM11PYzFbY0hdW2NIXVtjSF1bY0hdYzFPW0NIMl1bQ0gyXW4oYyhuMilbQ0gyXVtOSF1bQ0hdPU8pYyhjMjMpW2NIXVtjSF1bY0hdW2NIXTM=

> <s_epik_cmdline>
J2VwaWtfcHl0aG9uJywgJy1waCcsICc3LjAnLCAnLXRuJywgJzgnLCAnLW1hJywgJzIwMCcsICctbWV0YWxfYmluZGluZycsICctaW1hZScsICc8aW5maWxlLm1hZT4nLCAnLW9tYWUnLCAnPG91dGZpbGUubWFlPic=

> <r_lp_tautomer_probability>
1

> <r_epik_Ionization_Penalty>
1.39865

> <r_epik_Ionization_Penalty_Charging>
1.39865

> <r_epik_Ionization_Penalty_Neutral>
7.38905e-08

> <r_epik_State_Penalty>
1.48061

> <r_epik_Charging_Adjusted_Penalty>
2.87925

> <i_epik_Tot_Q>
1

> <i_epik_Tot_abs_Q>
1

> <r_epik_Metal_State_Penalty>
1.53473

> <b_epik_Metal_Only>
0

> <s_lp_Force_Field>
OPLS_2005

> <r_lp_Energy>
17.0983

> <b_lp_Chiralities_Consistent>
1

> <s_lp_Variant>
AV-unprocessed.smi:1855-2

> <Gold.Version>
5.8.1

> <Gold.Id.Protein>
6NUR|6NUR_protein|mol2

> <Gold.PLP.Fitness>
62.3107

> <Gold.PLP.PLP>
-54.4296

> <Gold.PLP.part.hbond>
-3.8815

> <Gold.PLP.part.metal>
0.0000

> <Gold.PLP.part.buried>
-0.0039

> <Gold.PLP.part.nonpolar>
-52.1603

> <Gold.PLP.part.repulsive>
0.6149

> <Gold.PLP.ligand.clash>
0.0000

> <Gold.PLP.ligand.torsion>
0.6338

> <Gold.PLP.Chemscore.Hbond>
3.0000

> <Gold.PLP.Chemscore.CHOScore>
0.0000

> <Gold.PLP.Chemscore.Metal>
0.0000

> <Gold.Chemscore.Hbonds>
donor molecule, donor type, donor heavy atom, donor atom, acceptor molecule, acceptor atom, score
      L1  H    15    38       P1  7949  0.55
      L1  H    18    44       P1  7948  2.00

> <Gold.PLP.Chemscore.Internal.Correction>
0.1488

> <Gold.Rescore>
     Score         DG    S(hbond)    S(metal)    S(lipo)     H(rot)  DE(clash)    DE(int)     intcor
     16.45     -19.36       1.34        0.00     141.82       2.81       2.37       0.55       ----

> <Gold.Chemscore.Fitness>
16.4496

> <Gold.Chemscore.DG>
-19.3607

> <Gold.Chemscore.ZeroCoef>
-5.4800

> <Gold.Chemscore.Hbond>
1.3423

> <Gold.Chemscore.Metal>
0.0000

> <Gold.Chemscore.Lipo>
141.8208

> <Gold.Chemscore.Internal_Hbond>
0.0000

> <Gold.Chemscore.DEClash>
2.3656

> <Gold.Chemscore.DEInternal>
0.5456

> <Gold.Chemscore.Rot>
2.8108

> <Gold.Chemscore.Internal.Correction>
   9.000000E+99

> <Gold.Chemscore.Hbonds>
donor molecule, donor type, donor heavy atom, donor atom, acceptor molecule, acceptor atom, score
      L1  H    15    38       P1  7949  0.03
      L1  H    18    44       P1  7948  1.00

> <Gold.Chemscore.Hbond.Weighted>
-4.4833

> <Gold.Chemscore.Metal.Weighted>
-0.0000

> <Gold.Chemscore.Lipo.Weighted>
-16.5930

> <Gold.Chemscore.Internal_Hbond.Weighted>
0.0000

> <Gold.Chemscore.DEClash.Weighted>
2.3656

> <Gold.Chemscore.DEInternal.Weighted>
0.5456

> <Gold.Chemscore.Rot.Weighted>
7.1955

> <Gold.Chemscore.Internal.Correction.Weighted>
   9.000000E+99

> <Gold.Protein.RotatedTorsions>
[ 6907 6896 6895 6894 ] final -178.12 input  -60.11 | X-H torsion
[ 7974 7965 7964 7962 ] final  -13.87 input  175.53 | X-H torsion
[ 8008 7997 7996 7995 ] final  132.72 input   59.86 | X-H torsion
[ 10167 10162 10161 10158 ] final -156.94 input  -65.29 | X-H torsion
[ 10718 10713 10712 10709 ] final  161.46 input   66.30 | X-H torsion
[ 10763 10752 10751 10750 ] final  125.50 input  -60.55 | X-H torsion
[ 11005 11000 10999 10996 ] final  -88.26 input  -57.11 | X-H torsion

> <Gold.Protein.ActiveResidues>
 VAL166  LYS551  ARG553  GLY616  TRP617  ASP618  TYR619  PRO620  LYS621  CYS622 
 ASP623  PHE694  ASN695  SER759  ASP760  ASP761  ALA762  ILE779  LEU786  VAL792 
 PHE793  MET794  SER795  GLU796  ALA797  LYS798  CYS799  TRP800  GLU811  SER814 

> <Gold.Protein.RotatedAtoms>
  151.6320  133.3331  159.3110 H   0  0  0  0  0  0  0  0  0  0  0  0  # atno 6907 bound_to 6896
  150.8051  134.7175  159.6648 H   0  0  0  0  0  0  0  0  0  0  0  0  # atno 6908 bound_to 6896
  152.4146  134.6068  160.0066 H   0  0  0  0  0  0  0  0  0  0  0  0  # atno 6909 bound_to 6896
  146.2097  140.3266  142.8395 H   0  0  0  0  0  0  0  0  0  0  0  0  # atno 7974 bound_to 7965
  156.2985  140.2539  156.3135 H   0  0  0  0  0  0  0  0  0  0  0  0  # atno 8008 bound_to 7997
  154.9303  140.0398  157.2063 H   0  0  0  0  0  0  0  0  0  0  0  0  # atno 8009 bound_to 7997
  154.8224  140.2862  155.5782 H   0  0  0  0  0  0  0  0  0  0  0  0  # atno 8010 bound_to 7997
  139.6810  143.9581  152.2336 H   0  0  0  0  0  0  0  0  0  0  0  0  # atno 10167 bound_to 10162
  157.1362  131.0529  151.2348 H   0  0  0  0  0  0  0  0  0  0  0  0  # atno 10718 bound_to 10713
  153.6784  135.3318  155.3172 H   0  0  0  0  0  0  0  0  0  0  0  0  # atno 10763 bound_to 10752
  154.8472  135.4403  154.1632 H   0  0  0  0  0  0  0  0  0  0  0  0  # atno 10764 bound_to 10752
  153.2642  135.6994  153.7624 H   0  0  0  0  0  0  0  0  0  0  0  0  # atno 10765 bound_to 10752
  141.1604  133.7559  156.9425 H   0  0  0  0  0  0  0  0  0  0  0  0  # atno 11005 bound_to 11000
  144.8882  140.7489  143.5944 LP  0  0  0  0  0  0  0  0  0  0  0  0  # atno 17320 bound_to 7965
  145.3188  139.1795  143.4599 LP  0  0  0  0  0  0  0  0  0  0  0  0  # atno 17321 bound_to 7965
  139.9371  144.6705  150.8303 LP  0  0  0  0  0  0  0  0  0  0  0  0  # atno 17342 bound_to 10162
  140.7652  143.3269  151.2496 LP  0  0  0  0  0  0  0  0  0  0  0  0  # atno 17343 bound_to 10162
  157.4348  130.7511  149.7020 LP  0  0  0  0  0  0  0  0  0  0  0  0  # atno 17370 bound_to 10713
  155.9798  130.4036  150.3568 LP  0  0  0  0  0  0  0  0  0  0  0  0  # atno 17371 bound_to 10713
  140.1312  134.9355  157.2339 LP  0  0  0  0  0  0  0  0  0  0  0  0  # atno 17394 bound_to 11000
  140.2951  134.3195  155.7304 LP  0  0  0  0  0  0  0  0  0  0  0  0  # atno 17395 bound_to 11000

$$$$
