#       Name:                AV-unprocessed.smi:440
#       Creating user name   scv26
#       Creation time:       Thu Mar 26 22:56:56 2020


#       File generated by GOLD software.
#

@<TRIPOS>MOLECULE
AV-unprocessed.smi:440
    44    45     1
SMALL
NO_CHARGES


@<TRIPOS>ATOM
      1 ****        -1.6367   1.8382  -1.0900 C.3            1 S1                 0.0000
      2 ****        -0.4932   0.9338  -0.7282 C.2            1 S1                 0.0000
      3 ****         0.6874   1.4609  -0.4540 N.2            1 S1                 0.0000
      4 ****         1.4825   0.4073  -0.1749 N.pl3          1 S1                 0.0000
      5 ****         2.8768   0.6444   0.1685 C.3            1 S1                 0.0000
      6 ****         3.8439   0.4189  -1.0141 C.3            1 S1                 0.0000
      7 ****         5.2971   0.6550  -0.5775 C.3            1 S1                 0.0000
      8 ****         3.4974   1.2726  -2.2466 C.3            1 S1                 0.0000
      9 ****         0.7951  -0.7898  -0.2630 C.2            1 S1                 0.0000
     10 ****         1.4398  -2.1113   0.0095 C.3            1 S1                 0.0000
     11 ****        -0.4913  -0.4881  -0.6235 C.2            1 S1                 0.0000
     12 ****        -1.6486  -1.4266  -0.8552 C.3            1 S1                 0.0000
     13 ****        -2.3557  -1.7105   0.4702 C.2            1 S1                 0.0000
     14 ****        -2.1302  -2.7584   1.0754 O.2            1 S1                 0.0000
     15 ****        -3.2021  -0.7659   0.9067 N.am           1 S1                 0.0000
     16 ****        -3.9409  -0.8105   2.1260 C.3            1 S1                 0.0000
     17 ****        -5.3311  -0.2127   2.1292 C.3            1 S1                 0.0000
     18 ****        -4.2081   0.5037   2.8274 C.3            1 S1                 0.0000
     19 ****        -2.1061   1.5201  -2.0211 H              1 S1                 0.0000
     20 ****        -1.3102   2.8705  -1.2222 H              1 S1                 0.0000
     21 ****        -2.4004   1.8300  -0.3124 H              1 S1                 0.0000
     22 ****         2.9763   1.6653   0.5413 H              1 S1                 0.0000
     23 ****         3.1404  -0.0077   1.0016 H              1 S1                 0.0000
     24 ****         3.7662  -0.6262  -1.3146 H              1 S1                 0.0000
     25 ****         5.4533   1.6873  -0.2629 H              1 S1                 0.0000
     26 ****         5.9922   0.4461  -1.3911 H              1 S1                 0.0000
     27 ****         5.5666   0.0079   0.2578 H              1 S1                 0.0000
     28 ****         3.5061   2.3359  -2.0052 H              1 S1                 0.0000
     29 ****         2.5114   1.0279  -2.6418 H              1 S1                 0.0000
     30 ****         4.2148   1.1086  -3.0511 H              1 S1                 0.0000
     31 ****         0.7008  -2.9119   0.0392 H              1 S1                 0.0000
     32 ****         1.9551  -2.1054   0.9699 H              1 S1                 0.0000
     33 ****         2.1651  -2.3569  -0.7657 H              1 S1                 0.0000
     34 ****        -2.3674  -1.0094  -1.5614 H              1 S1                 0.0000
     35 ****        -1.3155  -2.3691  -1.2911 H              1 S1                 0.0000
     36 ****        -3.3171   0.0604   0.3381 H              1 S1                 0.0000
     37 ****        -3.7886  -1.6738   2.7725 H              1 S1                 0.0000
     38 ****        -5.7023   0.2185   1.2012 H              1 S1                 0.0000
     39 ****        -6.0824  -0.6949   2.7513 H              1 S1                 0.0000
     40 ****        -4.2090   0.4997   3.9156 H              1 S1                 0.0000
     41 ****        -3.8301   1.4142   2.3654 H              1 S1                 0.0000
     42 ****         0.9368   2.4293  -0.4535 LP             1 S1                 0.0000
     43 ****        -1.4847  -3.4235   0.7001 LP             1 S1                 0.0000
     44 ****        -2.5925  -2.9445   1.9424 LP             1 S1                 0.0000
@<TRIPOS>BOND
    1    1    2 1     
    2    1   19 1     
    3    1   20 1     
    4    1   21 1     
    5    2   11 1     
    6    2    3 2     
    7    3    4 1     
    8    4    5 1     
    9    4    9 1     
   10    5    6 1     
   11    5   22 1     
   12    5   23 1     
   13    6    7 1     
   14    6    8 1     
   15    6   24 1     
   16    7   25 1     
   17    7   26 1     
   18    7   27 1     
   19    8   28 1     
   20    8   29 1     
   21    8   30 1     
   22    9   10 1     
   23    9   11 2     
   24   10   31 1     
   25   10   32 1     
   26   10   33 1     
   27   11   12 1     
   28   12   13 1     
   29   12   34 1     
   30   12   35 1     
   31   13   14 2     
   32   13   15 am    
   33   15   16 1     
   34   15   36 1     
   35   16   18 1     
   36   16   17 1     
   37   16   37 1     
   38   17   18 1     
   39   17   38 1     
   40   17   39 1     
   41   18   40 1     
   42   18   41 1     
   43    3   42 1     
   44   14   43 1     
   45   14   44 1     
@<TRIPOS>SUBSTRUCTURE
      1 S1             1
@<TRIPOS>SET
LONE_PAIRS      STATIC     ATOMS    <user>   **** ""
3 42 43 44
DONOR_HYDROGENS      STATIC     ATOMS    <user>   **** ""
1 36
ATOM$BLUE        STATIC     ATOMS    COLORGROUP SYSTEM
3 42 43 44
ATOM$RED        STATIC     ATOMS    COLORGROUP SYSTEM
1 36
