AV-unprocessed.smi:908|AV-procd|sdf|4114|dock9
  -GOLD-   22720 2 13D 1   1.00000     0.00000
 Structure written by MMmdl.
 38 38  0  0  0  0  0  0  0  0  1 V2000
  144.9173  143.6835  155.6075 C   0  0  0  0  0  0  0  0  0  0  0  0
  145.0705  143.0220  154.2339 C   0  0  0  0  0  0  0  0  0  0  0  0
  146.5427  142.8297  153.8354 C   0  0  0  0  0  0  0  0  0  0  0  0
  147.3239  142.2678  154.9311 N   0  0  0  0  0  0  0  0  0  0  0  0
  148.5406  141.7163  154.8075 C   0  0  0  0  0  0  0  0  0  0  0  0
  149.1254  141.6049  153.7287 O   0  0  0  0  0  0  0  0  0  0  0  0
  149.1787  141.1954  156.1007 C   0  0  0  0  0  0  0  0  0  0  0  0
  150.0374  142.1867  156.7427 N   0  0  0  0  0  0  0  0  0  0  0  0
  151.0797  141.9073  157.5429 C   0  0  0  0  0  0  0  0  0  0  0  0
  151.4327  140.7598  157.8139 O   0  0  0  0  0  0  0  0  0  0  0  0
  151.8288  143.0984  158.1487 C   0  0  0  0  0  0  0  0  0  0  0  0
  152.3990  142.7836  159.4512 N   0  0  0  0  0  0  0  0  0  0  0  0
  153.2054  141.6974  159.5682 N   0  0  0  0  0  0  0  0  0  0  0  0
  153.5737  141.6660  160.8399 C   0  0  0  0  0  0  0  0  0  0  0  0
  154.4874  140.5810  161.3308 C   0  0  0  0  0  0  0  0  0  0  0  0
  152.9949  142.7486  161.5518 C   0  0  0  0  0  0  0  0  0  0  0  0
  153.2026  143.1056  163.2281 Cl  0  0  0  0  0  0  0  0  0  0  0  0
  152.2456  143.4527  160.6563 C   0  0  0  0  0  0  0  0  0  0  0  0
  151.4096  144.6813  160.8172 C   0  0  0  0  0  0  0  0  0  0  0  0
  143.8649  143.8104  155.8621 H   0  0  0  0  0  0  0  0  0  0  0  0
  145.3854  144.6680  155.6252 H   0  0  0  0  0  0  0  0  0  0  0  0
  145.3779  143.0783  156.3889 H   0  0  0  0  0  0  0  0  0  0  0  0
  144.5600  142.0581  154.2445 H   0  0  0  0  0  0  0  0  0  0  0  0
  144.5642  143.6308  153.4836 H   0  0  0  0  0  0  0  0  0  0  0  0
  146.6114  142.1471  152.9879 H   0  0  0  0  0  0  0  0  0  0  0  0
  146.9785  143.7755  153.5084 H   0  0  0  0  0  0  0  0  0  0  0  0
  146.9146  142.3133  155.8531 H   0  0  0  0  0  0  0  0  0  0  0  0
  148.4065  140.8602  156.7958 H   0  0  0  0  0  0  0  0  0  0  0  0
  149.7847  140.3216  155.8607 H   0  0  0  0  0  0  0  0  0  0  0  0
  149.8115  143.1570  156.5800 H   0  0  0  0  0  0  0  0  0  0  0  0
  152.6215  143.4128  157.4695 H   0  0  0  0  0  0  0  0  0  0  0  0
  151.1517  143.9474  158.2558 H   0  0  0  0  0  0  0  0  0  0  0  0
  154.4275  140.4737  162.4137 H   0  0  0  0  0  0  0  0  0  0  0  0
  155.5243  140.7997  161.0757 H   0  0  0  0  0  0  0  0  0  0  0  0
  154.2308  139.6173  160.8900 H   0  0  0  0  0  0  0  0  0  0  0  0
  151.4361  145.0432  161.8449 H   0  0  0  0  0  0  0  0  0  0  0  0
  150.3692  144.4790  160.5626 H   0  0  0  0  0  0  0  0  0  0  0  0
  151.7677  145.4838  160.1726 H   0  0  0  0  0  0  0  0  0  0  0  0
  1  2  1  0  0  0  0
  1 20  1  0  0  0  0
  1 21  1  0  0  0  0
  1 22  1  0  0  0  0
  2  3  1  0  0  0  0
  2 23  1  0  0  0  0
  2 24  1  0  0  0  0
  3  4  1  0  0  0  0
  3 25  1  0  0  0  0
  3 26  1  0  0  0  0
  4  5  1  0  0  0  0
  4 27  1  0  0  0  0
  5  6  2  0  0  0  0
  5  7  1  0  0  0  0
  7  8  1  0  0  0  0
  7 28  1  0  0  0  0
  7 29  1  0  0  0  0
  8  9  1  0  0  0  0
  8 30  1  0  0  0  0
  9 10  2  0  0  0  0
  9 11  1  0  0  0  0
 11 12  1  0  0  0  0
 11 31  1  0  0  0  0
 11 32  1  0  0  0  0
 12 18  1  0  0  0  0
 12 13  1  0  0  0  0
 13 14  2  0  0  0  0
 14 15  1  0  0  0  0
 14 16  1  0  0  0  0
 15 33  1  0  0  0  0
 15 34  1  0  0  0  0
 15 35  1  0  0  0  0
 16 17  1  0  0  0  0
 16 18  2  0  0  0  0
 18 19  1  0  0  0  0
 19 36  1  0  0  0  0
 19 37  1  0  0  0  0
 19 38  1  0  0  0  0
M  END
> <s_m_source_file>
AV-unprocessed.smi

> <i_m_source_file_index>
908

> <i_lp_mmshare_version>
43012

> <i_f3d_flags>
0

> <s_epik_input>
W0NIM11bQ0gyXVtDSDJdW05IXUMoPU8pW0NIMl1bTkhdQyg9TylbQ0gyXW4xbmMoW0NIM10pYyhDbCljMVtDSDNd

> <s_epik_cmdline>
J2VwaWtfcHl0aG9uJywgJy1waCcsICc3LjAnLCAnLXRuJywgJzgnLCAnLW1hJywgJzIwMCcsICctbWV0YWxfYmluZGluZycsICctaW1hZScsICc8aW5maWxlLm1hZT4nLCAnLW9tYWUnLCAnPG91dGZpbGUubWFlPic=

> <r_lp_tautomer_probability>
1

> <r_epik_Ionization_Penalty>
3.40177e-06

> <r_epik_Ionization_Penalty_Charging>
0

> <r_epik_Ionization_Penalty_Neutral>
3.40177e-06

> <r_epik_State_Penalty>
-0

> <r_epik_Charging_Adjusted_Penalty>
0

> <i_epik_Tot_Q>
0

> <i_epik_Tot_abs_Q>
0

> <r_epik_Metal_State_Penalty>
-0

> <b_epik_Metal_Only>
0

> <s_lp_Force_Field>
OPLS_2005

> <r_lp_Energy>
0.427377

> <b_lp_Chiralities_Consistent>
1

> <s_lp_Variant>
AV-unprocessed.smi:908-1

> <Gold.Version>
5.8.1

> <Gold.Id.Protein>
6NUR|6NUR_protein|mol2

> <Gold.PLP.Fitness>
48.8978

> <Gold.PLP.PLP>
-45.9994

> <Gold.PLP.part.hbond>
-3.4667

> <Gold.PLP.part.metal>
0.0000

> <Gold.PLP.part.buried>
-6.7184

> <Gold.PLP.part.nonpolar>
-36.7957

> <Gold.PLP.part.repulsive>
0.3645

> <Gold.PLP.ligand.clash>
0.0000

> <Gold.PLP.ligand.torsion>
1.1107

> <Gold.PLP.Chemscore.Hbond>
1.6880

> <Gold.PLP.Chemscore.CHOScore>
0.0000

> <Gold.PLP.Chemscore.Metal>
0.0000

> <Gold.Chemscore.Hbonds>
donor molecule, donor type, donor heavy atom, donor atom, acceptor molecule, acceptor atom, score
      L1  H     8    30       P1  8028  0.99
      P1  H  8011  8017       L1     6  0.70

> <Gold.PLP.Chemscore.Internal.Correction>
0.0559

> <Gold.Rescore>
     Score         DG    S(hbond)    S(metal)    S(lipo)     H(rot)  DE(clash)    DE(int)     intcor
     14.70     -17.36       1.72        0.00      98.96       2.13       0.22       2.45       ----

> <Gold.Chemscore.Fitness>
14.6951

> <Gold.Chemscore.DG>
-17.3622

> <Gold.Chemscore.ZeroCoef>
-5.4800

> <Gold.Chemscore.Hbond>
1.7234

> <Gold.Chemscore.Metal>
0.0000

> <Gold.Chemscore.Lipo>
98.9572

> <Gold.Chemscore.Internal_Hbond>
0.0000

> <Gold.Chemscore.DEClash>
0.2178

> <Gold.Chemscore.DEInternal>
2.4493

> <Gold.Chemscore.Rot>
2.1297

> <Gold.Chemscore.Internal.Correction>
   9.000000E+99

> <Gold.Chemscore.Hbonds>
donor molecule, donor type, donor heavy atom, donor atom, acceptor molecule, acceptor atom, score
      L1  H     8    30       P1  8028  0.91
      P1  H  8011  8017       L1     6  0.70

> <Gold.Chemscore.Hbond.Weighted>
-5.7562

> <Gold.Chemscore.Metal.Weighted>
-0.0000

> <Gold.Chemscore.Lipo.Weighted>
-11.5780

> <Gold.Chemscore.Internal_Hbond.Weighted>
0.0000

> <Gold.Chemscore.DEClash.Weighted>
0.2178

> <Gold.Chemscore.DEInternal.Weighted>
2.4493

> <Gold.Chemscore.Rot.Weighted>
5.4520

> <Gold.Chemscore.Internal.Correction.Weighted>
   9.000000E+99

> <Gold.Protein.RotatedTorsions>
[ 6907 6896 6895 6894 ] final   25.17 input  -60.11 | X-H torsion
[ 7974 7965 7964 7962 ] final  -47.24 input  175.53 | X-H torsion
[ 8008 7997 7996 7995 ] final  110.98 input   59.86 | X-H torsion
[ 10167 10162 10161 10158 ] final -109.33 input  -65.29 | X-H torsion
[ 10718 10713 10712 10709 ] final  -46.40 input   66.30 | X-H torsion
[ 10763 10752 10751 10750 ] final   82.79 input  -60.55 | X-H torsion
[ 11005 11000 10999 10996 ] final   95.20 input  -57.11 | X-H torsion

> <Gold.Protein.ActiveResidues>
 VAL166  LYS551  ARG553  GLY616  TRP617  ASP618  TYR619  PRO620  LYS621  CYS622 
 ASP623  PHE694  ASN695  SER759  ASP760  ASP761  ALA762  ILE779  LEU786  VAL792 
 PHE793  MET794  SER795  GLU796  ALA797  LYS798  CYS799  TRP800  GLU811  SER814 

> <Gold.Protein.RotatedAtoms>
  151.9686  135.0088  160.0551 H   0  0  0  0  0  0  0  0  0  0  0  0  # atno 6907 bound_to 6896
  152.1804  133.4699  159.4963 H   0  0  0  0  0  0  0  0  0  0  0  0  # atno 6908 bound_to 6896
  150.6916  134.1758  159.4272 H   0  0  0  0  0  0  0  0  0  0  0  0  # atno 6909 bound_to 6896
  145.9637  140.7454  142.9445 H   0  0  0  0  0  0  0  0  0  0  0  0  # atno 7974 bound_to 7965
  156.2092  140.3028  155.9694 H   0  0  0  0  0  0  0  0  0  0  0  0  # atno 8008 bound_to 7997
  155.2766  140.0436  157.3029 H   0  0  0  0  0  0  0  0  0  0  0  0  # atno 8009 bound_to 7997
  154.5675  140.2338  155.8249 H   0  0  0  0  0  0  0  0  0  0  0  0  # atno 8010 bound_to 7997
  140.1565  143.4155  152.1457 H   0  0  0  0  0  0  0  0  0  0  0  0  # atno 10167 bound_to 10162
  156.2187  130.4165  149.9021 H   0  0  0  0  0  0  0  0  0  0  0  0  # atno 10718 bound_to 10713
  153.1233  135.4715  154.9232 H   0  0  0  0  0  0  0  0  0  0  0  0  # atno 10763 bound_to 10752
  154.7596  135.3128  154.8405 H   0  0  0  0  0  0  0  0  0  0  0  0  # atno 10764 bound_to 10752
  153.8964  135.6879  153.4811 H   0  0  0  0  0  0  0  0  0  0  0  0  # atno 10765 bound_to 10752
  139.8791  134.8886  156.3977 H   0  0  0  0  0  0  0  0  0  0  0  0  # atno 11005 bound_to 11000
  144.6820  140.2633  143.7316 LP  0  0  0  0  0  0  0  0  0  0  0  0  # atno 17320 bound_to 7965
  145.8004  139.1962  143.2051 LP  0  0  0  0  0  0  0  0  0  0  0  0  # atno 17321 bound_to 7965
  139.5401  144.7248  151.4762 LP  0  0  0  0  0  0  0  0  0  0  0  0  # atno 17342 bound_to 10162
  140.6670  143.8377  150.6953 LP  0  0  0  0  0  0  0  0  0  0  0  0  # atno 17343 bound_to 10162
  156.6674  130.8806  151.3557 LP  0  0  0  0  0  0  0  0  0  0  0  0  # atno 17370 bound_to 10713
  157.7076  130.9403  150.0983 LP  0  0  0  0  0  0  0  0  0  0  0  0  # atno 17371 bound_to 10713
  140.9289  133.7593  155.9999 LP  0  0  0  0  0  0  0  0  0  0  0  0  # atno 17394 bound_to 11000
  140.8354  134.3129  157.5333 LP  0  0  0  0  0  0  0  0  0  0  0  0  # atno 17395 bound_to 11000

$$$$
