#       Name:                AV-unprocessed.smi:1730
#       Creating user name   scv26
#       Creation time:       Fri Mar 27 08:18:33 2020


#       File generated by GOLD software.
#

@<TRIPOS>MOLECULE
AV-unprocessed.smi:1730
    45    46     1
SMALL
NO_CHARGES


@<TRIPOS>ATOM
      1 ****        -3.0658  -3.9284  -0.9665 C.3            1 S1                 0.0000
      2 ****        -2.4173  -2.6618  -1.0017 O.3            1 S1                 0.0000
      3 ****        -3.1959  -1.5207  -0.9666 C.ar           1 S1                 0.0000
      4 ****        -4.5450  -1.6606  -0.9264 N.ar           1 S1                 0.0000
      5 ****        -5.3058  -0.5473  -0.8938 C.ar           1 S1                 0.0000
      6 ****        -4.7694   0.7533  -0.9069 C.ar           1 S1                 0.0000
      7 ****        -3.3708   0.9011  -0.9497 C.ar           1 S1                 0.0000
      8 ****        -2.5583  -0.2582  -0.9680 C.ar           1 S1                 0.0000
      9 ****        -1.1384  -0.2209  -1.0290 N.am           1 S1                 0.0000
     10 ****        -0.3109   0.7507  -0.6096 C.2            1 S1                 0.0000
     11 ****        -0.6632   1.8018  -0.0748 O.2            1 S1                 0.0000
     12 ****         0.9697   0.4181  -0.8266 N.am           1 S1                 0.0000
     13 ****         2.1372   1.2300  -0.4863 C.3            1 S1                 0.0000
     14 ****         3.0438   1.3333  -1.7216 C.3            1 S1                 0.0000
     15 ****         2.8788   0.6247   0.7233 C.3            1 S1                 0.0000
     16 ****         2.0366   0.4794   1.9926 C.3            1 S1                 0.0000
     17 ****         3.1031   0.4417   3.0629 C.3            1 S1                 0.0000
     18 ****         4.1170   1.4515   2.5330 C.3            1 S1                 0.0000
     19 ****         3.9648   1.4612   1.1154 O.3            1 S1                 0.0000
     20 ****        -2.3150  -4.7179  -0.9904 H              1 S1                 0.0000
     21 ****        -3.7194  -4.0673  -1.8288 H              1 S1                 0.0000
     22 ****        -3.6472  -4.0525  -0.0516 H              1 S1                 0.0000
     23 ****        -6.3747  -0.6979  -0.8628 H              1 S1                 0.0000
     24 ****        -5.4162   1.6179  -0.8896 H              1 S1                 0.0000
     25 ****        -2.9512   1.8948  -0.9822 H              1 S1                 0.0000
     26 ****        -0.6993  -1.0667  -1.3623 H              1 S1                 0.0000
     27 ****         1.1556  -0.4722  -1.2644 H              1 S1                 0.0000
     28 ****         1.8239   2.2422  -0.2241 H              1 S1                 0.0000
     29 ****         3.9141   1.9589  -1.5212 H              1 S1                 0.0000
     30 ****         2.5103   1.7766  -2.5632 H              1 S1                 0.0000
     31 ****         3.4047   0.3527  -2.0343 H              1 S1                 0.0000
     32 ****         3.2906  -0.3515   0.4610 H              1 S1                 0.0000
     33 ****         1.3966   1.3519   2.1330 H              1 S1                 0.0000
     34 ****         1.4066  -0.4105   1.9875 H              1 S1                 0.0000
     35 ****         2.7275   0.6940   4.0548 H              1 S1                 0.0000
     36 ****         3.5505  -0.5520   3.1086 H              1 S1                 0.0000
     37 ****         3.8959   2.4504   2.9102 H              1 S1                 0.0000
     38 ****         5.1378   1.1994   2.8203 H              1 S1                 0.0000
     39 ****        -1.8818  -2.6278  -1.8455 LP             1 S1                 0.0000
     40 ****        -1.8018  -2.6234  -0.2145 LP             1 S1                 0.0000
     41 ****        -4.9653  -2.5679  -0.9211 LP             1 S1                 0.0000
     42 ****        -1.6346   1.9844   0.0772 LP             1 S1                 0.0000
     43 ****         0.0219   2.4732   0.2077 LP             1 S1                 0.0000
     44 ****         3.7864   2.3966   0.8101 LP             1 S1                 0.0000
     45 ****         4.8068   1.1272   0.6918 LP             1 S1                 0.0000
@<TRIPOS>BOND
    1    1    2 1     
    2    1   20 1     
    3    1   21 1     
    4    1   22 1     
    5    2    3 1     
    6    3    8 ar    
    7    3    4 ar    
    8    4    5 ar    
    9    5    6 ar    
   10    5   23 1     
   11    6    7 ar    
   12    6   24 1     
   13    7    8 ar    
   14    7   25 1     
   15    8    9 1     
   16    9   10 am    
   17    9   26 1     
   18   10   11 2     
   19   10   12 am    
   20   12   13 1     
   21   12   27 1     
   22   13   14 1     
   23   13   15 1     
   24   13   28 1     
   25   14   29 1     
   26   14   30 1     
   27   14   31 1     
   28   15   19 1     
   29   15   16 1     
   30   15   32 1     
   31   16   17 1     
   32   16   33 1     
   33   16   34 1     
   34   17   18 1     
   35   17   35 1     
   36   17   36 1     
   37   18   19 1     
   38   18   37 1     
   39   18   38 1     
   40    2   39 1     
   41    2   40 1     
   42    4   41 1     
   43   11   42 1     
   44   11   43 1     
   45   19   44 1     
   46   19   45 1     
@<TRIPOS>SUBSTRUCTURE
      1 S1             1
@<TRIPOS>SET
LONE_PAIRS      STATIC     ATOMS    <user>   **** ""
7 39 40 41 42 43 44 45
DONOR_HYDROGENS      STATIC     ATOMS    <user>   **** ""
2 26 27
ATOM$BLUE        STATIC     ATOMS    COLORGROUP SYSTEM
7 39 40 41 42 43 44 45
ATOM$RED        STATIC     ATOMS    COLORGROUP SYSTEM
2 26 27
