#       Name:                AV-unprocessed.smi:703
#       Creating user name   scv26
#       Creation time:       Fri Mar 27 00:41:59 2020


#       File generated by GOLD software.
#

@<TRIPOS>MOLECULE
AV-unprocessed.smi:703
    42    43     1
SMALL
NO_CHARGES


@<TRIPOS>ATOM
      1 ****        -2.6153  -4.2455   1.0993 C.3            1 S1                 0.0000
      2 ****        -2.9554  -2.7498   1.1431 C.3            1 S1                 0.0000
      3 ****        -1.8153  -1.9084   0.7098 N.4            1 S1                 1.0000
      4 ****        -1.4871  -1.9872  -0.7354 C.3            1 S1                 0.0000
      5 ****        -1.4425  -0.5467  -1.2612 C.3            1 S1                 0.0000
      6 ****        -0.4895  -0.3160  -2.4458 C.3            1 S1                 0.0000
      7 ****        -1.2044   0.3048  -0.0090 C.3            1 S1                 0.0000
      8 ****         0.2216   0.4101   0.3276 N.3            1 S1                 0.0000
      9 ****         0.9886   1.9516   0.2129 S.o2           1 S1                 0.0000
     10 ****         0.5045   2.6071  -1.0118 O.2            1 S1                 0.0000
     11 ****         0.8322   2.6164   1.5155 O.2            1 S1                 0.0000
     12 ****         2.7581   1.5005  -0.0273 C.3            1 S1                 0.0000
     13 ****         3.5698   2.7497  -0.2166 C.2            1 S1                 0.0000
     14 ****         4.0396   3.6571   0.7730 C.2            1 S1                 0.0000
     15 ****         4.7082   4.6008   0.0476 C.2            1 S1                 0.0000
     16 ****         4.6622   4.3034  -1.2757 O.3            1 S1                 0.0000
     17 ****         3.9346   3.1185  -1.4343 N.2            1 S1                 0.0000
     18 ****        -1.9476  -0.4789   1.0738 C.3            1 S1                 0.0000
     19 ****        -3.4531  -4.8417   1.4614 H              1 S1                 0.0000
     20 ****        -1.7532  -4.4720   1.7274 H              1 S1                 0.0000
     21 ****        -2.3898  -4.5799   0.0865 H              1 S1                 0.0000
     22 ****        -3.8313  -2.5361   0.5289 H              1 S1                 0.0000
     23 ****        -3.2181  -2.4844   2.1682 H              1 S1                 0.0000
     24 ****        -0.5120  -2.4661  -0.8317 H              1 S1                 0.0000
     25 ****        -2.2033  -2.5854  -1.3005 H              1 S1                 0.0000
     26 ****        -2.4488  -0.3082  -1.6096 H              1 S1                 0.0000
     27 ****         0.5442  -0.5498  -2.1895 H              1 S1                 0.0000
     28 ****        -0.5251   0.7211  -2.7793 H              1 S1                 0.0000
     29 ****        -0.7667  -0.9435  -3.2930 H              1 S1                 0.0000
     30 ****        -1.6259   1.3051  -0.1183 H              1 S1                 0.0000
     31 ****         0.4252  -0.0308   1.2242 H              1 S1                 0.0000
     32 ****         3.0962   0.9413   0.8448 H              1 S1                 0.0000
     33 ****         2.8301   0.8432  -0.8946 H              1 S1                 0.0000
     34 ****         3.9030   3.6239   1.8438 H              1 S1                 0.0000
     35 ****         5.2440   5.4998   0.3140 H              1 S1                 0.0000
     36 ****        -3.0016  -0.1959   1.0528 H              1 S1                 0.0000
     37 ****        -1.5763  -0.2828   2.0806 H              1 S1                 0.0000
     38 ****        -0.9988  -2.2447   1.2001 H              1 S1                 0.0000
     39 ****         0.6436  -0.0929  -0.4267 LP             1 S1                 0.0000
     40 ****         5.5902   4.1800  -1.6271 LP             1 S1                 0.0000
     41 ****         4.2131   5.0453  -1.7737 LP             1 S1                 0.0000
     42 ****         3.7317   2.6468  -2.2924 LP             1 S1                 0.0000
@<TRIPOS>BOND
    1    1    2 1     
    2    1   19 1     
    3    1   20 1     
    4    1   21 1     
    5    2    3 1     
    6    2   22 1     
    7    2   23 1     
    8    3   18 1     
    9    3    4 1     
   10    3   38 1     
   11    4    5 1     
   12    4   24 1     
   13    4   25 1     
   14    5    6 1     
   15    5    7 1     
   16    5   26 1     
   17    6   27 1     
   18    6   28 1     
   19    6   29 1     
   20    7    8 1     
   21    7   18 1     
   22    7   30 1     
   23    8    9 1     
   24    8   31 1     
   25    9   10 2     
   26    9   11 2     
   27    9   12 1     
   28   12   13 1     
   29   12   32 1     
   30   12   33 1     
   31   13   17 2     
   32   13   14 1     
   33   14   15 2     
   34   14   34 1     
   35   15   16 1     
   36   15   35 1     
   37   16   17 1     
   38   18   36 1     
   39   18   37 1     
   40    8   39 1     
   41   16   40 1     
   42   16   41 1     
   43   17   42 1     
@<TRIPOS>SUBSTRUCTURE
      1 S1             1
@<TRIPOS>SET
LONE_PAIRS      STATIC     ATOMS    <user>   **** ""
6 39 10 11 40 41 42
DONOR_HYDROGENS      STATIC     ATOMS    <user>   **** ""
2 38 31
ATOM$BLUE        STATIC     ATOMS    COLORGROUP SYSTEM
6 39 10 11 40 41 42
ATOM$RED        STATIC     ATOMS    COLORGROUP SYSTEM
2 38 31
