AV-unprocessed.smi:3314|AV-procd|sdf|12733|dock10
  -GOLD-   2272019 73D 1   1.00000     0.00000
 Structure written by MMmdl.
 38 39  0  0  0  0  0  0  0  0  2 V2000
  151.9066  145.9233  160.1031 C   0  0  0  0  0  0  0  0  0  0  0  0
  151.9861  144.4983  159.5964 C   0  0  0  0  0  0  0  0  0  0  0  0
  152.7530  143.5311  160.2737 C   0  0  0  0  0  0  0  0  0  0  0  0
  152.7838  142.2227  159.7527 C   0  0  0  0  0  0  0  0  0  0  0  0
  153.5889  141.1334  160.4293 C   0  0  0  0  0  0  0  0  0  0  0  0
  152.1132  141.8572  158.6389 N   0  0  0  0  0  0  0  0  0  0  0  0
  151.3697  142.7802  157.9802 C   0  0  0  0  0  0  0  0  0  0  0  0
  150.6286  142.4978  156.8026 N   0  0  0  0  0  0  0  0  0  0  0  0
  150.5720  141.3455  156.1090 C   0  0  0  0  0  0  0  0  0  0  0  0
  151.1723  140.3147  156.4167 O   0  0  0  0  0  0  0  0  0  0  0  0
  149.6760  141.3777  154.8557 C   0  0  2  0  0  0  0  0  0  0  0  0
  148.1558  141.3338  155.1429 C   0  0  0  0  0  0  0  0  0  0  0  0
  147.7316  139.9920  155.6096 N   0  3  1  0  0  0  0  0  0  0  0  0
  146.2913  139.9297  155.9354 C   0  0  0  0  0  0  0  0  0  0  0  0
  148.1478  138.9447  154.6503 C   0  0  0  0  0  0  0  0  0  0  0  0
  149.6647  139.0119  154.4114 C   0  0  0  0  0  0  0  0  0  0  0  0
  150.0238  140.3178  153.9597 O   0  0  0  0  0  0  0  0  0  0  0  0
  151.2880  144.1157  158.4334 C   0  0  0  0  0  0  0  0  0  0  0  0
  152.5187  146.0624  160.9947 H   0  0  0  0  0  0  0  0  0  0  0  0
  150.8764  146.1774  160.3534 H   0  0  0  0  0  0  0  0  0  0  0  0
  152.2559  146.6171  159.3382 H   0  0  0  0  0  0  0  0  0  0  0  0
  153.3028  143.7847  161.1685 H   0  0  0  0  0  0  0  0  0  0  0  0
  154.0407  141.4919  161.3547 H   0  0  0  0  0  0  0  0  0  0  0  0
  154.3870  140.7887  159.7714 H   0  0  0  0  0  0  0  0  0  0  0  0
  152.9505  140.2831  160.6710 H   0  0  0  0  0  0  0  0  0  0  0  0
  150.0708  143.2611  156.4483 H   0  0  0  0  0  0  0  0  0  0  0  0
  149.8925  142.3152  154.3419 H   0  0  0  0  0  0  0  0  0  0  0  0
  147.8881  142.0856  155.8872 H   0  0  0  0  0  0  0  0  0  0  0  0
  147.6063  141.5875  154.2349 H   0  0  0  0  0  0  0  0  0  0  0  0
  145.6804  140.1018  155.0481 H   0  0  0  0  0  0  0  0  0  0  0  0
  146.0332  140.6828  156.6806 H   0  0  0  0  0  0  0  0  0  0  0  0
  146.0327  138.9530  156.3454 H   0  0  0  0  0  0  0  0  0  0  0  0
  147.8767  137.9612  155.0357 H   0  0  0  0  0  0  0  0  0  0  0  0
  147.6142  139.0779  153.7077 H   0  0  0  0  0  0  0  0  0  0  0  0
  150.2132  138.7435  155.3152 H   0  0  0  0  0  0  0  0  0  0  0  0
  149.9533  138.2884  153.6489 H   0  0  0  0  0  0  0  0  0  0  0  0
  150.6932  144.8424  157.8987 H   0  0  0  0  0  0  0  0  0  0  0  0
  148.2318  139.8152  156.4699 H   0  0  0  0  0  0  0  0  0  0  0  0
  1  2  1  0  0  0  0
  1 19  1  0  0  0  0
  1 20  1  0  0  0  0
  1 21  1  0  0  0  0
  2 18  1  0  0  0  0
  2  3  2  0  0  0  0
  3  4  1  0  0  0  0
  3 22  1  0  0  0  0
  4  5  1  0  0  0  0
  4  6  2  0  0  0  0
  5 23  1  0  0  0  0
  5 24  1  0  0  0  0
  5 25  1  0  0  0  0
  6  7  1  0  0  0  0
  7  8  1  0  0  0  0
  7 18  2  0  0  0  0
  8  9  1  0  0  0  0
  8 26  1  0  0  0  0
  9 10  2  0  0  0  0
  9 11  1  0  0  0  0
 11 17  1  0  0  0  0
 11 12  1  0  0  0  0
 11 27  1  0  0  0  0
 12 13  1  0  0  0  0
 12 28  1  0  0  0  0
 12 29  1  0  0  0  0
 13 14  1  0  0  0  0
 13 15  1  0  0  0  0
 13 38  1  0  0  0  0
 14 30  1  0  0  0  0
 14 31  1  0  0  0  0
 14 32  1  0  0  0  0
 15 16  1  0  0  0  0
 15 33  1  0  0  0  0
 15 34  1  0  0  0  0
 16 17  1  0  0  0  0
 16 35  1  0  0  0  0
 16 36  1  0  0  0  0
 18 37  1  0  0  0  0
M  CHG  1  13   1
M  END
> <s_m_source_file>
AV-unprocessed.smi

> <i_m_source_file_index>
3314

> <i_lp_mmshare_version>
43012

> <i_f3d_flags>
0

> <s_epik_input>
W0NIM11jMVtjSF1jKFtDSDNdKW5jKFtjSF0xKVtOSF1DKD1PKVtDQEBIXTJbQ0gyXU4oW0NIM10pW0NIMl1bQ0gyXU8y

> <s_epik_cmdline>
J2VwaWtfcHl0aG9uJywgJy1waCcsICc3LjAnLCAnLXRuJywgJzgnLCAnLW1hJywgJzIwMCcsICctbWV0YWxfYmluZGluZycsICctaW1hZScsICc8aW5maWxlLm1hZT4nLCAnLW9tYWUnLCAnPG91dGZpbGUubWFlPic=

> <r_epik_Ionization_Penalty>
0.32442

> <r_epik_Ionization_Penalty_Charging>
0.314023

> <r_epik_Ionization_Penalty_Neutral>
0.0103972

> <r_epik_State_Penalty>
0.29453

> <r_epik_Charging_Adjusted_Penalty>
0.608553

> <i_epik_Tot_Q>
1

> <i_epik_Tot_abs_Q>
1

> <r_epik_Metal_State_Penalty>
0.286909

> <b_epik_Metal_Only>
0

> <s_lp_Force_Field>
OPLS_2005

> <r_lp_Energy>
14.9445

> <b_lp_Chiralities_Consistent>
1

> <s_lp_Variant>
AV-unprocessed.smi:3314-3

> <Gold.Version>
5.8.1

> <Gold.Id.Protein>
6NUR|6NUR_protein|mol2

> <Gold.PLP.Fitness>
42.5515

> <Gold.PLP.PLP>
-38.1343

> <Gold.PLP.part.hbond>
-1.9804

> <Gold.PLP.part.metal>
0.0000

> <Gold.PLP.part.buried>
-5.1632

> <Gold.PLP.part.nonpolar>
-33.0250

> <Gold.PLP.part.repulsive>
2.0028

> <Gold.PLP.ligand.clash>
0.0000

> <Gold.PLP.ligand.torsion>
0.4781

> <Gold.PLP.Chemscore.Hbond>
1.7840

> <Gold.PLP.Chemscore.CHOScore>
0.0000

> <Gold.PLP.Chemscore.Metal>
0.0000

> <Gold.Chemscore.Hbonds>
donor molecule, donor type, donor heavy atom, donor atom, acceptor molecule, acceptor atom, score
      L1  H     8    26       P1  8028  0.99
      P1  H  7989  7998       L1    17  0.74

> <Gold.PLP.Chemscore.Internal.Correction>
0.0214

> <Gold.Rescore>
     Score         DG    S(hbond)    S(metal)    S(lipo)     H(rot)  DE(clash)    DE(int)     intcor
     15.70     -19.12       1.61        0.00      92.38       1.00       0.14       3.28       ----

> <Gold.Chemscore.Fitness>
15.6986

> <Gold.Chemscore.DG>
-19.1189

> <Gold.Chemscore.ZeroCoef>
-5.4800

> <Gold.Chemscore.Hbond>
1.6137

> <Gold.Chemscore.Metal>
0.0000

> <Gold.Chemscore.Lipo>
92.3843

> <Gold.Chemscore.Internal_Hbond>
0.0000

> <Gold.Chemscore.DEClash>
0.1426

> <Gold.Chemscore.DEInternal>
3.2777

> <Gold.Chemscore.Rot>
1.0000

> <Gold.Chemscore.Internal.Correction>
   9.000000E+99

> <Gold.Chemscore.Hbonds>
donor molecule, donor type, donor heavy atom, donor atom, acceptor molecule, acceptor atom, score
      L1  H     8    26       P1  8028  0.92
      P1  H  7989  7998       L1    17  0.17

> <Gold.Chemscore.Hbond.Weighted>
-5.3899

> <Gold.Chemscore.Metal.Weighted>
-0.0000

> <Gold.Chemscore.Lipo.Weighted>
-10.8090

> <Gold.Chemscore.Internal_Hbond.Weighted>
0.0000

> <Gold.Chemscore.DEClash.Weighted>
0.1426

> <Gold.Chemscore.DEInternal.Weighted>
3.2777

> <Gold.Chemscore.Rot.Weighted>
2.5600

> <Gold.Chemscore.Internal.Correction.Weighted>
   9.000000E+99

> <Gold.Protein.RotatedTorsions>
[ 6907 6896 6895 6894 ] final   14.00 input  -60.11 | X-H torsion
[ 7974 7965 7964 7962 ] final -125.46 input  175.53 | X-H torsion
[ 8008 7997 7996 7995 ] final   80.90 input   59.86 | X-H torsion
[ 10167 10162 10161 10158 ] final -110.46 input  -65.29 | X-H torsion
[ 10718 10713 10712 10709 ] final  171.45 input   66.30 | X-H torsion
[ 10763 10752 10751 10750 ] final  174.88 input  -60.55 | X-H torsion
[ 11005 11000 10999 10996 ] final   58.24 input  -57.11 | X-H torsion

> <Gold.Protein.ActiveResidues>
 VAL166  LYS551  ARG553  GLY616  TRP617  ASP618  TYR619  PRO620  LYS621  CYS622 
 ASP623  PHE694  ASN695  SER759  ASP760  ASP761  ALA762  ILE779  LEU786  VAL792 
 PHE793  MET794  SER795  GLU796  ALA797  LYS798  CYS799  TRP800  GLU811  SER814 

> <Gold.Protein.RotatedAtoms>
  151.7953  135.0724  160.0392 H   0  0  0  0  0  0  0  0  0  0  0  0  # atno 6907 bound_to 6896
  152.3127  133.5765  159.5700 H   0  0  0  0  0  0  0  0  0  0  0  0  # atno 6908 bound_to 6896
  150.7328  134.0044  159.3691 H   0  0  0  0  0  0  0  0  0  0  0  0  # atno 6909 bound_to 6896
  144.9974  140.7788  143.4517 H   0  0  0  0  0  0  0  0  0  0  0  0  # atno 7974 bound_to 7965
  155.8898  140.3439  155.5948 H   0  0  0  0  0  0  0  0  0  0  0  0  # atno 8008 bound_to 7997
  155.7624  140.0834  157.2167 H   0  0  0  0  0  0  0  0  0  0  0  0  # atno 8009 bound_to 7997
  154.4032  140.1533  156.2835 H   0  0  0  0  0  0  0  0  0  0  0  0  # atno 8010 bound_to 7997
  140.1442  143.4254  152.1541 H   0  0  0  0  0  0  0  0  0  0  0  0  # atno 10167 bound_to 10162
  156.9934  131.0154  151.2850 H   0  0  0  0  0  0  0  0  0  0  0  0  # atno 10718 bound_to 10713
  154.4600  135.2767  155.1720 H   0  0  0  0  0  0  0  0  0  0  0  0  # atno 10763 bound_to 10752
  154.3512  135.6149  153.5647 H   0  0  0  0  0  0  0  0  0  0  0  0  # atno 10764 bound_to 10752
  152.9854  135.5812  154.4960 H   0  0  0  0  0  0  0  0  0  0  0  0  # atno 10765 bound_to 10752
  140.0392  134.5898  155.9404 H   0  0  0  0  0  0  0  0  0  0  0  0  # atno 11005 bound_to 11000
  145.2201  139.2163  143.5097 LP  0  0  0  0  0  0  0  0  0  0  0  0  # atno 17320 bound_to 7965
  146.3444  140.2057  142.8589 LP  0  0  0  0  0  0  0  0  0  0  0  0  # atno 17321 bound_to 7965
  139.5457  144.7296  151.4591 LP  0  0  0  0  0  0  0  0  0  0  0  0  # atno 17342 bound_to 10162
  140.6742  143.8226  150.7037 LP  0  0  0  0  0  0  0  0  0  0  0  0  # atno 17343 bound_to 10162
  157.5442  130.8140  149.8066 LP  0  0  0  0  0  0  0  0  0  0  0  0  # atno 17370 bound_to 10713
  156.0198  130.3799  150.1996 LP  0  0  0  0  0  0  0  0  0  0  0  0  # atno 17371 bound_to 10713
  141.1874  133.6559  156.5279 LP  0  0  0  0  0  0  0  0  0  0  0  0  # atno 17394 bound_to 11000
  140.4097  134.7283  157.4828 LP  0  0  0  0  0  0  0  0  0  0  0  0  # atno 17395 bound_to 11000

$$$$
