#       Name:                AV-unprocessed.smi:2509
#       Creating user name   scv26
#       Creation time:       Fri Mar 27 13:49:39 2020


#       File generated by GOLD software.
#

@<TRIPOS>MOLECULE
AV-unprocessed.smi:2509
    51    52     1
SMALL
NO_CHARGES


@<TRIPOS>ATOM
      1 ****        -5.6942   2.4074   0.3147 C.3            1 S1                 0.0000
      2 ****        -4.6070   2.8308  -0.7007 C.3            1 S1                 0.0000
      3 ****        -5.1926   2.8101  -2.1244 C.3            1 S1                 0.0000
      4 ****        -4.2132   4.2795  -0.3263 C.3            1 S1                 0.0000
      5 ****        -3.3918   1.8893  -0.6332 C.ar           1 S1                 0.0000
      6 ****        -3.6408   0.5889  -0.4287 N.ar           1 S1                 0.0000
      7 ****        -2.5990  -0.2664  -0.4949 C.ar           1 S1                 0.0000
      8 ****        -1.2929   0.1704  -0.7918 C.ar           1 S1                 0.0000
      9 ****        -0.2439  -0.7839  -0.8659 N.am           1 S1                 0.0000
     10 ****         1.0795  -0.5696  -0.7765 C.2            1 S1                 0.0000
     11 ****         1.6087   0.5218  -0.5681 O.2            1 S1                 0.0000
     12 ****         1.7650  -1.7128  -0.9192 N.am           1 S1                 0.0000
     13 ****         3.2171  -1.8458  -0.8463 C.3            1 S1                 0.0000
     14 ****         3.6679  -2.4287   0.5070 C.3            1 S1                 0.0000
     15 ****         3.3366  -1.5479   1.7225 C.3            1 S1                 0.0000
     16 ****         4.3968  -1.8630   2.7897 C.3            1 S1                 0.0000
     17 ****         5.4204  -2.7890   2.1215 C.3            1 S1                 0.0000
     18 ****         5.1828  -2.6263   0.6193 C.3            1 S1                 0.0000
     19 ****         5.6330  -3.7549  -0.1013 O.3            1 S1                 0.0000
     20 ****        -1.1492   1.5558  -1.0411 C.ar           1 S1                 0.0000
     21 ****        -2.2012   2.3994  -0.9753 N.ar           1 S1                 0.0000
     22 ****        -6.5372   3.0990   0.3056 H              1 S1                 0.0000
     23 ****        -5.3003   2.3845   1.3316 H              1 S1                 0.0000
     24 ****        -6.0973   1.4185   0.0933 H              1 S1                 0.0000
     25 ****        -5.5157   1.8070  -2.4047 H              1 S1                 0.0000
     26 ****        -4.4561   3.1353  -2.8599 H              1 S1                 0.0000
     27 ****        -6.0567   3.4698  -2.2090 H              1 S1                 0.0000
     28 ****        -5.0811   4.9399  -0.3271 H              1 S1                 0.0000
     29 ****        -3.4962   4.7030  -1.0307 H              1 S1                 0.0000
     30 ****        -3.7673   4.3262   0.6680 H              1 S1                 0.0000
     31 ****        -2.8137  -1.3092  -0.3126 H              1 S1                 0.0000
     32 ****        -0.5365  -1.7464  -0.9506 H              1 S1                 0.0000
     33 ****         1.2419  -2.5606  -1.0828 H              1 S1                 0.0000
     34 ****         3.5275  -2.5115  -1.6519 H              1 S1                 0.0000
     35 ****         3.7119  -0.8916  -1.0357 H              1 S1                 0.0000
     36 ****         3.1845  -3.3964   0.6545 H              1 S1                 0.0000
     37 ****         3.4057  -0.4934   1.4526 H              1 S1                 0.0000
     38 ****         2.3236  -1.7232   2.0861 H              1 S1                 0.0000
     39 ****         4.8735  -0.9415   3.1255 H              1 S1                 0.0000
     40 ****         3.9562  -2.3396   3.6661 H              1 S1                 0.0000
     41 ****         6.4466  -2.5594   2.4098 H              1 S1                 0.0000
     42 ****         5.2172  -3.8181   2.4223 H              1 S1                 0.0000
     43 ****         5.7037  -1.7373   0.2605 H              1 S1                 0.0000
     44 ****         5.1933  -4.5214   0.2335 H              1 S1                 0.0000
     45 ****        -0.2089   2.0035  -1.3233 H              1 S1                 0.0000
     46 ****        -4.5661   0.2634  -0.2339 LP             1 S1                 0.0000
     47 ****         1.0425   1.3376  -0.4506 LP             1 S1                 0.0000
     48 ****         2.6048   0.5927  -0.5164 LP             1 S1                 0.0000
     49 ****         6.6212  -3.8561   0.0140 LP             1 S1                 0.0000
     50 ****         5.4205  -3.6417  -1.0719 LP             1 S1                 0.0000
     51 ****        -2.0952   3.3734  -1.1755 LP             1 S1                 0.0000
@<TRIPOS>BOND
    1    1    2 1     
    2    1   22 1     
    3    1   23 1     
    4    1   24 1     
    5    2    3 1     
    6    2    4 1     
    7    2    5 1     
    8    3   25 1     
    9    3   26 1     
   10    3   27 1     
   11    4   28 1     
   12    4   29 1     
   13    4   30 1     
   14    5   21 ar    
   15    5    6 ar    
   16    6    7 ar    
   17    7    8 ar    
   18    7   31 1     
   19    8    9 1     
   20    8   20 ar    
   21    9   10 am    
   22    9   32 1     
   23   10   11 2     
   24   10   12 am    
   25   12   13 1     
   26   12   33 1     
   27   13   14 1     
   28   13   34 1     
   29   13   35 1     
   30   14   18 1     
   31   14   15 1     
   32   14   36 1     
   33   15   16 1     
   34   15   37 1     
   35   15   38 1     
   36   16   17 1     
   37   16   39 1     
   38   16   40 1     
   39   17   18 1     
   40   17   41 1     
   41   17   42 1     
   42   18   19 1     
   43   18   43 1     
   44   19   44 1     
   45   20   21 ar    
   46   20   45 1     
   47    6   46 1     
   48   11   47 1     
   49   11   48 1     
   50   19   49 1     
   51   19   50 1     
   52   21   51 1     
@<TRIPOS>SUBSTRUCTURE
      1 S1             1
@<TRIPOS>SET
LONE_PAIRS      STATIC     ATOMS    <user>   **** ""
6 46 47 48 49 50 51
DONOR_HYDROGENS      STATIC     ATOMS    <user>   **** ""
3 32 33 44
ATOM$BLUE        STATIC     ATOMS    COLORGROUP SYSTEM
6 46 47 48 49 50 51
ATOM$RED        STATIC     ATOMS    COLORGROUP SYSTEM
3 32 33 44
