AV-unprocessed.smi:3336|AV-procd|sdf|12857|dock6
  -GOLD-   2272019253D 1   1.00000     0.00000
 Structure written by MMmdl.
 41 42  0  0  0  0  0  0  0  0  1 V2000
  152.8175  145.0402  157.7599 C   0  0  0  0  0  0  0  0  0  0  0  0
  151.4213  144.4516  158.0190 C   0  0  2  0  0  0  0  0  0  0  0  0
  151.1547  144.1925  159.5243 C   0  0  0  0  0  0  0  0  0  0  0  0
  152.0778  143.2510  160.1386 N   0  0  0  0  0  0  0  0  0  0  0  0
  153.2535  142.7434  159.6258 C   0  0  0  0  0  0  0  0  0  0  0  0
  153.7785  141.9029  160.5651 C   0  0  0  0  0  0  0  0  0  0  0  0
  152.8430  141.9661  161.6353 C   0  0  0  0  0  0  0  0  0  0  0  0
  151.8299  142.7773  161.3796 N   0  0  0  0  0  0  0  0  0  0  0  0
  151.3052  143.2431  157.1972 N   0  0  0  0  0  0  0  0  0  0  0  0
  150.2644  142.2668  157.5840 C   0  0  2  0  0  0  0  0  0  0  0  0
  150.8618  141.2621  158.5819 C   0  0  0  0  0  0  0  0  0  0  0  0
  149.6348  141.5135  156.3885 C   0  0  0  0  0  0  0  0  0  0  0  0
  148.4350  141.6865  156.1640 O   0  0  0  0  0  0  0  0  0  0  0  0
  150.3934  140.6959  155.6149 N   0  0  0  0  0  0  0  0  0  0  0  0
  151.8337  140.5156  155.8298 C   0  0  0  0  0  0  0  0  0  0  0  0
  152.0937  139.0555  156.2379 C   0  0  0  0  0  0  0  0  0  0  0  0
  151.6100  138.1851  155.2194 O   0  0  0  0  0  0  0  0  0  0  0  0
  150.2174  138.3474  154.9672 C   0  0  0  0  0  0  0  0  0  0  0  0
  149.9251  139.8003  154.5494 C   0  0  0  0  0  0  0  0  0  0  0  0
  152.9764  145.9428  158.3506 H   0  0  0  0  0  0  0  0  0  0  0  0
  152.9400  145.3121  156.7109 H   0  0  0  0  0  0  0  0  0  0  0  0
  153.6099  144.3346  158.0108 H   0  0  0  0  0  0  0  0  0  0  0  0
  150.7019  145.1944  157.6761 H   0  0  0  0  0  0  0  0  0  0  0  0
  151.2375  145.1351  160.0664 H   0  0  0  0  0  0  0  0  0  0  0  0
  150.1331  143.8539  159.6977 H   0  0  0  0  0  0  0  0  0  0  0  0
  153.6124  143.0181  158.6447 H   0  0  0  0  0  0  0  0  0  0  0  0
  154.6920  141.3308  160.4984 H   0  0  0  0  0  0  0  0  0  0  0  0
  152.8709  141.4520  162.5849 H   0  0  0  0  0  0  0  0  0  0  0  0
  151.2081  143.5087  156.2276 H   0  0  0  0  0  0  0  0  0  0  0  0
  149.4967  142.8302  158.1061 H   0  0  0  0  0  0  0  0  0  0  0  0
  150.1142  140.5502  158.9327 H   0  0  0  0  0  0  0  0  0  0  0  0
  151.2566  141.7744  159.4600 H   0  0  0  0  0  0  0  0  0  0  0  0
  151.6783  140.6927  158.1359 H   0  0  0  0  0  0  0  0  0  0  0  0
  152.3668  140.7472  154.9065 H   0  0  0  0  0  0  0  0  0  0  0  0
  152.2428  141.1857  156.5868 H   0  0  0  0  0  0  0  0  0  0  0  0
  153.1620  138.8844  156.3700 H   0  0  0  0  0  0  0  0  0  0  0  0
  151.6117  138.8247  157.1893 H   0  0  0  0  0  0  0  0  0  0  0  0
  149.9204  137.6604  154.1748 H   0  0  0  0  0  0  0  0  0  0  0  0
  149.6446  138.0768  155.8557 H   0  0  0  0  0  0  0  0  0  0  0  0
  148.8658  139.8816  154.3218 H   0  0  0  0  0  0  0  0  0  0  0  0
  150.4501  140.0387  153.6234 H   0  0  0  0  0  0  0  0  0  0  0  0
  1  2  1  0  0  0  0
  1 20  1  0  0  0  0
  1 21  1  0  0  0  0
  1 22  1  0  0  0  0
  2  3  1  0  0  0  0
  2  9  1  0  0  0  0
  2 23  1  0  0  0  0
  3  4  1  0  0  0  0
  3 24  1  0  0  0  0
  3 25  1  0  0  0  0
  4  8  1  0  0  0  0
  4  5  1  0  0  0  0
  5  6  2  0  0  0  0
  5 26  1  0  0  0  0
  6  7  1  0  0  0  0
  6 27  1  0  0  0  0
  7  8  2  0  0  0  0
  7 28  1  0  0  0  0
  9 10  1  0  0  0  0
  9 29  1  0  0  0  0
 10 11  1  0  0  0  0
 10 12  1  0  0  0  0
 10 30  1  0  0  0  0
 11 31  1  0  0  0  0
 11 32  1  0  0  0  0
 11 33  1  0  0  0  0
 12 13  2  0  0  0  0
 12 14  1  0  0  0  0
 14 19  1  0  0  0  0
 14 15  1  0  0  0  0
 15 16  1  0  0  0  0
 15 34  1  0  0  0  0
 15 35  1  0  0  0  0
 16 17  1  0  0  0  0
 16 36  1  0  0  0  0
 16 37  1  0  0  0  0
 17 18  1  0  0  0  0
 18 19  1  0  0  0  0
 18 38  1  0  0  0  0
 18 39  1  0  0  0  0
 19 40  1  0  0  0  0
 19 41  1  0  0  0  0
M  END
> <s_m_source_file>
AV-unprocessed.smi

> <i_m_source_file_index>
3336

> <i_lp_mmshare_version>
43012

> <i_f3d_flags>
0

> <s_epik_input>
bjFbY0hdW2NIXVtjSF1uMVtDSDJdW0NAQEhdKFtDSDNdKVtOSF1bQ0BIXShbQ0gzXSlDKD1PKU4yW0NIMl1bQ0gyXU9bQ0gyXVtDSDJdMg==

> <s_epik_cmdline>
J2VwaWtfcHl0aG9uJywgJy1waCcsICc3LjAnLCAnLXRuJywgJzgnLCAnLW1hJywgJzIwMCcsICctbWV0YWxfYmluZGluZycsICctaW1hZScsICc8aW5maWxlLm1hZT4nLCAnLW9tYWUnLCAnPG91dGZpbGUubWFlPic=

> <r_lp_tautomer_probability>
1

> <r_epik_Ionization_Penalty>
0.739958

> <r_epik_Ionization_Penalty_Charging>
0

> <r_epik_Ionization_Penalty_Neutral>
0.739958

> <r_epik_State_Penalty>
0.765967

> <r_epik_Charging_Adjusted_Penalty>
0.765967

> <i_epik_Tot_Q>
0

> <i_epik_Tot_abs_Q>
0

> <r_epik_Metal_State_Penalty>
0.765947

> <b_epik_Metal_Only>
0

> <s_lp_Force_Field>
OPLS_2005

> <r_lp_Energy>
28.3859

> <b_lp_Chiralities_Consistent>
1

> <s_lp_Variant>
AV-unprocessed.smi:3336-5

> <Gold.Version>
5.8.1

> <Gold.Id.Protein>
6NUR|6NUR_protein|mol2

> <Gold.PLP.Fitness>
41.9774

> <Gold.PLP.PLP>
-42.7444

> <Gold.PLP.part.hbond>
-1.4276

> <Gold.PLP.part.metal>
0.0000

> <Gold.PLP.part.buried>
-5.3328

> <Gold.PLP.part.nonpolar>
-36.1955

> <Gold.PLP.part.repulsive>
0.3488

> <Gold.PLP.ligand.clash>
0.2930

> <Gold.PLP.ligand.torsion>
0.7586

> <Gold.PLP.Chemscore.Hbond>
0.3094

> <Gold.PLP.Chemscore.CHOScore>
0.0000

> <Gold.PLP.Chemscore.Metal>
0.0000

> <Gold.Chemscore.Hbonds>
donor molecule, donor type, donor heavy atom, donor atom, acceptor molecule, acceptor atom, score
      P1  H  6933  6945       L1     8  0.29

> <Gold.PLP.Chemscore.Internal.Correction>
0.1149

> <Gold.Rescore>
     Score         DG    S(hbond)    S(metal)    S(lipo)     H(rot)  DE(clash)    DE(int)     intcor
     11.12     -15.67       0.69        0.00     106.54       1.79       0.21       4.34       ----

> <Gold.Chemscore.Fitness>
11.1158

> <Gold.Chemscore.DG>
-15.6655

> <Gold.Chemscore.ZeroCoef>
-5.4800

> <Gold.Chemscore.Hbond>
0.6920

> <Gold.Chemscore.Metal>
0.0000

> <Gold.Chemscore.Lipo>
106.5414

> <Gold.Chemscore.Internal_Hbond>
0.0000

> <Gold.Chemscore.DEClash>
0.2052

> <Gold.Chemscore.DEInternal>
4.3445

> <Gold.Chemscore.Rot>
1.7935

> <Gold.Chemscore.Internal.Correction>
   9.000000E+99

> <Gold.Chemscore.Hbonds>
donor molecule, donor type, donor heavy atom, donor atom, acceptor molecule, acceptor atom, score
      P1  H  6933  6945       L1     8  0.15

> <Gold.Chemscore.Hbond.Weighted>
-2.3114

> <Gold.Chemscore.Metal.Weighted>
-0.0000

> <Gold.Chemscore.Lipo.Weighted>
-12.4653

> <Gold.Chemscore.Internal_Hbond.Weighted>
0.0000

> <Gold.Chemscore.DEClash.Weighted>
0.2052

> <Gold.Chemscore.DEInternal.Weighted>
4.3445

> <Gold.Chemscore.Rot.Weighted>
4.5912

> <Gold.Chemscore.Internal.Correction.Weighted>
   9.000000E+99

> <Gold.Protein.RotatedTorsions>
[ 6907 6896 6895 6894 ] final -127.61 input  -60.11 | X-H torsion
[ 7974 7965 7964 7962 ] final  -63.63 input  175.53 | X-H torsion
[ 8008 7997 7996 7995 ] final   74.28 input   59.86 | X-H torsion
[ 10167 10162 10161 10158 ] final  161.55 input  -65.29 | X-H torsion
[ 10718 10713 10712 10709 ] final  -96.13 input   66.30 | X-H torsion
[ 10763 10752 10751 10750 ] final   57.39 input  -60.55 | X-H torsion
[ 11005 11000 10999 10996 ] final  -33.88 input  -57.11 | X-H torsion

> <Gold.Protein.ActiveResidues>
 VAL166  LYS551  ARG553  GLY616  TRP617  ASP618  TYR619  PRO620  LYS621  CYS622 
 ASP623  PHE694  ASN695  SER759  ASP760  ASP761  ALA762  ILE779  LEU786  VAL792 
 PHE793  MET794  SER795  GLU796  ALA797  LYS798  CYS799  TRP800  GLU811  SER814 

> <Gold.Protein.RotatedAtoms>
  150.9091  133.7020  159.2859 H   0  0  0  0  0  0  0  0  0  0  0  0  # atno 6907 bound_to 6896
  151.4513  135.1028  159.9708 H   0  0  0  0  0  0  0  0  0  0  0  0  # atno 6908 bound_to 6896
  152.4920  133.8476  159.7240 H   0  0  0  0  0  0  0  0  0  0  0  0  # atno 6909 bound_to 6896
  145.7767  140.8784  143.0352 H   0  0  0  0  0  0  0  0  0  0  0  0  # atno 7974 bound_to 7965
  155.7961  140.3478  155.5376 H   0  0  0  0  0  0  0  0  0  0  0  0  # atno 8008 bound_to 7997
  155.8585  140.0967  157.1649 H   0  0  0  0  0  0  0  0  0  0  0  0  # atno 8009 bound_to 7997
  154.4011  140.1363  156.3919 H   0  0  0  0  0  0  0  0  0  0  0  0  # atno 8010 bound_to 7997
  139.4850  144.4526  151.8811 H   0  0  0  0  0  0  0  0  0  0  0  0  # atno 10167 bound_to 10162
  156.0056  130.5138  150.6180 H   0  0  0  0  0  0  0  0  0  0  0  0  # atno 10718 bound_to 10713
  152.9849  135.5643  154.5384 H   0  0  0  0  0  0  0  0  0  0  0  0  # atno 10763 bound_to 10752
  154.4843  135.2790  155.1549 H   0  0  0  0  0  0  0  0  0  0  0  0  # atno 10764 bound_to 10752
  154.3044  135.6301  153.5492 H   0  0  0  0  0  0  0  0  0  0  0  0  # atno 10765 bound_to 10752
  140.9671  133.7131  156.1462 H   0  0  0  0  0  0  0  0  0  0  0  0  # atno 11005 bound_to 11000
  144.6803  139.9931  143.7484 LP  0  0  0  0  0  0  0  0  0  0  0  0  # atno 17320 bound_to 7965
  146.0116  139.3174  143.0867 LP  0  0  0  0  0  0  0  0  0  0  0  0  # atno 17321 bound_to 7965
  140.3983  144.2526  150.5894 LP  0  0  0  0  0  0  0  0  0  0  0  0  # atno 17342 bound_to 10162
  140.5081  143.2298  151.8577 LP  0  0  0  0  0  0  0  0  0  0  0  0  # atno 17343 bound_to 10162
  157.4001  131.0808  151.1316 LP  0  0  0  0  0  0  0  0  0  0  0  0  # atno 17370 bound_to 10713
  157.1981  130.6382  149.5728 LP  0  0  0  0  0  0  0  0  0  0  0  0  # atno 17371 bound_to 10713
  140.7384  134.4177  157.5558 LP  0  0  0  0  0  0  0  0  0  0  0  0  # atno 17394 bound_to 11000
  139.8898  134.8820  156.2401 LP  0  0  0  0  0  0  0  0  0  0  0  0  # atno 17395 bound_to 11000

$$$$
