AV-unprocessed.smi:544|AV-procd|sdf|2879|dock4
  -GOLD-   2262023373D 1   1.00000     0.00000
 Structure written by MMmdl.
 48 50  0  0  0  0  0  0  0  0  2 V2000
  147.7248  141.8100  154.1825 C   0  0  0  0  0  0  0  0  0  0  0  0
  148.5235  140.5085  154.0831 C   0  0  0  0  0  0  0  0  0  0  0  0
  149.8770  140.7745  154.4092 O   0  0  0  0  0  0  0  0  0  0  0  0
  150.2939  140.1166  155.5937 C   0  0  0  0  0  0  0  0  0  0  0  0
  151.7738  140.4492  155.8472 C   0  0  0  0  0  0  0  0  0  0  0  0
  152.2550  139.9199  157.1207 N   0  0  0  0  0  0  0  0  0  0  0  0
  152.3615  140.5474  158.3289 C   0  0  0  0  0  0  0  0  0  0  0  0
  151.9795  141.8782  158.5533 N   0  0  0  0  0  0  0  0  0  0  0  0
  151.4653  142.8401  157.5746 C   0  0  0  0  0  0  0  0  0  0  0  0
  152.2071  144.1869  157.6423 C   0  0  0  0  0  0  0  0  0  0  0  0
  152.1046  144.7864  159.0497 C   0  0  0  0  0  0  0  0  0  0  0  0
  152.5525  143.7532  160.0964 C   0  0  1  0  0  0  0  0  0  0  0  0
  152.3837  144.2893  161.5241 C   0  0  0  0  0  0  0  0  0  0  0  0
  151.7817  142.4324  159.8951 C   0  0  0  0  0  0  0  0  0  0  0  0
  152.9000  139.7914  159.2896 N   0  0  0  0  0  0  0  0  0  0  0  0
  153.1431  138.5858  158.6542 C   0  0  0  0  0  0  0  0  0  0  0  0
  152.7753  138.6394  157.3471 C   0  0  0  0  0  0  0  0  0  0  0  0
  152.9483  137.5131  156.4010 C   0  0  0  0  0  0  0  0  0  0  0  0
  152.6256  137.6184  155.2196 O   0  0  0  0  0  0  0  0  0  0  0  0
  153.4920  136.4085  157.0037 N   0  5  0  0  0  0  0  0  0  0  0  0
  153.8690  136.3100  158.3255 C   0  0  0  0  0  0  0  0  0  0  0  0
  154.3515  135.2756  158.7887 O   0  0  0  0  0  0  0  0  0  0  0  0
  153.7090  137.3841  159.1604 N   0  0  0  0  0  0  0  0  0  0  0  0
  154.1054  137.3102  160.5695 C   0  0  0  0  0  0  0  0  0  0  0  0
  146.6763  141.6424  153.9360 H   0  0  0  0  0  0  0  0  0  0  0  0
  148.1144  142.5616  153.4957 H   0  0  0  0  0  0  0  0  0  0  0  0
  147.7705  142.2208  155.1914 H   0  0  0  0  0  0  0  0  0  0  0  0
  148.1100  139.7657  154.7669 H   0  0  0  0  0  0  0  0  0  0  0  0
  148.4521  140.1042  153.0724 H   0  0  0  0  0  0  0  0  0  0  0  0
  149.6738  140.4340  156.4317 H   0  0  0  0  0  0  0  0  0  0  0  0
  150.1533  139.0409  155.4896 H   0  0  0  0  0  0  0  0  0  0  0  0
  152.3929  140.0500  155.0442 H   0  0  0  0  0  0  0  0  0  0  0  0
  151.9383  141.5229  155.8124 H   0  0  0  0  0  0  0  0  0  0  0  0
  151.5153  142.4364  156.5683 H   0  0  0  0  0  0  0  0  0  0  0  0
  150.4037  142.9980  157.7694 H   0  0  0  0  0  0  0  0  0  0  0  0
  153.2561  144.0526  157.3776 H   0  0  0  0  0  0  0  0  0  0  0  0
  151.7899  144.8796  156.9108 H   0  0  0  0  0  0  0  0  0  0  0  0
  152.7113  145.6898  159.1188 H   0  0  0  0  0  0  0  0  0  0  0  0
  151.0733  145.0852  159.2426 H   0  0  0  0  0  0  0  0  0  0  0  0
  153.6137  143.5503  159.9427 H   0  0  0  0  0  0  0  0  0  0  0  0
  151.3381  144.5062  161.7449 H   0  0  0  0  0  0  0  0  0  0  0  0
  152.9529  145.2081  161.6681 H   0  0  0  0  0  0  0  0  0  0  0  0
  152.7360  143.5651  162.2594 H   0  0  0  0  0  0  0  0  0  0  0  0
  150.7152  142.5828  160.0681 H   0  0  0  0  0  0  0  0  0  0  0  0
  152.1145  141.7114  160.6424 H   0  0  0  0  0  0  0  0  0  0  0  0
  153.5448  136.5277  161.0825 H   0  0  0  0  0  0  0  0  0  0  0  0
  153.9299  138.2419  161.1061 H   0  0  0  0  0  0  0  0  0  0  0  0
  155.1684  137.0811  160.6560 H   0  0  0  0  0  0  0  0  0  0  0  0
  1  2  1  0  0  0  0
  1 25  1  0  0  0  0
  1 26  1  0  0  0  0
  1 27  1  0  0  0  0
  2  3  1  0  0  0  0
  2 28  1  0  0  0  0
  2 29  1  0  0  0  0
  3  4  1  0  0  0  0
  4  5  1  0  0  0  0
  4 30  1  0  0  0  0
  4 31  1  0  0  0  0
  5  6  1  0  0  0  0
  5 32  1  0  0  0  0
  5 33  1  0  0  0  0
  6 17  1  0  0  0  0
  6  7  1  0  0  0  0
  7  8  1  0  0  0  0
  7 15  2  0  0  0  0
  8 14  1  0  0  0  0
  8  9  1  0  0  0  0
  9 10  1  0  0  0  0
  9 34  1  0  0  0  0
  9 35  1  0  0  0  0
 10 11  1  0  0  0  0
 10 36  1  0  0  0  0
 10 37  1  0  0  0  0
 11 12  1  0  0  0  0
 11 38  1  0  0  0  0
 11 39  1  0  0  0  0
 12 13  1  0  0  0  0
 12 14  1  0  0  0  0
 12 40  1  0  0  0  0
 13 41  1  0  0  0  0
 13 42  1  0  0  0  0
 13 43  1  0  0  0  0
 14 44  1  0  0  0  0
 14 45  1  0  0  0  0
 15 16  1  0  0  0  0
 16 23  1  0  0  0  0
 16 17  2  0  0  0  0
 17 18  1  0  0  0  0
 18 19  2  0  0  0  0
 18 20  1  0  0  0  0
 20 21  1  0  0  0  0
 21 22  2  0  0  0  0
 21 23  1  0  0  0  0
 23 24  1  0  0  0  0
 24 46  1  0  0  0  0
 24 47  1  0  0  0  0
 24 48  1  0  0  0  0
M  CHG  1  20  -1
M  END
> <s_m_source_file>
AV-unprocessed.smi

> <i_m_source_file_index>
544

> <i_lp_mmshare_version>
43012

> <i_f3d_flags>
0

> <s_epik_input>
W0NIM11uMWMoPU8pW25IXWMoPU8pYyhjMTIpbihbQ0gyXVtDSDJdT1tDSDJdW0NIM10pYyhuMilOM1tDSDJdW0NIMl1bQ0gyXVtDQEBIXShbQ0gzXSlbQ0gyXTM=

> <s_epik_cmdline>
J2VwaWtfcHl0aG9uJywgJy1waCcsICc3LjAnLCAnLXRuJywgJzgnLCAnLW1hJywgJzIwMCcsICctbWV0YWxfYmluZGluZycsICctaW1hZScsICc8aW5maWxlLm1hZT4nLCAnLW9tYWUnLCAnPG91dGZpbGUubWFlPic=

> <r_lp_tautomer_probability>
1

> <r_epik_Ionization_Penalty>
5.1213

> <r_epik_Ionization_Penalty_Charging>
0.0741877

> <r_epik_Ionization_Penalty_Neutral>
5.04711

> <r_epik_State_Penalty>
5.04142

> <r_epik_Charging_Adjusted_Penalty>
5.11561

> <i_epik_Tot_Q>
-1

> <i_epik_Tot_abs_Q>
1

> <r_epik_Metal_State_Penalty>
1.14934

> <b_epik_Metal_Only>
1

> <s_lp_Force_Field>
OPLS_2005

> <r_lp_Energy>
41.9091

> <b_lp_Chiralities_Consistent>
1

> <s_lp_Variant>
AV-unprocessed.smi:544-3

> <Gold.Version>
5.8.1

> <Gold.Id.Protein>
6NUR|6NUR_protein|mol2

> <Gold.PLP.Fitness>
53.8465

> <Gold.PLP.PLP>
-45.6261

> <Gold.PLP.part.hbond>
-4.0000

> <Gold.PLP.part.metal>
0.0000

> <Gold.PLP.part.buried>
-3.8488

> <Gold.PLP.part.nonpolar>
-38.0569

> <Gold.PLP.part.repulsive>
0.1671

> <Gold.PLP.ligand.clash>
1.1371

> <Gold.PLP.ligand.torsion>
0.7924

> <Gold.PLP.Chemscore.Hbond>
3.5908

> <Gold.PLP.Chemscore.CHOScore>
0.0000

> <Gold.PLP.Chemscore.Metal>
0.0000

> <Gold.Chemscore.Hbonds>
donor molecule, donor type, donor heavy atom, donor atom, acceptor molecule, acceptor atom, score
      P1  H  6896  6909       L1    22  0.37
      P1  H  7989  7998       L1     3  0.69
      P1  H 10752 10763       L1    20  1.80
      P1  H 10752 10765       L1    19  0.04

> <Gold.PLP.Chemscore.Internal.Correction>
0.1701

> <Gold.Rescore>
     Score         DG    S(hbond)    S(metal)    S(lipo)     H(rot)  DE(clash)    DE(int)     intcor
     14.33     -16.35       0.77        0.00     104.88       1.55       0.27       1.75       ----

> <Gold.Chemscore.Fitness>
14.3304

> <Gold.Chemscore.DG>
-16.3520

> <Gold.Chemscore.ZeroCoef>
-5.4800

> <Gold.Chemscore.Hbond>
0.7719

> <Gold.Chemscore.Metal>
0.0000

> <Gold.Chemscore.Lipo>
104.8773

> <Gold.Chemscore.Internal_Hbond>
0.0000

> <Gold.Chemscore.DEClash>
0.2719

> <Gold.Chemscore.DEInternal>
1.7496

> <Gold.Chemscore.Rot>
1.5534

> <Gold.Chemscore.Internal.Correction>
   9.000000E+99

> <Gold.Chemscore.Hbonds>
donor molecule, donor type, donor heavy atom, donor atom, acceptor molecule, acceptor atom, score
      P1  H  6896  6909       L1    22  0.11
      P1  H  7989  7998       L1     3  0.17
      P1  H 10752 10763       L1    20  0.17
      P1  H 10752 10765       L1    19  0.04

> <Gold.Chemscore.Hbond.Weighted>
-2.5782

> <Gold.Chemscore.Metal.Weighted>
-0.0000

> <Gold.Chemscore.Lipo.Weighted>
-12.2706

> <Gold.Chemscore.Internal_Hbond.Weighted>
0.0000

> <Gold.Chemscore.DEClash.Weighted>
0.2719

> <Gold.Chemscore.DEInternal.Weighted>
1.7496

> <Gold.Chemscore.Rot.Weighted>
3.9768

> <Gold.Chemscore.Internal.Correction.Weighted>
   9.000000E+99

> <Gold.Protein.RotatedTorsions>
[ 6907 6896 6895 6894 ] final -165.03 input  -60.11 | X-H torsion
[ 7974 7965 7964 7962 ] final  -89.90 input  175.53 | X-H torsion
[ 8008 7997 7996 7995 ] final  156.65 input   59.86 | X-H torsion
[ 10167 10162 10161 10158 ] final   82.01 input  -65.29 | X-H torsion
[ 10718 10713 10712 10709 ] final  -70.75 input   66.30 | X-H torsion
[ 10763 10752 10751 10750 ] final  134.62 input  -60.55 | X-H torsion
[ 11005 11000 10999 10996 ] final -131.22 input  -57.11 | X-H torsion

> <Gold.Protein.ActiveResidues>
 VAL166  LYS551  ARG553  GLY616  TRP617  ASP618  TYR619  PRO620  LYS621  CYS622 
 ASP623  PHE694  ASN695  SER759  ASP760  ASP761  ALA762  ILE779  LEU786  VAL792 
 PHE793  MET794  SER795  GLU796  ALA797  LYS798  CYS799  TRP800  GLU811  SER814 

> <Gold.Protein.RotatedAtoms>
  151.4211  133.3698  159.2756 H   0  0  0  0  0  0  0  0  0  0  0  0  # atno 6907 bound_to 6896
  150.9292  134.8709  159.7551 H   0  0  0  0  0  0  0  0  0  0  0  0  # atno 6908 bound_to 6896
  152.5020  134.4155  159.9515 H   0  0  0  0  0  0  0  0  0  0  0  0  # atno 6909 bound_to 6896
  145.4337  140.9557  143.2114 H   0  0  0  0  0  0  0  0  0  0  0  0  # atno 7974 bound_to 7965
  156.2410  140.1906  156.6988 H   0  0  0  0  0  0  0  0  0  0  0  0  # atno 8008 bound_to 7997
  154.6197  140.0610  156.9626 H   0  0  0  0  0  0  0  0  0  0  0  0  # atno 8009 bound_to 7997
  155.1881  140.3282  155.4366 H   0  0  0  0  0  0  0  0  0  0  0  0  # atno 8010 bound_to 7997
  139.9332  144.6138  150.8324 H   0  0  0  0  0  0  0  0  0  0  0  0  # atno 10167 bound_to 10162
  156.0394  130.4337  150.2341 H   0  0  0  0  0  0  0  0  0  0  0  0  # atno 10718 bound_to 10713
  153.8266  135.3109  155.3415 H   0  0  0  0  0  0  0  0  0  0  0  0  # atno 10763 bound_to 10752
  154.7991  135.4738  154.0234 H   0  0  0  0  0  0  0  0  0  0  0  0  # atno 10764 bound_to 10752
  153.1660  135.6869  153.8764 H   0  0  0  0  0  0  0  0  0  0  0  0  # atno 10765 bound_to 10752
  140.9278  134.1360  157.4260 H   0  0  0  0  0  0  0  0  0  0  0  0  # atno 11005 bound_to 11000
  144.8166  139.5866  143.7005 LP  0  0  0  0  0  0  0  0  0  0  0  0  # atno 17320 bound_to 7965
  146.2593  139.6374  142.9373 LP  0  0  0  0  0  0  0  0  0  0  0  0  # atno 17321 bound_to 7965
  140.7631  143.3216  151.2610 LP  0  0  0  0  0  0  0  0  0  0  0  0  # atno 17342 bound_to 10162
  139.6765  143.9929  152.2784 LP  0  0  0  0  0  0  0  0  0  0  0  0  # atno 17343 bound_to 10162
  157.0438  131.0043  151.3275 LP  0  0  0  0  0  0  0  0  0  0  0  0  # atno 17370 bound_to 10713
  157.5190  130.7986  149.7788 LP  0  0  0  0  0  0  0  0  0  0  0  0  # atno 17371 bound_to 10713
  139.8789  134.9994  156.5954 LP  0  0  0  0  0  0  0  0  0  0  0  0  # atno 17394 bound_to 11000
  140.7903  133.8588  155.8640 LP  0  0  0  0  0  0  0  0  0  0  0  0  # atno 17395 bound_to 11000

$$$$
