#       Name:                AV-unprocessed.smi:2829
#       Creating user name   scv26
#       Creation time:       Fri Mar 27 15:35:07 2020


#       File generated by GOLD software.
#

@<TRIPOS>MOLECULE
AV-unprocessed.smi:2829
    56    59     1
SMALL
NO_CHARGES


@<TRIPOS>ATOM
      1 ****        -5.9785  -0.3214  -0.6646 C.3            1 S1                 0.0000
      2 ****        -5.2839   0.9122  -0.0447 C.3            1 S1                 0.0000
      3 ****        -5.7764   2.1564  -0.8133 C.3            1 S1                 0.0000
      4 ****        -5.7234   0.9995   1.4317 C.3            1 S1                 0.0000
      5 ****        -3.7491   0.8249  -0.1251 C.ar           1 S1                 0.0000
      6 ****        -3.0652  -0.2735  -0.6934 C.ar           1 S1                 0.0000
      7 ****        -1.6608  -0.2364  -0.7020 C.ar           1 S1                 0.0000
      8 ****        -1.0154   0.8865  -0.1476 C.ar           1 S1                 0.0000
      9 ****         0.4018   0.8488  -0.1824 N.am           1 S1                 0.0000
     10 ****         1.2738   1.7444   0.3204 C.2            1 S1                 0.0000
     11 ****         0.9615   2.8221   0.8227 O.2            1 S1                 0.0000
     12 ****         2.5604   1.3649   0.2261 N.am           1 S1                 0.0000
     13 ****         3.7404   2.1054   0.6747 C.3            1 S1                 0.0000
     14 ****         5.0338   1.2789   0.5429 C.3            1 S1                 0.0000
     15 ****         5.8146   0.9059   1.7742 C.3            1 S1                 0.0000
     16 ****         6.9072   1.9775   1.8236 C.3            1 S1                 0.0000
     17 ****         6.3784   3.0653   1.0687 O.3            1 S1                 0.0000
     18 ****         5.6973   2.5145  -0.0545 C.3            1 S1                 0.0000
     19 ****         4.3144   3.1070  -0.3517 C.3            1 S1                 0.0000
     20 ****         3.8190   3.1967  -1.8080 C.3            1 S1                 0.0000
     21 ****         3.1595   4.5352  -1.4662 C.3            1 S1                 0.0000
     22 ****         4.0566   4.6155  -0.2273 C.3            1 S1                 0.0000
     23 ****        -1.7350   1.9079   0.3805 N.ar           1 S1                 0.0000
     24 ****        -3.0708   1.8784   0.3920 N.ar           1 S1                 0.0000
     25 ****        -7.0641  -0.2379  -0.5988 H              1 S1                 0.0000
     26 ****        -5.6992  -1.2428  -0.1520 H              1 S1                 0.0000
     27 ****        -5.7315  -0.4345  -1.7210 H              1 S1                 0.0000
     28 ****        -5.4673   2.1235  -1.8588 H              1 S1                 0.0000
     29 ****        -5.3848   3.0793  -0.3845 H              1 S1                 0.0000
     30 ****        -6.8642   2.2309  -0.7943 H              1 S1                 0.0000
     31 ****        -6.8093   1.0433   1.5213 H              1 S1                 0.0000
     32 ****        -5.3250   1.8886   1.9218 H              1 S1                 0.0000
     33 ****        -5.3814   0.1321   1.9976 H              1 S1                 0.0000
     34 ****        -3.5748  -1.1271  -1.1124 H              1 S1                 0.0000
     35 ****        -1.0951  -1.0549  -1.1230 H              1 S1                 0.0000
     36 ****         0.8041   0.0173  -0.5888 H              1 S1                 0.0000
     37 ****         2.7384   0.4726  -0.2120 H              1 S1                 0.0000
     38 ****         3.6479   2.5442   1.6707 H              1 S1                 0.0000
     39 ****         4.9471   0.4821  -0.1985 H              1 S1                 0.0000
     40 ****         5.1854   0.9523   2.6637 H              1 S1                 0.0000
     41 ****         6.2379  -0.0972   1.7155 H              1 S1                 0.0000
     42 ****         7.1573   2.2781   2.8412 H              1 S1                 0.0000
     43 ****         7.8172   1.6195   1.3397 H              1 S1                 0.0000
     44 ****         6.3372   2.3106  -0.9140 H              1 S1                 0.0000
     45 ****         4.6367   3.3121  -2.5207 H              1 S1                 0.0000
     46 ****         3.1262   2.4192  -2.1292 H              1 S1                 0.0000
     47 ****         3.3287   5.3233  -2.2002 H              1 S1                 0.0000
     48 ****         2.1018   4.4365  -1.2205 H              1 S1                 0.0000
     49 ****         3.5406   4.9167   0.6847 H              1 S1                 0.0000
     50 ****         4.9551   5.2109  -0.3970 H              1 S1                 0.0000
     51 ****        -0.0011   3.0871   0.8794 LP             1 S1                 0.0000
     52 ****         1.6700   3.4338   1.1746 LP             1 S1                 0.0000
     53 ****         7.1209   3.6599   0.7601 LP             1 S1                 0.0000
     54 ****         5.7406   3.5927   1.6301 LP             1 S1                 0.0000
     55 ****        -1.2576   2.6966   0.7679 LP             1 S1                 0.0000
     56 ****        -3.5774   2.6445   0.7877 LP             1 S1                 0.0000
@<TRIPOS>BOND
    1    1    2 1     
    2    1   25 1     
    3    1   26 1     
    4    1   27 1     
    5    2    3 1     
    6    2    4 1     
    7    2    5 1     
    8    3   28 1     
    9    3   29 1     
   10    3   30 1     
   11    4   31 1     
   12    4   32 1     
   13    4   33 1     
   14    5   24 ar    
   15    5    6 ar    
   16    6    7 ar    
   17    6   34 1     
   18    7    8 ar    
   19    7   35 1     
   20    8    9 1     
   21    8   23 ar    
   22    9   10 am    
   23    9   36 1     
   24   10   11 2     
   25   10   12 am    
   26   12   13 1     
   27   12   37 1     
   28   13   19 1     
   29   13   14 1     
   30   13   38 1     
   31   14   18 1     
   32   14   15 1     
   33   14   39 1     
   34   15   16 1     
   35   15   40 1     
   36   15   41 1     
   37   16   17 1     
   38   16   42 1     
   39   16   43 1     
   40   17   18 1     
   41   18   19 1     
   42   18   44 1     
   43   19   22 1     
   44   19   20 1     
   45   20   21 1     
   46   20   45 1     
   47   20   46 1     
   48   21   22 1     
   49   21   47 1     
   50   21   48 1     
   51   22   49 1     
   52   22   50 1     
   53   23   24 ar    
   54   11   51 1     
   55   11   52 1     
   56   17   53 1     
   57   17   54 1     
   58   23   55 1     
   59   24   56 1     
@<TRIPOS>SUBSTRUCTURE
      1 S1             1
@<TRIPOS>SET
LONE_PAIRS      STATIC     ATOMS    <user>   **** ""
6 51 52 53 54 55 56
DONOR_HYDROGENS      STATIC     ATOMS    <user>   **** ""
2 36 37
ATOM$BLUE        STATIC     ATOMS    COLORGROUP SYSTEM
6 51 52 53 54 55 56
ATOM$RED        STATIC     ATOMS    COLORGROUP SYSTEM
2 36 37
