AV-unprocessed.smi:1419|AV-procd|sdf|5776|dock3
  -GOLD-   22720 5423D 1   1.00000     0.00000
 Structure written by MMmdl.
 42 43  0  0  0  0  0  0  0  0  2 V2000
  147.3206  131.8792  153.1793 C   0  0  0  0  0  0  0  0  0  0  0  0
  147.1270  133.3972  153.0673 C   0  0  2  0  0  0  0  0  0  0  0  0
  147.0411  133.8438  151.5923 C   0  0  0  0  0  0  0  0  0  0  0  0
  145.7988  133.4178  150.9381 N   0  0  0  0  0  0  0  0  0  0  0  0
  145.6002  132.2845  150.1919 C   0  0  0  0  0  0  0  0  0  0  0  0
  144.2870  132.3009  149.7980 C   0  0  0  0  0  0  0  0  0  0  0  0
  143.7420  133.4467  150.3125 N   0  3  0  0  0  0  0  0  0  0  0  0
  144.6639  134.1269  151.0021 C   0  0  0  0  0  0  0  0  0  0  0  0
  148.2329  134.0662  153.7509 N   0  0  0  0  0  0  0  0  0  0  0  0
  148.6138  133.8649  155.0246 C   0  0  0  0  0  0  0  0  0  0  0  0
  148.0617  133.0391  155.7531 O   0  0  0  0  0  0  0  0  0  0  0  0
  149.6495  134.6381  155.4338 N   0  0  0  0  0  0  0  0  0  0  0  0
  150.2107  135.7999  154.7326 C   0  0  0  0  0  0  0  0  0  0  0  0
  149.7708  137.0701  155.4860 C   0  0  2  0  0  0  0  0  0  0  0  0
  150.3577  138.3419  154.8646 C   0  0  0  0  0  0  0  0  0  0  0  0
  150.2155  136.9968  156.8433 O   0  0  0  0  0  0  0  0  0  0  0  0
  149.8104  135.8326  157.5710 C   0  0  1  0  0  0  0  0  0  0  0  0
  148.3199  135.9013  157.9492 C   0  0  0  0  0  0  0  0  0  0  0  0
  150.2039  134.5614  156.7875 C   0  0  0  0  0  0  0  0  0  0  0  0
  146.4989  131.3428  152.7039 H   0  0  0  0  0  0  0  0  0  0  0  0
  147.3572  131.5639  154.2226 H   0  0  0  0  0  0  0  0  0  0  0  0
  148.2473  131.5587  152.7016 H   0  0  0  0  0  0  0  0  0  0  0  0
  146.1850  133.6374  153.5636 H   0  0  0  0  0  0  0  0  0  0  0  0
  147.1281  134.9286  151.5081 H   0  0  0  0  0  0  0  0  0  0  0  0
  147.8653  133.4162  151.0197 H   0  0  0  0  0  0  0  0  0  0  0  0
  146.3854  131.5650  150.0093 H   0  0  0  0  0  0  0  0  0  0  0  0
  143.7150  131.6014  149.2056 H   0  0  0  0  0  0  0  0  0  0  0  0
  144.5161  135.0589  151.5183 H   0  0  0  0  0  0  0  0  0  0  0  0
  148.7488  134.7479  153.2136 H   0  0  0  0  0  0  0  0  0  0  0  0
  151.2992  135.7242  154.7262 H   0  0  0  0  0  0  0  0  0  0  0  0
  149.9180  135.8672  153.6849 H   0  0  0  0  0  0  0  0  0  0  0  0
  148.6835  137.1512  155.4622 H   0  0  0  0  0  0  0  0  0  0  0  0
  150.0381  138.4572  153.8286 H   0  0  0  0  0  0  0  0  0  0  0  0
  151.4478  138.3212  154.8787 H   0  0  0  0  0  0  0  0  0  0  0  0
  150.0339  139.2272  155.4124 H   0  0  0  0  0  0  0  0  0  0  0  0
  150.3772  135.8399  158.5024 H   0  0  0  0  0  0  0  0  0  0  0  0
  148.0392  135.0507  158.5705 H   0  0  0  0  0  0  0  0  0  0  0  0
  147.6701  135.8940  157.0759 H   0  0  0  0  0  0  0  0  0  0  0  0
  148.1051  136.8082  158.5143 H   0  0  0  0  0  0  0  0  0  0  0  0
  149.8848  133.6689  157.3281 H   0  0  0  0  0  0  0  0  0  0  0  0
  151.2906  134.4904  156.7210 H   0  0  0  0  0  0  0  0  0  0  0  0
  142.7802  133.7387  150.1910 H   0  0  0  0  0  0  0  0  0  0  0  0
  1  2  1  0  0  0  0
  1 20  1  0  0  0  0
  1 21  1  0  0  0  0
  1 22  1  0  0  0  0
  2  3  1  0  0  0  0
  2  9  1  0  0  0  0
  2 23  1  0  0  0  0
  3  4  1  0  0  0  0
  3 24  1  0  0  0  0
  3 25  1  0  0  0  0
  4  8  1  0  0  0  0
  4  5  1  0  0  0  0
  5  6  2  0  0  0  0
  5 26  1  0  0  0  0
  6  7  1  0  0  0  0
  6 27  1  0  0  0  0
  7  8  2  0  0  0  0
  7 42  1  0  0  0  0
  8 28  1  0  0  0  0
  9 10  1  0  0  0  0
  9 29  1  0  0  0  0
 10 11  2  0  0  0  0
 10 12  1  0  0  0  0
 12 19  1  0  0  0  0
 12 13  1  0  0  0  0
 13 14  1  0  0  0  0
 13 30  1  0  0  0  0
 13 31  1  0  0  0  0
 14 15  1  0  0  0  0
 14 16  1  0  0  0  0
 14 32  1  0  0  0  0
 15 33  1  0  0  0  0
 15 34  1  0  0  0  0
 15 35  1  0  0  0  0
 16 17  1  0  0  0  0
 17 18  1  0  0  0  0
 17 19  1  0  0  0  0
 17 36  1  0  0  0  0
 18 37  1  0  0  0  0
 18 38  1  0  0  0  0
 18 39  1  0  0  0  0
 19 40  1  0  0  0  0
 19 41  1  0  0  0  0
M  CHG  1   7   1
M  END
> <s_m_source_file>
AV-unprocessed.smi

> <i_m_source_file_index>
1419

> <i_lp_mmshare_version>
43012

> <i_f3d_flags>
0

> <s_epik_input>
W2NIXTFuW2NIXVtjSF1uMVtDSDJdW0NAQEhdKFtDSDNdKVtOSF1DKD1PKU4yW0NIMl1bQ0BASF0oW0NIM10pT1tDQEBIXShbQ0gzXSlbQ0gyXTI=

> <s_epik_cmdline>
J2VwaWtfcHl0aG9uJywgJy1waCcsICc3LjAnLCAnLXRuJywgJzgnLCAnLW1hJywgJzIwMCcsICctbWV0YWxfYmluZGluZycsICctaW1hZScsICc8aW5maWxlLm1hZT4nLCAnLW9tYWUnLCAnPG91dGZpbGUubWFlPic=

> <r_lp_tautomer_probability>
1

> <r_epik_Ionization_Penalty>
0.253607

> <r_epik_Ionization_Penalty_Charging>
0

> <r_epik_Ionization_Penalty_Neutral>
0.253607

> <r_epik_State_Penalty>
0.245018

> <r_epik_Charging_Adjusted_Penalty>
0.245018

> <i_epik_Tot_Q>
1

> <i_epik_Tot_abs_Q>
1

> <r_epik_Metal_State_Penalty>
0.535379

> <b_epik_Metal_Only>
0

> <s_lp_Force_Field>
OPLS_2005

> <r_lp_Energy>
31.3779

> <b_lp_Chiralities_Consistent>
1

> <s_lp_Variant>
AV-unprocessed.smi:1419-3

> <Gold.Version>
5.8.1

> <Gold.Id.Protein>
6NUR|6NUR_protein|mol2

> <Gold.PLP.Fitness>
36.7435

> <Gold.PLP.PLP>
-26.5218

> <Gold.PLP.part.hbond>
-1.9804

> <Gold.PLP.part.metal>
0.0000

> <Gold.PLP.part.buried>
-2.6965

> <Gold.PLP.part.nonpolar>
-22.0949

> <Gold.PLP.part.repulsive>
0.0224

> <Gold.PLP.ligand.clash>
0.0000

> <Gold.PLP.ligand.torsion>
0.4667

> <Gold.PLP.Chemscore.Hbond>
2.9825

> <Gold.PLP.Chemscore.CHOScore>
0.7094

> <Gold.PLP.Chemscore.Metal>
0.0000

> <Gold.Chemscore.Hbonds>
donor molecule, donor type, donor heavy atom, donor atom, acceptor molecule, acceptor atom, score
      L1  H     7    42       P1 10186  2.00
      L1  H     9    29       P1  7948  1.00
      L1  C     5    26       P1 10747  0.61

> <Gold.PLP.Chemscore.Internal.Correction>
0.0794

> <Gold.Rescore>
     Score         DG    S(hbond)    S(metal)    S(lipo)     H(rot)  DE(clash)    DE(int)     intcor
     11.60     -13.88       1.76        0.00      57.15       1.63       0.54       1.74       ----

> <Gold.Chemscore.Fitness>
11.5982

> <Gold.Chemscore.DG>
-13.8795

> <Gold.Chemscore.ZeroCoef>
-5.4800

> <Gold.Chemscore.Hbond>
1.7602

> <Gold.Chemscore.Metal>
0.0000

> <Gold.Chemscore.Lipo>
57.1483

> <Gold.Chemscore.Internal_Hbond>
0.0000

> <Gold.Chemscore.DEClash>
0.5397

> <Gold.Chemscore.DEInternal>
1.7416

> <Gold.Chemscore.Rot>
1.6273

> <Gold.Chemscore.Internal.Correction>
   9.000000E+99

> <Gold.Chemscore.Hbonds>
donor molecule, donor type, donor heavy atom, donor atom, acceptor molecule, acceptor atom, score
      L1  H     7    42       P1 10186  0.96
      L1  H     9    29       P1  7948  0.29

> <Gold.Chemscore.Hbond.Weighted>
-5.8790

> <Gold.Chemscore.Metal.Weighted>
-0.0000

> <Gold.Chemscore.Lipo.Weighted>
-6.6863

> <Gold.Chemscore.Internal_Hbond.Weighted>
0.0000

> <Gold.Chemscore.DEClash.Weighted>
0.5397

> <Gold.Chemscore.DEInternal.Weighted>
1.7416

> <Gold.Chemscore.Rot.Weighted>
4.1658

> <Gold.Chemscore.Internal.Correction.Weighted>
   9.000000E+99

> <Gold.Protein.RotatedTorsions>
[ 6907 6896 6895 6894 ] final  131.55 input  -60.11 | X-H torsion
[ 7974 7965 7964 7962 ] final  -18.79 input  175.53 | X-H torsion
[ 8008 7997 7996 7995 ] final  119.94 input   59.86 | X-H torsion
[ 10167 10162 10161 10158 ] final -100.53 input  -65.29 | X-H torsion
[ 10718 10713 10712 10709 ] final  -33.10 input   66.30 | X-H torsion
[ 10763 10752 10751 10750 ] final   35.52 input  -60.55 | X-H torsion
[ 11005 11000 10999 10996 ] final  142.68 input  -57.11 | X-H torsion

> <Gold.Protein.ActiveResidues>
 VAL166  LYS551  ARG553  GLY616  TRP617  ASP618  TYR619  PRO620  LYS621  CYS622 
 ASP623  PHE694  ASN695  SER759  ASP760  ASP761  ALA762  ILE779  LEU786  VAL792 
 PHE793  MET794  SER795  GLU796  ALA797  LYS798  CYS799  TRP800  GLU811  SER814 

> <Gold.Protein.RotatedAtoms>
  152.3415  133.6072  159.5879 H   0  0  0  0  0  0  0  0  0  0  0  0  # atno 6907 bound_to 6896
  150.7481  133.9715  159.3556 H   0  0  0  0  0  0  0  0  0  0  0  0  # atno 6908 bound_to 6896
  151.7578  135.0818  160.0392 H   0  0  0  0  0  0  0  0  0  0  0  0  # atno 6909 bound_to 6896
  146.1874  140.3970  142.8471 H   0  0  0  0  0  0  0  0  0  0  0  0  # atno 7974 bound_to 7965
  156.2619  140.2842  156.1070 H   0  0  0  0  0  0  0  0  0  0  0  0  # atno 8008 bound_to 7997
  155.1298  140.0393  157.2789 H   0  0  0  0  0  0  0  0  0  0  0  0  # atno 8009 bound_to 7997
  154.6608  140.2566  155.7117 H   0  0  0  0  0  0  0  0  0  0  0  0  # atno 8010 bound_to 7997
  140.2509  143.3473  152.0715 H   0  0  0  0  0  0  0  0  0  0  0  0  # atno 10167 bound_to 10162
  156.3668  130.4333  149.7578 H   0  0  0  0  0  0  0  0  0  0  0  0  # atno 10718 bound_to 10713
  153.0116  135.6331  154.1840 H   0  0  0  0  0  0  0  0  0  0  0  0  # atno 10763 bound_to 10752
  154.1581  135.2825  155.3118 H   0  0  0  0  0  0  0  0  0  0  0  0  # atno 10764 bound_to 10752
  154.6002  135.5590  153.7427 H   0  0  0  0  0  0  0  0  0  0  0  0  # atno 10765 bound_to 10752
  140.0495  134.9263  157.0992 H   0  0  0  0  0  0  0  0  0  0  0  0  # atno 11005 bound_to 11000
  144.8423  140.6876  143.6221 LP  0  0  0  0  0  0  0  0  0  0  0  0  # atno 17320 bound_to 7965
  145.3896  139.1619  143.4236 LP  0  0  0  0  0  0  0  0  0  0  0  0  # atno 17321 bound_to 7965
  139.5046  144.6779  151.6081 LP  0  0  0  0  0  0  0  0  0  0  0  0  # atno 17342 bound_to 10162
  140.6041  143.9556  150.6406 LP  0  0  0  0  0  0  0  0  0  0  0  0  # atno 17343 bound_to 10162
  156.4721  130.8001  151.3019 LP  0  0  0  0  0  0  0  0  0  0  0  0  # atno 17370 bound_to 10713
  157.7479  131.0032  150.3031 LP  0  0  0  0  0  0  0  0  0  0  0  0  # atno 17371 bound_to 10713
  140.3939  134.2154  155.7165 LP  0  0  0  0  0  0  0  0  0  0  0  0  # atno 17394 bound_to 11000
  141.1923  133.8175  157.0843 LP  0  0  0  0  0  0  0  0  0  0  0  0  # atno 17395 bound_to 11000

$$$$
