AV-unprocessed.smi:2007|AV-procd|sdf|8136|dock8
  -GOLD-   2272010373D 1   1.00000     0.00000
 Structure written by MMmdl.
 37 38  0  0  0  0  0  0  0  0  2 V2000
  145.6098  134.1991  156.8965 C   0  0  0  0  0  0  0  0  0  0  0  0
  145.4828  134.2792  155.3691 C   0  0  1  0  0  0  0  0  0  0  0  0
  146.1159  133.0415  154.6912 C   0  0  0  0  0  0  0  0  0  0  0  0
  145.4202  132.6376  153.4431 N   0  3  0  0  0  0  0  0  0  0  0  0
  145.3795  133.7060  152.4151 C   0  0  0  0  0  0  0  0  0  0  0  0
  144.5746  133.2353  151.1925 C   0  0  0  0  0  0  0  0  0  0  0  0
  145.1521  132.0430  150.6737 O   0  0  0  0  0  0  0  0  0  0  0  0
  145.1306  130.9834  151.6226 C   0  0  0  0  0  0  0  0  0  0  0  0
  145.9492  131.3816  152.8627 C   0  0  0  0  0  0  0  0  0  0  0  0
  144.0687  134.4212  155.0184 N   0  0  0  0  0  0  0  0  0  0  0  0
  143.4531  135.5606  154.6673 C   0  0  0  0  0  0  0  0  0  0  0  0
  144.0350  136.6404  154.5613 O   0  0  0  0  0  0  0  0  0  0  0  0
  142.1428  135.3590  154.4440 N   0  0  0  0  0  0  0  0  0  0  0  0
  141.1716  136.3028  154.0184 C   0  0  0  0  0  0  0  0  0  0  0  0
  139.8631  136.2104  154.2835 N   0  0  0  0  0  0  0  0  0  0  0  0
  139.1426  137.2799  153.7453 C   0  0  0  0  0  0  0  0  0  0  0  0
  139.9245  138.1854  153.0724 C   0  0  0  0  0  0  0  0  0  0  0  0
  141.6070  137.7290  153.0883 S   0  0  0  0  0  0  0  0  0  0  0  0
  146.6552  134.1341  157.1999 H   0  0  0  0  0  0  0  0  0  0  0  0
  145.0937  133.3246  157.2946 H   0  0  0  0  0  0  0  0  0  0  0  0
  145.1849  135.0829  157.3736 H   0  0  0  0  0  0  0  0  0  0  0  0
  146.0186  135.1764  155.0559 H   0  0  0  0  0  0  0  0  0  0  0  0
  147.1718  133.2151  154.4785 H   0  0  0  0  0  0  0  0  0  0  0  0
  146.0838  132.2141  155.4020 H   0  0  0  0  0  0  0  0  0  0  0  0
  144.9245  134.6088  152.8213 H   0  0  0  0  0  0  0  0  0  0  0  0
  146.3953  133.9676  152.1147 H   0  0  0  0  0  0  0  0  0  0  0  0
  143.5294  133.0646  151.4560 H   0  0  0  0  0  0  0  0  0  0  0  0
  144.5870  134.0008  150.4167 H   0  0  0  0  0  0  0  0  0  0  0  0
  144.1012  130.7456  151.8960 H   0  0  0  0  0  0  0  0  0  0  0  0
  145.5531  130.0892  151.1643 H   0  0  0  0  0  0  0  0  0  0  0  0
  146.9988  131.5140  152.5955 H   0  0  0  0  0  0  0  0  0  0  0  0
  145.9028  130.5816  153.6023 H   0  0  0  0  0  0  0  0  0  0  0  0
  143.5067  133.5842  155.0775 H   0  0  0  0  0  0  0  0  0  0  0  0
  141.7986  134.4219  154.5928 H   0  0  0  0  0  0  0  0  0  0  0  0
  138.0731  137.3184  153.8903 H   0  0  0  0  0  0  0  0  0  0  0  0
  139.6136  139.0899  152.5704 H   0  0  0  0  0  0  0  0  0  0  0  0
  144.4624  132.4463  153.7020 H   0  0  0  0  0  0  0  0  0  0  0  0
  1  2  1  0  0  0  0
  1 19  1  0  0  0  0
  1 20  1  0  0  0  0
  1 21  1  0  0  0  0
  2  3  1  0  0  0  0
  2 10  1  0  0  0  0
  2 22  1  0  0  0  0
  3  4  1  0  0  0  0
  3 23  1  0  0  0  0
  3 24  1  0  0  0  0
  4  9  1  0  0  0  0
  4  5  1  0  0  0  0
  4 37  1  0  0  0  0
  5  6  1  0  0  0  0
  5 25  1  0  0  0  0
  5 26  1  0  0  0  0
  6  7  1  0  0  0  0
  6 27  1  0  0  0  0
  6 28  1  0  0  0  0
  7  8  1  0  0  0  0
  8  9  1  0  0  0  0
  8 29  1  0  0  0  0
  8 30  1  0  0  0  0
  9 31  1  0  0  0  0
  9 32  1  0  0  0  0
 10 11  1  0  0  0  0
 10 33  1  0  0  0  0
 11 12  2  0  0  0  0
 11 13  1  0  0  0  0
 13 14  1  0  0  0  0
 13 34  1  0  0  0  0
 14 18  1  0  0  0  0
 14 15  2  0  0  0  0
 15 16  1  0  0  0  0
 16 17  2  0  0  0  0
 16 35  1  0  0  0  0
 17 18  1  0  0  0  0
 17 36  1  0  0  0  0
M  CHG  1   4   1
M  END
> <s_m_source_file>
AV-unprocessed.smi

> <i_m_source_file_index>
2007

> <i_lp_mmshare_version>
43012

> <i_f3d_flags>
0

> <s_epik_input>
W0NIMl0xW0NIMl1PW0NIMl1bQ0gyXU4xW0NIMl1bQ0BASF0oW0NIM10pW05IXUMoPU8pW05IXWMybltjSF1bY0hdczI=

> <s_epik_cmdline>
J2VwaWtfcHl0aG9uJywgJy1waCcsICc3LjAnLCAnLXRuJywgJzgnLCAnLW1hJywgJzIwMCcsICctbWV0YWxfYmluZGluZycsICctaW1hZScsICc8aW5maWxlLm1hZT4nLCAnLW9tYWUnLCAnPG91dGZpbGUubWFlPic=

> <r_lp_tautomer_probability>
0.999

> <r_epik_Ionization_Penalty>
0.695848

> <r_epik_Ionization_Penalty_Charging>
0.695697

> <r_epik_Ionization_Penalty_Neutral>
0.000150585

> <r_epik_State_Penalty>
0.717972

> <r_epik_Charging_Adjusted_Penalty>
1.41367

> <i_epik_Tot_Q>
1

> <i_epik_Tot_abs_Q>
1

> <r_epik_Metal_State_Penalty>
0.763271

> <b_epik_Metal_Only>
0

> <s_lp_Force_Field>
OPLS_2005

> <r_lp_Energy>
20.6539

> <b_lp_Chiralities_Consistent>
1

> <s_lp_Variant>
AV-unprocessed.smi:2007-4

> <Gold.Version>
5.8.1

> <Gold.Id.Protein>
6NUR|6NUR_protein|mol2

> <Gold.PLP.Fitness>
36.7260

> <Gold.PLP.PLP>
-24.7836

> <Gold.PLP.part.hbond>
-3.8698

> <Gold.PLP.part.metal>
0.0000

> <Gold.PLP.part.buried>
-6.3131

> <Gold.PLP.part.nonpolar>
-16.1079

> <Gold.PLP.part.repulsive>
0.2678

> <Gold.PLP.ligand.clash>
0.0000

> <Gold.PLP.ligand.torsion>
0.8300

> <Gold.PLP.Chemscore.Hbond>
3.5269

> <Gold.PLP.Chemscore.CHOScore>
1.0000

> <Gold.PLP.Chemscore.Metal>
0.0000

> <Gold.Chemscore.Hbonds>
donor molecule, donor type, donor heavy atom, donor atom, acceptor molecule, acceptor atom, score
      L1  H     4    37       P1 10957  1.20
      L1  H    10    33       P1 10957  1.00
      P1  H 11000 11005       L1    15  0.40
      L1  C    17    36       P1 10160  1.00

> <Gold.PLP.Chemscore.Internal.Correction>
0.0218

> <Gold.Rescore>
     Score         DG    S(hbond)    S(metal)    S(lipo)     H(rot)  DE(clash)    DE(int)     intcor
     15.26     -16.13       2.54        0.00      54.29       1.63       0.10       0.77       ----

> <Gold.Chemscore.Fitness>
15.2639

> <Gold.Chemscore.DG>
-16.1274

> <Gold.Chemscore.ZeroCoef>
-5.4800

> <Gold.Chemscore.Hbond>
2.5360

> <Gold.Chemscore.Metal>
0.0000

> <Gold.Chemscore.Lipo>
54.2854

> <Gold.Chemscore.Internal_Hbond>
0.0000

> <Gold.Chemscore.DEClash>
0.0960

> <Gold.Chemscore.DEInternal>
0.7674

> <Gold.Chemscore.Rot>
1.6306

> <Gold.Chemscore.Internal.Correction>
   9.000000E+99

> <Gold.Chemscore.Hbonds>
donor molecule, donor type, donor heavy atom, donor atom, acceptor molecule, acceptor atom, score
      L1  H     4    37       P1 10957  0.18
      L1  H    10    33       P1 10957  0.94
      P1  H 11000 11005       L1    15  0.09

> <Gold.Chemscore.Hbond.Weighted>
-8.4703

> <Gold.Chemscore.Metal.Weighted>
-0.0000

> <Gold.Chemscore.Lipo.Weighted>
-6.3514

> <Gold.Chemscore.Internal_Hbond.Weighted>
0.0000

> <Gold.Chemscore.DEClash.Weighted>
0.0960

> <Gold.Chemscore.DEInternal.Weighted>
0.7674

> <Gold.Chemscore.Rot.Weighted>
4.1743

> <Gold.Chemscore.Internal.Correction.Weighted>
   9.000000E+99

> <Gold.Protein.RotatedTorsions>
[ 6907 6896 6895 6894 ] final -155.50 input  -60.11 | X-H torsion
[ 7974 7965 7964 7962 ] final  -36.76 input  175.53 | X-H torsion
[ 8008 7997 7996 7995 ] final  135.80 input   59.86 | X-H torsion
[ 10167 10162 10161 10158 ] final   35.51 input  -65.29 | X-H torsion
[ 10718 10713 10712 10709 ] final -179.29 input   66.30 | X-H torsion
[ 10763 10752 10751 10750 ] final -140.69 input  -60.55 | X-H torsion
[ 11005 11000 10999 10996 ] final   69.14 input  -57.11 | X-H torsion

> <Gold.Protein.ActiveResidues>
 VAL166  LYS551  ARG553  GLY616  TRP617  ASP618  TYR619  PRO620  LYS621  CYS622 
 ASP623  PHE694  ASN695  SER759  ASP760  ASP761  ALA762  ILE779  LEU786  VAL792 
 PHE793  MET794  SER795  GLU796  ALA797  LYS798  CYS799  TRP800  GLU811  SER814 

> <Gold.Protein.RotatedAtoms>
  151.2734  133.4244  159.2622 H   0  0  0  0  0  0  0  0  0  0  0  0  # atno 6907 bound_to 6896
  151.0425  134.9617  159.8179 H   0  0  0  0  0  0  0  0  0  0  0  0  # atno 6908 bound_to 6896
  152.5368  134.2691  159.9017 H   0  0  0  0  0  0  0  0  0  0  0  0  # atno 6909 bound_to 6896
  146.0634  140.6316  142.8986 H   0  0  0  0  0  0  0  0  0  0  0  0  # atno 7974 bound_to 7965
  156.3003  140.2461  156.3640 H   0  0  0  0  0  0  0  0  0  0  0  0  # atno 8008 bound_to 7997
  154.8850  140.0411  157.1824 H   0  0  0  0  0  0  0  0  0  0  0  0  # atno 8009 bound_to 7997
  154.8656  140.2927  155.5516 H   0  0  0  0  0  0  0  0  0  0  0  0  # atno 8010 bound_to 7997
  140.4215  144.1452  150.6148 H   0  0  0  0  0  0  0  0  0  0  0  0  # atno 10167 bound_to 10162
  156.8569  130.9738  151.3087 H   0  0  0  0  0  0  0  0  0  0  0  0  # atno 10718 bound_to 10713
  154.8570  135.3546  154.5747 H   0  0  0  0  0  0  0  0  0  0  0  0  # atno 10763 bound_to 10752
  153.6359  135.7000  153.5263 H   0  0  0  0  0  0  0  0  0  0  0  0  # atno 10764 bound_to 10752
  153.3011  135.4206  155.1212 H   0  0  0  0  0  0  0  0  0  0  0  0  # atno 10765 bound_to 10752
  139.9670  134.6963  156.0524 H   0  0  0  0  0  0  0  0  0  0  0  0  # atno 11005 bound_to 11000
  144.7188  140.4302  143.7024 LP  0  0  0  0  0  0  0  0  0  0  0  0  # atno 17320 bound_to 7965
  145.6521  139.1566  143.2856 LP  0  0  0  0  0  0  0  0  0  0  0  0  # atno 17321 bound_to 7965
  140.4528  143.2480  151.9325 LP  0  0  0  0  0  0  0  0  0  0  0  0  # atno 17342 bound_to 10162
  139.4783  144.5545  151.8334 LP  0  0  0  0  0  0  0  0  0  0  0  0  # atno 17343 bound_to 10162
  157.6272  130.8700  149.9210 LP  0  0  0  0  0  0  0  0  0  0  0  0  # atno 17370 bound_to 10713
  156.0797  130.3674  150.0605 LP  0  0  0  0  0  0  0  0  0  0  0  0  # atno 17371 bound_to 10713
  141.1350  133.6577  156.3569 LP  0  0  0  0  0  0  0  0  0  0  0  0  # atno 17394 bound_to 11000
  140.5374  134.6153  157.5369 LP  0  0  0  0  0  0  0  0  0  0  0  0  # atno 17395 bound_to 11000

$$$$
