#       Name:                AV-unprocessed.smi:1067
#       Creating user name   scv26
#       Creation time:       Fri Mar 27 03:18:37 2020


#       File generated by GOLD software.
#

@<TRIPOS>MOLECULE
AV-unprocessed.smi:1067
    57    59     1
SMALL
NO_CHARGES


@<TRIPOS>ATOM
      1 ****        -4.0163   2.0071   3.9829 N.am           1 S1                 0.0000
      2 ****        -3.2378   1.9877   2.8964 C.2            1 S1                 0.0000
      3 ****        -2.0986   2.4506   2.9308 O.2            1 S1                 0.0000
      4 ****        -3.7970   1.3508   1.5915 C.3            1 S1                 0.0000
      5 ****        -3.3905  -0.1504   1.5471 C.3            1 S1                 0.0000
      6 ****        -1.9450  -0.3816   1.5772 N.am           1 S1                 0.0000
      7 ****        -1.1791  -0.6719   0.5162 C.2            1 S1                 0.0000
      8 ****        -1.6195  -0.7971  -0.6264 O.2            1 S1                 0.0000
      9 ****         0.1087  -0.8148   0.8729 N.am           1 S1                 0.0000
     10 ****         1.2230  -1.1223   0.0469 C.ar           1 S1                 0.0000
     11 ****         1.2751  -0.8735  -1.3442 C.ar           1 S1                 0.0000
     12 ****         2.4425  -1.2123  -2.0545 C.ar           1 S1                 0.0000
     13 ****         3.5341  -1.7816  -1.3570 C.ar           1 S1                 0.0000
     14 ****         4.7148  -2.1465  -2.0331 N.pl3          1 S1                 0.0000
     15 ****         5.9041  -2.5920  -1.3246 C.3            1 S1                 0.0000
     16 ****         6.9523  -2.7863  -2.4192 C.3            1 S1                 0.0000
     17 ****         6.5823  -1.7172  -3.4477 C.3            1 S1                 0.0000
     18 ****         5.0568  -1.6047  -3.3407 C.3            1 S1                 0.0000
     19 ****         3.4863  -2.0073  -0.0225 N.ar           1 S1                 0.0000
     20 ****         2.3658  -1.6792   0.6540 C.ar           1 S1                 0.0000
     21 ****        -5.3454   1.4499   1.5004 C.3            1 S1                 0.0000
     22 ****        -5.8396   2.8963   1.3008 C.3            1 S1                 0.0000
     23 ****        -5.2562   3.4468   0.1267 O.3            1 S1                 0.0000
     24 ****        -3.8370   3.5130   0.1925 C.3            1 S1                 0.0000
     25 ****        -3.2515   2.0954   0.3414 C.3            1 S1                 0.0000
     26 ****        -3.6730   2.4209   4.8378 H              1 S1                 0.0000
     27 ****        -4.9455   1.6139   3.9456 H              1 S1                 0.0000
     28 ****        -3.8178  -0.6710   2.4051 H              1 S1                 0.0000
     29 ****        -3.8299  -0.6332   0.6725 H              1 S1                 0.0000
     30 ****        -1.4933  -0.2961   2.4762 H              1 S1                 0.0000
     31 ****         0.3055  -0.7576   1.8614 H              1 S1                 0.0000
     32 ****         0.4527  -0.4229  -1.8777 H              1 S1                 0.0000
     33 ****         2.4812  -1.0360  -3.1189 H              1 S1                 0.0000
     34 ****         6.2186  -1.8196  -0.6215 H              1 S1                 0.0000
     35 ****         5.7238  -3.5135  -0.7701 H              1 S1                 0.0000
     36 ****         7.9740  -2.6919  -2.0507 H              1 S1                 0.0000
     37 ****         6.8428  -3.7767  -2.8634 H              1 S1                 0.0000
     38 ****         7.0388  -0.7679  -3.1641 H              1 S1                 0.0000
     39 ****         6.9183  -1.9621  -4.4554 H              1 S1                 0.0000
     40 ****         4.5692  -2.2050  -4.1094 H              1 S1                 0.0000
     41 ****         4.7328  -0.5697  -3.4550 H              1 S1                 0.0000
     42 ****         2.3814  -1.8771   1.7159 H              1 S1                 0.0000
     43 ****        -5.6932   0.8570   0.6530 H              1 S1                 0.0000
     44 ****        -5.8264   1.0065   2.3731 H              1 S1                 0.0000
     45 ****        -6.9236   2.9055   1.1859 H              1 S1                 0.0000
     46 ****        -5.6112   3.5242   2.1628 H              1 S1                 0.0000
     47 ****        -3.4682   3.9715  -0.7252 H              1 S1                 0.0000
     48 ****        -3.5282   4.1623   1.0128 H              1 S1                 0.0000
     49 ****        -2.1627   2.1567   0.3575 H              1 S1                 0.0000
     50 ****        -3.4978   1.5241  -0.5547 H              1 S1                 0.0000
     51 ****        -1.7454   2.8471   3.7781 LP             1 S1                 0.0000
     52 ****        -1.5257   2.4303   2.1114 LP             1 S1                 0.0000
     53 ****        -2.5974  -0.6813  -0.8009 LP             1 S1                 0.0000
     54 ****        -0.9995  -1.0146  -1.3802 LP             1 S1                 0.0000
     55 ****         4.2680  -2.4103   0.4534 LP             1 S1                 0.0000
     56 ****        -5.6131   4.3718  -0.0033 LP             1 S1                 0.0000
     57 ****        -5.5132   2.8776  -0.6543 LP             1 S1                 0.0000
@<TRIPOS>BOND
    1    1    2 am    
    2    1   26 1     
    3    1   27 1     
    4    2    3 2     
    5    2    4 1     
    6    4   25 1     
    7    4    5 1     
    8    4   21 1     
    9    5    6 1     
   10    5   28 1     
   11    5   29 1     
   12    6    7 am    
   13    6   30 1     
   14    7    8 2     
   15    7    9 am    
   16    9   10 1     
   17    9   31 1     
   18   10   20 ar    
   19   10   11 ar    
   20   11   12 ar    
   21   11   32 1     
   22   12   13 ar    
   23   12   33 1     
   24   13   14 1     
   25   13   19 ar    
   26   14   18 1     
   27   14   15 1     
   28   15   16 1     
   29   15   34 1     
   30   15   35 1     
   31   16   17 1     
   32   16   36 1     
   33   16   37 1     
   34   17   18 1     
   35   17   38 1     
   36   17   39 1     
   37   18   40 1     
   38   18   41 1     
   39   19   20 ar    
   40   20   42 1     
   41   21   22 1     
   42   21   43 1     
   43   21   44 1     
   44   22   23 1     
   45   22   45 1     
   46   22   46 1     
   47   23   24 1     
   48   24   25 1     
   49   24   47 1     
   50   24   48 1     
   51   25   49 1     
   52   25   50 1     
   53    3   51 1     
   54    3   52 1     
   55    8   53 1     
   56    8   54 1     
   57   19   55 1     
   58   23   56 1     
   59   23   57 1     
@<TRIPOS>SUBSTRUCTURE
      1 S1             1
@<TRIPOS>SET
LONE_PAIRS      STATIC     ATOMS    <user>   **** ""
7 51 52 53 54 55 56 57
DONOR_HYDROGENS      STATIC     ATOMS    <user>   **** ""
4 26 27 30 31
ATOM$BLUE        STATIC     ATOMS    COLORGROUP SYSTEM
7 51 52 53 54 55 56 57
ATOM$RED        STATIC     ATOMS    COLORGROUP SYSTEM
4 26 27 30 31
