AV-unprocessed.smi:1483|AV-procd|sdf|5992|dock2
  -GOLD-   22720 6 83D 1   1.00000     0.00000
 Structure written by MMmdl.
 50 51  0  0  0  0  0  0  0  0  3 V2000
  150.9583  145.4818  158.8158 C   0  0  0  0  0  0  0  0  0  0  0  0
  151.3019  144.0181  158.6376 C   0  0  0  0  0  0  0  0  0  0  0  0
  152.2744  143.3708  159.4296 C   0  0  0  0  0  0  0  0  0  0  0  0
  152.5419  142.0034  159.2110 C   0  0  0  0  0  0  0  0  0  0  0  0
  151.8322  141.3097  158.2057 C   0  0  0  0  0  0  0  0  0  0  0  0
  152.0975  139.8376  157.9448 C   0  0  0  0  0  0  0  0  0  0  0  0
  152.0192  139.5437  156.4467 C   0  0  0  0  0  0  0  0  0  0  0  0
  153.0529  139.4713  155.7836 O   0  0  0  0  0  0  0  0  0  0  0  0
  150.7902  139.3662  155.9365 N   0  0  0  0  0  0  0  0  0  0  0  0
  150.4764  139.0469  154.5435 C   0  0  2  0  0  0  0  0  0  0  0  0
  148.9714  138.7807  154.3674 C   0  0  0  0  0  0  0  0  0  0  0  0
  148.5382  137.4510  155.0107 C   0  0  0  0  0  0  0  0  0  0  0  0
  149.3410  136.3133  154.4885 N   0  3  2  0  0  0  0  0  0  0  0  0
  148.8746  134.9907  154.9804 C   0  0  0  0  0  0  0  0  0  0  0  0
  149.5818  133.8045  154.2897 C   0  0  0  0  0  0  0  0  0  0  0  0
  148.6803  133.1970  153.2043 C   0  0  0  0  0  0  0  0  0  0  0  0
  150.0082  132.7246  155.2987 C   0  0  0  0  0  0  0  0  0  0  0  0
  150.7940  136.5191  154.7203 C   0  0  0  0  0  0  0  0  0  0  0  0
  151.2848  137.8262  154.0716 C   0  0  0  0  0  0  0  0  0  0  0  0
  150.8690  142.0096  157.4462 C   0  0  0  0  0  0  0  0  0  0  0  0
  150.6426  143.3197  157.6858 N   0  3  0  0  0  0  0  0  0  0  0  0
  151.7264  145.9961  159.3942 H   0  0  0  0  0  0  0  0  0  0  0  0
  150.0080  145.5851  159.3403 H   0  0  0  0  0  0  0  0  0  0  0  0
  150.8742  145.9785  157.8486 H   0  0  0  0  0  0  0  0  0  0  0  0
  152.8087  143.9134  160.1961 H   0  0  0  0  0  0  0  0  0  0  0  0
  153.2846  141.4956  159.8090 H   0  0  0  0  0  0  0  0  0  0  0  0
  153.0766  139.5540  158.3338 H   0  0  0  0  0  0  0  0  0  0  0  0
  151.3611  139.2330  158.4761 H   0  0  0  0  0  0  0  0  0  0  0  0
  150.0073  139.4508  156.5683 H   0  0  0  0  0  0  0  0  0  0  0  0
  150.7444  139.8907  153.9055 H   0  0  0  0  0  0  0  0  0  0  0  0
  148.3902  139.6057  154.7813 H   0  0  0  0  0  0  0  0  0  0  0  0
  148.7372  138.7512  153.3024 H   0  0  0  0  0  0  0  0  0  0  0  0
  148.6421  137.5046  156.0954 H   0  0  0  0  0  0  0  0  0  0  0  0
  147.4799  137.2937  154.8071 H   0  0  0  0  0  0  0  0  0  0  0  0
  149.0561  134.9143  156.0536 H   0  0  0  0  0  0  0  0  0  0  0  0
  147.7930  134.9221  154.8526 H   0  0  0  0  0  0  0  0  0  0  0  0
  150.4784  134.1643  153.7860 H   0  0  0  0  0  0  0  0  0  0  0  0
  147.7597  132.7966  153.6300 H   0  0  0  0  0  0  0  0  0  0  0  0
  149.1862  132.3837  152.6829 H   0  0  0  0  0  0  0  0  0  0  0  0
  148.4041  133.9417  152.4573 H   0  0  0  0  0  0  0  0  0  0  0  0
  149.1504  132.3305  155.8447 H   0  0  0  0  0  0  0  0  0  0  0  0
  150.7168  133.1161  156.0288 H   0  0  0  0  0  0  0  0  0  0  0  0
  150.4936  131.8880  154.7951 H   0  0  0  0  0  0  0  0  0  0  0  0
  150.9964  136.5254  155.7925 H   0  0  0  0  0  0  0  0  0  0  0  0
  151.3553  135.6844  154.2983 H   0  0  0  0  0  0  0  0  0  0  0  0
  151.1969  137.7387  152.9878 H   0  0  0  0  0  0  0  0  0  0  0  0
  152.3462  137.9722  154.2774 H   0  0  0  0  0  0  0  0  0  0  0  0
  150.2801  141.5651  156.6568 H   0  0  0  0  0  0  0  0  0  0  0  0
  149.2173  136.3004  153.4859 H   0  0  0  0  0  0  0  0  0  0  0  0
  149.9427  143.8039  157.1230 H   0  0  0  0  0  0  0  0  0  0  0  0
  1  2  1  0  0  0  0
  1 22  1  0  0  0  0
  1 23  1  0  0  0  0
  1 24  1  0  0  0  0
  2 21  1  0  0  0  0
  2  3  2  0  0  0  0
  3  4  1  0  0  0  0
  3 25  1  0  0  0  0
  4  5  2  0  0  0  0
  4 26  1  0  0  0  0
  5  6  1  0  0  0  0
  5 20  1  0  0  0  0
  6  7  1  0  0  0  0
  6 27  1  0  0  0  0
  6 28  1  0  0  0  0
  7  8  2  0  0  0  0
  7  9  1  0  0  0  0
  9 10  1  0  0  0  0
  9 29  1  0  0  0  0
 10 19  1  0  0  0  0
 10 11  1  0  0  0  0
 10 30  1  0  0  0  0
 11 12  1  0  0  0  0
 11 31  1  0  0  0  0
 11 32  1  0  0  0  0
 12 13  1  0  0  0  0
 12 33  1  0  0  0  0
 12 34  1  0  0  0  0
 13 14  1  0  0  0  0
 13 18  1  0  0  0  0
 13 49  1  0  0  0  0
 14 15  1  0  0  0  0
 14 35  1  0  0  0  0
 14 36  1  0  0  0  0
 15 16  1  0  0  0  0
 15 17  1  0  0  0  0
 15 37  1  0  0  0  0
 16 38  1  0  0  0  0
 16 39  1  0  0  0  0
 16 40  1  0  0  0  0
 17 41  1  0  0  0  0
 17 42  1  0  0  0  0
 17 43  1  0  0  0  0
 18 19  1  0  0  0  0
 18 44  1  0  0  0  0
 18 45  1  0  0  0  0
 19 46  1  0  0  0  0
 19 47  1  0  0  0  0
 20 21  2  0  0  0  0
 20 48  1  0  0  0  0
 21 50  1  0  0  0  0
M  CHG  1  13   1
M  CHG  1  21   1
M  END
> <s_m_source_file>
AV-unprocessed.smi

> <i_m_source_file_index>
1483

> <i_lp_mmshare_version>
43012

> <i_f3d_flags>
0

> <s_epik_input>
W0NIM11jMVtjSF1bY0hdYyhbY0hdbjEpW0NIMl1DKD1PKVtOSF1bQ0hdMltDSDJdW0NIMl1OKFtDSDJdW0NIMl0yKVtDSDJdW0NIXShbQ0gzXSlbQ0gzXQ==

> <s_epik_cmdline>
J2VwaWtfcHl0aG9uJywgJy1waCcsICc3LjAnLCAnLXRuJywgJzgnLCAnLW1hJywgJzIwMCcsICctbWV0YWxfYmluZGluZycsICctaW1hZScsICc8aW5maWxlLm1hZT4nLCAnLW9tYWUnLCAnPG91dGZpbGUubWFlPic=

> <r_epik_Ionization_Penalty>
2.20554

> <r_epik_Ionization_Penalty_Charging>
2.20554

> <r_epik_Ionization_Penalty_Neutral>
2.83835e-07

> <r_epik_State_Penalty>
2.34446

> <r_epik_Charging_Adjusted_Penalty>
4.55

> <i_epik_Tot_Q>
2

> <i_epik_Tot_abs_Q>
2

> <r_epik_Metal_State_Penalty>
2.35906

> <b_epik_Metal_Only>
0

> <s_lp_Force_Field>
OPLS_2005

> <r_lp_Energy>
28.5447

> <b_lp_Chiralities_Consistent>
1

> <s_lp_Variant>
AV-unprocessed.smi:1483-4

> <Gold.Version>
5.8.1

> <Gold.Id.Protein>
6NUR|6NUR_protein|mol2

> <Gold.PLP.Fitness>
54.6144

> <Gold.PLP.PLP>
-42.0998

> <Gold.PLP.part.hbond>
-2.9315

> <Gold.PLP.part.metal>
0.0000

> <Gold.PLP.part.buried>
-3.4161

> <Gold.PLP.part.nonpolar>
-36.4625

> <Gold.PLP.part.repulsive>
0.0970

> <Gold.PLP.ligand.clash>
0.0000

> <Gold.PLP.ligand.torsion>
1.2942

> <Gold.PLP.Chemscore.Hbond>
5.0000

> <Gold.PLP.Chemscore.CHOScore>
0.0000

> <Gold.PLP.Chemscore.Metal>
0.0000

> <Gold.Chemscore.Hbonds>
donor molecule, donor type, donor heavy atom, donor atom, acceptor molecule, acceptor atom, score
      L1  H    13    49       P1  7948  2.00
      L1  H    21    50       P1  8028  2.00
      P1  H  7997  8009       L1     8  1.00

> <Gold.PLP.Chemscore.Internal.Correction>
0.1031

> <Gold.Rescore>
     Score         DG    S(hbond)    S(metal)    S(lipo)     H(rot)  DE(clash)    DE(int)     intcor
     22.80     -24.22       2.91        0.00     111.06       1.55       0.11       1.31       ----

> <Gold.Chemscore.Fitness>
22.7952

> <Gold.Chemscore.DG>
-24.2166

> <Gold.Chemscore.ZeroCoef>
-5.4800

> <Gold.Chemscore.Hbond>
2.9089

> <Gold.Chemscore.Metal>
0.0000

> <Gold.Chemscore.Lipo>
111.0587

> <Gold.Chemscore.Internal_Hbond>
0.0000

> <Gold.Chemscore.DEClash>
0.1130

> <Gold.Chemscore.DEInternal>
1.3085

> <Gold.Chemscore.Rot>
1.5520

> <Gold.Chemscore.Internal.Correction>
   9.000000E+99

> <Gold.Chemscore.Hbonds>
donor molecule, donor type, donor heavy atom, donor atom, acceptor molecule, acceptor atom, score
      L1  H    13    49       P1  7948  0.90
      L1  H    21    50       P1  8028  0.88
      P1  H  7997  8009       L1     8  0.91

> <Gold.Chemscore.Hbond.Weighted>
-9.7158

> <Gold.Chemscore.Metal.Weighted>
-0.0000

> <Gold.Chemscore.Lipo.Weighted>
-12.9939

> <Gold.Chemscore.Internal_Hbond.Weighted>
0.0000

> <Gold.Chemscore.DEClash.Weighted>
0.1130

> <Gold.Chemscore.DEInternal.Weighted>
1.3085

> <Gold.Chemscore.Rot.Weighted>
3.9730

> <Gold.Chemscore.Internal.Correction.Weighted>
   9.000000E+99

> <Gold.Protein.RotatedTorsions>
[ 6907 6896 6895 6894 ] final -165.51 input  -60.11 | X-H torsion
[ 7974 7965 7964 7962 ] final   14.40 input  175.53 | X-H torsion
[ 8008 7997 7996 7995 ] final -166.43 input   59.86 | X-H torsion
[ 10167 10162 10161 10158 ] final   61.95 input  -65.29 | X-H torsion
[ 10718 10713 10712 10709 ] final  -44.34 input   66.30 | X-H torsion
[ 10763 10752 10751 10750 ] final  -80.04 input  -60.55 | X-H torsion
[ 11005 11000 10999 10996 ] final   -0.21 input  -57.11 | X-H torsion

> <Gold.Protein.ActiveResidues>
 VAL166  LYS551  ARG553  GLY616  TRP617  ASP618  TYR619  PRO620  LYS621  CYS622 
 ASP623  PHE694  ASN695  SER759  ASP760  ASP761  ALA762  ILE779  LEU786  VAL792 
 PHE793  MET794  SER795  GLU796  ALA797  LYS798  CYS799  TRP800  GLU811  SER814 

> <Gold.Protein.RotatedAtoms>
  151.4288  133.3676  159.2765 H   0  0  0  0  0  0  0  0  0  0  0  0  # atno 6907 bound_to 6896
  150.9240  134.8658  159.7518 H   0  0  0  0  0  0  0  0  0  0  0  0  # atno 6908 bound_to 6896
  152.4996  134.4228  159.9538 H   0  0  0  0  0  0  0  0  0  0  0  0  # atno 6909 bound_to 6896
  146.2306  139.9047  142.8534 H   0  0  0  0  0  0  0  0  0  0  0  0  # atno 7974 bound_to 7965
  155.8637  140.0982  157.1597 H   0  0  0  0  0  0  0  0  0  0  0  0  # atno 8008 bound_to 7997
  154.3992  140.1360  156.4054 H   0  0  0  0  0  0  0  0  0  0  0  0  # atno 8009 bound_to 7997
  155.7828  140.3458  155.5309 H   0  0  0  0  0  0  0  0  0  0  0  0  # atno 8010 bound_to 7997
  140.1492  144.4479  150.6768 H   0  0  0  0  0  0  0  0  0  0  0  0  # atno 10167 bound_to 10162
  156.2396  130.4179  149.8777 H   0  0  0  0  0  0  0  0  0  0  0  0  # atno 10718 bound_to 10713
  154.5462  135.5675  153.6882 H   0  0  0  0  0  0  0  0  0  0  0  0  # atno 10763 bound_to 10752
  152.9977  135.6240  154.2435 H   0  0  0  0  0  0  0  0  0  0  0  0  # atno 10764 bound_to 10752
  154.2368  135.2864  155.2849 H   0  0  0  0  0  0  0  0  0  0  0  0  # atno 10765 bound_to 10752
  140.6337  133.9552  155.8288 H   0  0  0  0  0  0  0  0  0  0  0  0  # atno 11005 bound_to 11000
  145.2289  140.9965  143.4002 LP  0  0  0  0  0  0  0  0  0  0  0  0  # atno 17320 bound_to 7965
  144.9547  139.4044  143.6385 LP  0  0  0  0  0  0  0  0  0  0  0  0  # atno 17321 bound_to 7965
  140.6713  143.2287  151.5618 LP  0  0  0  0  0  0  0  0  0  0  0  0  # atno 17342 bound_to 10162
  139.5434  144.2586  152.1395 LP  0  0  0  0  0  0  0  0  0  0  0  0  # atno 17343 bound_to 10162
  156.6363  130.8686  151.3505 LP  0  0  0  0  0  0  0  0  0  0  0  0  # atno 17370 bound_to 10713
  157.7169  130.9509  150.1290 LP  0  0  0  0  0  0  0  0  0  0  0  0  # atno 17371 bound_to 10713
  141.0657  134.0281  157.3597 LP  0  0  0  0  0  0  0  0  0  0  0  0  # atno 17394 bound_to 11000
  139.9106  135.0189  156.7675 LP  0  0  0  0  0  0  0  0  0  0  0  0  # atno 17395 bound_to 11000

$$$$
