AV-unprocessed.smi:1368|AV-procd|sdf|5578|dock1
  -GOLD-   22720 5173D 1   1.00000     0.00000
 Structure written by MMmdl.
 47 49  0  0  0  0  0  0  0  0  2 V2000
  146.4323  130.4643  151.3526 C   0  0  0  0  0  0  0  0  0  0  0  0
  146.4940  131.6448  152.3164 C   0  0  0  0  0  0  0  0  0  0  0  0
  145.4498  132.1103  152.7710 O   0  0  0  0  0  0  0  0  0  0  0  0
  147.7274  132.1103  152.5866 N   0  0  0  0  0  0  0  0  0  0  0  0
  148.1004  133.1871  153.4360 C   0  0  0  0  0  0  0  0  0  0  0  0
  147.0739  134.0350  153.8976 C   0  0  0  0  0  0  0  0  0  0  0  0
  147.3727  135.1298  154.7306 C   0  0  0  0  0  0  0  0  0  0  0  0
  148.7012  135.4079  155.1092 C   0  0  0  0  0  0  0  0  0  0  0  0
  148.9043  136.4981  155.9280 O   0  0  0  0  0  0  0  0  0  0  0  0
  150.2197  137.0278  156.0286 C   0  0  0  0  0  0  0  0  0  0  0  0
  150.1521  138.3983  156.7201 C   0  0  1  0  0  0  0  0  0  0  0  0
  150.0903  138.1906  158.1175 O   0  0  0  0  0  0  0  0  0  0  0  0
  151.3815  139.2675  156.3879 C   0  0  0  0  0  0  0  0  0  0  0  0
  151.1439  140.7052  156.5976 N   0  0  0  0  0  0  0  0  0  0  0  0
  150.3469  141.5693  155.9066 C   0  0  0  0  0  0  0  0  0  0  0  0
  149.4908  141.2442  154.7290 C   0  0  0  0  0  0  0  0  0  0  0  0
  150.4774  142.7945  156.4888 N   0  3  0  0  0  0  0  0  0  0  0  0
  151.3640  142.7144  157.5634 C   0  0  0  0  0  0  0  0  0  0  0  0
  151.8092  143.6899  158.4503 C   0  0  0  0  0  0  0  0  0  0  0  0
  152.7175  143.2732  159.4455 C   0  0  0  0  0  0  0  0  0  0  0  0
  153.1477  141.9334  159.5318 C   0  0  0  0  0  0  0  0  0  0  0  0
  152.6911  140.9538  158.6255 C   0  0  0  0  0  0  0  0  0  0  0  0
  151.7946  141.3738  157.6424 C   0  0  0  0  0  0  0  0  0  0  0  0
  149.7358  134.5669  154.6289 C   0  0  0  0  0  0  0  0  0  0  0  0
  149.4388  133.4700  153.7970 C   0  0  0  0  0  0  0  0  0  0  0  0
  147.0618  130.6445  150.4805 H   0  0  0  0  0  0  0  0  0  0  0  0
  145.4114  130.3000  151.0056 H   0  0  0  0  0  0  0  0  0  0  0  0
  146.7764  129.5551  151.8461 H   0  0  0  0  0  0  0  0  0  0  0  0
  148.4826  131.6864  152.0678 H   0  0  0  0  0  0  0  0  0  0  0  0
  146.0472  133.8443  153.6205 H   0  0  0  0  0  0  0  0  0  0  0  0
  146.5722  135.7641  155.0823 H   0  0  0  0  0  0  0  0  0  0  0  0
  150.8877  136.3546  156.5695 H   0  0  0  0  0  0  0  0  0  0  0  0
  150.6160  137.1522  155.0194 H   0  0  0  0  0  0  0  0  0  0  0  0
  149.2508  138.9240  156.4024 H   0  0  0  0  0  0  0  0  0  0  0  0
  149.5412  138.8618  158.4942 H   0  0  0  0  0  0  0  0  0  0  0  0
  152.2537  138.9568  156.9634 H   0  0  0  0  0  0  0  0  0  0  0  0
  151.6530  139.1387  155.3395 H   0  0  0  0  0  0  0  0  0  0  0  0
  148.9193  142.1189  154.4174 H   0  0  0  0  0  0  0  0  0  0  0  0
  148.7923  140.4457  154.9792 H   0  0  0  0  0  0  0  0  0  0  0  0
  150.1094  140.9182  153.8929 H   0  0  0  0  0  0  0  0  0  0  0  0
  151.4794  144.7165  158.3869 H   0  0  0  0  0  0  0  0  0  0  0  0
  153.0899  143.9953  160.1577 H   0  0  0  0  0  0  0  0  0  0  0  0
  153.8418  141.6499  160.3100 H   0  0  0  0  0  0  0  0  0  0  0  0
  153.0231  139.9296  158.7063 H   0  0  0  0  0  0  0  0  0  0  0  0
  150.7705  134.7434  154.8799 H   0  0  0  0  0  0  0  0  0  0  0  0
  150.2574  132.8668  153.4360 H   0  0  0  0  0  0  0  0  0  0  0  0
  149.9933  143.6247  156.1721 H   0  0  0  0  0  0  0  0  0  0  0  0
  1  2  1  0  0  0  0
  1 26  1  0  0  0  0
  1 27  1  0  0  0  0
  1 28  1  0  0  0  0
  2  3  2  0  0  0  0
  2  4  1  0  0  0  0
  4  5  1  0  0  0  0
  4 29  1  0  0  0  0
  5 25  1  0  0  0  0
  5  6  2  0  0  0  0
  6  7  1  0  0  0  0
  6 30  1  0  0  0  0
  7  8  2  0  0  0  0
  7 31  1  0  0  0  0
  8  9  1  0  0  0  0
  8 24  1  0  0  0  0
  9 10  1  0  0  0  0
 10 11  1  0  0  0  0
 10 32  1  0  0  0  0
 10 33  1  0  0  0  0
 11 12  1  0  0  0  0
 11 13  1  0  0  0  0
 11 34  1  0  0  0  0
 12 35  1  0  0  0  0
 13 14  1  0  0  0  0
 13 36  1  0  0  0  0
 13 37  1  0  0  0  0
 14 23  1  0  0  0  0
 14 15  1  0  0  0  0
 15 16  1  0  0  0  0
 15 17  2  0  0  0  0
 16 38  1  0  0  0  0
 16 39  1  0  0  0  0
 16 40  1  0  0  0  0
 17 18  1  0  0  0  0
 17 47  1  0  0  0  0
 18 23  2  0  0  0  0
 18 19  1  0  0  0  0
 19 20  2  0  0  0  0
 19 41  1  0  0  0  0
 20 21  1  0  0  0  0
 20 42  1  0  0  0  0
 21 22  2  0  0  0  0
 21 43  1  0  0  0  0
 22 23  1  0  0  0  0
 22 44  1  0  0  0  0
 24 25  2  0  0  0  0
 24 45  1  0  0  0  0
 25 46  1  0  0  0  0
M  CHG  1  17   1
M  END
> <s_m_source_file>
AV-unprocessed.smi

> <i_m_source_file_index>
1368

> <i_lp_mmshare_version>
43012

> <i_f3d_flags>
0

> <s_epik_input>
W0NIM11DKD1PKVtOSF1jMVtjSF1bY0hdYyhbY0hdW2NIXTEpT1tDSDJdW0NASF0oW09IXSlbQ0gyXW4oYyhuMilbQ0gzXSljKGMyMylbY0hdW2NIXVtjSF1bY0hdMw==

> <s_epik_cmdline>
J2VwaWtfcHl0aG9uJywgJy1waCcsICc3LjAnLCAnLXRuJywgJzgnLCAnLW1hJywgJzIwMCcsICctbWV0YWxfYmluZGluZycsICctaW1hZScsICc8aW5maWxlLm1hZT4nLCAnLW9tYWUnLCAnPG91dGZpbGUubWFlPic=

> <r_lp_tautomer_probability>
1

> <r_epik_Ionization_Penalty>
1.00673

> <r_epik_Ionization_Penalty_Charging>
1.00673

> <r_epik_Ionization_Penalty_Neutral>
2.60899e-06

> <r_epik_State_Penalty>
1.05579

> <r_epik_Charging_Adjusted_Penalty>
2.06252

> <i_epik_Tot_Q>
1

> <i_epik_Tot_abs_Q>
1

> <r_epik_Metal_State_Penalty>
1.15682

> <b_epik_Metal_Only>
0

> <s_lp_Force_Field>
OPLS_2005

> <r_lp_Energy>
24.3516

> <b_lp_Chiralities_Consistent>
1

> <s_lp_Variant>
AV-unprocessed.smi:1368-4

> <Gold.Version>
5.8.1

> <Gold.Id.Protein>
6NUR|6NUR_protein|mol2

> <Gold.PLP.Fitness>
50.0329

> <Gold.PLP.PLP>
-42.5821

> <Gold.PLP.part.hbond>
-2.0000

> <Gold.PLP.part.metal>
0.0000

> <Gold.PLP.part.buried>
-2.2470

> <Gold.PLP.part.nonpolar>
-37.6208

> <Gold.PLP.part.repulsive>
0.2937

> <Gold.PLP.ligand.clash>
0.0000

> <Gold.PLP.ligand.torsion>
0.8067

> <Gold.PLP.Chemscore.Hbond>
2.8960

> <Gold.PLP.Chemscore.CHOScore>
0.0000

> <Gold.PLP.Chemscore.Metal>
0.0000

> <Gold.Chemscore.Hbonds>
donor molecule, donor type, donor heavy atom, donor atom, acceptor molecule, acceptor atom, score
      L1  H     4    29       P1 10747  0.90
      L1  H    17    47       P1  8028  2.00

> <Gold.PLP.Chemscore.Internal.Correction>
0.3762

> <Gold.Rescore>
     Score         DG    S(hbond)    S(metal)    S(lipo)     H(rot)  DE(clash)    DE(int)     intcor
     16.45     -19.16       1.97        0.00     114.74       2.47       0.55       2.15       ----

> <Gold.Chemscore.Fitness>
16.4545

> <Gold.Chemscore.DG>
-19.1611

> <Gold.Chemscore.ZeroCoef>
-5.4800

> <Gold.Chemscore.Hbond>
1.9711

> <Gold.Chemscore.Metal>
0.0000

> <Gold.Chemscore.Lipo>
114.7397

> <Gold.Chemscore.Internal_Hbond>
0.0000

> <Gold.Chemscore.DEClash>
0.5538

> <Gold.Chemscore.DEInternal>
2.1528

> <Gold.Chemscore.Rot>
2.4715

> <Gold.Chemscore.Internal.Correction>
   9.000000E+99

> <Gold.Chemscore.Hbonds>
donor molecule, donor type, donor heavy atom, donor atom, acceptor molecule, acceptor atom, score
      L1  H     4    29       P1 10747  0.83
      L1  H    17    47       P1  8028  1.00

> <Gold.Chemscore.Hbond.Weighted>
-6.5836

> <Gold.Chemscore.Metal.Weighted>
-0.0000

> <Gold.Chemscore.Lipo.Weighted>
-13.4245

> <Gold.Chemscore.Internal_Hbond.Weighted>
0.0000

> <Gold.Chemscore.DEClash.Weighted>
0.5538

> <Gold.Chemscore.DEInternal.Weighted>
2.1528

> <Gold.Chemscore.Rot.Weighted>
6.3271

> <Gold.Chemscore.Internal.Correction.Weighted>
   9.000000E+99

> <Gold.Protein.RotatedTorsions>
[ 6907 6896 6895 6894 ] final -159.25 input  -60.11 | X-H torsion
[ 7974 7965 7964 7962 ] final  -86.22 input  175.53 | X-H torsion
[ 8008 7997 7996 7995 ] final -154.03 input   59.86 | X-H torsion
[ 10167 10162 10161 10158 ] final  -47.80 input  -65.29 | X-H torsion
[ 10718 10713 10712 10709 ] final   19.94 input   66.30 | X-H torsion
[ 10763 10752 10751 10750 ] final  145.30 input  -60.55 | X-H torsion
[ 11005 11000 10999 10996 ] final -106.51 input  -57.11 | X-H torsion

> <Gold.Protein.ActiveResidues>
 VAL166  LYS551  ARG553  GLY616  TRP617  ASP618  TYR619  PRO620  LYS621  CYS622 
 ASP623  PHE694  ASN695  SER759  ASP760  ASP761  ALA762  ILE779  LEU786  VAL792 
 PHE793  MET794  SER795  GLU796  ALA797  LYS798  CYS799  TRP800  GLU811  SER814 

> <Gold.Protein.RotatedAtoms>
  151.3306  133.4002  159.2662 H   0  0  0  0  0  0  0  0  0  0  0  0  # atno 6907 bound_to 6896
  150.9959  134.9283  159.7936 H   0  0  0  0  0  0  0  0  0  0  0  0  # atno 6908 bound_to 6896
  152.5261  134.3271  159.9222 H   0  0  0  0  0  0  0  0  0  0  0  0  # atno 6909 bound_to 6896
  145.4827  140.9556  143.1855 H   0  0  0  0  0  0  0  0  0  0  0  0  # atno 7974 bound_to 7965
  155.6800  140.0743  157.2488 H   0  0  0  0  0  0  0  0  0  0  0  0  # atno 8008 bound_to 7997
  154.4107  140.1683  156.2024 H   0  0  0  0  0  0  0  0  0  0  0  0  # atno 8009 bound_to 7997
  155.9543  140.3375  155.6438 H   0  0  0  0  0  0  0  0  0  0  0  0  # atno 8010 bound_to 7997
  140.6759  143.2768  151.3979 H   0  0  0  0  0  0  0  0  0  0  0  0  # atno 10167 bound_to 10162
  157.1175  130.6535  149.5914 H   0  0  0  0  0  0  0  0  0  0  0  0  # atno 10718 bound_to 10713
  154.0030  135.2921  155.3400 H   0  0  0  0  0  0  0  0  0  0  0  0  # atno 10763 bound_to 10752
  154.7148  135.5134  153.8724 H   0  0  0  0  0  0  0  0  0  0  0  0  # atno 10764 bound_to 10752
  153.0757  135.6662  154.0270 H   0  0  0  0  0  0  0  0  0  0  0  0  # atno 10765 bound_to 10752
  141.1001  133.8900  157.1864 H   0  0  0  0  0  0  0  0  0  0  0  0  # atno 11005 bound_to 11000
  144.7879  139.6388  143.7126 LP  0  0  0  0  0  0  0  0  0  0  0  0  # atno 17320 bound_to 7965
  146.2331  139.5852  142.9542 LP  0  0  0  0  0  0  0  0  0  0  0  0  # atno 17321 bound_to 7965
  139.6051  144.1213  152.2240 LP  0  0  0  0  0  0  0  0  0  0  0  0  # atno 17342 bound_to 10162
  140.0610  144.5856  150.7263 LP  0  0  0  0  0  0  0  0  0  0  0  0  # atno 17343 bound_to 10162
  155.9836  130.4856  150.6941 LP  0  0  0  0  0  0  0  0  0  0  0  0  # atno 17370 bound_to 10713
  157.4505  131.0872  151.0851 LP  0  0  0  0  0  0  0  0  0  0  0  0  # atno 17371 bound_to 10713
  139.9850  135.0085  156.9840 LP  0  0  0  0  0  0  0  0  0  0  0  0  # atno 17394 bound_to 11000
  140.5043  134.1065  155.7257 LP  0  0  0  0  0  0  0  0  0  0  0  0  # atno 17395 bound_to 11000

$$$$
