AV-unprocessed.smi:199|AV-procd|sdf|1573|dock3
  -GOLD-   2262019453D 1   1.00000     0.00000
 Structure written by MMmdl.
 51 55  0  0  0  0  0  0  0  0  1 V2000
  151.0085  130.9487  156.4615 C   0  0  0  0  0  0  0  0  0  0  0  0
  150.5721  132.1461  155.6017 C   0  0  1  0  0  0  0  0  0  0  0  0
  149.4501  131.8041  154.7886 O   0  0  0  0  0  0  0  0  0  0  0  0
  148.3793  132.7072  155.0256 C   0  0  0  0  0  0  0  0  0  0  0  0
  149.0573  133.9820  155.5109 C   0  0  0  0  0  0  0  0  0  0  0  0
  150.2026  133.4441  156.3571 C   0  0  1  0  0  0  0  0  0  0  0  0
  149.7011  133.1504  157.6516 O   0  0  0  0  0  0  0  0  0  0  0  0
  151.3939  134.4209  156.5008 C   0  0  0  0  0  0  0  0  0  0  0  0
  150.9960  135.7670  156.8833 N   0  0  0  0  0  0  0  0  0  0  0  0
  150.1371  136.1138  157.9007 C   0  0  0  0  0  0  0  0  0  0  0  0
  149.9421  137.3950  158.0497 N   0  0  0  0  0  0  0  0  0  0  0  0
  150.7130  137.9799  157.0514 C   0  0  0  0  0  0  0  0  0  0  0  0
  150.9618  139.3215  156.6390 C   0  0  0  0  0  0  0  0  0  0  0  0
  150.4031  140.4100  157.2333 N   0  0  0  0  0  0  0  0  0  0  0  0
  150.9053  141.7524  156.9853 C   0  0  2  0  0  0  0  0  0  0  0  0
  150.1439  142.5809  158.0345 C   0  0  0  0  0  0  0  0  0  0  0  0
  148.7912  141.8496  158.0724 C   0  0  0  0  0  0  0  0  0  0  0  0
  149.0072  140.7573  157.0089 C   0  0  1  0  0  0  0  0  0  0  0  0
  148.9764  141.4240  155.6104 C   0  0  2  0  0  0  0  0  0  0  0  0
  148.7245  140.4423  154.4499 C   0  0  0  0  0  0  0  0  0  0  0  0
  149.0703  141.0445  153.2211 O   0  0  0  0  0  0  0  0  0  0  0  0
  150.3651  142.0945  155.5814 C   0  0  0  0  0  0  0  0  0  0  0  0
  151.8258  139.5033  155.6049 N   0  0  0  0  0  0  0  0  0  0  0  0
  152.3856  138.4552  154.9952 C   0  0  0  0  0  0  0  0  0  0  0  0
  152.2323  137.1575  155.2606 N   0  0  0  0  0  0  0  0  0  0  0  0
  151.3839  136.9652  156.3101 C   0  0  0  0  0  0  0  0  0  0  0  0
  151.8604  131.2078  157.0906 H   0  0  0  0  0  0  0  0  0  0  0  0
  151.3042  130.1097  155.8316 H   0  0  0  0  0  0  0  0  0  0  0  0
  150.2027  130.6020  157.1088 H   0  0  0  0  0  0  0  0  0  0  0  0
  151.3772  132.3673  154.9000 H   0  0  0  0  0  0  0  0  0  0  0  0
  147.7806  132.8629  154.1281 H   0  0  0  0  0  0  0  0  0  0  0  0
  147.7315  132.2961  155.8010 H   0  0  0  0  0  0  0  0  0  0  0  0
  149.4482  134.5282  154.6512 H   0  0  0  0  0  0  0  0  0  0  0  0
  148.3826  134.6469  156.0521 H   0  0  0  0  0  0  0  0  0  0  0  0
  148.7833  133.3747  157.6766 H   0  0  0  0  0  0  0  0  0  0  0  0
  152.1062  134.0459  157.2371 H   0  0  0  0  0  0  0  0  0  0  0  0
  151.9389  134.4901  155.5585 H   0  0  0  0  0  0  0  0  0  0  0  0
  149.6612  135.3823  158.5378 H   0  0  0  0  0  0  0  0  0  0  0  0
  151.9869  141.8614  157.0727 H   0  0  0  0  0  0  0  0  0  0  0  0
  150.6355  142.5281  159.0068 H   0  0  0  0  0  0  0  0  0  0  0  0
  150.0523  143.6313  157.7553 H   0  0  0  0  0  0  0  0  0  0  0  0
  148.6254  141.4047  159.0544 H   0  0  0  0  0  0  0  0  0  0  0  0
  147.9462  142.5028  157.8517 H   0  0  0  0  0  0  0  0  0  0  0  0
  148.2918  139.9439  157.1170 H   0  0  0  0  0  0  0  0  0  0  0  0
  148.1895  142.1796  155.5856 H   0  0  0  0  0  0  0  0  0  0  0  0
  149.2974  139.5227  154.5639 H   0  0  0  0  0  0  0  0  0  0  0  0
  147.6711  140.1632  154.4135 H   0  0  0  0  0  0  0  0  0  0  0  0
  149.1932  140.3641  152.5768 H   0  0  0  0  0  0  0  0  0  0  0  0
  150.3097  143.1689  155.4024 H   0  0  0  0  0  0  0  0  0  0  0  0
  151.0004  141.6627  154.8070 H   0  0  0  0  0  0  0  0  0  0  0  0
  153.0520  138.6901  154.1782 H   0  0  0  0  0  0  0  0  0  0  0  0
  1  2  1  0  0  0  0
  1 27  1  0  0  0  0
  1 28  1  0  0  0  0
  1 29  1  0  0  0  0
  2  6  1  0  0  0  0
  2  3  1  0  0  0  0
  2 30  1  0  0  0  0
  3  4  1  0  0  0  0
  4  5  1  0  0  0  0
  4 31  1  0  0  0  0
  4 32  1  0  0  0  0
  5  6  1  0  0  0  0
  5 33  1  0  0  0  0
  5 34  1  0  0  0  0
  6  7  1  0  0  0  0
  6  8  1  0  0  0  0
  7 35  1  0  0  0  0
  8  9  1  0  0  0  0
  8 36  1  0  0  0  0
  8 37  1  0  0  0  0
  9 26  1  0  0  0  0
  9 10  1  0  0  0  0
 10 11  2  0  0  0  0
 10 38  1  0  0  0  0
 11 12  1  0  0  0  0
 12 26  2  0  0  0  0
 12 13  1  0  0  0  0
 13 14  1  0  0  0  0
 13 23  2  0  0  0  0
 14 18  1  0  0  0  0
 14 15  1  0  0  0  0
 15 22  1  0  0  0  0
 15 16  1  0  0  0  0
 15 39  1  0  0  0  0
 16 17  1  0  0  0  0
 16 40  1  0  0  0  0
 16 41  1  0  0  0  0
 17 18  1  0  0  0  0
 17 42  1  0  0  0  0
 17 43  1  0  0  0  0
 18 19  1  0  0  0  0
 18 44  1  0  0  0  0
 19 20  1  0  0  0  0
 19 22  1  0  0  0  0
 19 45  1  0  0  0  0
 20 21  1  0  0  0  0
 20 46  1  0  0  0  0
 20 47  1  0  0  0  0
 21 48  1  0  0  0  0
 22 49  1  0  0  0  0
 22 50  1  0  0  0  0
 23 24  1  0  0  0  0
 24 25  2  0  0  0  0
 24 51  1  0  0  0  0
 25 26  1  0  0  0  0
M  END
> <s_m_source_file>
AV-unprocessed.smi

> <i_m_source_file_index>
199

> <i_lp_mmshare_version>
43012

> <i_f3d_flags>
0

> <s_epik_input>
W0NIMl0xW0NIMl1PW0NAQEhdKFtDSDNdKVtDQEBdMShbT0hdKVtDSDJdbihbY0hdbjIpYyhjMjMpbltjSF1uYzNOKFtDQEBIXTQ1KVtDQEhdKFtDSDJdW0NIMl00KVtDQEhdKFtDSDJdNSlbQ0gyXVtPSF0=

> <s_epik_cmdline>
J2VwaWtfcHl0aG9uJywgJy1waCcsICc3LjAnLCAnLXRuJywgJzgnLCAnLW1hJywgJzIwMCcsICctbWV0YWxfYmluZGluZycsICctaW1hZScsICc8aW5maWxlLm1hZT4nLCAnLW9tYWUnLCAnPG91dGZpbGUubWFlPic=

> <r_lp_tautomer_probability>
1

> <r_epik_Ionization_Penalty>
0.00583903

> <r_epik_Ionization_Penalty_Charging>
0

> <r_epik_Ionization_Penalty_Neutral>
0.00583903

> <r_epik_State_Penalty>
-0

> <r_epik_Charging_Adjusted_Penalty>
0

> <i_epik_Tot_Q>
0

> <i_epik_Tot_abs_Q>
0

> <r_epik_Metal_State_Penalty>
-0

> <b_epik_Metal_Only>
0

> <s_lp_Force_Field>
OPLS_2005

> <r_lp_Energy>
83.8114

> <b_lp_Chiralities_Consistent>
1

> <s_lp_Variant>
AV-unprocessed.smi:199-14

> <Gold.Version>
5.8.1

> <Gold.Id.Protein>
6NUR|6NUR_protein|mol2

> <Gold.PLP.Fitness>
40.2570

> <Gold.PLP.PLP>
-31.1009

> <Gold.PLP.part.hbond>
-4.2859

> <Gold.PLP.part.metal>
0.0000

> <Gold.PLP.part.buried>
-3.3935

> <Gold.PLP.part.nonpolar>
-23.8753

> <Gold.PLP.part.repulsive>
0.0688

> <Gold.PLP.ligand.clash>
0.0000

> <Gold.PLP.ligand.torsion>
0.6696

> <Gold.PLP.Chemscore.Hbond>
3.4810

> <Gold.PLP.Chemscore.CHOScore>
0.0000

> <Gold.PLP.Chemscore.Metal>
0.0000

> <Gold.Chemscore.Hbonds>
donor molecule, donor type, donor heavy atom, donor atom, acceptor molecule, acceptor atom, score
      L1  H    21    48       P1  7957  0.86
      P1  H  6896  6908       L1     7  0.96
      P1  H  8011  8017       L1    21  0.95
      P1  H 10752 10763       L1    25  0.82

> <Gold.PLP.Chemscore.Internal.Correction>
0.0525

> <Gold.Rescore>
     Score         DG    S(hbond)    S(metal)    S(lipo)     H(rot)  DE(clash)    DE(int)     intcor
     12.32     -15.22       2.81        0.00      70.19       3.07       1.02       1.88       ----

> <Gold.Chemscore.Fitness>
12.3245

> <Gold.Chemscore.DG>
-15.2230

> <Gold.Chemscore.ZeroCoef>
-5.4800

> <Gold.Chemscore.Hbond>
2.8135

> <Gold.Chemscore.Metal>
0.0000

> <Gold.Chemscore.Lipo>
70.1937

> <Gold.Chemscore.Internal_Hbond>
0.0000

> <Gold.Chemscore.DEClash>
1.0151

> <Gold.Chemscore.DEInternal>
1.8834

> <Gold.Chemscore.Rot>
3.0729

> <Gold.Chemscore.Internal.Correction>
   9.000000E+99

> <Gold.Chemscore.Hbonds>
donor molecule, donor type, donor heavy atom, donor atom, acceptor molecule, acceptor atom, score
      L1  H    21    48       P1  7957  0.79
      P1  H  6896  6908       L1     7  0.83
      P1  H  8011  8017       L1    21  0.21
      P1  H 10752 10763       L1    25  0.67

> <Gold.Chemscore.Hbond.Weighted>
-9.3971

> <Gold.Chemscore.Metal.Weighted>
-0.0000

> <Gold.Chemscore.Lipo.Weighted>
-8.2127

> <Gold.Chemscore.Internal_Hbond.Weighted>
0.0000

> <Gold.Chemscore.DEClash.Weighted>
1.0151

> <Gold.Chemscore.DEInternal.Weighted>
1.8834

> <Gold.Chemscore.Rot.Weighted>
7.8667

> <Gold.Chemscore.Internal.Correction.Weighted>
   9.000000E+99

> <Gold.Protein.RotatedTorsions>
[ 6907 6896 6895 6894 ] final  106.20 input  -60.11 | X-H torsion
[ 7974 7965 7964 7962 ] final -116.33 input  175.53 | X-H torsion
[ 8008 7997 7996 7995 ] final   -1.10 input   59.86 | X-H torsion
[ 10167 10162 10161 10158 ] final   -5.85 input  -65.29 | X-H torsion
[ 10718 10713 10712 10709 ] final   37.06 input   66.30 | X-H torsion
[ 10763 10752 10751 10750 ] final   65.37 input  -60.55 | X-H torsion
[ 11005 11000 10999 10996 ] final  106.94 input  -57.11 | X-H torsion

> <Gold.Protein.ActiveResidues>
 VAL166  LYS551  ARG553  GLY616  TRP617  ASP618  TYR619  PRO620  LYS621  CYS622 
 ASP623  PHE694  ASN695  SER759  ASP760  ASP761  ALA762  ILE779  LEU786  VAL792 
 PHE793  MET794  SER795  GLU796  ALA797  LYS798  CYS799  TRP800  GLU811  SER814 

> <Gold.Protein.RotatedAtoms>
  152.5203  133.9417  159.7629 H   0  0  0  0  0  0  0  0  0  0  0  0  # atno 6907 bound_to 6896
  150.9745  133.6301  159.2739 H   0  0  0  0  0  0  0  0  0  0  0  0  # atno 6908 bound_to 6896
  151.3500  135.0888  159.9453 H   0  0  0  0  0  0  0  0  0  0  0  0  # atno 6909 bound_to 6896
  145.0980  140.8533  143.3943 H   0  0  0  0  0  0  0  0  0  0  0  0  # atno 7974 bound_to 7965
  154.6506  140.2568  155.7219 H   0  0  0  0  0  0  0  0  0  0  0  0  # atno 8008 bound_to 7997
  156.2573  140.2869  156.0858 H   0  0  0  0  0  0  0  0  0  0  0  0  # atno 8009 bound_to 7997
  155.1457  140.0381  157.2799 H   0  0  0  0  0  0  0  0  0  0  0  0  # atno 8010 bound_to 7997
  140.6977  143.6261  150.8566 H   0  0  0  0  0  0  0  0  0  0  0  0  # atno 10167 bound_to 10162
  157.3424  130.7555  149.6921 H   0  0  0  0  0  0  0  0  0  0  0  0  # atno 10718 bound_to 10713
  153.0094  135.5359  154.6657 H   0  0  0  0  0  0  0  0  0  0  0  0  # atno 10763 bound_to 10752
  154.5854  135.2854  155.0692 H   0  0  0  0  0  0  0  0  0  0  0  0  # atno 10764 bound_to 10752
  154.1805  135.6517  153.5085 H   0  0  0  0  0  0  0  0  0  0  0  0  # atno 10765 bound_to 10752
  139.8821  134.9385  156.5743 H   0  0  0  0  0  0  0  0  0  0  0  0  # atno 11005 bound_to 11000
  145.0989  139.2837  143.5696 LP  0  0  0  0  0  0  0  0  0  0  0  0  # atno 17320 bound_to 7965
  146.3530  140.0550  142.8633 LP  0  0  0  0  0  0  0  0  0  0  0  0  # atno 17321 bound_to 7965
  139.9981  143.5774  152.2886 LP  0  0  0  0  0  0  0  0  0  0  0  0  # atno 17342 bound_to 10162
  139.6454  144.7658  151.2255 LP  0  0  0  0  0  0  0  0  0  0  0  0  # atno 17343 bound_to 10162
  155.9709  130.4164  150.4227 LP  0  0  0  0  0  0  0  0  0  0  0  0  # atno 17370 bound_to 10713
  157.2277  131.0497  151.2510 LP  0  0  0  0  0  0  0  0  0  0  0  0  # atno 17371 bound_to 10713
  140.8074  133.8456  155.8780 LP  0  0  0  0  0  0  0  0  0  0  0  0  # atno 17394 bound_to 11000
  140.9537  134.1746  157.4708 LP  0  0  0  0  0  0  0  0  0  0  0  0  # atno 17395 bound_to 11000

$$$$
