AV-unprocessed.smi:1120|AV-procd|sdf|4825|dock10
  -GOLD-   22720 3383D 1   1.00000     0.00000
 Structure written by MMmdl.
 48 49  0  0  0  0  0  0  0  0  3 V2000
  146.6671  134.2885  161.5558 C   0  0  0  0  0  0  0  0  0  0  0  0
  146.8521  134.9464  160.1813 C   0  0  2  0  0  0  0  0  0  0  0  0
  147.5465  133.9970  159.1784 C   0  0  0  0  0  0  0  0  0  0  0  0
  147.7937  134.6512  157.7936 C   0  0  0  0  0  0  0  0  0  0  0  0
  148.5738  135.9879  157.8512 C   0  0  2  0  0  0  0  0  0  0  0  0
  149.9623  135.7346  158.2111 N   0  5  0  0  0  0  0  0  0  0  0  0
  151.1614  136.1765  157.2117 S   0  0  0  0  0  0  0  0  0  0  0  0
  152.2390  135.1752  157.1667 O   0  0  0  0  0  0  0  0  0  0  0  0
  150.6772  136.6950  155.9211 O   0  0  0  0  0  0  0  0  0  0  0  0
  151.8588  137.6216  158.1320 C   0  0  0  0  0  0  0  0  0  0  0  0
  151.7245  138.9049  157.3107 C   0  0  0  0  0  0  0  0  0  0  0  0
  152.7309  139.5397  156.9942 O   0  0  0  0  0  0  0  0  0  0  0  0
  150.4801  139.2714  156.9635 N   0  0  0  0  0  0  0  0  0  0  0  0
  150.1226  140.4908  156.2436 C   0  0  0  0  0  0  0  0  0  0  0  0
  149.5125  141.5716  157.1579 C   0  0  0  0  0  0  0  0  0  0  0  0
  150.5439  142.3769  157.9280 C   0  0  0  0  0  0  0  0  0  0  0  0
  151.3735  141.7955  158.9117 C   0  0  0  0  0  0  0  0  0  0  0  0
  152.2922  142.6097  159.6063 C   0  0  0  0  0  0  0  0  0  0  0  0
  152.3646  143.9847  159.3012 C   0  0  0  0  0  0  0  0  0  0  0  0
  151.5150  144.5115  158.3073 C   0  0  0  0  0  0  0  0  0  0  0  0
  150.6489  143.6993  157.6634 N   0  3  0  0  0  0  0  0  0  0  0  0
  147.9010  136.9199  158.8920 C   0  0  0  0  0  0  0  0  0  0  0  0
  147.6623  136.2596  160.2746 C   0  0  0  0  0  0  0  0  0  0  0  0
  147.6268  134.0251  162.0016 H   0  0  0  0  0  0  0  0  0  0  0  0
  146.0754  133.3763  161.4766 H   0  0  0  0  0  0  0  0  0  0  0  0
  146.1518  134.9578  162.2451 H   0  0  0  0  0  0  0  0  0  0  0  0
  145.8624  135.1865  159.7903 H   0  0  0  0  0  0  0  0  0  0  0  0
  148.4914  133.6475  159.5997 H   0  0  0  0  0  0  0  0  0  0  0  0
  146.9366  133.1030  159.0444 H   0  0  0  0  0  0  0  0  0  0  0  0
  148.3062  133.9460  157.1380 H   0  0  0  0  0  0  0  0  0  0  0  0
  146.8263  134.8371  157.3256 H   0  0  0  0  0  0  0  0  0  0  0  0
  148.5078  136.4572  156.8691 H   0  0  0  0  0  0  0  0  0  0  0  0
  151.3426  137.7113  159.0879 H   0  0  0  0  0  0  0  0  0  0  0  0
  152.9090  137.4162  158.3383 H   0  0  0  0  0  0  0  0  0  0  0  0
  149.7160  138.6887  157.2749 H   0  0  0  0  0  0  0  0  0  0  0  0
  151.0302  140.8800  155.7822 H   0  0  0  0  0  0  0  0  0  0  0  0
  149.4427  140.2609  155.4215 H   0  0  0  0  0  0  0  0  0  0  0  0
  148.9007  142.2514  156.5633 H   0  0  0  0  0  0  0  0  0  0  0  0
  148.8343  141.1033  157.8723 H   0  0  0  0  0  0  0  0  0  0  0  0
  151.3000  140.7424  159.1410 H   0  0  0  0  0  0  0  0  0  0  0  0
  152.9307  142.1849  160.3668 H   0  0  0  0  0  0  0  0  0  0  0  0
  153.0584  144.6262  159.8246 H   0  0  0  0  0  0  0  0  0  0  0  0
  151.4981  145.5508  158.0134 H   0  0  0  0  0  0  0  0  0  0  0  0
  148.4787  137.8358  159.0165 H   0  0  0  0  0  0  0  0  0  0  0  0
  146.9364  137.2371  158.4945 H   0  0  0  0  0  0  0  0  0  0  0  0
  147.1361  136.9652  160.9182 H   0  0  0  0  0  0  0  0  0  0  0  0
  148.6184  136.0688  160.7675 H   0  0  0  0  0  0  0  0  0  0  0  0
  150.0357  144.1043  156.9557 H   0  0  0  0  0  0  0  0  0  0  0  0
  1  2  1  0  0  0  0
  1 24  1  0  0  0  0
  1 25  1  0  0  0  0
  1 26  1  0  0  0  0
  2 23  1  0  0  0  0
  2  3  1  0  0  0  0
  2 27  1  0  0  0  0
  3  4  1  0  0  0  0
  3 28  1  0  0  0  0
  3 29  1  0  0  0  0
  4  5  1  0  0  0  0
  4 30  1  0  0  0  0
  4 31  1  0  0  0  0
  5  6  1  0  0  0  0
  5 22  1  0  0  0  0
  5 32  1  0  0  0  0
  6  7  1  0  0  0  0
  7  8  2  0  0  0  0
  7  9  2  0  0  0  0
  7 10  1  0  0  0  0
 10 11  1  0  0  0  0
 10 33  1  0  0  0  0
 10 34  1  0  0  0  0
 11 12  2  0  0  0  0
 11 13  1  0  0  0  0
 13 14  1  0  0  0  0
 13 35  1  0  0  0  0
 14 15  1  0  0  0  0
 14 36  1  0  0  0  0
 14 37  1  0  0  0  0
 15 16  1  0  0  0  0
 15 38  1  0  0  0  0
 15 39  1  0  0  0  0
 16 21  1  0  0  0  0
 16 17  2  0  0  0  0
 17 18  1  0  0  0  0
 17 40  1  0  0  0  0
 18 19  2  0  0  0  0
 18 41  1  0  0  0  0
 19 20  1  0  0  0  0
 19 42  1  0  0  0  0
 20 21  2  0  0  0  0
 20 43  1  0  0  0  0
 21 48  1  0  0  0  0
 22 23  1  0  0  0  0
 22 44  1  0  0  0  0
 22 45  1  0  0  0  0
 23 46  1  0  0  0  0
 23 47  1  0  0  0  0
M  CHG  1   6  -1
M  CHG  1  21   1
M  END
> <s_m_source_file>
AV-unprocessed.smi

> <i_m_source_file_index>
1120

> <i_lp_mmshare_version>
43012

> <i_f3d_flags>
0

> <s_epik_input>
W0NIM11bQ0BASF0xW0NIMl1bQ0gyXVtDQEhdKFtDSDJdW0NIMl0xKVtOSF1TKD1PKSg9TylbQ0gyXUMoPU8pW05IXVtDSDJdW0NIMl1jMltjSF1bY0hdW2NIXVtjSF1uMg==

> <s_epik_cmdline>
J2VwaWtfcHl0aG9uJywgJy1waCcsICc3LjAnLCAnLXRuJywgJzgnLCAnLW1hJywgJzIwMCcsICctbWV0YWxfYmluZGluZycsICctaW1hZScsICc8aW5maWxlLm1hZT4nLCAnLW9tYWUnLCAnPG91dGZpbGUubWFlPic=

> <r_epik_Ionization_Penalty>
7.48373

> <r_epik_Ionization_Penalty_Charging>
7.48373

> <r_epik_Ionization_Penalty_Neutral>
1.58512e-08

> <r_epik_State_Penalty>
7.71683

> <r_epik_Charging_Adjusted_Penalty>
15.2006

> <i_epik_Tot_Q>
0

> <i_epik_Tot_abs_Q>
2

> <r_epik_Metal_State_Penalty>
3.7254

> <b_epik_Metal_Only>
1

> <s_lp_Force_Field>
OPLS_2005

> <r_lp_Energy>
13.616

> <b_lp_Chiralities_Consistent>
1

> <s_lp_Variant>
AV-unprocessed.smi:1120-8

> <Gold.Version>
5.8.1

> <Gold.Id.Protein>
6NUR|6NUR_protein|mol2

> <Gold.PLP.Fitness>
56.5634

> <Gold.PLP.PLP>
-39.5006

> <Gold.PLP.part.hbond>
-4.3643

> <Gold.PLP.part.metal>
0.0000

> <Gold.PLP.part.buried>
-5.8125

> <Gold.PLP.part.nonpolar>
-30.1772

> <Gold.PLP.part.repulsive>
0.0669

> <Gold.PLP.ligand.clash>
0.0000

> <Gold.PLP.ligand.torsion>
0.7477

> <Gold.PLP.Chemscore.Hbond>
5.8153

> <Gold.PLP.Chemscore.CHOScore>
0.0000

> <Gold.PLP.Chemscore.Metal>
0.0000

> <Gold.Chemscore.Hbonds>
donor molecule, donor type, donor heavy atom, donor atom, acceptor molecule, acceptor atom, score
      L1  H    21    48       P1  8028  2.00
      P1  H  6896  6909       L1     6  1.92
      P1  H  7997  8008       L1    12  1.00
      P1  H 10752 10764       L1     8  0.50

> <Gold.PLP.Chemscore.Internal.Correction>
1.1124

> <Gold.Rescore>
     Score         DG    S(hbond)    S(metal)    S(lipo)     H(rot)  DE(clash)    DE(int)     intcor
     24.71     -25.49       3.75        0.00     107.35       1.98       0.01       0.77       ----

> <Gold.Chemscore.Fitness>
24.7122

> <Gold.Chemscore.DG>
-25.4908

> <Gold.Chemscore.ZeroCoef>
-5.4800

> <Gold.Chemscore.Hbond>
3.7509

> <Gold.Chemscore.Metal>
0.0000

> <Gold.Chemscore.Lipo>
107.3481

> <Gold.Chemscore.Internal_Hbond>
0.0000

> <Gold.Chemscore.DEClash>
0.0089

> <Gold.Chemscore.DEInternal>
0.7698

> <Gold.Chemscore.Rot>
1.9832

> <Gold.Chemscore.Internal.Correction>
   9.000000E+99

> <Gold.Chemscore.Hbonds>
donor molecule, donor type, donor heavy atom, donor atom, acceptor molecule, acceptor atom, score
      L1  H    21    48       P1  8028  0.93
      P1  H  6896  6909       L1     6  0.51
      P1  H  7997  8008       L1    12  1.00
      P1  H 10752 10764       L1     8  0.41

> <Gold.Chemscore.Hbond.Weighted>
-12.5280

> <Gold.Chemscore.Metal.Weighted>
-0.0000

> <Gold.Chemscore.Lipo.Weighted>
-12.5597

> <Gold.Chemscore.Internal_Hbond.Weighted>
0.0000

> <Gold.Chemscore.DEClash.Weighted>
0.0089

> <Gold.Chemscore.DEInternal.Weighted>
0.7698

> <Gold.Chemscore.Rot.Weighted>
5.0769

> <Gold.Chemscore.Internal.Correction.Weighted>
   9.000000E+99

> <Gold.Protein.RotatedTorsions>
[ 6907 6896 6895 6894 ] final   62.71 input  -60.11 | X-H torsion
[ 7974 7965 7964 7962 ] final  -47.76 input  175.53 | X-H torsion
[ 8008 7997 7996 7995 ] final  -71.79 input   59.86 | X-H torsion
[ 10167 10162 10161 10158 ] final  -33.65 input  -65.29 | X-H torsion
[ 10718 10713 10712 10709 ] final  109.81 input   66.30 | X-H torsion
[ 10763 10752 10751 10750 ] final   -6.08 input  -60.55 | X-H torsion
[ 11005 11000 10999 10996 ] final -138.70 input  -57.11 | X-H torsion

> <Gold.Protein.ActiveResidues>
 VAL166  LYS551  ARG553  GLY616  TRP617  ASP618  TYR619  PRO620  LYS621  CYS622 
 ASP623  PHE694  ASN695  SER759  ASP760  ASP761  ALA762  ILE779  LEU786  VAL792 
 PHE793  MET794  SER795  GLU796  ALA797  LYS798  CYS799  TRP800  GLU811  SER814 

> <Gold.Protein.RotatedAtoms>
  152.4194  134.5982  159.9992 H   0  0  0  0  0  0  0  0  0  0  0  0  # atno 6907 bound_to 6896
  151.6136  133.3339  159.3081 H   0  0  0  0  0  0  0  0  0  0  0  0  # atno 6908 bound_to 6896
  150.8083  134.7260  159.6730 H   0  0  0  0  0  0  0  0  0  0  0  0  # atno 6909 bound_to 6896
  145.9583  140.7505  142.9470 H   0  0  0  0  0  0  0  0  0  0  0  0  # atno 7974 bound_to 7965
  154.5115  140.0809  156.7999 H   0  0  0  0  0  0  0  0  0  0  0  0  # atno 8008 bound_to 7997
  155.3774  140.3426  155.4227 H   0  0  0  0  0  0  0  0  0  0  0  0  # atno 8009 bound_to 7997
  156.1579  140.1579  156.8649 H   0  0  0  0  0  0  0  0  0  0  0  0  # atno 8010 bound_to 7997
  140.7200  143.3605  151.1973 H   0  0  0  0  0  0  0  0  0  0  0  0  # atno 10167 bound_to 10162
  157.6524  131.0921  150.6509 H   0  0  0  0  0  0  0  0  0  0  0  0  # atno 10718 bound_to 10713
  153.4074  135.7006  153.6383 H   0  0  0  0  0  0  0  0  0  0  0  0  # atno 10763 bound_to 10752
  153.4891  135.3676  155.2483 H   0  0  0  0  0  0  0  0  0  0  0  0  # atno 10764 bound_to 10752
  154.8715  135.4084  154.3420 H   0  0  0  0  0  0  0  0  0  0  0  0  # atno 10765 bound_to 10752
  140.8591  134.2191  157.4717 H   0  0  0  0  0  0  0  0  0  0  0  0  # atno 11005 bound_to 11000
  144.6809  140.2548  143.7327 LP  0  0  0  0  0  0  0  0  0  0  0  0  # atno 17320 bound_to 7965
  145.8076  139.1989  143.2012 LP  0  0  0  0  0  0  0  0  0  0  0  0  # atno 17321 bound_to 7965
  139.7156  143.9306  152.2965 LP  0  0  0  0  0  0  0  0  0  0  0  0  # atno 17342 bound_to 10162
  139.9046  144.6892  150.8628 LP  0  0  0  0  0  0  0  0  0  0  0  0  # atno 17343 bound_to 10162
  156.6819  130.4569  149.5625 LP  0  0  0  0  0  0  0  0  0  0  0  0  # atno 17370 bound_to 10713
  156.1923  130.6568  151.1075 LP  0  0  0  0  0  0  0  0  0  0  0  0  # atno 17371 bound_to 10713
  139.8706  134.9721  156.4760 LP  0  0  0  0  0  0  0  0  0  0  0  0  # atno 17394 bound_to 11000
  140.8703  133.7993  155.9357 LP  0  0  0  0  0  0  0  0  0  0  0  0  # atno 17395 bound_to 11000

$$$$
