#       Name:                AV-unprocessed.smi:713
#       Creating user name   scv26
#       Creation time:       Fri Mar 27 00:47:22 2020


#       File generated by GOLD software.
#

@<TRIPOS>MOLECULE
AV-unprocessed.smi:713
    44    45     1
SMALL
NO_CHARGES


@<TRIPOS>ATOM
      1 ****        -3.4924  -2.1158   2.0019 C.3            1 S1                 0.0000
      2 ****        -2.9612  -1.2614   0.8326 C.3            1 S1                 0.0000
      3 ****        -1.4534  -0.9670   0.9347 C.2            1 S1                 0.0000
      4 ****        -0.7768  -1.4426   1.8475 O.2            1 S1                 0.0000
      5 ****        -0.9410  -0.1596  -0.0083 N.am           1 S1                 0.0000
      6 ****         0.4559   0.2487  -0.1065 C.3            1 S1                 0.0000
      7 ****         0.7821   0.5934  -1.5706 C.3            1 S1                 0.0000
      8 ****         2.2270   1.0903  -1.7313 C.3            1 S1                 0.0000
      9 ****         2.5286   2.2706  -0.7902 C.3            1 S1                 0.0000
     10 ****         2.1682   1.9940   0.6875 C.3            1 S1                 0.0000
     11 ****         3.3757   0.8727   1.5522 S.o2           1 S1                 0.0000
     12 ****         4.9211   1.8727   1.5460 C.3            1 S1                 0.0000
     13 ****         2.9358   0.7192   2.9471 O.2            1 S1                 0.0000
     14 ****         3.6206  -0.3275   0.7393 O.2            1 S1                 0.0000
     15 ****         0.7269   1.4603   0.8097 C.3            1 S1                 0.0000
     16 ****        -3.2915  -1.8493  -0.4620 N.pl3          1 S1                 0.0000
     17 ****        -3.8805  -1.2334  -1.5478 C.2            1 S1                 0.0000
     18 ****        -3.9602  -2.1564  -2.5505 C.2            1 S1                 0.0000
     19 ****        -3.3806  -3.3241  -1.9815 C.2            1 S1                 0.0000
     20 ****        -2.9760  -3.1366  -0.7362 N.2            1 S1                 0.0000
     21 ****        -3.3114  -1.6290   2.9610 H              1 S1                 0.0000
     22 ****        -3.0212  -3.0990   2.0356 H              1 S1                 0.0000
     23 ****        -4.5684  -2.2682   1.9130 H              1 S1                 0.0000
     24 ****        -3.4676  -0.2963   0.8836 H              1 S1                 0.0000
     25 ****        -1.5656   0.1865  -0.7218 H              1 S1                 0.0000
     26 ****         1.0860  -0.5884   0.1967 H              1 S1                 0.0000
     27 ****         0.6231  -0.2799  -2.2046 H              1 S1                 0.0000
     28 ****         0.0972   1.3634  -1.9291 H              1 S1                 0.0000
     29 ****         2.9208   0.2705  -1.5551 H              1 S1                 0.0000
     30 ****         2.3932   1.3978  -2.7639 H              1 S1                 0.0000
     31 ****         3.5722   2.5665  -0.8869 H              1 S1                 0.0000
     32 ****         1.9488   3.1304  -1.1276 H              1 S1                 0.0000
     33 ****         2.2185   2.9379   1.2311 H              1 S1                 0.0000
     34 ****         5.6806   1.3612   2.1370 H              1 S1                 0.0000
     35 ****         4.7262   2.8519   1.9822 H              1 S1                 0.0000
     36 ****         5.2865   1.9904   0.5268 H              1 S1                 0.0000
     37 ****         0.0345   2.2628   0.5517 H              1 S1                 0.0000
     38 ****         0.5133   1.2044   1.8482 H              1 S1                 0.0000
     39 ****        -4.1895  -0.1989  -1.5175 H              1 S1                 0.0000
     40 ****        -4.3676  -2.0177  -3.5409 H              1 S1                 0.0000
     41 ****        -3.2387  -4.2942  -2.4344 H              1 S1                 0.0000
     42 ****        -1.2058  -2.0286   2.5349 LP             1 S1                 0.0000
     43 ****         0.2016  -1.2427   1.9012 LP             1 S1                 0.0000
     44 ****        -2.5346  -3.7993  -0.1312 LP             1 S1                 0.0000
@<TRIPOS>BOND
    1    1    2 1     
    2    1   21 1     
    3    1   22 1     
    4    1   23 1     
    5    2    3 1     
    6    2   16 1     
    7    2   24 1     
    8    3    4 2     
    9    3    5 am    
   10    5    6 1     
   11    5   25 1     
   12    6   15 1     
   13    6    7 1     
   14    6   26 1     
   15    7    8 1     
   16    7   27 1     
   17    7   28 1     
   18    8    9 1     
   19    8   29 1     
   20    8   30 1     
   21    9   10 1     
   22    9   31 1     
   23    9   32 1     
   24   10   11 1     
   25   10   15 1     
   26   10   33 1     
   27   11   12 1     
   28   11   13 2     
   29   11   14 2     
   30   12   34 1     
   31   12   35 1     
   32   12   36 1     
   33   15   37 1     
   34   15   38 1     
   35   16   20 1     
   36   16   17 1     
   37   17   18 2     
   38   17   39 1     
   39   18   19 1     
   40   18   40 1     
   41   19   20 2     
   42   19   41 1     
   43    4   42 1     
   44    4   43 1     
   45   20   44 1     
@<TRIPOS>SUBSTRUCTURE
      1 S1             1
@<TRIPOS>SET
LONE_PAIRS      STATIC     ATOMS    <user>   **** ""
5 42 43 13 14 44
DONOR_HYDROGENS      STATIC     ATOMS    <user>   **** ""
1 25
ATOM$BLUE        STATIC     ATOMS    COLORGROUP SYSTEM
5 42 43 13 14 44
ATOM$RED        STATIC     ATOMS    COLORGROUP SYSTEM
1 25
