AV-unprocessed.smi:1961|AV-procd|sdf|7920|dock10
  -GOLD-   2272010 83D 1   1.00000     0.00000
 Structure written by MMmdl.
 35 36  0  0  0  0  0  0  0  0  2 V2000
  151.9807  144.8753  160.1892 C   0  0  0  0  0  0  0  0  0  0  0  0
  151.7212  143.4493  160.6970 C   0  0  0  0  0  0  0  0  0  0  0  0
  152.5499  143.0902  161.9388 C   0  0  0  0  0  0  0  0  0  0  0  0
  151.8617  142.4285  159.6116 C   0  0  0  0  0  0  0  0  0  0  0  0
  151.1645  142.4721  158.4722 N   0  0  0  0  0  0  0  0  0  0  0  0
  151.4733  141.4164  157.6273 N   0  0  0  0  0  0  0  0  0  0  0  0
  152.4057  140.5960  158.1309 C   0  0  0  0  0  0  0  0  0  0  0  0
  152.8442  139.5113  157.4712 N   0  5  0  0  0  0  0  0  0  0  0  0
  152.4069  139.2608  156.2161 C   0  0  0  0  0  0  0  0  0  0  0  0
  153.0902  139.2685  155.1894 O   0  0  0  0  0  0  0  0  0  0  0  0
  151.0981  138.9788  156.1467 N   0  0  0  0  0  0  0  0  0  0  0  0
  150.3579  138.6528  154.9327 C   0  0  0  0  0  0  0  0  0  0  0  0
  149.2019  139.6380  154.6930 C   0  0  2  0  0  0  0  0  0  0  0  0
  148.2017  139.1751  153.6366 C   0  0  0  0  0  0  0  0  0  0  0  0
  147.5870  140.4744  153.1386 C   0  0  0  0  0  0  0  0  0  0  0  0
  148.5467  141.5584  153.6398 C   0  0  0  0  0  0  0  0  0  0  0  0
  149.6757  140.8547  154.1373 O   0  0  0  0  0  0  0  0  0  0  0  0
  152.9666  141.0690  159.7338 S   0  0  0  0  0  0  0  0  0  0  0  0
  151.3170  145.1226  159.3599 H   0  0  0  0  0  0  0  0  0  0  0  0
  153.0074  144.9914  159.8403 H   0  0  0  0  0  0  0  0  0  0  0  0
  151.8131  145.6095  160.9775 H   0  0  0  0  0  0  0  0  0  0  0  0
  150.6765  143.4225  161.0092 H   0  0  0  0  0  0  0  0  0  0  0  0
  152.2762  142.1059  162.3201 H   0  0  0  0  0  0  0  0  0  0  0  0
  152.3896  143.8115  162.7405 H   0  0  0  0  0  0  0  0  0  0  0  0
  153.6168  143.0746  161.7136 H   0  0  0  0  0  0  0  0  0  0  0  0
  150.5775  138.9790  157.0114 H   0  0  0  0  0  0  0  0  0  0  0  0
  151.0505  138.6722  154.0910 H   0  0  0  0  0  0  0  0  0  0  0  0
  149.9779  137.6321  154.9970 H   0  0  0  0  0  0  0  0  0  0  0  0
  148.6747  139.8518  155.6250 H   0  0  0  0  0  0  0  0  0  0  0  0
  148.7223  138.6803  152.8155 H   0  0  0  0  0  0  0  0  0  0  0  0
  147.4625  138.4792  154.0345 H   0  0  0  0  0  0  0  0  0  0  0  0
  147.5061  140.4759  152.0513 H   0  0  0  0  0  0  0  0  0  0  0  0
  146.5889  140.6273  153.5506 H   0  0  0  0  0  0  0  0  0  0  0  0
  148.8352  142.2588  152.8559 H   0  0  0  0  0  0  0  0  0  0  0  0
  148.0927  142.1257  154.4537 H   0  0  0  0  0  0  0  0  0  0  0  0
  1  2  1  0  0  0  0
  1 19  1  0  0  0  0
  1 20  1  0  0  0  0
  1 21  1  0  0  0  0
  2  3  1  0  0  0  0
  2  4  1  0  0  0  0
  2 22  1  0  0  0  0
  3 23  1  0  0  0  0
  3 24  1  0  0  0  0
  3 25  1  0  0  0  0
  4 18  1  0  0  0  0
  4  5  2  0  0  0  0
  5  6  1  0  0  0  0
  6  7  2  0  0  0  0
  7  8  1  0  0  0  0
  7 18  1  0  0  0  0
  8  9  1  0  0  0  0
  9 10  2  0  0  0  0
  9 11  1  0  0  0  0
 11 12  1  0  0  0  0
 11 26  1  0  0  0  0
 12 13  1  0  0  0  0
 12 27  1  0  0  0  0
 12 28  1  0  0  0  0
 13 17  1  0  0  0  0
 13 14  1  0  0  0  0
 13 29  1  0  0  0  0
 14 15  1  0  0  0  0
 14 30  1  0  0  0  0
 14 31  1  0  0  0  0
 15 16  1  0  0  0  0
 15 32  1  0  0  0  0
 15 33  1  0  0  0  0
 16 17  1  0  0  0  0
 16 34  1  0  0  0  0
 16 35  1  0  0  0  0
M  CHG  1   8  -1
M  END
> <s_m_source_file>
AV-unprocessed.smi

> <i_m_source_file_index>
1961

> <i_lp_mmshare_version>
43012

> <i_f3d_flags>
0

> <s_epik_input>
W0NIM11bQ0hdKFtDSDNdKWMxbm5jKHMxKVtOSF1DKD1PKVtOSF1bQ0gyXVtDQEBIXTJbQ0gyXVtDSDJdW0NIMl1PMg==

> <s_epik_cmdline>
J2VwaWtfcHl0aG9uJywgJy1waCcsICc3LjAnLCAnLXRuJywgJzgnLCAnLW1hJywgJzIwMCcsICctbWV0YWxfYmluZGluZycsICctaW1hZScsICc8aW5maWxlLm1hZT4nLCAnLW9tYWUnLCAnPG91dGZpbGUubWFlPic=

> <r_lp_tautomer_probability>
1

> <r_epik_Ionization_Penalty>
4.36179

> <r_epik_Ionization_Penalty_Charging>
4.21437

> <r_epik_Ionization_Penalty_Neutral>
0.147417

> <r_epik_State_Penalty>
4.21389

> <r_epik_Charging_Adjusted_Penalty>
8.42826

> <i_epik_Tot_Q>
-1

> <i_epik_Tot_abs_Q>
1

> <r_epik_Metal_State_Penalty>
0.693772

> <b_epik_Metal_Only>
1

> <s_lp_Force_Field>
OPLS_2005

> <r_lp_Energy>
8.68115

> <b_lp_Chiralities_Consistent>
1

> <s_lp_Variant>
AV-unprocessed.smi:1961-3

> <Gold.Version>
5.8.1

> <Gold.Id.Protein>
6NUR|6NUR_protein|mol2

> <Gold.PLP.Fitness>
40.8684

> <Gold.PLP.PLP>
-35.1236

> <Gold.PLP.part.hbond>
-3.5679

> <Gold.PLP.part.metal>
0.0000

> <Gold.PLP.part.buried>
-0.7432

> <Gold.PLP.part.nonpolar>
-28.4340

> <Gold.PLP.part.repulsive>
0.2793

> <Gold.PLP.ligand.clash>
0.0000

> <Gold.PLP.ligand.torsion>
0.7918

> <Gold.PLP.Chemscore.Hbond>
2.4001

> <Gold.PLP.Chemscore.CHOScore>
0.0000

> <Gold.PLP.Chemscore.Metal>
0.0000

> <Gold.Chemscore.Hbonds>
donor molecule, donor type, donor heavy atom, donor atom, acceptor molecule, acceptor atom, score
      P1  H  7989  7998       L1    17  0.54
      P1  H  7997  8008       L1    10  0.07
      P1  H  7997  8010       L1     8  1.70

> <Gold.PLP.Chemscore.Internal.Correction>
0.1280

> <Gold.Rescore>
     Score         DG    S(hbond)    S(metal)    S(lipo)     H(rot)  DE(clash)    DE(int)     intcor
     13.45     -14.84       0.88        0.00      85.89       1.42       0.72       0.67       ----

> <Gold.Chemscore.Fitness>
13.4504

> <Gold.Chemscore.DG>
-14.8403

> <Gold.Chemscore.ZeroCoef>
-5.4800

> <Gold.Chemscore.Hbond>
0.8817

> <Gold.Chemscore.Metal>
0.0000

> <Gold.Chemscore.Lipo>
85.8865

> <Gold.Chemscore.Internal_Hbond>
0.0000

> <Gold.Chemscore.DEClash>
0.7244

> <Gold.Chemscore.DEInternal>
0.6656

> <Gold.Chemscore.Rot>
1.4193

> <Gold.Chemscore.Internal.Correction>
   9.000000E+99

> <Gold.Chemscore.Hbonds>
donor molecule, donor type, donor heavy atom, donor atom, acceptor molecule, acceptor atom, score
      P1  H  7989  7998       L1    17  0.48
      P1  H  7997  8008       L1    10  0.07
      P1  H  7997  8010       L1     8  0.04

> <Gold.Chemscore.Hbond.Weighted>
-2.9450

> <Gold.Chemscore.Metal.Weighted>
-0.0000

> <Gold.Chemscore.Lipo.Weighted>
-10.0487

> <Gold.Chemscore.Internal_Hbond.Weighted>
0.0000

> <Gold.Chemscore.DEClash.Weighted>
0.7244

> <Gold.Chemscore.DEInternal.Weighted>
0.6656

> <Gold.Chemscore.Rot.Weighted>
3.6333

> <Gold.Chemscore.Internal.Correction.Weighted>
   9.000000E+99

> <Gold.Protein.RotatedTorsions>
[ 6907 6896 6895 6894 ] final   -0.99 input  -60.11 | X-H torsion
[ 7974 7965 7964 7962 ] final  -46.12 input  175.53 | X-H torsion
[ 8008 7997 7996 7995 ] final   34.89 input   59.86 | X-H torsion
[ 10167 10162 10161 10158 ] final  138.06 input  -65.29 | X-H torsion
[ 10718 10713 10712 10709 ] final  179.86 input   66.30 | X-H torsion
[ 10763 10752 10751 10750 ] final   90.74 input  -60.55 | X-H torsion
[ 11005 11000 10999 10996 ] final  165.10 input  -57.11 | X-H torsion

> <Gold.Protein.ActiveResidues>
 VAL166  LYS551  ARG553  GLY616  TRP617  ASP618  TYR619  PRO620  LYS621  CYS622 
 ASP623  PHE694  ASN695  SER759  ASP760  ASP761  ALA762  ILE779  LEU786  VAL792 
 PHE793  MET794  SER795  GLU796  ALA797  LYS798  CYS799  TRP800  GLU811  SER814 

> <Gold.Protein.RotatedAtoms>
  151.5533  135.1067  159.9954 H   0  0  0  0  0  0  0  0  0  0  0  0  # atno 6907 bound_to 6896
  152.4481  133.7571  159.6737 H   0  0  0  0  0  0  0  0  0  0  0  0  # atno 6908 bound_to 6896
  150.8402  133.7881  159.3088 H   0  0  0  0  0  0  0  0  0  0  0  0  # atno 6909 bound_to 6896
  145.9751  140.7342  142.9391 H   0  0  0  0  0  0  0  0  0  0  0  0  # atno 7974 bound_to 7965
  155.1621  140.3284  155.4409 H   0  0  0  0  0  0  0  0  0  0  0  0  # atno 8008 bound_to 7997
  156.2539  140.1958  156.6678 H   0  0  0  0  0  0  0  0  0  0  0  0  # atno 8009 bound_to 7997
  154.6397  140.0572  156.9818 H   0  0  0  0  0  0  0  0  0  0  0  0  # atno 8010 bound_to 7997
  139.5123  144.6375  151.5658 H   0  0  0  0  0  0  0  0  0  0  0  0  # atno 10167 bound_to 10162
  156.8694  130.9779  151.3075 H   0  0  0  0  0  0  0  0  0  0  0  0  # atno 10718 bound_to 10713
  153.2008  135.4423  155.0264 H   0  0  0  0  0  0  0  0  0  0  0  0  # atno 10763 bound_to 10752
  154.8146  135.3309  154.7215 H   0  0  0  0  0  0  0  0  0  0  0  0  # atno 10764 bound_to 10752
  153.7660  135.6988  153.4971 H   0  0  0  0  0  0  0  0  0  0  0  0  # atno 10765 bound_to 10752
  140.2526  134.7965  157.3516 H   0  0  0  0  0  0  0  0  0  0  0  0  # atno 11005 bound_to 11000
  144.6847  140.2814  143.7291 LP  0  0  0  0  0  0  0  0  0  0  0  0  # atno 17320 bound_to 7965
  145.7850  139.1905  143.2136 LP  0  0  0  0  0  0  0  0  0  0  0  0  # atno 17321 bound_to 7965
  140.6129  143.9402  150.6467 LP  0  0  0  0  0  0  0  0  0  0  0  0  # atno 17342 bound_to 10162
  140.2651  143.3496  152.1288 LP  0  0  0  0  0  0  0  0  0  0  0  0  # atno 17343 bound_to 10162
  157.6204  130.8651  149.9099 LP  0  0  0  0  0  0  0  0  0  0  0  0  # atno 17370 bound_to 10713
  156.0734  130.3682  150.0728 LP  0  0  0  0  0  0  0  0  0  0  0  0  # atno 17371 bound_to 10713
  140.1543  134.4810  155.7939 LP  0  0  0  0  0  0  0  0  0  0  0  0  # atno 17394 bound_to 11000
  141.2199  133.6875  156.7433 LP  0  0  0  0  0  0  0  0  0  0  0  0  # atno 17395 bound_to 11000

$$$$
