AV-unprocessed.smi:2593|AV-procd|sdf|10163|dock5
  -GOLD-   2272014173D 1   1.00000     0.00000
 Structure written by MMmdl.
 40 42  0  0  0  0  0  0  0  0  1 V2000
  154.3177  136.3098  159.2751 C   0  0  0  0  0  0  0  0  0  0  0  0
  153.0643  136.7361  159.7782 O   0  0  0  0  0  0  0  0  0  0  0  0
  153.1132  138.0449  160.3232 C   0  0  0  0  0  0  0  0  0  0  0  0
  153.6768  139.0176  159.2782 C   0  0  0  0  0  0  0  0  0  0  0  0
  153.0405  140.3245  159.3490 N   0  0  0  0  0  0  0  0  0  0  0  0
  152.2643  140.9224  158.4133 C   0  0  0  0  0  0  0  0  0  0  0  0
  151.8823  140.1469  156.8805 S   0  0  0  0  0  0  0  0  0  0  0  0
  150.8596  141.4779  156.1961 C   0  0  0  0  0  0  0  0  0  0  0  0
  149.8223  140.8929  155.2597 C   0  0  0  0  0  0  0  0  0  0  0  0
  148.8207  141.7118  154.6965 C   0  0  0  0  0  0  0  0  0  0  0  0
  147.8761  141.1193  153.8369 C   0  0  0  0  0  0  0  0  0  0  0  0
  147.9681  139.7384  153.5761 C   0  0  0  0  0  0  0  0  0  0  0  0
  149.0052  139.0064  154.1897 C   0  0  0  0  0  0  0  0  0  0  0  0
  149.1264  137.6388  153.9574 N   0  0  0  0  0  0  0  0  0  0  0  0
  149.9161  139.5663  155.0145 N   0  0  0  0  0  0  0  0  0  0  0  0
  151.8063  142.1339  158.7274 N   0  0  0  0  0  0  0  0  0  0  0  0
  152.3267  142.3373  159.9906 C   0  0  0  0  0  0  0  0  0  0  0  0
  152.1995  143.4361  160.8705 C   0  0  0  0  0  0  0  0  0  0  0  0
  152.8290  143.4167  162.1323 C   0  0  0  0  0  0  0  0  0  0  0  0
  153.5916  142.3004  162.5323 C   0  0  0  0  0  0  0  0  0  0  0  0
  153.7325  141.1957  161.6704 C   0  0  0  0  0  0  0  0  0  0  0  0
  153.1037  141.2209  160.4111 C   0  0  0  0  0  0  0  0  0  0  0  0
  154.2266  135.3012  158.8723 H   0  0  0  0  0  0  0  0  0  0  0  0
  155.0727  136.2914  160.0620 H   0  0  0  0  0  0  0  0  0  0  0  0
  154.6627  136.9629  158.4726 H   0  0  0  0  0  0  0  0  0  0  0  0
  152.1133  138.3625  160.6220 H   0  0  0  0  0  0  0  0  0  0  0  0
  153.7381  138.0541  161.2175 H   0  0  0  0  0  0  0  0  0  0  0  0
  154.7494  139.1431  159.4275 H   0  0  0  0  0  0  0  0  0  0  0  0
  153.5545  138.6131  158.2732 H   0  0  0  0  0  0  0  0  0  0  0  0
  150.3666  142.0159  157.0065 H   0  0  0  0  0  0  0  0  0  0  0  0
  151.4935  142.1914  155.6679 H   0  0  0  0  0  0  0  0  0  0  0  0
  148.7760  142.7677  154.9195 H   0  0  0  0  0  0  0  0  0  0  0  0
  147.0941  141.7127  153.3868 H   0  0  0  0  0  0  0  0  0  0  0  0
  147.2574  139.2566  152.9206 H   0  0  0  0  0  0  0  0  0  0  0  0
  148.4843  137.1465  153.3533 H   0  0  0  0  0  0  0  0  0  0  0  0
  149.8457  137.0912  154.4074 H   0  0  0  0  0  0  0  0  0  0  0  0
  151.6157  144.2950  160.5743 H   0  0  0  0  0  0  0  0  0  0  0  0
  152.7251  144.2617  162.7970 H   0  0  0  0  0  0  0  0  0  0  0  0
  154.0685  142.2922  163.5016 H   0  0  0  0  0  0  0  0  0  0  0  0
  154.3136  140.3382  161.9750 H   0  0  0  0  0  0  0  0  0  0  0  0
  1  2  1  0  0  0  0
  1 23  1  0  0  0  0
  1 24  1  0  0  0  0
  1 25  1  0  0  0  0
  2  3  1  0  0  0  0
  3  4  1  0  0  0  0
  3 26  1  0  0  0  0
  3 27  1  0  0  0  0
  4  5  1  0  0  0  0
  4 28  1  0  0  0  0
  4 29  1  0  0  0  0
  5 22  1  0  0  0  0
  5  6  1  0  0  0  0
  6  7  1  0  0  0  0
  6 16  2  0  0  0  0
  7  8  1  0  0  0  0
  8  9  1  0  0  0  0
  8 30  1  0  0  0  0
  8 31  1  0  0  0  0
  9 15  1  0  0  0  0
  9 10  2  0  0  0  0
 10 11  1  0  0  0  0
 10 32  1  0  0  0  0
 11 12  2  0  0  0  0
 11 33  1  0  0  0  0
 12 13  1  0  0  0  0
 12 34  1  0  0  0  0
 13 14  1  0  0  0  0
 13 15  2  0  0  0  0
 14 35  1  0  0  0  0
 14 36  1  0  0  0  0
 16 17  1  0  0  0  0
 17 22  2  0  0  0  0
 17 18  1  0  0  0  0
 18 19  2  0  0  0  0
 18 37  1  0  0  0  0
 19 20  1  0  0  0  0
 19 38  1  0  0  0  0
 20 21  2  0  0  0  0
 20 39  1  0  0  0  0
 21 22  1  0  0  0  0
 21 40  1  0  0  0  0
M  END
> <s_m_source_file>
AV-unprocessed.smi

> <i_m_source_file_index>
2593

> <i_lp_mmshare_version>
43012

> <i_f3d_flags>
0

> <s_epik_input>
W2NIXTFbY0hdW2NIXVtjSF1jKGMxMiluKFtDSDJdW0NIMl1PW0NIM10pYyhuMilTW0NIMl1jM1tjSF1bY0hdW2NIXWMobjMpW05IMl0=

> <s_epik_cmdline>
J2VwaWtfcHl0aG9uJywgJy1waCcsICc3LjAnLCAnLXRuJywgJzgnLCAnLW1hJywgJzIwMCcsICctbWV0YWxfYmluZGluZycsICctaW1hZScsICc8aW5maWxlLm1hZT4nLCAnLW9tYWUnLCAnPG91dGZpbGUubWFlPic=

> <r_lp_tautomer_probability>
1

> <r_epik_Ionization_Penalty>
0.0555631

> <r_epik_Ionization_Penalty_Charging>
0

> <r_epik_Ionization_Penalty_Neutral>
0.0555631

> <r_epik_State_Penalty>
0.0451694

> <r_epik_Charging_Adjusted_Penalty>
0.0451694

> <i_epik_Tot_Q>
0

> <i_epik_Tot_abs_Q>
0

> <r_epik_Metal_State_Penalty>
0.0431775

> <b_epik_Metal_Only>
0

> <s_lp_Force_Field>
OPLS_2005

> <r_lp_Energy>
6.83129

> <b_lp_Chiralities_Consistent>
1

> <s_lp_Variant>
AV-unprocessed.smi:2593-1

> <Gold.Version>
5.8.1

> <Gold.Id.Protein>
6NUR|6NUR_protein|mol2

> <Gold.PLP.Fitness>
50.9408

> <Gold.PLP.PLP>
-47.3714

> <Gold.PLP.part.hbond>
-1.9153

> <Gold.PLP.part.metal>
0.0000

> <Gold.PLP.part.buried>
-3.1662

> <Gold.PLP.part.nonpolar>
-42.8922

> <Gold.PLP.part.repulsive>
0.0767

> <Gold.PLP.ligand.clash>
0.0000

> <Gold.PLP.ligand.torsion>
0.4922

> <Gold.PLP.Chemscore.Hbond>
1.4873

> <Gold.PLP.Chemscore.CHOScore>
0.0000

> <Gold.PLP.Chemscore.Metal>
0.0000

> <Gold.Chemscore.Hbonds>
donor molecule, donor type, donor heavy atom, donor atom, acceptor molecule, acceptor atom, score
      L1  H    14    35       P1  7948  0.48
      P1  H  6896  6907       L1     2  0.98

> <Gold.PLP.Chemscore.Internal.Correction>
0.0920

> <Gold.Rescore>
     Score         DG    S(hbond)    S(metal)    S(lipo)     H(rot)  DE(clash)    DE(int)     intcor
     18.37     -19.01       1.57        0.00     117.50       2.13       0.12       0.52       ----

> <Gold.Chemscore.Fitness>
18.3743

> <Gold.Chemscore.DG>
-19.0146

> <Gold.Chemscore.ZeroCoef>
-5.4800

> <Gold.Chemscore.Hbond>
1.5658

> <Gold.Chemscore.Metal>
0.0000

> <Gold.Chemscore.Lipo>
117.4986

> <Gold.Chemscore.Internal_Hbond>
0.0000

> <Gold.Chemscore.DEClash>
0.1220

> <Gold.Chemscore.DEInternal>
0.5183

> <Gold.Chemscore.Rot>
2.1260

> <Gold.Chemscore.Internal.Correction>
   9.000000E+99

> <Gold.Chemscore.Hbonds>
donor molecule, donor type, donor heavy atom, donor atom, acceptor molecule, acceptor atom, score
      L1  H    14    35       P1  7948  0.48
      P1  H  6896  6907       L1     2  0.67

> <Gold.Chemscore.Hbond.Weighted>
-5.2298

> <Gold.Chemscore.Metal.Weighted>
-0.0000

> <Gold.Chemscore.Lipo.Weighted>
-13.7473

> <Gold.Chemscore.Internal_Hbond.Weighted>
0.0000

> <Gold.Chemscore.DEClash.Weighted>
0.1220

> <Gold.Chemscore.DEInternal.Weighted>
0.5183

> <Gold.Chemscore.Rot.Weighted>
5.4425

> <Gold.Chemscore.Internal.Correction.Weighted>
   9.000000E+99

> <Gold.Protein.RotatedTorsions>
[ 6907 6896 6895 6894 ] final   14.15 input  -60.11 | X-H torsion
[ 7974 7965 7964 7962 ] final  110.32 input  175.53 | X-H torsion
[ 8008 7997 7996 7995 ] final  114.81 input   59.86 | X-H torsion
[ 10167 10162 10161 10158 ] final -166.38 input  -65.29 | X-H torsion
[ 10718 10713 10712 10709 ] final    8.32 input   66.30 | X-H torsion
[ 10763 10752 10751 10750 ] final -166.73 input  -60.55 | X-H torsion
[ 11005 11000 10999 10996 ] final   45.00 input  -57.11 | X-H torsion

> <Gold.Protein.ActiveResidues>
 VAL166  LYS551  ARG553  GLY616  TRP617  ASP618  TYR619  PRO620  LYS621  CYS622 
 ASP623  PHE694  ASN695  SER759  ASP760  ASP761  ALA762  ILE779  LEU786  VAL792 
 PHE793  MET794  SER795  GLU796  ALA797  LYS798  CYS799  TRP800  GLU811  SER814 

> <Gold.Protein.RotatedAtoms>
  151.7977  135.0718  160.0395 H   0  0  0  0  0  0  0  0  0  0  0  0  # atno 6907 bound_to 6896
  152.3111  133.5750  159.5690 H   0  0  0  0  0  0  0  0  0  0  0  0  # atno 6908 bound_to 6896
  150.7320  134.0066  159.3698 H   0  0  0  0  0  0  0  0  0  0  0  0  # atno 6909 bound_to 6896
  145.2565  139.2719  143.4039 H   0  0  0  0  0  0  0  0  0  0  0  0  # atno 7974 bound_to 7965
  156.2344  140.2951  156.0272 H   0  0  0  0  0  0  0  0  0  0  0  0  # atno 8008 bound_to 7997
  155.2135  140.0413  157.2954 H   0  0  0  0  0  0  0  0  0  0  0  0  # atno 8009 bound_to 7997
  154.6052  140.2437  155.7748 H   0  0  0  0  0  0  0  0  0  0  0  0  # atno 8010 bound_to 7997
  139.6119  144.0798  152.1850 H   0  0  0  0  0  0  0  0  0  0  0  0  # atno 10167 bound_to 10162
  156.9499  130.5893  149.5656 H   0  0  0  0  0  0  0  0  0  0  0  0  # atno 10718 bound_to 10713
  154.6803  135.2953  154.9622 H   0  0  0  0  0  0  0  0  0  0  0  0  # atno 10763 bound_to 10752
  154.0619  135.6630  153.4817 H   0  0  0  0  0  0  0  0  0  0  0  0  # atno 10764 bound_to 10752
  153.0543  135.5154  154.7843 H   0  0  0  0  0  0  0  0  0  0  0  0  # atno 10765 bound_to 10752
  140.1499  134.4474  155.8389 H   0  0  0  0  0  0  0  0  0  0  0  0  # atno 11005 bound_to 11000
  146.3287  140.2971  142.8618 LP  0  0  0  0  0  0  0  0  0  0  0  0  # atno 17320 bound_to 7965
  144.9456  140.8124  143.5603 LP  0  0  0  0  0  0  0  0  0  0  0  0  # atno 17321 bound_to 7965
  140.0419  144.6001  150.7404 LP  0  0  0  0  0  0  0  0  0  0  0  0  # atno 17342 bound_to 10162
  140.7324  143.2706  151.3902 LP  0  0  0  0  0  0  0  0  0  0  0  0  # atno 17343 bound_to 10162
  156.0367  130.5454  150.8671 LP  0  0  0  0  0  0  0  0  0  0  0  0  # atno 17370 bound_to 10713
  157.5729  131.0946  150.9390 LP  0  0  0  0  0  0  0  0  0  0  0  0  # atno 17371 bound_to 10713
  141.2197  133.6868  156.7403 LP  0  0  0  0  0  0  0  0  0  0  0  0  # atno 17394 bound_to 11000
  140.2617  134.8461  157.3765 LP  0  0  0  0  0  0  0  0  0  0  0  0  # atno 17395 bound_to 11000

$$$$
