AV-unprocessed.smi:3351|AV-procd|sdf|12948|dock7
  -GOLD-   2272019383D 1   1.00000     0.00000
 Structure written by MMmdl.
 35 36  0  0  0  0  0  0  0  0  2 V2000
  150.9252  137.9818  154.2033 C   0  0  0  0  0  0  0  0  0  0  0  0
  150.1571  139.2744  154.5240 C   0  0  1  0  0  0  0  0  0  0  0  0
  148.6766  139.2240  154.0880 C   0  0  0  0  0  0  0  0  0  0  0  0
  148.0376  140.5436  154.0907 N   0  0  0  0  0  0  0  0  0  0  0  0
  146.7667  140.8484  153.6754 C   0  0  0  0  0  0  0  0  0  0  0  0
  146.6085  142.1978  153.8596 C   0  0  0  0  0  0  0  0  0  0  0  0
  147.7901  142.6600  154.3744 N   0  3  0  0  0  0  0  0  0  0  0  0
  148.6594  141.6533  154.5106 C   0  0  0  0  0  0  0  0  0  0  0  0
  150.2541  139.5463  155.9552 N   0  0  0  0  0  0  0  0  0  0  0  0
  151.3833  139.8589  156.6099 C   0  0  0  0  0  0  0  0  0  0  0  0
  152.4737  139.9842  156.0510 O   0  0  0  0  0  0  0  0  0  0  0  0
  151.2470  140.0899  158.1202 C   0  0  0  0  0  0  0  0  0  0  0  0
  151.7338  141.4051  158.5409 N   0  0  0  0  0  0  0  0  0  0  0  0
  152.4889  141.5239  159.7821 C   0  0  0  0  0  0  0  0  0  0  0  0
  153.1521  142.9029  159.8006 C   0  0  0  0  0  0  0  0  0  0  0  0
  152.2167  143.9767  158.6938 S   0  0  0  0  0  0  0  0  0  0  0  0
  151.4479  142.5831  157.8631 C   0  0  0  0  0  0  0  0  0  0  0  0
  150.7720  142.7166  156.8445 O   0  0  0  0  0  0  0  0  0  0  0  0
  150.9602  137.7927  153.1301 H   0  0  0  0  0  0  0  0  0  0  0  0
  150.4629  137.1171  154.6802 H   0  0  0  0  0  0  0  0  0  0  0  0
  151.9567  138.0421  154.5524 H   0  0  0  0  0  0  0  0  0  0  0  0
  150.6509  140.0862  153.9866 H   0  0  0  0  0  0  0  0  0  0  0  0
  148.5852  138.7979  153.0874 H   0  0  0  0  0  0  0  0  0  0  0  0
  148.0976  138.5852  154.7562 H   0  0  0  0  0  0  0  0  0  0  0  0
  146.0870  140.1009  153.2920 H   0  0  0  0  0  0  0  0  0  0  0  0
  145.7664  142.8466  153.6671 H   0  0  0  0  0  0  0  0  0  0  0  0
  149.6636  141.7234  154.8894 H   0  0  0  0  0  0  0  0  0  0  0  0
  149.4027  139.4697  156.4928 H   0  0  0  0  0  0  0  0  0  0  0  0
  150.1970  139.9768  158.3924 H   0  0  0  0  0  0  0  0  0  0  0  0
  151.7902  139.3156  158.6650 H   0  0  0  0  0  0  0  0  0  0  0  0
  151.7941  141.4282  160.6174 H   0  0  0  0  0  0  0  0  0  0  0  0
  153.2315  140.7310  159.8777 H   0  0  0  0  0  0  0  0  0  0  0  0
  153.2037  143.3222  160.8054 H   0  0  0  0  0  0  0  0  0  0  0  0
  154.1702  142.8318  159.4173 H   0  0  0  0  0  0  0  0  0  0  0  0
  147.9815  143.6242  154.6161 H   0  0  0  0  0  0  0  0  0  0  0  0
  1  2  1  0  0  0  0
  1 19  1  0  0  0  0
  1 20  1  0  0  0  0
  1 21  1  0  0  0  0
  2  3  1  0  0  0  0
  2  9  1  0  0  0  0
  2 22  1  0  0  0  0
  3  4  1  0  0  0  0
  3 23  1  0  0  0  0
  3 24  1  0  0  0  0
  4  8  1  0  0  0  0
  4  5  1  0  0  0  0
  5  6  2  0  0  0  0
  5 25  1  0  0  0  0
  6  7  1  0  0  0  0
  6 26  1  0  0  0  0
  7  8  2  0  0  0  0
  7 35  1  0  0  0  0
  8 27  1  0  0  0  0
  9 10  1  0  0  0  0
  9 28  1  0  0  0  0
 10 11  2  0  0  0  0
 10 12  1  0  0  0  0
 12 13  1  0  0  0  0
 12 29  1  0  0  0  0
 12 30  1  0  0  0  0
 13 17  1  0  0  0  0
 13 14  1  0  0  0  0
 14 15  1  0  0  0  0
 14 31  1  0  0  0  0
 14 32  1  0  0  0  0
 15 16  1  0  0  0  0
 15 33  1  0  0  0  0
 15 34  1  0  0  0  0
 16 17  1  0  0  0  0
 17 18  2  0  0  0  0
M  CHG  1   7   1
M  END
> <s_m_source_file>
AV-unprocessed.smi

> <i_m_source_file_index>
3351

> <i_lp_mmshare_version>
43012

> <i_f3d_flags>
0

> <s_epik_input>
W2NIXTFuW2NIXVtjSF1uMVtDSDJdW0NAQEhdKFtDSDNdKVtOSF1DKD1PKVtDSDJdTjJbQ0gyXVtDSDJdU0MyPU8=

> <s_epik_cmdline>
J2VwaWtfcHl0aG9uJywgJy1waCcsICc3LjAnLCAnLXRuJywgJzgnLCAnLW1hJywgJzIwMCcsICctbWV0YWxfYmluZGluZycsICctaW1hZScsICc8aW5maWxlLm1hZT4nLCAnLW9tYWUnLCAnPG91dGZpbGUubWFlPic=

> <r_lp_tautomer_probability>
1

> <r_epik_Ionization_Penalty>
0.257312

> <r_epik_Ionization_Penalty_Charging>
0

> <r_epik_Ionization_Penalty_Neutral>
0.257312

> <r_epik_State_Penalty>
0.248897

> <r_epik_Charging_Adjusted_Penalty>
0.248897

> <i_epik_Tot_Q>
1

> <i_epik_Tot_abs_Q>
1

> <r_epik_Metal_State_Penalty>
0.538022

> <b_epik_Metal_Only>
0

> <s_lp_Force_Field>
OPLS_2005

> <r_lp_Energy>
6.1395

> <b_lp_Chiralities_Consistent>
1

> <s_lp_Variant>
AV-unprocessed.smi:3351-2

> <Gold.Version>
5.8.1

> <Gold.Id.Protein>
6NUR|6NUR_protein|mol2

> <Gold.PLP.Fitness>
50.2438

> <Gold.PLP.PLP>
-39.4139

> <Gold.PLP.part.hbond>
-2.0000

> <Gold.PLP.part.metal>
0.0000

> <Gold.PLP.part.buried>
-4.0232

> <Gold.PLP.part.nonpolar>
-34.2545

> <Gold.PLP.part.repulsive>
0.6198

> <Gold.PLP.ligand.clash>
0.0000

> <Gold.PLP.ligand.torsion>
0.4329

> <Gold.PLP.Chemscore.Hbond>
3.0000

> <Gold.PLP.Chemscore.CHOScore>
0.8844

> <Gold.PLP.Chemscore.Metal>
0.0000

> <Gold.Chemscore.Hbonds>
donor molecule, donor type, donor heavy atom, donor atom, acceptor molecule, acceptor atom, score
      L1  H     7    35       P1  8028  1.92
      P1  H  7997  8008       L1    11  1.00
      L1  C     5    25       P1 10175  0.85

> <Gold.PLP.Chemscore.Internal.Correction>
0.0426

> <Gold.Rescore>
     Score         DG    S(hbond)    S(metal)    S(lipo)     H(rot)  DE(clash)    DE(int)     intcor
     12.25     -14.58       1.96        0.00      74.49       2.41       0.04       2.29       ----

> <Gold.Chemscore.Fitness>
12.2501

> <Gold.Chemscore.DG>
-14.5779

> <Gold.Chemscore.ZeroCoef>
-5.4800

> <Gold.Chemscore.Hbond>
1.9648

> <Gold.Chemscore.Metal>
0.0000

> <Gold.Chemscore.Lipo>
74.4907

> <Gold.Chemscore.Internal_Hbond>
0.0000

> <Gold.Chemscore.DEClash>
0.0379

> <Gold.Chemscore.DEInternal>
2.2898

> <Gold.Chemscore.Rot>
2.4141

> <Gold.Chemscore.Internal.Correction>
   9.000000E+99

> <Gold.Chemscore.Hbonds>
donor molecule, donor type, donor heavy atom, donor atom, acceptor molecule, acceptor atom, score
      L1  H     7    35       P1  8028  0.60
      P1  H  7997  8008       L1    11  1.00

> <Gold.Chemscore.Hbond.Weighted>
-6.5625

> <Gold.Chemscore.Metal.Weighted>
-0.0000

> <Gold.Chemscore.Lipo.Weighted>
-8.7154

> <Gold.Chemscore.Internal_Hbond.Weighted>
0.0000

> <Gold.Chemscore.DEClash.Weighted>
0.0379

> <Gold.Chemscore.DEInternal.Weighted>
2.2898

> <Gold.Chemscore.Rot.Weighted>
6.1800

> <Gold.Chemscore.Internal.Correction.Weighted>
   9.000000E+99

> <Gold.Protein.RotatedTorsions>
[ 6907 6896 6895 6894 ] final  -97.84 input  -60.11 | X-H torsion
[ 7974 7965 7964 7962 ] final -142.04 input  175.53 | X-H torsion
[ 8008 7997 7996 7995 ] final  -36.94 input   59.86 | X-H torsion
[ 10167 10162 10161 10158 ] final  -38.36 input  -65.29 | X-H torsion
[ 10718 10713 10712 10709 ] final  -55.86 input   66.30 | X-H torsion
[ 10763 10752 10751 10750 ] final -113.36 input  -60.55 | X-H torsion
[ 11005 11000 10999 10996 ] final -119.98 input  -57.11 | X-H torsion

> <Gold.Protein.ActiveResidues>
 VAL166  LYS551  ARG553  GLY616  TRP617  ASP618  TYR619  PRO620  LYS621  CYS622 
 ASP623  PHE694  ASN695  SER759  ASP760  ASP761  ALA762  ILE779  LEU786  VAL792 
 PHE793  MET794  SER795  GLU796  ALA797  LYS798  CYS799  TRP800  GLU811  SER814 

> <Gold.Protein.RotatedAtoms>
  150.7028  134.1287  159.4061 H   0  0  0  0  0  0  0  0  0  0  0  0  # atno 6907 bound_to 6896
  151.9273  135.0270  160.0536 H   0  0  0  0  0  0  0  0  0  0  0  0  # atno 6908 bound_to 6896
  152.2205  133.4945  159.5197 H   0  0  0  0  0  0  0  0  0  0  0  0  # atno 6909 bound_to 6896
  144.8473  140.6006  143.5413 H   0  0  0  0  0  0  0  0  0  0  0  0  # atno 7974 bound_to 7965
  154.4063  140.1617  156.2455 H   0  0  0  0  0  0  0  0  0  0  0  0  # atno 8008 bound_to 7997
  155.9164  140.3424  155.6116 H   0  0  0  0  0  0  0  0  0  0  0  0  # atno 8009 bound_to 7997
  155.7274  140.0776  157.2294 H   0  0  0  0  0  0  0  0  0  0  0  0  # atno 8010 bound_to 7997
  140.7094  143.3282  151.2630 H   0  0  0  0  0  0  0  0  0  0  0  0  # atno 10167 bound_to 10162
  156.1335  130.4158  150.0227 H   0  0  0  0  0  0  0  0  0  0  0  0  # atno 10718 bound_to 10713
  154.8392  135.4457  154.1336 H   0  0  0  0  0  0  0  0  0  0  0  0  # atno 10763 bound_to 10752
  153.2540  135.6929  153.7655 H   0  0  0  0  0  0  0  0  0  0  0  0  # atno 10764 bound_to 10752
  153.6956  135.3380  155.3188 H   0  0  0  0  0  0  0  0  0  0  0  0  # atno 10765 bound_to 10752
  141.0177  134.0171  157.3327 H   0  0  0  0  0  0  0  0  0  0  0  0  # atno 11005 bound_to 11000
  145.4571  139.1517  143.3887 LP  0  0  0  0  0  0  0  0  0  0  0  0  # atno 17320 bound_to 7965
  146.2755  140.4699  142.8797 LP  0  0  0  0  0  0  0  0  0  0  0  0  # atno 17321 bound_to 7965
  139.6756  143.9943  152.2779 LP  0  0  0  0  0  0  0  0  0  0  0  0  # atno 17342 bound_to 10162
  139.9556  144.6592  150.8129 LP  0  0  0  0  0  0  0  0  0  0  0  0  # atno 17343 bound_to 10162
  156.8133  130.9332  151.3643 LP  0  0  0  0  0  0  0  0  0  0  0  0  # atno 17370 bound_to 10713
  157.6510  130.8884  149.9633 LP  0  0  0  0  0  0  0  0  0  0  0  0  # atno 17371 bound_to 10713
  139.9127  135.0192  156.7756 LP  0  0  0  0  0  0  0  0  0  0  0  0  # atno 17394 bound_to 11000
  140.6627  133.9631  155.7813 LP  0  0  0  0  0  0  0  0  0  0  0  0  # atno 17395 bound_to 11000

$$$$
