#       Name:                AV-unprocessed.smi:37
#       Creating user name   scv26
#       Creation time:       Thu Mar 26 16:15:19 2020


#       File generated by GOLD software.
#

@<TRIPOS>MOLECULE
AV-unprocessed.smi:37
    54    55     1
SMALL
NO_CHARGES


@<TRIPOS>ATOM
      1 ****        -3.7120   2.9601  -2.2817 C.3            1 S1                 0.0000
      2 ****        -3.8447   2.7277  -0.7706 C.3            1 S1                 0.0000
      3 ****        -3.4355   1.3130  -0.3679 C.2            1 S1                 0.0000
      4 ****        -4.2564   0.5081   0.0728 O.2            1 S1                 0.0000
      5 ****        -2.1257   1.0837  -0.5465 O.3            1 S1                 0.0000
      6 ****        -1.5852  -0.1859  -0.2223 C.3            1 S1                 0.0000
      7 ****        -0.0666  -0.1565  -0.4376 C.3            1 S1                 0.0000
      8 ****         0.5880   0.5556   0.6060 O.3            1 S1                 0.0000
      9 ****         1.9011   0.0941   0.7479 C.3            1 S1                 0.0000
     10 ****         2.8735   1.2037   0.4157 N.am           1 S1                 0.0000
     11 ****         2.4842   2.3050  -0.3294 C.2            1 S1                 0.0000
     12 ****         3.3546   3.2934  -0.6197 C.2            1 S1                 0.0000
     13 ****         2.9506   4.3477  -1.3492 F              1 S1                 0.0000
     14 ****         4.7329   3.2082  -0.1401 C.2            1 S1                 0.0000
     15 ****         5.5203   4.1159  -0.4031 O.2            1 S1                 0.0000
     16 ****         5.0885   2.1100   0.5878 N.pl3          1 S1                -1.0000
     17 ****         4.2128   1.1044   0.8800 C.2            1 S1                 0.0000
     18 ****         4.5253   0.1030   1.5246 O.2            1 S1                 0.0000
     19 ****         2.0605  -1.1456  -0.1594 C.3            1 S1                 0.0000
     20 ****         2.9172  -0.7456  -1.9217 Br             1 S1                 0.0000
     21 ****         0.6132  -1.5277  -0.4175 C.3            1 S1                 0.0000
     22 ****         0.0970  -2.3123   0.6532 O.3            1 S1                 0.0000
     23 ****         0.1935  -3.6537   0.6244 C.2            1 S1                 0.0000
     24 ****         0.7358  -4.3202  -0.2572 O.2            1 S1                 0.0000
     25 ****        -0.4452  -4.3156   1.8435 C.3            1 S1                 0.0000
     26 ****        -1.9531  -4.0418   1.9300 C.3            1 S1                 0.0000
     27 ****        -4.0327   3.9682  -2.5437 H              1 S1                 0.0000
     28 ****        -4.3301   2.2604  -2.8454 H              1 S1                 0.0000
     29 ****        -2.6802   2.8451  -2.6164 H              1 S1                 0.0000
     30 ****        -3.2259   3.4415  -0.2265 H              1 S1                 0.0000
     31 ****        -4.8752   2.8997  -0.4585 H              1 S1                 0.0000
     32 ****        -1.8230  -0.4557   0.8079 H              1 S1                 0.0000
     33 ****        -2.0367  -0.9363  -0.8728 H              1 S1                 0.0000
     34 ****         0.1611   0.3318  -1.3867 H              1 S1                 0.0000
     35 ****         2.0484  -0.1269   1.8065 H              1 S1                 0.0000
     36 ****         1.4725   2.3831  -0.6978 H              1 S1                 0.0000
     37 ****         2.6486  -1.9205   0.3334 H              1 S1                 0.0000
     38 ****         0.4830  -2.0486  -1.3676 H              1 S1                 0.0000
     39 ****        -0.2678  -5.3903   1.7936 H              1 S1                 0.0000
     40 ****         0.0536  -3.9541   2.7431 H              1 S1                 0.0000
     41 ****        -2.3903  -4.5672   2.7791 H              1 S1                 0.0000
     42 ****        -2.4699  -4.3796   1.0310 H              1 S1                 0.0000
     43 ****        -2.1605  -2.9788   2.0585 H              1 S1                 0.0000
     44 ****        -5.2146   0.7757   0.1735 LP             1 S1                 0.0000
     45 ****        -3.9649  -0.4132   0.3300 LP             1 S1                 0.0000
     46 ****         0.0931   0.4158   1.4636 LP             1 S1                 0.0000
     47 ****         0.6016   1.5306   0.3841 LP             1 S1                 0.0000
     48 ****         5.2154   4.9024  -0.9402 LP             1 S1                 0.0000
     49 ****         6.4654   4.0673  -0.0798 LP             1 S1                 0.0000
     50 ****         6.0288   2.0390   0.9207 LP             1 S1                 0.0000
     51 ****         3.8452  -0.6073   1.7059 LP             1 S1                 0.0000
     52 ****         5.4593  -0.0000   1.8669 LP             1 S1                 0.0000
     53 ****         1.1558  -3.8642  -1.0418 LP             1 S1                 0.0000
     54 ****         0.7563  -5.3177  -0.1887 LP             1 S1                 0.0000
@<TRIPOS>BOND
    1    1    2 1     
    2    1   27 1     
    3    1   28 1     
    4    1   29 1     
    5    2    3 1     
    6    2   30 1     
    7    2   31 1     
    8    3    4 2     
    9    3    5 1     
   10    5    6 1     
   11    6    7 1     
   12    6   32 1     
   13    6   33 1     
   14    7   21 1     
   15    7    8 1     
   16    7   34 1     
   17    8    9 1     
   18    9   10 1     
   19    9   19 1     
   20    9   35 1     
   21   10   17 am    
   22   10   11 1     
   23   11   12 2     
   24   11   36 1     
   25   12   13 1     
   26   12   14 1     
   27   14   15 2     
   28   14   16 1     
   29   16   17 1     
   30   17   18 2     
   31   19   20 1     
   32   19   21 1     
   33   19   37 1     
   34   21   22 1     
   35   21   38 1     
   36   22   23 1     
   37   23   24 2     
   38   23   25 1     
   39   25   26 1     
   40   25   39 1     
   41   25   40 1     
   42   26   41 1     
   43   26   42 1     
   44   26   43 1     
   45    4   44 1     
   46    4   45 1     
   47    8   46 1     
   48    8   47 1     
   49   15   48 1     
   50   15   49 1     
   51   16   50 1     
   52   18   51 1     
   53   18   52 1     
   54   24   53 1     
   55   24   54 1     
@<TRIPOS>SUBSTRUCTURE
      1 S1             1
@<TRIPOS>SET
LONE_PAIRS      STATIC     ATOMS    <user>   **** ""
11 44 45 46 47 48 49 50 51 52 53 54
ATOM$BLUE        STATIC     ATOMS    COLORGROUP SYSTEM
11 44 45 46 47 48 49 50 51 52 53 54
