AV-unprocessed.smi:2032|AV-procd|sdf|8258|dock1
  -GOLD-   2272010533D 1   1.00000     0.00000
 Structure written by MMmdl.
 42 43  0  0  0  0  0  0  0  0  3 V2000
  151.2901  144.9619  159.4291 C   0  0  0  0  0  0  0  0  0  0  0  0
  152.1920  144.3908  158.3201 C   0  0  1  0  0  0  0  0  0  0  0  0
  153.2625  143.4105  158.8417 C   0  0  0  0  0  0  0  0  0  0  0  0
  152.6699  142.0957  159.2100 N   0  3  2  0  0  0  0  0  0  0  0  0
  153.6174  141.0832  159.7784 C   0  0  1  0  0  0  0  0  0  0  0  0
  154.1459  141.4432  161.1882 C   0  0  0  0  0  0  0  0  0  0  0  0
  152.9442  139.6861  159.7998 C   0  0  0  0  0  0  0  0  0  0  0  0
  153.8715  138.6141  160.1479 N   0  0  0  0  0  0  0  0  0  0  0  0
  153.5980  137.3026  160.1044 C   0  0  0  0  0  0  0  0  0  0  0  0
  152.4753  136.9205  159.7655 O   0  0  0  0  0  0  0  0  0  0  0  0
  154.6435  136.5182  160.4486 N   0  5  0  0  0  0  0  0  0  0  0  0
  154.7641  136.0757  161.7108 C   0  0  0  0  0  0  0  0  0  0  0  0
  155.2606  134.8718  162.0173 N   0  0  0  0  0  0  0  0  0  0  0  0
  155.2889  134.6158  163.3892 C   0  0  0  0  0  0  0  0  0  0  0  0
  154.7944  135.6457  164.1447 C   0  0  0  0  0  0  0  0  0  0  0  0
  154.2752  136.9758  163.1493 S   0  0  0  0  0  0  0  0  0  0  0  0
  151.9013  141.5623  158.0548 C   0  0  0  0  0  0  0  0  0  0  0  0
  150.8210  142.5599  157.6041 C   0  0  2  0  0  0  0  0  0  0  0  0
  150.0589  142.0630  156.3704 C   0  0  0  0  0  0  0  0  0  0  0  0
  151.4378  143.7971  157.2658 O   0  0  0  0  0  0  0  0  0  0  0  0
  151.8768  145.5366  160.1462 H   0  0  0  0  0  0  0  0  0  0  0  0
  150.7738  144.1813  159.9871 H   0  0  0  0  0  0  0  0  0  0  0  0
  150.5365  145.6300  159.0118 H   0  0  0  0  0  0  0  0  0  0  0  0
  152.7118  145.2390  157.8737 H   0  0  0  0  0  0  0  0  0  0  0  0
  154.0242  143.2546  158.0760 H   0  0  0  0  0  0  0  0  0  0  0  0
  153.7536  143.8769  159.6951 H   0  0  0  0  0  0  0  0  0  0  0  0
  154.4883  141.0474  159.1221 H   0  0  0  0  0  0  0  0  0  0  0  0
  154.8156  140.6748  161.5743 H   0  0  0  0  0  0  0  0  0  0  0  0
  153.3313  141.5538  161.9047 H   0  0  0  0  0  0  0  0  0  0  0  0
  154.7283  142.3647  161.1836 H   0  0  0  0  0  0  0  0  0  0  0  0
  152.1376  139.6789  160.5335 H   0  0  0  0  0  0  0  0  0  0  0  0
  152.4813  139.4385  158.8451 H   0  0  0  0  0  0  0  0  0  0  0  0
  154.8008  138.8847  160.4355 H   0  0  0  0  0  0  0  0  0  0  0  0
  155.6780  133.6718  163.7404 H   0  0  0  0  0  0  0  0  0  0  0  0
  154.7030  135.7030  165.2188 H   0  0  0  0  0  0  0  0  0  0  0  0
  152.5857  141.3535  157.2304 H   0  0  0  0  0  0  0  0  0  0  0  0
  151.4225  140.6175  158.3072 H   0  0  0  0  0  0  0  0  0  0  0  0
  150.1001  142.7099  158.4078 H   0  0  0  0  0  0  0  0  0  0  0  0
  149.5606  141.1145  156.5722 H   0  0  0  0  0  0  0  0  0  0  0  0
  150.7303  141.9147  155.5241 H   0  0  0  0  0  0  0  0  0  0  0  0
  149.2958  142.7808  156.0682 H   0  0  0  0  0  0  0  0  0  0  0  0
  152.0030  142.2918  159.9426 H   0  0  0  0  0  0  0  0  0  0  0  0
  1  2  1  0  0  0  0
  1 21  1  0  0  0  0
  1 22  1  0  0  0  0
  1 23  1  0  0  0  0
  2 20  1  0  0  0  0
  2  3  1  0  0  0  0
  2 24  1  0  0  0  0
  3  4  1  0  0  0  0
  3 25  1  0  0  0  0
  3 26  1  0  0  0  0
  4  5  1  0  0  0  0
  4 17  1  0  0  0  0
  4 42  1  0  0  0  0
  5  6  1  0  0  0  0
  5  7  1  0  0  0  0
  5 27  1  0  0  0  0
  6 28  1  0  0  0  0
  6 29  1  0  0  0  0
  6 30  1  0  0  0  0
  7  8  1  0  0  0  0
  7 31  1  0  0  0  0
  7 32  1  0  0  0  0
  8  9  1  0  0  0  0
  8 33  1  0  0  0  0
  9 10  2  0  0  0  0
  9 11  1  0  0  0  0
 11 12  1  0  0  0  0
 12 16  1  0  0  0  0
 12 13  2  0  0  0  0
 13 14  1  0  0  0  0
 14 15  2  0  0  0  0
 14 34  1  0  0  0  0
 15 16  1  0  0  0  0
 15 35  1  0  0  0  0
 17 18  1  0  0  0  0
 17 36  1  0  0  0  0
 17 37  1  0  0  0  0
 18 19  1  0  0  0  0
 18 20  1  0  0  0  0
 18 38  1  0  0  0  0
 19 39  1  0  0  0  0
 19 40  1  0  0  0  0
 19 41  1  0  0  0  0
M  CHG  1   4   1
M  CHG  1  11  -1
M  END
> <s_m_source_file>
AV-unprocessed.smi

> <i_m_source_file_index>
2032

> <i_lp_mmshare_version>
43012

> <i_f3d_flags>
0

> <s_epik_input>
W0NIM11bQ0BASF0xW0NIMl1OKFtDSDJdW0NASF0oTzEpW0NIM10pW0NASF0oW0NIM10pW0NIMl1bTkhdQyg9TylbTkhdYzJuW2NIXVtjSF1zMg==

> <s_epik_cmdline>
J2VwaWtfcHl0aG9uJywgJy1waCcsICc3LjAnLCAnLXRuJywgJzgnLCAnLW1hJywgJzIwMCcsICctbWV0YWxfYmluZGluZycsICctaW1hZScsICc8aW5maWxlLm1hZT4nLCAnLW9tYWUnLCAnPG91dGZpbGUubWFlPic=

> <r_lp_tautomer_probability>
0.999

> <r_epik_Ionization_Penalty>
6.71699

> <r_epik_Ionization_Penalty_Charging>
5.88592

> <r_epik_Ionization_Penalty_Neutral>
0.831074

> <r_epik_State_Penalty>
6.08365

> <r_epik_Charging_Adjusted_Penalty>
11.9696

> <i_epik_Tot_Q>
0

> <i_epik_Tot_abs_Q>
2

> <r_epik_Metal_State_Penalty>
2.0947

> <b_epik_Metal_Only>
1

> <s_lp_Force_Field>
OPLS_2005

> <r_lp_Energy>
13.797

> <b_lp_Chiralities_Consistent>
1

> <s_lp_Variant>
AV-unprocessed.smi:2032-28

> <Gold.Version>
5.8.1

> <Gold.Id.Protein>
6NUR|6NUR_protein|mol2

> <Gold.PLP.Fitness>
42.5462

> <Gold.PLP.PLP>
-41.7356

> <Gold.PLP.part.hbond>
-1.0000

> <Gold.PLP.part.metal>
0.0000

> <Gold.PLP.part.buried>
-4.8331

> <Gold.PLP.part.nonpolar>
-36.6875

> <Gold.PLP.part.repulsive>
0.2488

> <Gold.PLP.ligand.clash>
0.0000

> <Gold.PLP.ligand.torsion>
1.2507

> <Gold.PLP.Chemscore.Hbond>
1.0000

> <Gold.PLP.Chemscore.CHOScore>
0.0000

> <Gold.PLP.Chemscore.Metal>
0.0000

> <Gold.Chemscore.Hbonds>
donor molecule, donor type, donor heavy atom, donor atom, acceptor molecule, acceptor atom, score
      P1  H  6896  6909       L1    10  1.00

> <Gold.PLP.Chemscore.Internal.Correction>
0.3120

> <Gold.Rescore>
     Score         DG    S(hbond)    S(metal)    S(lipo)     H(rot)  DE(clash)    DE(int)     intcor
     17.16     -18.62       0.99        0.00     118.68       1.58       0.19       1.27       ----

> <Gold.Chemscore.Fitness>
17.1592

> <Gold.Chemscore.DG>
-18.6188

> <Gold.Chemscore.ZeroCoef>
-5.4800

> <Gold.Chemscore.Hbond>
0.9867

> <Gold.Chemscore.Metal>
0.0000

> <Gold.Chemscore.Lipo>
118.6815

> <Gold.Chemscore.Internal_Hbond>
0.0000

> <Gold.Chemscore.DEClash>
0.1864

> <Gold.Chemscore.DEInternal>
1.2732

> <Gold.Chemscore.Rot>
1.5791

> <Gold.Chemscore.Internal.Correction>
   9.000000E+99

> <Gold.Chemscore.Hbonds>
donor molecule, donor type, donor heavy atom, donor atom, acceptor molecule, acceptor atom, score
      P1  H  6896  6909       L1    10  0.98

> <Gold.Chemscore.Hbond.Weighted>
-3.2956

> <Gold.Chemscore.Metal.Weighted>
-0.0000

> <Gold.Chemscore.Lipo.Weighted>
-13.8857

> <Gold.Chemscore.Internal_Hbond.Weighted>
0.0000

> <Gold.Chemscore.DEClash.Weighted>
0.1864

> <Gold.Chemscore.DEInternal.Weighted>
1.2732

> <Gold.Chemscore.Rot.Weighted>
4.0425

> <Gold.Chemscore.Internal.Correction.Weighted>
   9.000000E+99

> <Gold.Protein.RotatedTorsions>
[ 6907 6896 6895 6894 ] final  140.81 input  -60.11 | X-H torsion
[ 7974 7965 7964 7962 ] final  -26.50 input  175.53 | X-H torsion
[ 8008 7997 7996 7995 ] final  166.21 input   59.86 | X-H torsion
[ 10167 10162 10161 10158 ] final -104.36 input  -65.29 | X-H torsion
[ 10718 10713 10712 10709 ] final  -36.67 input   66.30 | X-H torsion
[ 10763 10752 10751 10750 ] final  -15.46 input  -60.55 | X-H torsion
[ 11005 11000 10999 10996 ] final   99.63 input  -57.11 | X-H torsion

> <Gold.Protein.ActiveResidues>
 VAL166  LYS551  ARG553  GLY616  TRP617  ASP618  TYR619  PRO620  LYS621  CYS622 
 ASP623  PHE694  ASN695  SER759  ASP760  ASP761  ALA762  ILE779  LEU786  VAL792 
 PHE793  MET794  SER795  GLU796  ALA797  LYS798  CYS799  TRP800  GLU811  SER814 

> <Gold.Protein.RotatedAtoms>
  152.2386  133.5116  159.5256 H   0  0  0  0  0  0  0  0  0  0  0  0  # atno 6907 bound_to 6896
  150.7057  134.1120  159.4012 H   0  0  0  0  0  0  0  0  0  0  0  0  # atno 6908 bound_to 6896
  151.9041  135.0366  160.0559 H   0  0  0  0  0  0  0  0  0  0  0  0  # atno 6909 bound_to 6896
  146.1421  140.5027  142.8647 H   0  0  0  0  0  0  0  0  0  0  0  0  # atno 7974 bound_to 7965
  156.1737  140.1649  156.8401 H   0  0  0  0  0  0  0  0  0  0  0  0  # atno 8008 bound_to 7997
  154.5284  140.0762  156.8335 H   0  0  0  0  0  0  0  0  0  0  0  0  # atno 8009 bound_to 7997
  155.3458  140.3387  155.4241 H   0  0  0  0  0  0  0  0  0  0  0  0  # atno 8010 bound_to 7997
  140.2101  143.3753  152.1057 H   0  0  0  0  0  0  0  0  0  0  0  0  # atno 10167 bound_to 10162
  156.3242  130.4270  149.7932 H   0  0  0  0  0  0  0  0  0  0  0  0  # atno 10718 bound_to 10713
  153.5438  135.7013  153.5624 H   0  0  0  0  0  0  0  0  0  0  0  0  # atno 10763 bound_to 10752
  153.3578  135.3978  155.1695 H   0  0  0  0  0  0  0  0  0  0  0  0  # atno 10764 bound_to 10752
  154.8670  135.3781  154.4944 H   0  0  0  0  0  0  0  0  0  0  0  0  # atno 10765 bound_to 10752
  139.8770  134.9104  156.4635 H   0  0  0  0  0  0  0  0  0  0  0  0  # atno 11005 bound_to 11000
  144.7804  140.5829  143.6609 LP  0  0  0  0  0  0  0  0  0  0  0  0  # atno 17320 bound_to 7965
  145.5022  139.1483  143.3651 LP  0  0  0  0  0  0  0  0  0  0  0  0  # atno 17321 bound_to 7965
  139.5183  144.7004  151.5510 LP  0  0  0  0  0  0  0  0  0  0  0  0  # atno 17342 bound_to 10162
  140.6329  143.9040  150.6622 LP  0  0  0  0  0  0  0  0  0  0  0  0  # atno 17343 bound_to 10162
  156.5229  130.8223  151.3210 LP  0  0  0  0  0  0  0  0  0  0  0  0  # atno 17370 bound_to 10713
  157.7418  130.9877  150.2469 LP  0  0  0  0  0  0  0  0  0  0  0  0  # atno 17371 bound_to 10713
  140.8847  133.7892  155.9505 LP  0  0  0  0  0  0  0  0  0  0  0  0  # atno 17394 bound_to 11000
  140.8817  134.2603  157.5140 LP  0  0  0  0  0  0  0  0  0  0  0  0  # atno 17395 bound_to 11000

$$$$
