AV-unprocessed.smi:169|AV-procd|sdf|1398|dock7
  -GOLD-   2262019143D 1   1.00000     0.00000
 Structure written by MMmdl.
 56 60  0  0  0  0  0  0  0  0  2 V2000
  152.4029  144.5744  157.7575 C   0  0  0  0  0  0  0  0  0  0  0  0
  152.4853  143.3638  158.7040 C   0  0  0  0  0  0  0  0  0  0  0  0
  151.8958  142.1197  158.1432 N   0  3  2  0  0  0  0  0  0  0  0  0
  150.8890  142.3738  157.0812 C   0  0  0  0  0  0  0  0  0  0  0  0
  150.9542  141.3394  155.9403 C   0  0  0  0  0  0  0  0  0  0  0  0
  151.0414  139.8600  156.3750 C   0  0  1  0  0  0  0  0  0  0  0  0
  152.4824  139.3890  156.6702 C   0  0  0  0  0  0  0  0  0  0  0  0
  152.5177  139.0882  158.1722 C   0  0  0  0  0  0  0  0  0  0  0  0
  151.2281  139.7151  158.7097 C   0  0  1  0  0  0  0  0  0  0  0  0
  151.4256  141.1724  159.1936 C   0  0  0  0  0  0  0  0  0  0  0  0
  150.2833  139.6111  157.5985 N   0  0  0  0  0  0  0  0  0  0  0  0
  149.3888  138.5894  157.5361 C   0  0  0  0  0  0  0  0  0  0  0  0
  148.9102  138.1601  156.3381 N   0  0  0  0  0  0  0  0  0  0  0  0
  148.0204  137.1645  156.2826 C   0  0  0  0  0  0  0  0  0  0  0  0
  147.4852  136.4674  157.2865 N   0  0  0  0  0  0  0  0  0  0  0  0
  147.9661  136.8873  158.4915 C   0  0  0  0  0  0  0  0  0  0  0  0
  148.9107  137.9305  158.7036 C   0  0  0  0  0  0  0  0  0  0  0  0
  149.1650  138.0692  160.0627 N   0  0  0  0  0  0  0  0  0  0  0  0
  148.4078  137.1656  160.6225 C   0  0  0  0  0  0  0  0  0  0  0  0
  147.6600  136.4044  159.7524 N   0  0  0  0  0  0  0  0  0  0  0  0
  146.7355  135.3361  160.1012 C   0  0  0  0  0  0  0  0  0  0  0  0
  145.6253  135.7663  161.0785 C   0  0  0  0  0  0  0  0  0  0  0  0
  144.7373  136.8176  160.3817 C   0  0  0  0  0  0  0  0  0  0  0  0
  145.4792  137.9207  159.9003 O   0  0  0  0  0  0  0  0  0  0  0  0
  144.8853  134.6339  161.8056 C   0  0  0  0  0  0  0  0  0  0  0  0
  145.1837  135.1914  163.1046 O   0  0  0  0  0  0  0  0  0  0  0  0
  146.1106  136.1156  162.4928 C   0  0  0  0  0  0  0  0  0  0  0  0
  152.8757  145.4450  158.2124 H   0  0  0  0  0  0  0  0  0  0  0  0
  151.3710  144.8471  157.5367 H   0  0  0  0  0  0  0  0  0  0  0  0
  152.9117  144.3861  156.8122 H   0  0  0  0  0  0  0  0  0  0  0  0
  153.5275  143.1732  158.9631 H   0  0  0  0  0  0  0  0  0  0  0  0
  151.9854  143.6001  159.6440 H   0  0  0  0  0  0  0  0  0  0  0  0
  149.8891  142.4025  157.5173 H   0  0  0  0  0  0  0  0  0  0  0  0
  151.0460  143.3589  156.6397 H   0  0  0  0  0  0  0  0  0  0  0  0
  150.0585  141.4687  155.3320 H   0  0  0  0  0  0  0  0  0  0  0  0
  151.7856  141.5730  155.2743 H   0  0  0  0  0  0  0  0  0  0  0  0
  150.6669  139.2494  155.5517 H   0  0  0  0  0  0  0  0  0  0  0  0
  152.7282  138.4940  156.0976 H   0  0  0  0  0  0  0  0  0  0  0  0
  153.2195  140.1488  156.4086 H   0  0  0  0  0  0  0  0  0  0  0  0
  152.4891  138.0085  158.3254 H   0  0  0  0  0  0  0  0  0  0  0  0
  153.4167  139.4645  158.6614 H   0  0  0  0  0  0  0  0  0  0  0  0
  150.8905  139.1479  159.5775 H   0  0  0  0  0  0  0  0  0  0  0  0
  152.1493  141.1612  160.0097 H   0  0  0  0  0  0  0  0  0  0  0  0
  150.4931  141.5384  159.6247 H   0  0  0  0  0  0  0  0  0  0  0  0
  147.6897  136.8871  155.2924 H   0  0  0  0  0  0  0  0  0  0  0  0
  148.3753  137.0300  161.6936 H   0  0  0  0  0  0  0  0  0  0  0  0
  146.3026  134.9615  159.1727 H   0  0  0  0  0  0  0  0  0  0  0  0
  147.3076  134.5042  160.5137 H   0  0  0  0  0  0  0  0  0  0  0  0
  144.2029  136.3770  159.5394 H   0  0  0  0  0  0  0  0  0  0  0  0
  143.9839  137.2116  161.0637 H   0  0  0  0  0  0  0  0  0  0  0  0
  145.5198  137.8676  158.9575 H   0  0  0  0  0  0  0  0  0  0  0  0
  143.8146  134.5948  161.6013 H   0  0  0  0  0  0  0  0  0  0  0  0
  145.3391  133.6501  161.6810 H   0  0  0  0  0  0  0  0  0  0  0  0
  147.1466  135.8351  162.6888 H   0  0  0  0  0  0  0  0  0  0  0  0
  145.9309  137.1494  162.7900 H   0  0  0  0  0  0  0  0  0  0  0  0
  152.6680  141.6598  157.6823 H   0  0  0  0  0  0  0  0  0  0  0  0
  1  2  1  0  0  0  0
  1 28  1  0  0  0  0
  1 29  1  0  0  0  0
  1 30  1  0  0  0  0
  2  3  1  0  0  0  0
  2 31  1  0  0  0  0
  2 32  1  0  0  0  0
  3 10  1  0  0  0  0
  3  4  1  0  0  0  0
  3 56  1  0  0  0  0
  4  5  1  0  0  0  0
  4 33  1  0  0  0  0
  4 34  1  0  0  0  0
  5  6  1  0  0  0  0
  5 35  1  0  0  0  0
  5 36  1  0  0  0  0
  6 11  1  0  0  0  0
  6  7  1  0  0  0  0
  6 37  1  0  0  0  0
  7  8  1  0  0  0  0
  7 38  1  0  0  0  0
  7 39  1  0  0  0  0
  8  9  1  0  0  0  0
  8 40  1  0  0  0  0
  8 41  1  0  0  0  0
  9 10  1  0  0  0  0
  9 11  1  0  0  0  0
  9 42  1  0  0  0  0
 10 43  1  0  0  0  0
 10 44  1  0  0  0  0
 11 12  1  0  0  0  0
 12 17  1  0  0  0  0
 12 13  2  0  0  0  0
 13 14  1  0  0  0  0
 14 15  2  0  0  0  0
 14 45  1  0  0  0  0
 15 16  1  0  0  0  0
 16 20  1  0  0  0  0
 16 17  2  0  0  0  0
 17 18  1  0  0  0  0
 18 19  2  0  0  0  0
 19 20  1  0  0  0  0
 19 46  1  0  0  0  0
 20 21  1  0  0  0  0
 21 22  1  0  0  0  0
 21 47  1  0  0  0  0
 21 48  1  0  0  0  0
 22 27  1  0  0  0  0
 22 23  1  0  0  0  0
 22 25  1  0  0  0  0
 23 24  1  0  0  0  0
 23 49  1  0  0  0  0
 23 50  1  0  0  0  0
 24 51  1  0  0  0  0
 25 26  1  0  0  0  0
 25 52  1  0  0  0  0
 25 53  1  0  0  0  0
 26 27  1  0  0  0  0
 27 54  1  0  0  0  0
 27 55  1  0  0  0  0
M  CHG  1   3   1
M  END
> <s_m_source_file>
AV-unprocessed.smi

> <i_m_source_file_index>
169

> <i_lp_mmshare_version>
43012

> <i_f3d_flags>
0

> <s_epik_input>
W0NASF0xMltDSDJdW0NIMl1OKFtDSDJdW0NIM10pW0NIMl1bQ0BIXShbQ0gyXVtDSDJdMSlOMmMobltjSF1uMyljKGMzNCluW2NIXW40W0NIMl1DNShbQ0gyXVtPSF0pW0NIMl1PW0NIMl01

> <s_epik_cmdline>
J2VwaWtfcHl0aG9uJywgJy1waCcsICc3LjAnLCAnLXRuJywgJzgnLCAnLW1hJywgJzIwMCcsICctbWV0YWxfYmluZGluZycsICctaW1hZScsICc8aW5maWxlLm1hZT4nLCAnLW9tYWUnLCAnPG91dGZpbGUubWFlPic=

> <r_lp_tautomer_probability>
1

> <r_epik_Ionization_Penalty>
0.00274162

> <r_epik_Ionization_Penalty_Charging>
0.00243722

> <r_epik_Ionization_Penalty_Neutral>
0.000304399

> <r_epik_State_Penalty>
-0

> <r_epik_Charging_Adjusted_Penalty>
0.00243722

> <i_epik_Tot_Q>
1

> <i_epik_Tot_abs_Q>
1

> <r_epik_Metal_State_Penalty>
-0

> <b_epik_Metal_Only>
0

> <s_lp_Force_Field>
OPLS_2005

> <r_lp_Energy>
78.5453

> <b_lp_Chiralities_Consistent>
1

> <s_lp_Variant>
AV-unprocessed.smi:169-1

> <Gold.Version>
5.8.1

> <Gold.Id.Protein>
6NUR|6NUR_protein|mol2

> <Gold.PLP.Fitness>
41.1645

> <Gold.PLP.PLP>
-40.1917

> <Gold.PLP.part.hbond>
-3.0000

> <Gold.PLP.part.metal>
0.0000

> <Gold.PLP.part.buried>
-3.5866

> <Gold.PLP.part.nonpolar>
-34.2829

> <Gold.PLP.part.repulsive>
0.0893

> <Gold.PLP.ligand.clash>
0.0000

> <Gold.PLP.ligand.torsion>
1.2613

> <Gold.PLP.Chemscore.Hbond>
1.0000

> <Gold.PLP.Chemscore.CHOScore>
0.0000

> <Gold.PLP.Chemscore.Metal>
0.0000

> <Gold.Chemscore.Hbonds>
donor molecule, donor type, donor heavy atom, donor atom, acceptor molecule, acceptor atom, score
      P1  H  6934  6947       L1    24  0.38

> <Gold.PLP.Chemscore.Internal.Correction>
0.4954

> <Gold.Rescore>
     Score         DG    S(hbond)    S(metal)    S(lipo)     H(rot)  DE(clash)    DE(int)     intcor
      7.21     -12.47       0.68        0.00      97.72       2.62       0.22       5.04       ----

> <Gold.Chemscore.Fitness>
7.2077

> <Gold.Chemscore.DG>
-12.4710

> <Gold.Chemscore.ZeroCoef>
-5.4800

> <Gold.Chemscore.Hbond>
0.6791

> <Gold.Chemscore.Metal>
0.0000

> <Gold.Chemscore.Lipo>
97.7184

> <Gold.Chemscore.Internal_Hbond>
0.0000

> <Gold.Chemscore.DEClash>
0.2212

> <Gold.Chemscore.DEInternal>
5.0421

> <Gold.Chemscore.Rot>
2.6212

> <Gold.Chemscore.Internal.Correction>
   9.000000E+99

> <Gold.Chemscore.Hbonds>
donor molecule, donor type, donor heavy atom, donor atom, acceptor molecule, acceptor atom, score
      P1  H  6934  6947       L1    24  0.36

> <Gold.Chemscore.Hbond.Weighted>
-2.2682

> <Gold.Chemscore.Metal.Weighted>
-0.0000

> <Gold.Chemscore.Lipo.Weighted>
-11.4330

> <Gold.Chemscore.Internal_Hbond.Weighted>
0.0000

> <Gold.Chemscore.DEClash.Weighted>
0.2212

> <Gold.Chemscore.DEInternal.Weighted>
5.0421

> <Gold.Chemscore.Rot.Weighted>
6.7102

> <Gold.Chemscore.Internal.Correction.Weighted>
   9.000000E+99

> <Gold.Protein.RotatedTorsions>
[ 6907 6896 6895 6894 ] final   44.35 input  -60.11 | X-H torsion
[ 7974 7965 7964 7962 ] final  121.74 input  175.53 | X-H torsion
[ 8008 7997 7996 7995 ] final   93.46 input   59.86 | X-H torsion
[ 10167 10162 10161 10158 ] final -173.21 input  -65.29 | X-H torsion
[ 10718 10713 10712 10709 ] final  -80.85 input   66.30 | X-H torsion
[ 10763 10752 10751 10750 ] final  -40.89 input  -60.55 | X-H torsion
[ 11005 11000 10999 10996 ] final    2.59 input  -57.11 | X-H torsion

> <Gold.Protein.ActiveResidues>
 VAL166  LYS551  ARG553  GLY616  TRP617  ASP618  TYR619  PRO620  LYS621  CYS622 
 ASP623  PHE694  ASN695  SER759  ASP760  ASP761  ALA762  ILE779  LEU786  VAL792 
 PHE793  MET794  SER795  GLU796  ALA797  LYS798  CYS799  TRP800  GLU811  SER814 

> <Gold.Protein.RotatedAtoms>
  152.2314  134.8318  160.0472 H   0  0  0  0  0  0  0  0  0  0  0  0  # atno 6907 bound_to 6896
  151.9065  133.3545  159.3857 H   0  0  0  0  0  0  0  0  0  0  0  0  # atno 6908 bound_to 6896
  150.7027  134.4701  159.5465 H   0  0  0  0  0  0  0  0  0  0  0  0  # atno 6909 bound_to 6896
  145.1158  139.3422  143.4740 H   0  0  0  0  0  0  0  0  0  0  0  0  # atno 7974 bound_to 7965
  156.0470  140.3312  155.7308 H   0  0  0  0  0  0  0  0  0  0  0  0  # atno 8008 bound_to 7997
  155.5658  140.0623  157.2836 H   0  0  0  0  0  0  0  0  0  0  0  0  # atno 8009 bound_to 7997
  154.4418  140.1869  156.0817 H   0  0  0  0  0  0  0  0  0  0  0  0  # atno 8010 bound_to 7997
  139.5701  144.1661  152.1371 H   0  0  0  0  0  0  0  0  0  0  0  0  # atno 10167 bound_to 10162
  156.0062  130.4586  150.3863 H   0  0  0  0  0  0  0  0  0  0  0  0  # atno 10718 bound_to 10713
  153.9534  135.6748  153.4744 H   0  0  0  0  0  0  0  0  0  0  0  0  # atno 10763 bound_to 10752
  153.0873  135.4892  154.8618 H   0  0  0  0  0  0  0  0  0  0  0  0  # atno 10764 bound_to 10752
  154.7312  135.3139  154.8846 H   0  0  0  0  0  0  0  0  0  0  0  0  # atno 10765 bound_to 10752
  140.6025  133.9822  155.8139 H   0  0  0  0  0  0  0  0  0  0  0  0  # atno 11005 bound_to 11000
  146.3524  140.1096  142.8604 LP  0  0  0  0  0  0  0  0  0  0  0  0  # atno 17320 bound_to 7965
  145.0796  140.9211  143.4833 LP  0  0  0  0  0  0  0  0  0  0  0  0  # atno 17321 bound_to 7965
  140.1193  144.5388  150.6873 LP  0  0  0  0  0  0  0  0  0  0  0  0  # atno 17342 bound_to 10162
  140.6985  143.2419  151.4931 LP  0  0  0  0  0  0  0  0  0  0  0  0  # atno 17343 bound_to 10162
  157.1940  131.0422  151.2685 LP  0  0  0  0  0  0  0  0  0  0  0  0  # atno 17370 bound_to 10713
  157.4036  130.7346  149.6785 LP  0  0  0  0  0  0  0  0  0  0  0  0  # atno 17371 bound_to 10713
  141.0862  133.9986  157.3309 LP  0  0  0  0  0  0  0  0  0  0  0  0  # atno 17394 bound_to 11000
  139.9226  135.0201  156.8120 LP  0  0  0  0  0  0  0  0  0  0  0  0  # atno 17395 bound_to 11000

$$$$
