#       Name:                AV-unprocessed.smi:2646
#       Creating user name   scv26
#       Creation time:       Fri Mar 27 14:29:21 2020


#       File generated by GOLD software.
#

@<TRIPOS>MOLECULE
AV-unprocessed.smi:2646
    48    49     1
SMALL
NO_CHARGES


@<TRIPOS>ATOM
      1 ****         0.1637  -0.3079   2.7030 C.3            1 S1                 0.0000
      2 ****         0.6629   0.3627   1.3975 C.3            1 S1                 0.0000
      3 ****         2.2195   0.4022   1.4262 C.3            1 S1                 0.0000
      4 ****         2.7178   1.2992   2.3985 O.3            1 S1                 0.0000
      5 ****         0.2188  -0.4197   0.2332 N.am           1 S1                 0.0000
      6 ****         0.4676  -1.7052  -0.0664 C.2            1 S1                 0.0000
      7 ****         1.1463  -2.4580   0.6308 O.2            1 S1                 0.0000
      8 ****        -0.1055  -2.0416  -1.2345 N.am           1 S1                 0.0000
      9 ****        -0.0902  -3.2992  -1.8952 C.ar           1 S1                 0.0000
     10 ****        -0.3481  -3.3215  -3.2812 C.ar           1 S1                 0.0000
     11 ****        -0.3573  -4.5561  -3.9575 C.ar           1 S1                 0.0000
     12 ****        -0.1159  -5.7281  -3.2151 C.ar           1 S1                 0.0000
     13 ****         0.1166  -5.7268  -1.8857 N.ar           1 S1                 0.0000
     14 ****         0.1256  -4.5389  -1.2432 C.ar           1 S1                 0.0000
     15 ****         0.0488   1.8008   1.2554 C.3            1 S1                 0.0000
     16 ****        -1.5045   1.8138   1.2407 C.3            1 S1                 0.0000
     17 ****        -2.0753   3.2384   1.1546 C.3            1 S1                 0.0000
     18 ****        -1.5387   3.9814  -0.0749 C.3            1 S1                 0.0000
     19 ****        -0.0054   3.9992  -0.0680 C.3            1 S1                 0.0000
     20 ****         0.5712   2.5771   0.0160 C.3            1 S1                 0.0000
     21 ****         0.2995   0.3501   3.5620 H              1 S1                 0.0000
     22 ****         0.7062  -1.2277   2.9214 H              1 S1                 0.0000
     23 ****        -0.8921  -0.5725   2.6528 H              1 S1                 0.0000
     24 ****         2.6341  -0.5809   1.6487 H              1 S1                 0.0000
     25 ****         2.6265   0.6836   0.4550 H              1 S1                 0.0000
     26 ****         3.6620   1.2638   2.3818 H              1 S1                 0.0000
     27 ****        -0.3502   0.0899  -0.4267 H              1 S1                 0.0000
     28 ****        -0.5592  -1.2935  -1.7380 H              1 S1                 0.0000
     29 ****        -0.5326  -2.4054  -3.8231 H              1 S1                 0.0000
     30 ****        -0.5448  -4.6040  -5.0200 H              1 S1                 0.0000
     31 ****        -0.1153  -6.6925  -3.7013 H              1 S1                 0.0000
     32 ****         0.2893  -4.6047  -0.1790 H              1 S1                 0.0000
     33 ****         0.3496   2.3722   2.1349 H              1 S1                 0.0000
     34 ****        -1.8819   1.2299   0.4006 H              1 S1                 0.0000
     35 ****        -1.9038   1.3494   2.1412 H              1 S1                 0.0000
     36 ****        -3.1644   3.1997   1.1176 H              1 S1                 0.0000
     37 ****        -1.8165   3.7911   2.0587 H              1 S1                 0.0000
     38 ****        -1.8977   3.4976  -0.9844 H              1 S1                 0.0000
     39 ****        -1.9234   5.0016  -0.0920 H              1 S1                 0.0000
     40 ****         0.3636   4.4960  -0.9657 H              1 S1                 0.0000
     41 ****         0.3504   4.5874   0.7790 H              1 S1                 0.0000
     42 ****         1.6566   2.6604   0.0412 H              1 S1                 0.0000
     43 ****         0.3257   2.0376  -0.8994 H              1 S1                 0.0000
     44 ****         2.3860   1.0341   3.3039 LP             1 S1                 0.0000
     45 ****         2.4111   2.2278   2.1898 LP             1 S1                 0.0000
     46 ****         1.5525  -2.1219   1.4806 LP             1 S1                 0.0000
     47 ****         1.2919  -3.4060   0.3478 LP             1 S1                 0.0000
     48 ****         0.2776  -6.5807  -1.3907 LP             1 S1                 0.0000
@<TRIPOS>BOND
    1    1    2 1     
    2    1   21 1     
    3    1   22 1     
    4    1   23 1     
    5    2    3 1     
    6    2    5 1     
    7    2   15 1     
    8    3    4 1     
    9    3   24 1     
   10    3   25 1     
   11    4   26 1     
   12    5    6 am    
   13    5   27 1     
   14    6    7 2     
   15    6    8 am    
   16    8    9 1     
   17    8   28 1     
   18    9   14 ar    
   19    9   10 ar    
   20   10   11 ar    
   21   10   29 1     
   22   11   12 ar    
   23   11   30 1     
   24   12   13 ar    
   25   12   31 1     
   26   13   14 ar    
   27   14   32 1     
   28   15   20 1     
   29   15   16 1     
   30   15   33 1     
   31   16   17 1     
   32   16   34 1     
   33   16   35 1     
   34   17   18 1     
   35   17   36 1     
   36   17   37 1     
   37   18   19 1     
   38   18   38 1     
   39   18   39 1     
   40   19   20 1     
   41   19   40 1     
   42   19   41 1     
   43   20   42 1     
   44   20   43 1     
   45    4   44 1     
   46    4   45 1     
   47    7   46 1     
   48    7   47 1     
   49   13   48 1     
@<TRIPOS>SUBSTRUCTURE
      1 S1             1
@<TRIPOS>SET
LONE_PAIRS      STATIC     ATOMS    <user>   **** ""
5 44 45 46 47 48
DONOR_HYDROGENS      STATIC     ATOMS    <user>   **** ""
3 26 27 28
ATOM$BLUE        STATIC     ATOMS    COLORGROUP SYSTEM
5 44 45 46 47 48
ATOM$RED        STATIC     ATOMS    COLORGROUP SYSTEM
3 26 27 28
