AV-unprocessed.smi:1704|AV-procd|sdf|6881|dock9
  -GOLD-   22720 8 83D 1   1.00000     0.00000
 Structure written by MMmdl.
 41 43  0  0  0  0  0  0  0  0  1 V2000
  154.8020  140.3509  161.1345 C   0  0  0  0  0  0  0  0  0  0  0  0
  153.8971  141.2920  160.4478 N   0  0  0  0  0  0  0  0  0  0  0  0
  153.2996  140.8838  159.2840 C   0  0  0  0  0  0  0  0  0  0  0  0
  153.4796  139.7898  158.7481 O   0  0  0  0  0  0  0  0  0  0  0  0
  152.3973  141.8812  158.6982 C   0  0  0  0  0  0  0  0  0  0  0  0
  152.2080  143.1091  159.2397 C   0  0  0  0  0  0  0  0  0  0  0  0
  151.3200  143.8661  158.4847 N   0  0  0  0  0  0  0  0  0  0  0  0
  151.0084  143.0243  157.4990 C   0  0  0  0  0  0  0  0  0  0  0  0
  151.5974  141.8116  157.5571 N   0  0  0  0  0  0  0  0  0  0  0  0
  151.4140  140.7205  156.6067 C   0  0  0  0  0  0  0  0  0  0  0  0
  149.9348  140.3181  156.3667 C   0  0  0  0  0  0  0  0  0  0  0  0
  149.9198  139.1822  155.5212 O   0  0  0  0  0  0  0  0  0  0  0  0
  149.2031  139.9435  157.6806 C   0  0  0  0  0  0  0  0  0  0  0  0
  147.6971  139.6914  157.4835 C   0  0  0  0  0  0  0  0  0  0  0  0
  147.0126  140.8789  156.7933 C   0  0  0  0  0  0  0  0  0  0  0  0
  147.6917  141.1998  155.4553 C   0  0  0  0  0  0  0  0  0  0  0  0
  149.1959  141.4675  155.6413 C   0  0  0  0  0  0  0  0  0  0  0  0
  152.8983  143.4418  160.4315 N   0  0  0  0  0  0  0  0  0  0  0  0
  152.6762  144.7826  160.9813 C   0  0  0  0  0  0  0  0  0  0  0  0
  153.7238  142.5300  161.0438 C   0  0  0  0  0  0  0  0  0  0  0  0
  154.2977  142.8102  162.0998 O   0  0  0  0  0  0  0  0  0  0  0  0
  154.9287  139.3884  160.6376 H   0  0  0  0  0  0  0  0  0  0  0  0
  154.4326  140.1339  162.1380 H   0  0  0  0  0  0  0  0  0  0  0  0
  155.7998  140.7822  161.2303 H   0  0  0  0  0  0  0  0  0  0  0  0
  150.3209  143.2948  156.7112 H   0  0  0  0  0  0  0  0  0  0  0  0
  151.8619  141.0291  155.6611 H   0  0  0  0  0  0  0  0  0  0  0  0
  151.9995  139.8624  156.9352 H   0  0  0  0  0  0  0  0  0  0  0  0
  149.7127  138.4228  156.0440 H   0  0  0  0  0  0  0  0  0  0  0  0
  149.6522  139.0586  158.1326 H   0  0  0  0  0  0  0  0  0  0  0  0
  149.3303  140.7508  158.4030 H   0  0  0  0  0  0  0  0  0  0  0  0
  147.5479  138.7885  156.8903 H   0  0  0  0  0  0  0  0  0  0  0  0
  147.2256  139.5031  158.4484 H   0  0  0  0  0  0  0  0  0  0  0  0
  145.9572  140.6574  156.6313 H   0  0  0  0  0  0  0  0  0  0  0  0
  147.0497  141.7534  157.4439 H   0  0  0  0  0  0  0  0  0  0  0  0
  147.5448  140.3717  154.7612 H   0  0  0  0  0  0  0  0  0  0  0  0
  147.2165  142.0687  154.9990 H   0  0  0  0  0  0  0  0  0  0  0  0
  149.3142  142.3881  156.2146 H   0  0  0  0  0  0  0  0  0  0  0  0
  149.6563  141.6571  154.6707 H   0  0  0  0  0  0  0  0  0  0  0  0
  153.2780  145.0146  161.8605 H   0  0  0  0  0  0  0  0  0  0  0  0
  151.6287  144.9001  161.2611 H   0  0  0  0  0  0  0  0  0  0  0  0
  152.9069  145.5365  160.2278 H   0  0  0  0  0  0  0  0  0  0  0  0
  1  2  1  0  0  0  0
  1 22  1  0  0  0  0
  1 23  1  0  0  0  0
  1 24  1  0  0  0  0
  2 20  1  0  0  0  0
  2  3  1  0  0  0  0
  3  4  2  0  0  0  0
  3  5  1  0  0  0  0
  5  9  1  0  0  0  0
  5  6  2  0  0  0  0
  6  7  1  0  0  0  0
  6 18  1  0  0  0  0
  7  8  2  0  0  0  0
  8  9  1  0  0  0  0
  8 25  1  0  0  0  0
  9 10  1  0  0  0  0
 10 11  1  0  0  0  0
 10 26  1  0  0  0  0
 10 27  1  0  0  0  0
 11 17  1  0  0  0  0
 11 12  1  0  0  0  0
 11 13  1  0  0  0  0
 12 28  1  0  0  0  0
 13 14  1  0  0  0  0
 13 29  1  0  0  0  0
 13 30  1  0  0  0  0
 14 15  1  0  0  0  0
 14 31  1  0  0  0  0
 14 32  1  0  0  0  0
 15 16  1  0  0  0  0
 15 33  1  0  0  0  0
 15 34  1  0  0  0  0
 16 17  1  0  0  0  0
 16 35  1  0  0  0  0
 16 36  1  0  0  0  0
 17 37  1  0  0  0  0
 17 38  1  0  0  0  0
 18 19  1  0  0  0  0
 18 20  1  0  0  0  0
 19 39  1  0  0  0  0
 19 40  1  0  0  0  0
 19 41  1  0  0  0  0
 20 21  2  0  0  0  0
M  END
> <s_m_source_file>
AV-unprocessed.smi

> <i_m_source_file_index>
1704

> <i_lp_mmshare_version>
43012

> <i_f3d_flags>
0

> <s_epik_input>
Tz1jMW4oW0NIM10pYyg9TyluKFtDSDNdKWMoYzEyKW5bY0hdbjJbQ0gyXUMzKFtPSF0pW0NIMl1bQ0gyXVtDSDJdW0NIMl1bQ0gyXTM=

> <s_epik_cmdline>
J2VwaWtfcHl0aG9uJywgJy1waCcsICc3LjAnLCAnLXRuJywgJzgnLCAnLW1hJywgJzIwMCcsICctbWV0YWxfYmluZGluZycsICctaW1hZScsICc8aW5maWxlLm1hZT4nLCAnLW9tYWUnLCAnPG91dGZpbGUubWFlPic=

> <r_lp_tautomer_probability>
1

> <r_epik_Ionization_Penalty>
6.70257e-06

> <r_epik_Ionization_Penalty_Charging>
6.65152e-09

> <r_epik_Ionization_Penalty_Neutral>
6.69592e-06

> <r_epik_State_Penalty>
-0

> <r_epik_Charging_Adjusted_Penalty>
6.65152e-09

> <i_epik_Tot_Q>
0

> <i_epik_Tot_abs_Q>
0

> <r_epik_Metal_State_Penalty>
-0

> <b_epik_Metal_Only>
0

> <s_lp_Force_Field>
OPLS_2005

> <r_lp_Energy>
39.0788

> <b_lp_Chiralities_Consistent>
1

> <s_lp_Variant>
AV-unprocessed.smi:1704-1

> <Gold.Version>
5.8.1

> <Gold.Id.Protein>
6NUR|6NUR_protein|mol2

> <Gold.PLP.Fitness>
47.5756

> <Gold.PLP.PLP>
-38.7777

> <Gold.PLP.part.hbond>
-2.5260

> <Gold.PLP.part.metal>
0.0000

> <Gold.PLP.part.buried>
-3.2596

> <Gold.PLP.part.nonpolar>
-31.7979

> <Gold.PLP.part.repulsive>
0.1269

> <Gold.PLP.ligand.clash>
0.0000

> <Gold.PLP.ligand.torsion>
0.0671

> <Gold.PLP.Chemscore.Hbond>
1.9760

> <Gold.PLP.Chemscore.CHOScore>
1.0000

> <Gold.PLP.Chemscore.Metal>
0.0000

> <Gold.Chemscore.Hbonds>
donor molecule, donor type, donor heavy atom, donor atom, acceptor molecule, acceptor atom, score
      P1  H  7997  8008       L1     4  0.82
      L1  C     8    25       P1  8028  1.00

> <Gold.PLP.Chemscore.Internal.Correction>
0.0041

> <Gold.Rescore>
     Score         DG    S(hbond)    S(metal)    S(lipo)     H(rot)  DE(clash)    DE(int)     intcor
     10.52     -12.29       1.44        0.00      57.25       1.84       1.67       0.10       ----

> <Gold.Chemscore.Fitness>
10.5235

> <Gold.Chemscore.DG>
-12.2943

> <Gold.Chemscore.ZeroCoef>
-5.4800

> <Gold.Chemscore.Hbond>
1.4443

> <Gold.Chemscore.Metal>
0.0000

> <Gold.Chemscore.Lipo>
57.2467

> <Gold.Chemscore.Internal_Hbond>
0.0000

> <Gold.Chemscore.DEClash>
1.6694

> <Gold.Chemscore.DEInternal>
0.1015

> <Gold.Chemscore.Rot>
1.8389

> <Gold.Chemscore.Internal.Correction>
   9.000000E+99

> <Gold.Chemscore.Hbonds>
donor molecule, donor type, donor heavy atom, donor atom, acceptor molecule, acceptor atom, score
      P1  H  7997  8008       L1     4  0.50

> <Gold.Chemscore.Hbond.Weighted>
-4.8240

> <Gold.Chemscore.Metal.Weighted>
-0.0000

> <Gold.Chemscore.Lipo.Weighted>
-6.6979

> <Gold.Chemscore.Internal_Hbond.Weighted>
0.0000

> <Gold.Chemscore.DEClash.Weighted>
1.6694

> <Gold.Chemscore.DEInternal.Weighted>
0.1015

> <Gold.Chemscore.Rot.Weighted>
4.7076

> <Gold.Chemscore.Internal.Correction.Weighted>
   9.000000E+99

> <Gold.Protein.RotatedTorsions>
[ 6907 6896 6895 6894 ] final   68.21 input  -60.11 | X-H torsion
[ 7974 7965 7964 7962 ] final  -70.79 input  175.53 | X-H torsion
[ 8008 7997 7996 7995 ] final -112.37 input   59.86 | X-H torsion
[ 10167 10162 10161 10158 ] final -134.12 input  -65.29 | X-H torsion
[ 10718 10713 10712 10709 ] final   16.22 input   66.30 | X-H torsion
[ 10763 10752 10751 10750 ] final -141.26 input  -60.55 | X-H torsion
[ 11005 11000 10999 10996 ] final   15.86 input  -57.11 | X-H torsion

> <Gold.Protein.ActiveResidues>
 VAL166  LYS551  ARG553  GLY616  TRP617  ASP618  TYR619  PRO620  LYS621  CYS622 
 ASP623  PHE694  ASN695  SER759  ASP760  ASP761  ALA762  ILE779  LEU786  VAL792 
 PHE793  MET794  SER795  GLU796  ALA797  LYS798  CYS799  TRP800  GLU811  SER814 

> <Gold.Protein.RotatedAtoms>
  152.4605  134.5196  159.9778 H   0  0  0  0  0  0  0  0  0  0  0  0  # atno 6907 bound_to 6896
  151.5246  133.3454  159.2915 H   0  0  0  0  0  0  0  0  0  0  0  0  # atno 6908 bound_to 6896
  150.8565  134.7935  159.7112 H   0  0  0  0  0  0  0  0  0  0  0  0  # atno 6909 bound_to 6896
  145.6865  140.9169  143.0804 H   0  0  0  0  0  0  0  0  0  0  0  0  # atno 7974 bound_to 7965
  155.0042  140.0394  157.2372 H   0  0  0  0  0  0  0  0  0  0  0  0  # atno 8008 bound_to 7997
  154.7517  140.2768  155.6264 H   0  0  0  0  0  0  0  0  0  0  0  0  # atno 8009 bound_to 7997
  156.2886  140.2645  156.2272 H   0  0  0  0  0  0  0  0  0  0  0  0  # atno 8010 bound_to 7997
  139.8913  143.6719  152.2611 H   0  0  0  0  0  0  0  0  0  0  0  0  # atno 10167 bound_to 10162
  157.0648  130.6324  149.5793 H   0  0  0  0  0  0  0  0  0  0  0  0  # atno 10718 bound_to 10713
  154.8551  135.3529  154.5839 H   0  0  0  0  0  0  0  0  0  0  0  0  # atno 10763 bound_to 10752
  153.6449  135.6996  153.5233 H   0  0  0  0  0  0  0  0  0  0  0  0  # atno 10764 bound_to 10752
  153.2941  135.4226  155.1152 H   0  0  0  0  0  0  0  0  0  0  0  0  # atno 10765 bound_to 10752
  140.4536  134.1199  155.7706 H   0  0  0  0  0  0  0  0  0  0  0  0  # atno 11005 bound_to 11000
  144.7010  139.8765  143.7444 LP  0  0  0  0  0  0  0  0  0  0  0  0  # atno 17320 bound_to 7965
  146.0919  139.3909  143.0400 LP  0  0  0  0  0  0  0  0  0  0  0  0  # atno 17321 bound_to 7965
  139.7107  144.7620  151.1116 LP  0  0  0  0  0  0  0  0  0  0  0  0  # atno 17342 bound_to 10162
  140.7726  143.5334  150.9396 LP  0  0  0  0  0  0  0  0  0  0  0  0  # atno 17343 bound_to 10162
  155.9968  130.5038  150.7509 LP  0  0  0  0  0  0  0  0  0  0  0  0  # atno 17370 bound_to 10713
  157.4926  131.0912  151.0409 LP  0  0  0  0  0  0  0  0  0  0  0  0  # atno 17371 bound_to 10713
  141.1653  133.8714  157.1732 LP  0  0  0  0  0  0  0  0  0  0  0  0  # atno 17394 bound_to 11000
  139.9991  135.0035  157.0149 LP  0  0  0  0  0  0  0  0  0  0  0  0  # atno 17395 bound_to 11000

$$$$
