AV-unprocessed.smi:285|AV-procd|sdf|2166|dock3
  -GOLD-   2262021523D 1   1.00000     0.00000
 Structure written by MMmdl.
 31 33  0  0  0  0  0  0  0  0  1 V2000
  152.0765  143.2242  160.9156 N   0  0  0  0  0  0  0  0  0  0  0  0
  152.4716  142.2059  160.1389 C   0  0  0  0  0  0  0  0  0  0  0  0
  153.4452  141.3863  160.5996 N   0  0  0  0  0  0  0  0  0  0  0  0
  153.8578  140.3633  159.8439 C   0  0  0  0  0  0  0  0  0  0  0  0
  153.4362  139.9973  158.6306 N   0  0  0  0  0  0  0  0  0  0  0  0
  152.4525  140.8227  158.1665 C   0  0  0  0  0  0  0  0  0  0  0  0
  151.9175  141.9482  158.8596 C   0  0  0  0  0  0  0  0  0  0  0  0
  150.9356  142.5625  158.0926 N   0  0  0  0  0  0  0  0  0  0  0  0
  150.9089  141.8255  157.0175 C   0  0  0  0  0  0  0  0  0  0  0  0
  149.7154  142.2441  155.5933 Br  0  0  0  0  0  0  0  0  0  0  0  0
  151.7770  140.7580  156.9636 N   0  0  0  0  0  0  0  0  0  0  0  0
  151.9614  139.7506  155.8747 C   0  0  1  0  0  0  0  0  0  0  0  0
  151.6067  138.3500  156.3418 C   0  0  0  0  0  0  0  0  0  0  0  0
  151.3639  137.6986  154.9979 C   0  0  1  0  0  0  0  0  0  0  0  0
  150.6115  136.5083  155.1268 O   0  0  0  0  0  0  0  0  0  0  0  0
  150.6933  138.8253  154.1767 C   0  0  1  0  0  0  0  0  0  0  0  0
  149.1513  138.7988  154.1576 C   0  0  0  0  0  0  0  0  0  0  0  0
  148.6581  139.9747  153.5523 O   0  0  0  0  0  0  0  0  0  0  0  0
  151.0876  140.0376  154.8311 O   0  0  0  0  0  0  0  0  0  0  0  0
  151.3515  143.8498  160.5945 H   0  0  0  0  0  0  0  0  0  0  0  0
  152.5014  143.3617  161.8212 H   0  0  0  0  0  0  0  0  0  0  0  0
  154.6367  139.7498  160.2721 H   0  0  0  0  0  0  0  0  0  0  0  0
  152.9930  139.8466  155.5360 H   0  0  0  0  0  0  0  0  0  0  0  0
  152.4171  137.9022  156.9176 H   0  0  0  0  0  0  0  0  0  0  0  0
  150.6964  138.3748  156.9428 H   0  0  0  0  0  0  0  0  0  0  0  0
  152.3262  137.4518  154.5466 H   0  0  0  0  0  0  0  0  0  0  0  0
  149.7948  136.7132  155.5563 H   0  0  0  0  0  0  0  0  0  0  0  0
  151.0796  138.8043  153.1567 H   0  0  0  0  0  0  0  0  0  0  0  0
  148.7816  137.9669  153.5587 H   0  0  0  0  0  0  0  0  0  0  0  0
  148.7377  138.6831  155.1589 H   0  0  0  0  0  0  0  0  0  0  0  0
  149.1447  140.1295  152.7575 H   0  0  0  0  0  0  0  0  0  0  0  0
  1  2  1  0  0  0  0
  1 20  1  0  0  0  0
  1 21  1  0  0  0  0
  2  7  1  0  0  0  0
  2  3  2  0  0  0  0
  3  4  1  0  0  0  0
  4  5  2  0  0  0  0
  4 22  1  0  0  0  0
  5  6  1  0  0  0  0
  6 11  1  0  0  0  0
  6  7  2  0  0  0  0
  7  8  1  0  0  0  0
  8  9  2  0  0  0  0
  9 10  1  0  0  0  0
  9 11  1  0  0  0  0
 11 12  1  0  0  0  0
 12 19  1  0  0  0  0
 12 13  1  0  0  0  0
 12 23  1  0  0  0  0
 13 14  1  0  0  0  0
 13 24  1  0  0  0  0
 13 25  1  0  0  0  0
 14 15  1  0  0  0  0
 14 16  1  0  0  0  0
 14 26  1  0  0  0  0
 15 27  1  0  0  0  0
 16 17  1  0  0  0  0
 16 19  1  0  0  0  0
 16 28  1  0  0  0  0
 17 18  1  0  0  0  0
 17 29  1  0  0  0  0
 17 30  1  0  0  0  0
 18 31  1  0  0  0  0
M  END
> <s_m_source_file>
AV-unprocessed.smi

> <i_m_source_file_index>
285

> <i_lp_mmshare_version>
43012

> <i_f3d_flags>
0

> <s_epik_input>
bjFbY0hdbmMoW05IMl0pYyhjMTIpbmMoQnIpbjJbQ0BASF0zW0NIMl1bQ0BASF0oW09IXSlbQ0BIXShPMylbQ0gyXVtPSF0=

> <s_epik_cmdline>
J2VwaWtfcHl0aG9uJywgJy1waCcsICc3LjAnLCAnLXRuJywgJzgnLCAnLW1hJywgJzIwMCcsICctbWV0YWxfYmluZGluZycsICctaW1hZScsICc8aW5maWxlLm1hZT4nLCAnLW9tYWUnLCAnPG91dGZpbGUubWFlPic=

> <r_lp_tautomer_probability>
1

> <r_epik_Ionization_Penalty>
0.000103242

> <r_epik_Ionization_Penalty_Charging>
0

> <r_epik_Ionization_Penalty_Neutral>
0.000103242

> <r_epik_State_Penalty>
-0

> <r_epik_Charging_Adjusted_Penalty>
0

> <i_epik_Tot_Q>
0

> <i_epik_Tot_abs_Q>
0

> <r_epik_Metal_State_Penalty>
-0

> <b_epik_Metal_Only>
0

> <s_epik_Chemistry_Notes>
This compound contains an acetal/aminal-like group ( X-CH(R)-Y where X, Y are N, S, or O) that may be acid/base labile, releasing an aldehyde.

> <s_lp_Force_Field>
OPLS_2005

> <r_lp_Energy>
35.0354

> <b_lp_Chiralities_Consistent>
1

> <s_lp_Variant>
AV-unprocessed.smi:285-2

> <Gold.Version>
5.8.1

> <Gold.Id.Protein>
6NUR|6NUR_protein|mol2

> <Gold.PLP.Fitness>
39.5868

> <Gold.PLP.PLP>
-30.6457

> <Gold.PLP.part.hbond>
-2.8324

> <Gold.PLP.part.metal>
0.0000

> <Gold.PLP.part.buried>
-3.5098

> <Gold.PLP.part.nonpolar>
-23.1348

> <Gold.PLP.part.repulsive>
0.2347

> <Gold.PLP.ligand.clash>
0.0000

> <Gold.PLP.ligand.torsion>
0.0368

> <Gold.PLP.Chemscore.Hbond>
3.0000

> <Gold.PLP.Chemscore.CHOScore>
0.0000

> <Gold.PLP.Chemscore.Metal>
0.0000

> <Gold.Chemscore.Hbonds>
donor molecule, donor type, donor heavy atom, donor atom, acceptor molecule, acceptor atom, score
      L1  H    18    31       P1  7957  1.00
      P1  H  7989  7998       L1    19  0.95
      P1  H  7997  8008       L1     5  1.00

> <Gold.PLP.Chemscore.Internal.Correction>
0.0147

> <Gold.Rescore>
     Score         DG    S(hbond)    S(metal)    S(lipo)     H(rot)  DE(clash)    DE(int)     intcor
      7.82     -10.46       2.35        0.00      42.41       3.06       1.06       1.58       ----

> <Gold.Chemscore.Fitness>
7.8229

> <Gold.Chemscore.DG>
-10.4627

> <Gold.Chemscore.ZeroCoef>
-5.4800

> <Gold.Chemscore.Hbond>
2.3520

> <Gold.Chemscore.Metal>
0.0000

> <Gold.Chemscore.Lipo>
42.4128

> <Gold.Chemscore.Internal_Hbond>
0.0000

> <Gold.Chemscore.DEClash>
1.0611

> <Gold.Chemscore.DEInternal>
1.5787

> <Gold.Chemscore.Rot>
3.0607

> <Gold.Chemscore.Internal.Correction>
   9.000000E+99

> <Gold.Chemscore.Hbonds>
donor molecule, donor type, donor heavy atom, donor atom, acceptor molecule, acceptor atom, score
      L1  H    18    31       P1  7957  0.99
      P1  H  7989  7998       L1    19  0.21
      P1  H  7997  8008       L1     5  0.24

> <Gold.Chemscore.Hbond.Weighted>
-7.8558

> <Gold.Chemscore.Metal.Weighted>
-0.0000

> <Gold.Chemscore.Lipo.Weighted>
-4.9623

> <Gold.Chemscore.Internal_Hbond.Weighted>
0.0000

> <Gold.Chemscore.DEClash.Weighted>
1.0611

> <Gold.Chemscore.DEInternal.Weighted>
1.5787

> <Gold.Chemscore.Rot.Weighted>
7.8354

> <Gold.Chemscore.Internal.Correction.Weighted>
   9.000000E+99

> <Gold.Protein.RotatedTorsions>
[ 6907 6896 6895 6894 ] final -150.97 input  -60.11 | X-H torsion
[ 7974 7965 7964 7962 ] final  -52.20 input  175.53 | X-H torsion
[ 8008 7997 7996 7995 ] final  -92.01 input   59.86 | X-H torsion
[ 10167 10162 10161 10158 ] final -115.28 input  -65.29 | X-H torsion
[ 10718 10713 10712 10709 ] final   46.83 input   66.30 | X-H torsion
[ 10763 10752 10751 10750 ] final  154.76 input  -60.55 | X-H torsion
[ 11005 11000 10999 10996 ] final  -60.37 input  -57.11 | X-H torsion

> <Gold.Protein.ActiveResidues>
 VAL166  LYS551  ARG553  GLY616  TRP617  ASP618  TYR619  PRO620  LYS621  CYS622 
 ASP623  PHE694  ASN695  SER759  ASP760  ASP761  ALA762  ILE779  LEU786  VAL792 
 PHE793  MET794  SER795  GLU796  ALA797  LYS798  CYS799  TRP800  GLU811  SER814 

> <Gold.Protein.RotatedAtoms>
  151.2062  133.4582  159.2597 H   0  0  0  0  0  0  0  0  0  0  0  0  # atno 6907 bound_to 6896
  151.1021  134.9978  159.8463 H   0  0  0  0  0  0  0  0  0  0  0  0  # atno 6908 bound_to 6896
  152.5444  134.1988  159.8757 H   0  0  0  0  0  0  0  0  0  0  0  0  # atno 6909 bound_to 6896
  145.9105  140.7919  142.9697 H   0  0  0  0  0  0  0  0  0  0  0  0  # atno 7974 bound_to 7965
  154.7178  140.0513  157.0611 H   0  0  0  0  0  0  0  0  0  0  0  0  # atno 8008 bound_to 7997
  155.0467  140.3174  155.4687 H   0  0  0  0  0  0  0  0  0  0  0  0  # atno 8009 bound_to 7997
  156.2808  140.2123  156.5592 H   0  0  0  0  0  0  0  0  0  0  0  0  # atno 8010 bound_to 7997
  140.0918  143.4693  152.1865 H   0  0  0  0  0  0  0  0  0  0  0  0  # atno 10167 bound_to 10162
  157.4522  130.8145  149.7800 H   0  0  0  0  0  0  0  0  0  0  0  0  # atno 10718 bound_to 10713
  154.1576  135.2811  155.3118 H   0  0  0  0  0  0  0  0  0  0  0  0  # atno 10763 bound_to 10752
  154.6171  135.5479  153.7538 H   0  0  0  0  0  0  0  0  0  0  0  0  # atno 10764 bound_to 10752
  153.0202  135.6430  154.1718 H   0  0  0  0  0  0  0  0  0  0  0  0  # atno 10765 bound_to 10752
  141.1284  133.6622  156.5213 H   0  0  0  0  0  0  0  0  0  0  0  0  # atno 11005 bound_to 11000
  144.6743  140.1819  143.7405 LP  0  0  0  0  0  0  0  0  0  0  0  0  # atno 17320 bound_to 7965
  145.8677  139.2255  143.1679 LP  0  0  0  0  0  0  0  0  0  0  0  0  # atno 17321 bound_to 7965
  139.5720  144.7468  151.3864 LP  0  0  0  0  0  0  0  0  0  0  0  0  # atno 17342 bound_to 10162
  140.7024  143.7597  150.7426 LP  0  0  0  0  0  0  0  0  0  0  0  0  # atno 17343 bound_to 10162
  155.9992  130.3890  150.2674 LP  0  0  0  0  0  0  0  0  0  0  0  0  # atno 17370 bound_to 10713
  157.0846  131.0153  151.3144 LP  0  0  0  0  0  0  0  0  0  0  0  0  # atno 17371 bound_to 10713
  140.4290  134.7119  157.4931 LP  0  0  0  0  0  0  0  0  0  0  0  0  # atno 17394 bound_to 11000
  140.0307  134.6411  155.9111 LP  0  0  0  0  0  0  0  0  0  0  0  0  # atno 17395 bound_to 11000

$$$$
