#       Name:                AV-unprocessed.smi:3345
#       Creating user name   scv26
#       Creation time:       Fri Mar 27 19:31:17 2020


#       File generated by GOLD software.
#

@<TRIPOS>MOLECULE
AV-unprocessed.smi:3345
    47    48     1
SMALL
NO_CHARGES


@<TRIPOS>ATOM
      1 ****        -2.0014  -0.3283   2.0831 C.3            1 S1                 0.0000
      2 ****        -1.3372   0.0156   0.7408 C.3            1 S1                 0.0000
      3 ****        -1.9268  -0.8223  -0.4149 C.3            1 S1                 0.0000
      4 ****        -2.0484  -0.1213  -1.6935 N.3            1 S1                 0.0000
      5 ****        -0.7526   0.2119  -2.2812 C.3            1 S1                 0.0000
      6 ****        -0.9023   0.9245  -3.6367 C.3            1 S1                 0.0000
      7 ****        -1.6695   0.1149  -4.5216 O.3            1 S1                 0.0000
      8 ****        -2.9606  -0.1903  -4.0050 C.3            1 S1                 0.0000
      9 ****        -2.8162  -0.9090  -2.6524 C.3            1 S1                 0.0000
     10 ****         0.0981  -0.2339   0.8535 N.am           1 S1                 0.0000
     11 ****         1.0317   0.6886   1.1360 C.2            1 S1                 0.0000
     12 ****         0.7724   1.8777   1.3234 O.2            1 S1                 0.0000
     13 ****         2.4786   0.1847   1.2318 C.3            1 S1                 0.0000
     14 ****         3.4587   1.1029   0.4736 C.3            1 S1                 0.0000
     15 ****         2.8479  -0.0022   2.6305 N.pl3          1 S1                 0.0000
     16 ****         2.6939  -1.0677   3.4199 C.2            1 S1                 0.0000
     17 ****         3.0956  -0.8771   4.6689 N.2            1 S1                 0.0000
     18 ****         3.5015   0.4242   4.5811 C.2            1 S1                 0.0000
     19 ****         3.3633   0.9994   3.3869 N.2            1 S1                 0.0000
     20 ****        -3.0733  -0.1311   2.0524 H              1 S1                 0.0000
     21 ****        -1.5833   0.2692   2.8939 H              1 S1                 0.0000
     22 ****        -1.8631  -1.3796   2.3381 H              1 S1                 0.0000
     23 ****        -1.5297   1.0717   0.5412 H              1 S1                 0.0000
     24 ****        -1.3655  -1.7499  -0.5414 H              1 S1                 0.0000
     25 ****        -2.9285  -1.1338  -0.1158 H              1 S1                 0.0000
     26 ****        -0.1896   0.8598  -1.6103 H              1 S1                 0.0000
     27 ****        -0.1613  -0.6956  -2.4127 H              1 S1                 0.0000
     28 ****        -1.3848   1.8951  -3.5109 H              1 S1                 0.0000
     29 ****         0.0768   1.1087  -4.0790 H              1 S1                 0.0000
     30 ****        -3.5438   0.7255  -3.8966 H              1 S1                 0.0000
     31 ****        -3.4886  -0.8248  -4.7168 H              1 S1                 0.0000
     32 ****        -2.3334  -1.8749  -2.8087 H              1 S1                 0.0000
     33 ****        -3.8082  -1.1176  -2.2505 H              1 S1                 0.0000
     34 ****         0.4036  -1.1857   0.7118 H              1 S1                 0.0000
     35 ****         2.5280  -0.7979   0.7590 H              1 S1                 0.0000
     36 ****         3.1914   1.1726  -0.5815 H              1 S1                 0.0000
     37 ****         4.4759   0.7141   0.5273 H              1 S1                 0.0000
     38 ****         3.4706   2.1165   0.8765 H              1 S1                 0.0000
     39 ****         2.2745  -2.0011   3.0745 H              1 S1                 0.0000
     40 ****         3.9048   0.9659   5.4240 H              1 S1                 0.0000
     41 ****        -2.5277   0.7332  -1.4931 LP             1 S1                 0.0000
     42 ****        -1.1775  -0.7411  -4.6800 LP             1 S1                 0.0000
     43 ****        -1.7783   0.6021  -5.3881 LP             1 S1                 0.0000
     44 ****        -0.1733   2.1980   1.2681 LP             1 S1                 0.0000
     45 ****         1.5075   2.5231   1.5310 LP             1 S1                 0.0000
     46 ****         3.1001  -1.5036   5.4484 LP             1 S1                 0.0000
     47 ****         3.5845   1.9362   3.1158 LP             1 S1                 0.0000
@<TRIPOS>BOND
    1    1    2 1     
    2    1   20 1     
    3    1   21 1     
    4    1   22 1     
    5    2    3 1     
    6    2   10 1     
    7    2   23 1     
    8    3    4 1     
    9    3   24 1     
   10    3   25 1     
   11    4    9 1     
   12    4    5 1     
   13    5    6 1     
   14    5   26 1     
   15    5   27 1     
   16    6    7 1     
   17    6   28 1     
   18    6   29 1     
   19    7    8 1     
   20    8    9 1     
   21    8   30 1     
   22    8   31 1     
   23    9   32 1     
   24    9   33 1     
   25   10   11 am    
   26   10   34 1     
   27   11   12 2     
   28   11   13 1     
   29   13   14 1     
   30   13   15 1     
   31   13   35 1     
   32   14   36 1     
   33   14   37 1     
   34   14   38 1     
   35   15   19 1     
   36   15   16 1     
   37   16   17 2     
   38   16   39 1     
   39   17   18 1     
   40   18   19 2     
   41   18   40 1     
   42    4   41 1     
   43    7   42 1     
   44    7   43 1     
   45   12   44 1     
   46   12   45 1     
   47   17   46 1     
   48   19   47 1     
@<TRIPOS>SUBSTRUCTURE
      1 S1             1
@<TRIPOS>SET
LONE_PAIRS      STATIC     ATOMS    <user>   **** ""
7 41 42 43 44 45 46 47
DONOR_HYDROGENS      STATIC     ATOMS    <user>   **** ""
1 34
ATOM$BLUE        STATIC     ATOMS    COLORGROUP SYSTEM
7 41 42 43 44 45 46 47
ATOM$RED        STATIC     ATOMS    COLORGROUP SYSTEM
1 34
