#       Name:                AV-unprocessed.smi:2298
#       Creating user name   scv26
#       Creation time:       Fri Mar 27 12:44:42 2020


#       File generated by GOLD software.
#

@<TRIPOS>MOLECULE
AV-unprocessed.smi:2298
    42    43     1
SMALL
NO_CHARGES


@<TRIPOS>ATOM
      1 ****        -5.8213   2.8089   1.2786 C.3            1 S1                 0.0000
      2 ****        -4.9820   1.5667   1.0451 C.ar           1 S1                 0.0000
      3 ****        -5.6507   0.3938   1.0854 N.ar           1 S1                 0.0000
      4 ****        -4.9504  -0.7422   0.8916 C.ar           1 S1                 0.0000
      5 ****        -3.5644  -0.7661   0.6454 C.ar           1 S1                 0.0000
      6 ****        -2.8615   0.4619   0.5877 C.ar           1 S1                 0.0000
      7 ****        -1.4593   0.5610   0.3602 N.am           1 S1                 0.0000
      8 ****        -0.6171  -0.3406  -0.1735 C.2            1 S1                 0.0000
      9 ****        -0.9261  -1.4652  -0.5662 O.2            1 S1                 0.0000
     10 ****         0.6296   0.1484  -0.2415 N.am           1 S1                 0.0000
     11 ****         1.7882  -0.5612  -0.7759 C.3            1 S1                 0.0000
     12 ****         2.8016   0.4541  -1.3344 C.3            1 S1                 0.0000
     13 ****         4.0679  -0.2427  -1.8625 C.3            1 S1                 0.0000
     14 ****         4.7193  -1.1510  -0.8028 C.3            1 S1                 0.0000
     15 ****         5.2946  -0.3641   0.2217 O.3            1 S1                 0.0000
     16 ****         3.7024  -2.1408  -0.2033 C.3            1 S1                 0.0000
     17 ****         2.4366  -1.4361   0.3154 C.3            1 S1                 0.0000
     18 ****        -3.5906   1.6554   0.8049 C.ar           1 S1                 0.0000
     19 ****        -2.7984   3.1958   0.7734 Cl             1 S1                 0.0000
     20 ****         1.4671  -1.2036  -1.5984 H              1 S1                 0.0000
     21 ****         5.5321  -1.7116  -1.2658 H              1 S1                 0.0000
     22 ****        -5.7389   3.4877   0.4292 H              1 S1                 0.0000
     23 ****        -5.4824   3.3323   2.1731 H              1 S1                 0.0000
     24 ****        -6.8759   2.5622   1.4104 H              1 S1                 0.0000
     25 ****        -5.5114  -1.6636   0.9402 H              1 S1                 0.0000
     26 ****        -3.0764  -1.7195   0.5195 H              1 S1                 0.0000
     27 ****        -1.0575   1.4621   0.5740 H              1 S1                 0.0000
     28 ****         0.7918   1.0839   0.1012 H              1 S1                 0.0000
     29 ****         2.3443   1.0349  -2.1363 H              1 S1                 0.0000
     30 ****         3.0773   1.1685  -0.5572 H              1 S1                 0.0000
     31 ****         3.8014  -0.8460  -2.7313 H              1 S1                 0.0000
     32 ****         4.7842   0.4994  -2.2172 H              1 S1                 0.0000
     33 ****         5.7306  -0.9381   0.8329 H              1 S1                 0.0000
     34 ****         3.4141  -2.8604  -0.9706 H              1 S1                 0.0000
     35 ****         4.1638  -2.7206   0.5970 H              1 S1                 0.0000
     36 ****         2.6909  -0.8212   1.1799 H              1 S1                 0.0000
     37 ****         1.7254  -2.1831   0.6697 H              1 S1                 0.0000
     38 ****        -6.6360   0.3686   1.2540 LP             1 S1                 0.0000
     39 ****        -1.8748  -1.7745  -0.5008 LP             1 S1                 0.0000
     40 ****        -0.2285  -2.0697  -0.9507 LP             1 S1                 0.0000
     41 ****         4.5787   0.1501   0.6941 LP             1 S1                 0.0000
     42 ****         5.9566   0.2726  -0.1738 LP             1 S1                 0.0000
@<TRIPOS>BOND
    1    1    2 1     
    2    1   22 1     
    3    1   23 1     
    4    1   24 1     
    5    2   18 ar    
    6    2    3 ar    
    7    3    4 ar    
    8    4    5 ar    
    9    4   25 1     
   10    5    6 ar    
   11    5   26 1     
   12    6    7 1     
   13    6   18 ar    
   14    7    8 am    
   15    7   27 1     
   16    8    9 2     
   17    8   10 am    
   18   10   11 1     
   19   10   28 1     
   20   11   20 1     
   21   11   17 1     
   22   11   12 1     
   23   12   13 1     
   24   12   29 1     
   25   12   30 1     
   26   13   14 1     
   27   13   31 1     
   28   13   32 1     
   29   14   21 1     
   30   14   15 1     
   31   14   16 1     
   32   15   33 1     
   33   16   17 1     
   34   16   34 1     
   35   16   35 1     
   36   17   36 1     
   37   17   37 1     
   38   18   19 1     
   39    3   38 1     
   40    9   39 1     
   41    9   40 1     
   42   15   41 1     
   43   15   42 1     
@<TRIPOS>SUBSTRUCTURE
      1 S1             1
@<TRIPOS>SET
LONE_PAIRS      STATIC     ATOMS    <user>   **** ""
5 38 39 40 41 42
DONOR_HYDROGENS      STATIC     ATOMS    <user>   **** ""
3 27 28 33
ATOM$BLUE        STATIC     ATOMS    COLORGROUP SYSTEM
5 38 39 40 41 42
ATOM$RED        STATIC     ATOMS    COLORGROUP SYSTEM
3 27 28 33
