AV-unprocessed.smi:2528|AV-procd|sdf|9959|dock2
  -GOLD-   2272013593D 1   1.00000     0.00000
 Structure written by MMmdl.
 43 45  0  0  0  0  0  0  0  0  1 V2000
  144.6131  136.9134  151.8163 O   0  0  0  0  0  0  0  0  0  0  0  0
  145.8120  136.6455  151.7292 C   0  0  0  0  0  0  0  0  0  0  0  0
  146.7845  137.5562  151.8777 N   0  0  0  0  0  0  0  0  0  0  0  0
  146.5699  138.9736  152.1485 C   0  0  0  0  0  0  0  0  0  0  0  0
  147.2386  139.4075  153.4635 C   0  0  1  0  0  0  0  0  0  0  0  0
  148.7418  139.0730  153.4828 C   0  0  0  0  0  0  0  0  0  0  0  0
  149.3898  139.5527  154.6971 N   0  0  0  0  0  0  0  0  0  0  0  0
  150.8176  139.2384  154.6978 C   0  0  0  0  0  0  0  0  0  0  0  0
  151.5179  139.7010  155.9852 C   0  0  0  0  0  0  0  0  0  0  0  0
  151.3064  141.2073  156.1946 C   0  0  0  0  0  0  0  0  0  0  0  0
  149.8080  141.5421  156.1380 C   0  0  0  0  0  0  0  0  0  0  0  0
  149.1671  140.9941  154.8460 C   0  0  2  0  0  0  0  0  0  0  0  0
  147.6614  141.3252  154.8030 C   0  0  0  0  0  0  0  0  0  0  0  0
  147.0878  140.8182  153.6028 O   0  0  0  0  0  0  0  0  0  0  0  0
  146.3212  135.4278  151.4726 N   0  0  0  0  0  0  0  0  0  0  0  0
  145.6241  134.2027  151.2963 C   0  0  0  0  0  0  0  0  0  0  0  0
  146.4094  133.0388  151.4593 C   0  0  0  0  0  0  0  0  0  0  0  0
  145.8102  131.7724  151.3159 C   0  0  0  0  0  0  0  0  0  0  0  0
  144.4390  131.7017  151.0118 C   0  0  0  0  0  0  0  0  0  0  0  0
  143.7301  132.9081  150.8637 C   0  0  0  0  0  0  0  0  0  0  0  0
  144.3023  134.1231  151.0013 N   0  0  0  0  0  0  0  0  0  0  0  0
  147.7426  137.2528  151.7838 H   0  0  0  0  0  0  0  0  0  0  0  0
  146.9467  139.5704  151.3161 H   0  0  0  0  0  0  0  0  0  0  0  0
  145.4959  139.1555  152.1976 H   0  0  0  0  0  0  0  0  0  0  0  0
  146.7500  138.9084  154.3025 H   0  0  0  0  0  0  0  0  0  0  0  0
  148.8745  137.9936  153.3989 H   0  0  0  0  0  0  0  0  0  0  0  0
  149.2229  139.5148  152.6085 H   0  0  0  0  0  0  0  0  0  0  0  0
  150.9559  138.1624  154.5853 H   0  0  0  0  0  0  0  0  0  0  0  0
  151.2994  139.7031  153.8360 H   0  0  0  0  0  0  0  0  0  0  0  0
  151.1182  139.1509  156.8382 H   0  0  0  0  0  0  0  0  0  0  0  0
  152.5829  139.4733  155.9377 H   0  0  0  0  0  0  0  0  0  0  0  0
  151.7296  141.5215  157.1490 H   0  0  0  0  0  0  0  0  0  0  0  0
  151.8355  141.7624  155.4189 H   0  0  0  0  0  0  0  0  0  0  0  0
  149.3075  141.1149  157.0082 H   0  0  0  0  0  0  0  0  0  0  0  0
  149.6694  142.6219  156.1992 H   0  0  0  0  0  0  0  0  0  0  0  0
  149.6360  141.5039  154.0021 H   0  0  0  0  0  0  0  0  0  0  0  0
  147.1425  140.9021  155.6648 H   0  0  0  0  0  0  0  0  0  0  0  0
  147.5068  142.4039  154.8349 H   0  0  0  0  0  0  0  0  0  0  0  0
  147.3266  135.3672  151.4125 H   0  0  0  0  0  0  0  0  0  0  0  0
  147.4615  133.1109  151.6943 H   0  0  0  0  0  0  0  0  0  0  0  0
  146.3929  130.8714  151.4387 H   0  0  0  0  0  0  0  0  0  0  0  0
  143.9438  130.7491  150.8958 H   0  0  0  0  0  0  0  0  0  0  0  0
  142.6758  132.8977  150.6302 H   0  0  0  0  0  0  0  0  0  0  0  0
  1  2  2  0  0  0  0
  2  3  1  0  0  0  0
  2 15  1  0  0  0  0
  3  4  1  0  0  0  0
  3 22  1  0  0  0  0
  4  5  1  0  0  0  0
  4 23  1  0  0  0  0
  4 24  1  0  0  0  0
  5 14  1  0  0  0  0
  5  6  1  0  0  0  0
  5 25  1  0  0  0  0
  6  7  1  0  0  0  0
  6 26  1  0  0  0  0
  6 27  1  0  0  0  0
  7 12  1  0  0  0  0
  7  8  1  0  0  0  0
  8  9  1  0  0  0  0
  8 28  1  0  0  0  0
  8 29  1  0  0  0  0
  9 10  1  0  0  0  0
  9 30  1  0  0  0  0
  9 31  1  0  0  0  0
 10 11  1  0  0  0  0
 10 32  1  0  0  0  0
 10 33  1  0  0  0  0
 11 12  1  0  0  0  0
 11 34  1  0  0  0  0
 11 35  1  0  0  0  0
 12 13  1  0  0  0  0
 12 36  1  0  0  0  0
 13 14  1  0  0  0  0
 13 37  1  0  0  0  0
 13 38  1  0  0  0  0
 15 16  1  0  0  0  0
 15 39  1  0  0  0  0
 16 21  1  0  0  0  0
 16 17  2  0  0  0  0
 17 18  1  0  0  0  0
 17 40  1  0  0  0  0
 18 19  2  0  0  0  0
 18 41  1  0  0  0  0
 19 20  1  0  0  0  0
 19 42  1  0  0  0  0
 20 21  2  0  0  0  0
 20 43  1  0  0  0  0
M  END
> <s_m_source_file>
AV-unprocessed.smi

> <i_m_source_file_index>
2528

> <i_lp_mmshare_version>
43012

> <i_f3d_flags>
0

> <s_epik_input>
bjFbY0hdW2NIXVtjSF1bY0hdYzFbTkhdQyg9TylbTkhdW0NIMl1bQ0BIXShbQ0gyXTIpT1tDSDJdW0NAQEhdKE4yMylbQ0gyXVtDSDJdW0NIMl1bQ0gyXTM=

> <s_epik_cmdline>
J2VwaWtfcHl0aG9uJywgJy1waCcsICc3LjAnLCAnLXRuJywgJzgnLCAnLW1hJywgJzIwMCcsICctbWV0YWxfYmluZGluZycsICctaW1hZScsICc8aW5maWxlLm1hZT4nLCAnLW9tYWUnLCAnPG91dGZpbGUubWFlPic=

> <r_epik_Ionization_Penalty>
1.14192

> <r_epik_Ionization_Penalty_Charging>
0

> <r_epik_Ionization_Penalty_Neutral>
1.14192

> <r_epik_State_Penalty>
1.20248

> <r_epik_Charging_Adjusted_Penalty>
1.20248

> <i_epik_Tot_Q>
0

> <i_epik_Tot_abs_Q>
0

> <r_epik_Metal_State_Penalty>
1.20248

> <b_epik_Metal_Only>
0

> <s_lp_Force_Field>
OPLS_2005

> <r_lp_Energy>
35.0124

> <b_lp_Chiralities_Consistent>
1

> <s_lp_Variant>
AV-unprocessed.smi:2528-12

> <Gold.Version>
5.8.1

> <Gold.Id.Protein>
6NUR|6NUR_protein|mol2

> <Gold.PLP.Fitness>
43.9402

> <Gold.PLP.PLP>
-35.3864

> <Gold.PLP.part.hbond>
-1.9129

> <Gold.PLP.part.metal>
0.0000

> <Gold.PLP.part.buried>
-2.1338

> <Gold.PLP.part.nonpolar>
-35.0028

> <Gold.PLP.part.repulsive>
3.3804

> <Gold.PLP.ligand.clash>
0.0000

> <Gold.PLP.ligand.torsion>
0.0912

> <Gold.PLP.Chemscore.Hbond>
1.9120

> <Gold.PLP.Chemscore.CHOScore>
1.0000

> <Gold.PLP.Chemscore.Metal>
0.0000

> <Gold.Chemscore.Hbonds>
donor molecule, donor type, donor heavy atom, donor atom, acceptor molecule, acceptor atom, score
      L1  H     3    22       P1  7948  1.00
      L1  H    15    39       P1  7948  0.93
      L1  C    20    43       P1 10186  1.00

> <Gold.PLP.Chemscore.Internal.Correction>
0.0004

> <Gold.Rescore>
     Score         DG    S(hbond)    S(metal)    S(lipo)     H(rot)  DE(clash)    DE(int)     intcor
     16.94     -18.47       1.95        0.00      83.22       1.27       0.22       1.31       ----

> <Gold.Chemscore.Fitness>
16.9362

> <Gold.Chemscore.DG>
-18.4664

> <Gold.Chemscore.ZeroCoef>
-5.4800

> <Gold.Chemscore.Hbond>
1.9461

> <Gold.Chemscore.Metal>
0.0000

> <Gold.Chemscore.Lipo>
83.2183

> <Gold.Chemscore.Internal_Hbond>
0.0000

> <Gold.Chemscore.DEClash>
0.2197

> <Gold.Chemscore.DEInternal>
1.3105

> <Gold.Chemscore.Rot>
1.2696

> <Gold.Chemscore.Internal.Correction>
   9.000000E+99

> <Gold.Chemscore.Hbonds>
donor molecule, donor type, donor heavy atom, donor atom, acceptor molecule, acceptor atom, score
      L1  H     3    22       P1  7948  0.95
      L1  H    15    39       P1  7948  0.79

> <Gold.Chemscore.Hbond.Weighted>
-6.5001

> <Gold.Chemscore.Metal.Weighted>
-0.0000

> <Gold.Chemscore.Lipo.Weighted>
-9.7365

> <Gold.Chemscore.Internal_Hbond.Weighted>
0.0000

> <Gold.Chemscore.DEClash.Weighted>
0.2197

> <Gold.Chemscore.DEInternal.Weighted>
1.3105

> <Gold.Chemscore.Rot.Weighted>
3.2502

> <Gold.Chemscore.Internal.Correction.Weighted>
   9.000000E+99

> <Gold.Protein.RotatedTorsions>
[ 6907 6896 6895 6894 ] final   31.13 input  -60.11 | X-H torsion
[ 7974 7965 7964 7962 ] final   25.23 input  175.53 | X-H torsion
[ 8008 7997 7996 7995 ] final -118.97 input   59.86 | X-H torsion
[ 10167 10162 10161 10158 ] final -164.00 input  -65.29 | X-H torsion
[ 10718 10713 10712 10709 ] final   -4.09 input   66.30 | X-H torsion
[ 10763 10752 10751 10750 ] final  -83.87 input  -60.55 | X-H torsion
[ 11005 11000 10999 10996 ] final  179.26 input  -57.11 | X-H torsion

> <Gold.Protein.ActiveResidues>
 VAL166  LYS551  ARG553  GLY616  TRP617  ASP618  TYR619  PRO620  LYS621  CYS622 
 ASP623  PHE694  ASN695  SER759  ASP760  ASP761  ALA762  ILE779  LEU786  VAL792 
 PHE793  MET794  SER795  GLU796  ALA797  LYS798  CYS799  TRP800  GLU811  SER814 

> <Gold.Protein.RotatedAtoms>
  152.0559  134.9625  160.0574 H   0  0  0  0  0  0  0  0  0  0  0  0  # atno 6907 bound_to 6896
  152.1007  133.4244  159.4594 H   0  0  0  0  0  0  0  0  0  0  0  0  # atno 6908 bound_to 6896
  150.6839  134.2682  159.4621 H   0  0  0  0  0  0  0  0  0  0  0  0  # atno 6909 bound_to 6896
  146.1899  139.7494  142.8840 H   0  0  0  0  0  0  0  0  0  0  0  0  # atno 7974 bound_to 7965
  155.1082  140.0397  157.2716 H   0  0  0  0  0  0  0  0  0  0  0  0  # atno 8008 bound_to 7997
  154.6705  140.2611  155.6986 H   0  0  0  0  0  0  0  0  0  0  0  0  # atno 8009 bound_to 7997
  156.2656  140.2798  156.1212 H   0  0  0  0  0  0  0  0  0  0  0  0  # atno 8010 bound_to 7997
  139.6281  144.0493  152.1992 H   0  0  0  0  0  0  0  0  0  0  0  0  # atno 10167 bound_to 10162
  156.7665  130.5286  149.5775 H   0  0  0  0  0  0  0  0  0  0  0  0  # atno 10718 bound_to 10713
  154.5928  135.5541  153.7295 H   0  0  0  0  0  0  0  0  0  0  0  0  # atno 10763 bound_to 10752
  153.0123  135.6347  154.1825 H   0  0  0  0  0  0  0  0  0  0  0  0  # atno 10764 bound_to 10752
  154.1765  135.2889  155.3045 H   0  0  0  0  0  0  0  0  0  0  0  0  # atno 10765 bound_to 10752
  140.4042  134.6750  157.4578 H   0  0  0  0  0  0  0  0  0  0  0  0  # atno 11005 bound_to 11000
  145.3826  141.0360  143.3169 LP  0  0  0  0  0  0  0  0  0  0  0  0  # atno 17320 bound_to 7965
  144.8466  139.5387  143.6876 LP  0  0  0  0  0  0  0  0  0  0  0  0  # atno 17321 bound_to 7965
  140.0151  144.6195  150.7614 LP  0  0  0  0  0  0  0  0  0  0  0  0  # atno 17342 bound_to 10162
  140.7423  143.2830  151.3544 LP  0  0  0  0  0  0  0  0  0  0  0  0  # atno 17343 bound_to 10162
  156.1305  130.6175  151.0327 LP  0  0  0  0  0  0  0  0  0  0  0  0  # atno 17370 bound_to 10713
  157.6711  131.0861  150.7610 LP  0  0  0  0  0  0  0  0  0  0  0  0  # atno 17371 bound_to 10713
  140.0314  134.6400  155.9101 LP  0  0  0  0  0  0  0  0  0  0  0  0  # atno 17394 bound_to 11000
  141.1845  133.6553  156.5161 LP  0  0  0  0  0  0  0  0  0  0  0  0  # atno 17395 bound_to 11000

$$$$
