AV-unprocessed.smi:1702|AV-procd|sdf|6845|dock4
  -GOLD-   22720 8 23D 1   1.00000     0.00000
 Structure written by MMmdl.
 44 46  0  0  0  0  0  0  0  0  2 V2000
  143.9857  144.1997  156.8746 C   0  0  0  0  0  0  0  0  0  0  0  0
  144.7805  143.1814  156.0449 C   0  0  2  0  0  0  0  0  0  0  0  0
  145.8620  142.4811  156.8846 C   0  0  0  0  0  0  0  0  0  0  0  0
  146.6716  141.4860  156.0361 C   0  0  0  0  0  0  0  0  0  0  0  0
  147.2838  142.1564  154.8579 N   0  3  1  0  0  0  0  0  0  0  0  0
  148.1753  141.2648  154.0717 C   0  0  0  0  0  0  0  0  0  0  0  0
  149.4502  140.8717  154.8438 C   0  0  2  0  0  0  0  0  0  0  0  0
  150.4028  140.3802  153.9202 O   0  0  0  0  0  0  0  0  0  0  0  0
  149.1636  139.7918  155.9048 C   0  0  0  0  0  0  0  0  0  0  0  0
  150.2173  139.6973  156.8999 N   0  0  0  0  0  0  0  0  0  0  0  0
  150.7697  138.5696  157.3870 C   0  0  0  0  0  0  0  0  0  0  0  0
  151.7255  138.7050  158.3012 N   0  0  0  0  0  0  0  0  0  0  0  0
  151.8083  140.0817  158.4185 C   0  0  0  0  0  0  0  0  0  0  0  0
  152.6393  140.8841  159.2322 C   0  0  0  0  0  0  0  0  0  0  0  0
  152.5449  142.2905  159.1836 C   0  0  0  0  0  0  0  0  0  0  0  0
  153.3489  143.0442  159.9705 F   0  0  0  0  0  0  0  0  0  0  0  0
  151.6183  142.9146  158.3222 C   0  0  0  0  0  0  0  0  0  0  0  0
  151.5335  144.2653  158.2817 F   0  0  0  0  0  0  0  0  0  0  0  0
  150.7788  142.1358  157.5026 C   0  0  0  0  0  0  0  0  0  0  0  0
  150.8775  140.7330  157.5537 C   0  0  0  0  0  0  0  0  0  0  0  0
  146.2564  142.8149  154.0108 C   0  0  0  0  0  0  0  0  0  0  0  0
  145.4383  143.8361  154.8190 C   0  0  0  0  0  0  0  0  0  0  0  0
  144.6317  144.9877  157.2629 H   0  0  0  0  0  0  0  0  0  0  0  0
  143.4994  143.7193  157.7241 H   0  0  0  0  0  0  0  0  0  0  0  0
  143.2075  144.6732  156.2750 H   0  0  0  0  0  0  0  0  0  0  0  0
  144.0800  142.4232  155.6912 H   0  0  0  0  0  0  0  0  0  0  0  0
  146.5352  143.2233  157.3166 H   0  0  0  0  0  0  0  0  0  0  0  0
  145.4021  141.9573  157.7233 H   0  0  0  0  0  0  0  0  0  0  0  0
  147.4422  141.0363  156.6611 H   0  0  0  0  0  0  0  0  0  0  0  0
  146.0272  140.6722  155.6995 H   0  0  0  0  0  0  0  0  0  0  0  0
  147.6187  140.3761  153.7699 H   0  0  0  0  0  0  0  0  0  0  0  0
  148.4749  141.7608  153.1468 H   0  0  0  0  0  0  0  0  0  0  0  0
  149.8776  141.7411  155.3426 H   0  0  0  0  0  0  0  0  0  0  0  0
  149.9691  140.2237  153.0945 H   0  0  0  0  0  0  0  0  0  0  0  0
  148.2289  140.0123  156.4222 H   0  0  0  0  0  0  0  0  0  0  0  0
  149.0351  138.8155  155.4356 H   0  0  0  0  0  0  0  0  0  0  0  0
  150.4487  137.5930  157.0545 H   0  0  0  0  0  0  0  0  0  0  0  0
  153.3520  140.4178  159.8961 H   0  0  0  0  0  0  0  0  0  0  0  0
  150.0684  142.6133  156.8445 H   0  0  0  0  0  0  0  0  0  0  0  0
  146.7399  143.3278  153.1784 H   0  0  0  0  0  0  0  0  0  0  0  0
  145.5981  142.0589  153.5795 H   0  0  0  0  0  0  0  0  0  0  0  0
  144.6761  144.2832  154.1799 H   0  0  0  0  0  0  0  0  0  0  0  0
  146.0888  144.6518  155.1391 H   0  0  0  0  0  0  0  0  0  0  0  0
  147.8714  142.8989  155.2106 H   0  0  0  0  0  0  0  0  0  0  0  0
  1  2  1  0  0  0  0
  1 23  1  0  0  0  0
  1 24  1  0  0  0  0
  1 25  1  0  0  0  0
  2 22  1  0  0  0  0
  2  3  1  0  0  0  0
  2 26  1  0  0  0  0
  3  4  1  0  0  0  0
  3 27  1  0  0  0  0
  3 28  1  0  0  0  0
  4  5  1  0  0  0  0
  4 29  1  0  0  0  0
  4 30  1  0  0  0  0
  5  6  1  0  0  0  0
  5 21  1  0  0  0  0
  5 44  1  0  0  0  0
  6  7  1  0  0  0  0
  6 31  1  0  0  0  0
  6 32  1  0  0  0  0
  7  8  1  0  0  0  0
  7  9  1  0  0  0  0
  7 33  1  0  0  0  0
  8 34  1  0  0  0  0
  9 10  1  0  0  0  0
  9 35  1  0  0  0  0
  9 36  1  0  0  0  0
 10 20  1  0  0  0  0
 10 11  1  0  0  0  0
 11 12  2  0  0  0  0
 11 37  1  0  0  0  0
 12 13  1  0  0  0  0
 13 20  2  0  0  0  0
 13 14  1  0  0  0  0
 14 15  2  0  0  0  0
 14 38  1  0  0  0  0
 15 16  1  0  0  0  0
 15 17  1  0  0  0  0
 17 18  1  0  0  0  0
 17 19  2  0  0  0  0
 19 20  1  0  0  0  0
 19 39  1  0  0  0  0
 21 22  1  0  0  0  0
 21 40  1  0  0  0  0
 21 41  1  0  0  0  0
 22 42  1  0  0  0  0
 22 43  1  0  0  0  0
M  CHG  1   5   1
M  END
> <s_m_source_file>
AV-unprocessed.smi

> <i_m_source_file_index>
1702

> <i_lp_mmshare_version>
43012

> <i_f3d_flags>
0

> <s_epik_input>
W0NIM11bQ0hdMVtDSDJdW0NIMl1OKFtDSDJdW0NIMl0xKVtDSDJdW0NASF0oW09IXSlbQ0gyXW4oW2NIXW4yKWMoYzIzKVtjSF1jKEYpYyhGKVtjSF0z

> <s_epik_cmdline>
J2VwaWtfcHl0aG9uJywgJy1waCcsICc3LjAnLCAnLXRuJywgJzgnLCAnLW1hJywgJzIwMCcsICctbWV0YWxfYmluZGluZycsICctaW1hZScsICc8aW5maWxlLm1hZT4nLCAnLW9tYWUnLCAnPG91dGZpbGUubWFlPic=

> <r_epik_Ionization_Penalty>
0.0135195

> <r_epik_Ionization_Penalty_Charging>
0.00181365

> <r_epik_Ionization_Penalty_Neutral>
0.0117059

> <r_epik_State_Penalty>
0.00902283

> <r_epik_Charging_Adjusted_Penalty>
0.0108365

> <i_epik_Tot_Q>
1

> <i_epik_Tot_abs_Q>
1

> <r_epik_Metal_State_Penalty>
9.09181e-06

> <b_epik_Metal_Only>
0

> <s_lp_Force_Field>
OPLS_2005

> <r_lp_Energy>
21.6828

> <b_lp_Chiralities_Consistent>
1

> <s_lp_Variant>
AV-unprocessed.smi:1702-1

> <Gold.Version>
5.8.1

> <Gold.Id.Protein>
6NUR|6NUR_protein|mol2

> <Gold.PLP.Fitness>
52.4199

> <Gold.PLP.PLP>
-41.6841

> <Gold.PLP.part.hbond>
-2.6819

> <Gold.PLP.part.metal>
0.0000

> <Gold.PLP.part.buried>
-7.3304

> <Gold.PLP.part.nonpolar>
-31.5848

> <Gold.PLP.part.repulsive>
0.1164

> <Gold.PLP.ligand.clash>
0.0000

> <Gold.PLP.ligand.torsion>
0.5622

> <Gold.PLP.Chemscore.Hbond>
3.9280

> <Gold.PLP.Chemscore.CHOScore>
0.0000

> <Gold.PLP.Chemscore.Metal>
0.0000

> <Gold.Chemscore.Hbonds>
donor molecule, donor type, donor heavy atom, donor atom, acceptor molecule, acceptor atom, score
      L1  H     5    44       P1  8028  1.62
      L1  H     8    34       P1  7957  1.00
      P1  H  7989  7998       L1     8  0.53

> <Gold.PLP.Chemscore.Internal.Correction>
0.0761

> <Gold.Rescore>
     Score         DG    S(hbond)    S(metal)    S(lipo)     H(rot)  DE(clash)    DE(int)     intcor
     15.59     -17.42       2.24        0.00      87.75       2.26       0.18       1.65       ----

> <Gold.Chemscore.Fitness>
15.5924

> <Gold.Chemscore.DG>
-17.4238

> <Gold.Chemscore.ZeroCoef>
-5.4800

> <Gold.Chemscore.Hbond>
2.2357

> <Gold.Chemscore.Metal>
0.0000

> <Gold.Chemscore.Lipo>
87.7527

> <Gold.Chemscore.Internal_Hbond>
0.0000

> <Gold.Chemscore.DEClash>
0.1772

> <Gold.Chemscore.DEInternal>
1.6542

> <Gold.Chemscore.Rot>
2.2619

> <Gold.Chemscore.Internal.Correction>
   9.000000E+99

> <Gold.Chemscore.Hbonds>
donor molecule, donor type, donor heavy atom, donor atom, acceptor molecule, acceptor atom, score
      L1  H     5    44       P1  8028  0.66
      L1  H     8    34       P1  7957  0.98
      P1  H  7989  7998       L1     8  0.13

> <Gold.Chemscore.Hbond.Weighted>
-7.4672

> <Gold.Chemscore.Metal.Weighted>
-0.0000

> <Gold.Chemscore.Lipo.Weighted>
-10.2671

> <Gold.Chemscore.Internal_Hbond.Weighted>
0.0000

> <Gold.Chemscore.DEClash.Weighted>
0.1772

> <Gold.Chemscore.DEInternal.Weighted>
1.6542

> <Gold.Chemscore.Rot.Weighted>
5.7904

> <Gold.Chemscore.Internal.Correction.Weighted>
   9.000000E+99

> <Gold.Protein.RotatedTorsions>
[ 6907 6896 6895 6894 ] final    2.86 input  -60.11 | X-H torsion
[ 7974 7965 7964 7962 ] final  140.99 input  175.53 | X-H torsion
[ 8008 7997 7996 7995 ] final   59.71 input   59.86 | X-H torsion
[ 10167 10162 10161 10158 ] final   56.33 input  -65.29 | X-H torsion
[ 10718 10713 10712 10709 ] final -137.81 input   66.30 | X-H torsion
[ 10763 10752 10751 10750 ] final   31.01 input  -60.55 | X-H torsion
[ 11005 11000 10999 10996 ] final   43.59 input  -57.11 | X-H torsion

> <Gold.Protein.ActiveResidues>
 VAL166  LYS551  ARG553  GLY616  TRP617  ASP618  TYR619  PRO620  LYS621  CYS622 
 ASP623  PHE694  ASN695  SER759  ASP760  ASP761  ALA762  ILE779  LEU786  VAL792 
 PHE793  MET794  SER795  GLU796  ALA797  LYS798  CYS799  TRP800  GLU811  SER814 

> <Gold.Protein.RotatedAtoms>
  151.6157  135.1036  160.0090 H   0  0  0  0  0  0  0  0  0  0  0  0  # atno 6907 bound_to 6896
  152.4185  133.7072  159.6469 H   0  0  0  0  0  0  0  0  0  0  0  0  # atno 6908 bound_to 6896
  150.8072  133.8414  159.3221 H   0  0  0  0  0  0  0  0  0  0  0  0  # atno 6909 bound_to 6896
  144.9137  139.5259  143.5696 H   0  0  0  0  0  0  0  0  0  0  0  0  # atno 7974 bound_to 7965
  155.5706  140.3490  155.4514 H   0  0  0  0  0  0  0  0  0  0  0  0  # atno 8008 bound_to 7997
  156.0447  140.1304  157.0142 H   0  0  0  0  0  0  0  0  0  0  0  0  # atno 8009 bound_to 7997
  154.4407  140.1017  156.6273 H   0  0  0  0  0  0  0  0  0  0  0  0  # atno 8010 bound_to 7997
  140.2099  144.3900  150.6493 H   0  0  0  0  0  0  0  0  0  0  0  0  # atno 10167 bound_to 10162
  156.2923  130.7382  151.1411 H   0  0  0  0  0  0  0  0  0  0  0  0  # atno 10718 bound_to 10713
  153.0339  135.6450  154.1132 H   0  0  0  0  0  0  0  0  0  0  0  0  # atno 10763 bound_to 10752
  154.0850  135.2870  155.3284 H   0  0  0  0  0  0  0  0  0  0  0  0  # atno 10764 bound_to 10752
  154.6504  135.5428  153.7958 H   0  0  0  0  0  0  0  0  0  0  0  0  # atno 10765 bound_to 10752
  140.1630  134.4317  155.8305 H   0  0  0  0  0  0  0  0  0  0  0  0  # atno 11005 bound_to 11000
  146.3171  139.7963  142.8975 LP  0  0  0  0  0  0  0  0  0  0  0  0  # atno 17320 bound_to 7965
  145.3411  141.0288  143.3392 LP  0  0  0  0  0  0  0  0  0  0  0  0  # atno 17321 bound_to 7965
  140.6331  143.2190  151.6454 LP  0  0  0  0  0  0  0  0  0  0  0  0  # atno 17342 bound_to 10162
  139.5184  144.3286  152.0847 LP  0  0  0  0  0  0  0  0  0  0  0  0  # atno 17343 bound_to 10162
  157.7346  131.0580  150.5517 LP  0  0  0  0  0  0  0  0  0  0  0  0  # atno 17370 bound_to 10713
  156.5634  130.4261  149.6052 LP  0  0  0  0  0  0  0  0  0  0  0  0  # atno 17371 bound_to 10713
  141.2211  133.6922  156.7629 LP  0  0  0  0  0  0  0  0  0  0  0  0  # atno 17394 bound_to 11000
  140.2467  134.8572  157.3627 LP  0  0  0  0  0  0  0  0  0  0  0  0  # atno 17395 bound_to 11000

$$$$
