AV-unprocessed.smi:594|AV-procd|sdf|3015|dock10
  -GOLD-   2262023523D 1   1.00000     0.00000
 Structure written by MMmdl.
 40 41  0  0  0  0  0  0  0  0  3 V2000
  152.2401  144.4145  157.9805 C   0  0  0  0  0  0  0  0  0  0  0  0
  152.7792  143.9108  159.3304 C   0  0  1  0  0  0  0  0  0  0  0  0
  151.8331  144.2816  160.4920 C   0  0  0  0  0  0  0  0  0  0  0  0
  152.3925  143.8226  161.8482 C   0  0  0  0  0  0  0  0  0  0  0  0
  152.6936  142.3166  161.8479 C   0  0  0  0  0  0  0  0  0  0  0  0
  153.6413  141.9405  160.6965 C   0  0  0  0  0  0  0  0  0  0  0  0
  153.0969  142.3945  159.3238 C   0  0  1  0  0  0  0  0  0  0  0  0
  151.9212  141.6107  158.9436 N   0  0  0  0  0  0  0  0  0  0  0  0
  151.9127  140.5779  158.0881 C   0  0  0  0  0  0  0  0  0  0  0  0
  152.9152  140.1862  157.4893 O   0  0  0  0  0  0  0  0  0  0  0  0
  150.5548  139.8968  157.8705 C   0  0  0  0  0  0  0  0  0  0  0  0
  150.5977  138.8449  156.8409 N   0  0  0  0  0  0  0  0  0  0  0  0
  150.3563  137.5224  157.2624 C   0  0  0  0  0  0  0  0  0  0  0  0
  150.3695  136.4837  156.4042 C   0  0  0  0  0  0  0  0  0  0  0  0
  150.1182  135.1321  156.8543 N   0  3  0  0  0  0  0  0  0  0  0  0
  150.1884  134.2178  156.0394 O   0  0  0  0  0  0  0  0  0  0  0  0
  149.8442  134.9388  158.0352 O   0  5  0  0  0  0  0  0  0  0  0  0
  150.6437  136.7658  155.0085 C   0  0  0  0  0  0  0  0  0  0  0  0
  150.8727  138.0288  154.5983 C   0  0  0  0  0  0  0  0  0  0  0  0
  150.8558  139.1579  155.5338 C   0  0  0  0  0  0  0  0  0  0  0  0
  151.0617  140.3147  155.1653 O   0  0  0  0  0  0  0  0  0  0  0  0
  151.2642  143.9870  157.7494 H   0  0  0  0  0  0  0  0  0  0  0  0
  152.9185  144.1570  157.1667 H   0  0  0  0  0  0  0  0  0  0  0  0
  152.1300  145.4992  157.9851 H   0  0  0  0  0  0  0  0  0  0  0  0
  153.7212  144.4330  159.5044 H   0  0  0  0  0  0  0  0  0  0  0  0
  151.6746  145.3605  160.5122 H   0  0  0  0  0  0  0  0  0  0  0  0
  150.8523  143.8318  160.3323 H   0  0  0  0  0  0  0  0  0  0  0  0
  153.3045  144.3769  162.0734 H   0  0  0  0  0  0  0  0  0  0  0  0
  151.6834  144.0593  162.6419 H   0  0  0  0  0  0  0  0  0  0  0  0
  153.1355  142.0267  162.8015 H   0  0  0  0  0  0  0  0  0  0  0  0
  151.7623  141.7559  161.7581 H   0  0  0  0  0  0  0  0  0  0  0  0
  154.6115  142.4084  160.8678 H   0  0  0  0  0  0  0  0  0  0  0  0
  153.8232  140.8651  160.7008 H   0  0  0  0  0  0  0  0  0  0  0  0
  153.8728  142.2212  158.5756 H   0  0  0  0  0  0  0  0  0  0  0  0
  151.0484  141.8662  159.3823 H   0  0  0  0  0  0  0  0  0  0  0  0
  150.1983  139.4784  158.8139 H   0  0  0  0  0  0  0  0  0  0  0  0
  149.8283  140.6671  157.6084 H   0  0  0  0  0  0  0  0  0  0  0  0
  150.1560  137.4176  158.3190 H   0  0  0  0  0  0  0  0  0  0  0  0
  150.6662  135.9666  154.2820 H   0  0  0  0  0  0  0  0  0  0  0  0
  151.0740  138.2163  153.5538 H   0  0  0  0  0  0  0  0  0  0  0  0
  1  2  1  0  0  0  0
  1 22  1  0  0  0  0
  1 23  1  0  0  0  0
  1 24  1  0  0  0  0
  2  7  1  0  0  0  0
  2  3  1  0  0  0  0
  2 25  1  0  0  0  0
  3  4  1  0  0  0  0
  3 26  1  0  0  0  0
  3 27  1  0  0  0  0
  4  5  1  0  0  0  0
  4 28  1  0  0  0  0
  4 29  1  0  0  0  0
  5  6  1  0  0  0  0
  5 30  1  0  0  0  0
  5 31  1  0  0  0  0
  6  7  1  0  0  0  0
  6 32  1  0  0  0  0
  6 33  1  0  0  0  0
  7  8  1  0  0  0  0
  7 34  1  0  0  0  0
  8  9  1  0  0  0  0
  8 35  1  0  0  0  0
  9 10  2  0  0  0  0
  9 11  1  0  0  0  0
 11 12  1  0  0  0  0
 11 36  1  0  0  0  0
 11 37  1  0  0  0  0
 12 20  1  0  0  0  0
 12 13  1  0  0  0  0
 13 14  2  0  0  0  0
 13 38  1  0  0  0  0
 14 15  1  0  0  0  0
 14 18  1  0  0  0  0
 15 16  2  0  0  0  0
 15 17  1  0  0  0  0
 18 19  2  0  0  0  0
 18 39  1  0  0  0  0
 19 20  1  0  0  0  0
 19 40  1  0  0  0  0
 20 21  2  0  0  0  0
M  CHG  1  15   1
M  CHG  1  17  -1
M  END
> <s_m_source_file>
AV-unprocessed.smi

> <i_m_source_file_index>
594

> <i_lp_mmshare_version>
43012

> <i_f3d_flags>
0

> <s_epik_input>
W0NIM11bQ0BASF0xW0NIMl1bQ0gyXVtDSDJdW0NIMl1bQ0BIXTFbTkhdQyg9TylbQ0gyXW4yW2NIXWMoW04rXSg9TylbTy1dKVtjSF1bY0hdYzI9Tw==

> <s_epik_cmdline>
J2VwaWtfcHl0aG9uJywgJy1waCcsICc3LjAnLCAnLXRuJywgJzgnLCAnLW1hJywgJzIwMCcsICctbWV0YWxfYmluZGluZycsICctaW1hZScsICc8aW5maWxlLm1hZT4nLCAnLW9tYWUnLCAnPG91dGZpbGUubWFlPic=

> <r_lp_tautomer_probability>
1

> <r_epik_Ionization_Penalty>
1.91305e-08

> <r_epik_Ionization_Penalty_Charging>
8.35811e-11

> <r_epik_Ionization_Penalty_Neutral>
1.90469e-08

> <r_epik_State_Penalty>
-0

> <r_epik_Charging_Adjusted_Penalty>
8.35811e-11

> <i_epik_Tot_Q>
0

> <i_epik_Tot_abs_Q>
2

> <r_epik_Metal_State_Penalty>
-0

> <b_epik_Metal_Only>
0

> <s_lp_Force_Field>
OPLS_2005

> <r_lp_Energy>
20.421

> <b_lp_Chiralities_Consistent>
1

> <s_lp_Variant>
AV-unprocessed.smi:594-2

> <Gold.Version>
5.8.1

> <Gold.Id.Protein>
6NUR|6NUR_protein|mol2

> <Gold.PLP.Fitness>
51.6359

> <Gold.PLP.PLP>
-43.2309

> <Gold.PLP.part.hbond>
-3.0000

> <Gold.PLP.part.metal>
0.0000

> <Gold.PLP.part.buried>
-4.1137

> <Gold.PLP.part.nonpolar>
-36.1183

> <Gold.PLP.part.repulsive>
0.1664

> <Gold.PLP.ligand.clash>
0.0000

> <Gold.PLP.ligand.torsion>
0.2923

> <Gold.PLP.Chemscore.Hbond>
2.9920

> <Gold.PLP.Chemscore.CHOScore>
0.0000

> <Gold.PLP.Chemscore.Metal>
0.0000

> <Gold.Chemscore.Hbonds>
donor molecule, donor type, donor heavy atom, donor atom, acceptor molecule, acceptor atom, score
      P1  H  6896  6908       L1    17  0.99
      P1  H  7989  7998       L1    21  1.00
      P1  H  7997  8009       L1    10  0.99

> <Gold.PLP.Chemscore.Internal.Correction>
0.0135

> <Gold.Rescore>
     Score         DG    S(hbond)    S(metal)    S(lipo)     H(rot)  DE(clash)    DE(int)     intcor
     23.40     -23.84       2.91        0.00     107.70       1.55       0.13       0.30       ----

> <Gold.Chemscore.Fitness>
23.4032

> <Gold.Chemscore.DG>
-23.8398

> <Gold.Chemscore.ZeroCoef>
-5.4800

> <Gold.Chemscore.Hbond>
2.9126

> <Gold.Chemscore.Metal>
0.0000

> <Gold.Chemscore.Lipo>
107.6984

> <Gold.Chemscore.Internal_Hbond>
0.0000

> <Gold.Chemscore.DEClash>
0.1329

> <Gold.Chemscore.DEInternal>
0.3037

> <Gold.Chemscore.Rot>
1.5505

> <Gold.Chemscore.Internal.Correction>
   9.000000E+99

> <Gold.Chemscore.Hbonds>
donor molecule, donor type, donor heavy atom, donor atom, acceptor molecule, acceptor atom, score
      P1  H  6896  6908       L1    17  0.94
      P1  H  7989  7998       L1    21  0.98
      P1  H  7997  8009       L1    10  0.94

> <Gold.Chemscore.Hbond.Weighted>
-9.7282

> <Gold.Chemscore.Metal.Weighted>
-0.0000

> <Gold.Chemscore.Lipo.Weighted>
-12.6007

> <Gold.Chemscore.Internal_Hbond.Weighted>
0.0000

> <Gold.Chemscore.DEClash.Weighted>
0.1329

> <Gold.Chemscore.DEInternal.Weighted>
0.3037

> <Gold.Chemscore.Rot.Weighted>
3.9692

> <Gold.Chemscore.Internal.Correction.Weighted>
   9.000000E+99

> <Gold.Protein.RotatedTorsions>
[ 6907 6896 6895 6894 ] final  157.37 input  -60.11 | X-H torsion
[ 7974 7965 7964 7962 ] final -172.45 input  175.53 | X-H torsion
[ 8008 7997 7996 7995 ] final  167.08 input   59.86 | X-H torsion
[ 10167 10162 10161 10158 ] final -124.70 input  -65.29 | X-H torsion
[ 10718 10713 10712 10709 ] final -144.83 input   66.30 | X-H torsion
[ 10763 10752 10751 10750 ] final  134.24 input  -60.55 | X-H torsion
[ 11005 11000 10999 10996 ] final  -14.31 input  -57.11 | X-H torsion

> <Gold.Protein.ActiveResidues>
 VAL166  LYS551  ARG553  GLY616  TRP617  ASP618  TYR619  PRO620  LYS621  CYS622 
 ASP623  PHE694  ASN695  SER759  ASP760  ASP761  ALA762  ILE779  LEU786  VAL792 
 PHE793  MET794  SER795  GLU796  ALA797  LYS798  CYS799  TRP800  GLU811  SER814 

> <Gold.Protein.RotatedAtoms>
  152.0161  133.3880  159.4239 H   0  0  0  0  0  0  0  0  0  0  0  0  # atno 6907 bound_to 6896
  150.6894  134.3677  159.4987 H   0  0  0  0  0  0  0  0  0  0  0  0  # atno 6908 bound_to 6896
  152.1444  134.9037  160.0602 H   0  0  0  0  0  0  0  0  0  0  0  0  # atno 6909 bound_to 6896
  144.7146  140.1770  143.6362 H   0  0  0  0  0  0  0  0  0  0  0  0  # atno 7974 bound_to 7965
  156.1665  140.1626  156.8523 H   0  0  0  0  0  0  0  0  0  0  0  0  # atno 8008 bound_to 7997
  154.5212  140.0778  156.8210 H   0  0  0  0  0  0  0  0  0  0  0  0  # atno 8009 bound_to 7997
  155.3602  140.3395  155.4243 H   0  0  0  0  0  0  0  0  0  0  0  0  # atno 8010 bound_to 7997
  139.9900  143.5651  152.2345 H   0  0  0  0  0  0  0  0  0  0  0  0  # atno 10167 bound_to 10162
  156.3749  130.7807  151.1992 H   0  0  0  0  0  0  0  0  0  0  0  0  # atno 10718 bound_to 10713
  153.8204  135.3117  155.3409 H   0  0  0  0  0  0  0  0  0  0  0  0  # atno 10763 bound_to 10752
  154.8015  135.4724  154.0290 H   0  0  0  0  0  0  0  0  0  0  0  0  # atno 10764 bound_to 10752
  153.1697  135.6875  153.8715 H   0  0  0  0  0  0  0  0  0  0  0  0  # atno 10765 bound_to 10752
  140.7851  133.8332  155.9328 H   0  0  0  0  0  0  0  0  0  0  0  0  # atno 11005 bound_to 11000
  145.8891  139.2365  143.1560 LP  0  0  0  0  0  0  0  0  0  0  0  0  # atno 17320 bound_to 7965
  145.9921  140.8594  143.0061 LP  0  0  0  0  0  0  0  0  0  0  0  0  # atno 17321 bound_to 7965
  139.6347  144.7648  151.2463 LP  0  0  0  0  0  0  0  0  0  0  0  0  # atno 17342 bound_to 10162
  140.7458  143.6419  150.8327 LP  0  0  0  0  0  0  0  0  0  0  0  0  # atno 17343 bound_to 10162
  157.7487  131.0361  150.4395 LP  0  0  0  0  0  0  0  0  0  0  0  0  # atno 17370 bound_to 10713
  156.4628  130.4035  149.6565 LP  0  0  0  0  0  0  0  0  0  0  0  0  # atno 17371 bound_to 10713
  140.9444  134.1859  157.4774 LP  0  0  0  0  0  0  0  0  0  0  0  0  # atno 17394 bound_to 11000
  139.8738  134.9885  156.5414 LP  0  0  0  0  0  0  0  0  0  0  0  0  # atno 17395 bound_to 11000

$$$$
