AV-unprocessed.smi:1145|AV-procd|sdf|4882|dock9
  -GOLD-   22720 3453D 1   1.00000     0.00000
 Structure written by MMmdl.
 36 37  0  0  0  0  0  0  0  0  1 V2000
  144.4036  134.9072  154.2803 C   0  0  0  0  0  0  0  0  0  0  0  0
  143.4294  135.1234  153.1134 C   0  0  2  0  0  0  0  0  0  0  0  0
  144.1649  135.5121  151.8167 C   0  0  0  0  0  0  0  0  0  0  0  0
  144.9922  134.4304  151.3099 N   0  0  0  0  0  0  0  0  0  0  0  0
  146.3681  134.3630  151.2488 C   0  0  0  0  0  0  0  0  0  0  0  0
  146.6920  133.1526  150.7061 C   0  0  0  0  0  0  0  0  0  0  0  0
  145.4297  132.5410  150.4665 C   0  0  0  0  0  0  0  0  0  0  0  0
  144.4142  133.3080  150.8289 N   0  0  0  0  0  0  0  0  0  0  0  0
  142.4614  136.1594  153.4678 N   0  0  0  0  0  0  0  0  0  0  0  0
  141.1528  135.9638  153.6896 C   0  0  0  0  0  0  0  0  0  0  0  0
  140.6195  134.8539  153.6643 O   0  0  0  0  0  0  0  0  0  0  0  0
  140.3177  137.2182  153.9776 C   0  0  2  0  0  0  0  0  0  0  0  0
  138.8165  136.8893  154.0255 C   0  0  0  0  0  0  0  0  0  0  0  0
  137.9898  138.1391  154.3674 C   0  0  0  0  0  0  0  0  0  0  0  0
  138.3975  139.3798  153.5590 C   0  0  0  0  0  0  0  0  0  0  0  0
  137.6281  140.3355  153.4894 O   0  0  0  0  0  0  0  0  0  0  0  0
  139.6075  139.4072  152.9726 N   0  0  0  0  0  0  0  0  0  0  0  0
  140.5689  138.3059  152.9119 C   0  0  0  0  0  0  0  0  0  0  0  0
  145.1215  134.1195  154.0503 H   0  0  0  0  0  0  0  0  0  0  0  0
  143.8723  134.6116  155.1858 H   0  0  0  0  0  0  0  0  0  0  0  0
  144.9646  135.8151  154.5042 H   0  0  0  0  0  0  0  0  0  0  0  0
  142.9133  134.1788  152.9316 H   0  0  0  0  0  0  0  0  0  0  0  0
  143.4551  135.8152  151.0450 H   0  0  0  0  0  0  0  0  0  0  0  0
  144.8131  136.3703  151.9971 H   0  0  0  0  0  0  0  0  0  0  0  0
  146.9942  135.1719  151.5957 H   0  0  0  0  0  0  0  0  0  0  0  0
  147.6802  132.7626  150.5112 H   0  0  0  0  0  0  0  0  0  0  0  0
  145.2231  131.5695  150.0423 H   0  0  0  0  0  0  0  0  0  0  0  0
  142.8087  137.1068  153.5084 H   0  0  0  0  0  0  0  0  0  0  0  0
  140.6088  137.6153  154.9522 H   0  0  0  0  0  0  0  0  0  0  0  0
  138.4857  136.4895  153.0650 H   0  0  0  0  0  0  0  0  0  0  0  0
  138.6225  136.1116  154.7654 H   0  0  0  0  0  0  0  0  0  0  0  0
  136.9289  137.9379  154.2155 H   0  0  0  0  0  0  0  0  0  0  0  0
  138.1137  138.3792  155.4239 H   0  0  0  0  0  0  0  0  0  0  0  0
  139.8592  140.2487  152.4743 H   0  0  0  0  0  0  0  0  0  0  0  0
  141.5742  138.7141  153.0237 H   0  0  0  0  0  0  0  0  0  0  0  0
  140.5144  137.8825  151.9077 H   0  0  0  0  0  0  0  0  0  0  0  0
  1  2  1  0  0  0  0
  1 19  1  0  0  0  0
  1 20  1  0  0  0  0
  1 21  1  0  0  0  0
  2  3  1  0  0  0  0
  2  9  1  0  0  0  0
  2 22  1  0  0  0  0
  3  4  1  0  0  0  0
  3 23  1  0  0  0  0
  3 24  1  0  0  0  0
  4  8  1  0  0  0  0
  4  5  1  0  0  0  0
  5  6  2  0  0  0  0
  5 25  1  0  0  0  0
  6  7  1  0  0  0  0
  6 26  1  0  0  0  0
  7  8  2  0  0  0  0
  7 27  1  0  0  0  0
  9 10  1  0  0  0  0
  9 28  1  0  0  0  0
 10 11  2  0  0  0  0
 10 12  1  0  0  0  0
 12 18  1  0  0  0  0
 12 13  1  0  0  0  0
 12 29  1  0  0  0  0
 13 14  1  0  0  0  0
 13 30  1  0  0  0  0
 13 31  1  0  0  0  0
 14 15  1  0  0  0  0
 14 32  1  0  0  0  0
 14 33  1  0  0  0  0
 15 16  2  0  0  0  0
 15 17  1  0  0  0  0
 17 18  1  0  0  0  0
 17 34  1  0  0  0  0
 18 35  1  0  0  0  0
 18 36  1  0  0  0  0
M  END
> <s_m_source_file>
AV-unprocessed.smi

> <i_m_source_file_index>
1145

> <i_lp_mmshare_version>
43012

> <i_f3d_flags>
0

> <s_epik_input>
bjFbY0hdW2NIXVtjSF1uMVtDSDJdW0NAQEhdKFtDSDNdKVtOSF1DKD1PKVtDQEBIXTJbQ0gyXVtDSDJdQyg9TylbTkhdW0NIMl0y

> <s_epik_cmdline>
J2VwaWtfcHl0aG9uJywgJy1waCcsICc3LjAnLCAnLXRuJywgJzgnLCAnLW1hJywgJzIwMCcsICctbWV0YWxfYmluZGluZycsICctaW1hZScsICc8aW5maWxlLm1hZT4nLCAnLW9tYWUnLCAnPG91dGZpbGUubWFlPic=

> <r_lp_tautomer_probability>
1

> <r_epik_Ionization_Penalty>
0.000314064

> <r_epik_Ionization_Penalty_Charging>
0

> <r_epik_Ionization_Penalty_Neutral>
0.000314064

> <r_epik_State_Penalty>
-0

> <r_epik_Charging_Adjusted_Penalty>
0

> <i_epik_Tot_Q>
0

> <i_epik_Tot_abs_Q>
0

> <r_epik_Metal_State_Penalty>
-0

> <b_epik_Metal_Only>
0

> <s_lp_Force_Field>
OPLS_2005

> <r_lp_Energy>
12.6815

> <b_lp_Chiralities_Consistent>
1

> <s_lp_Variant>
AV-unprocessed.smi:1145-1

> <Gold.Version>
5.8.1

> <Gold.Id.Protein>
6NUR|6NUR_protein|mol2

> <Gold.PLP.Fitness>
41.5059

> <Gold.PLP.PLP>
-33.7491

> <Gold.PLP.part.hbond>
-3.0000

> <Gold.PLP.part.metal>
0.0000

> <Gold.PLP.part.buried>
-6.9454

> <Gold.PLP.part.nonpolar>
-24.0612

> <Gold.PLP.part.repulsive>
0.4689

> <Gold.PLP.ligand.clash>
0.0000

> <Gold.PLP.ligand.torsion>
0.2842

> <Gold.PLP.Chemscore.Hbond>
1.7680

> <Gold.PLP.Chemscore.CHOScore>
1.0000

> <Gold.PLP.Chemscore.Metal>
0.0000

> <Gold.Chemscore.Hbonds>
donor molecule, donor type, donor heavy atom, donor atom, acceptor molecule, acceptor atom, score
      L1  H    17    34       P1 10160  0.66
      P1  H 11000 11005       L1    11  0.71
      L1  C     5    25       P1  7948  1.00

> <Gold.PLP.Chemscore.Internal.Correction>
0.0213

> <Gold.Rescore>
     Score         DG    S(hbond)    S(metal)    S(lipo)     H(rot)  DE(clash)    DE(int)     intcor
     14.66     -15.00       1.89        0.00      66.85       1.80       0.07       0.28       ----

> <Gold.Chemscore.Fitness>
14.6582

> <Gold.Chemscore.DG>
-15.0027

> <Gold.Chemscore.ZeroCoef>
-5.4800

> <Gold.Chemscore.Hbond>
1.8876

> <Gold.Chemscore.Metal>
0.0000

> <Gold.Chemscore.Lipo>
66.8520

> <Gold.Chemscore.Internal_Hbond>
0.0000

> <Gold.Chemscore.DEClash>
0.0685

> <Gold.Chemscore.DEInternal>
0.2761

> <Gold.Chemscore.Rot>
1.7982

> <Gold.Chemscore.Internal.Correction>
   9.000000E+99

> <Gold.Chemscore.Hbonds>
donor molecule, donor type, donor heavy atom, donor atom, acceptor molecule, acceptor atom, score
      L1  H    17    34       P1 10160  0.64
      P1  H 11000 11005       L1    11  0.43

> <Gold.Chemscore.Hbond.Weighted>
-6.3045

> <Gold.Chemscore.Metal.Weighted>
-0.0000

> <Gold.Chemscore.Lipo.Weighted>
-7.8217

> <Gold.Chemscore.Internal_Hbond.Weighted>
0.0000

> <Gold.Chemscore.DEClash.Weighted>
0.0685

> <Gold.Chemscore.DEInternal.Weighted>
0.2761

> <Gold.Chemscore.Rot.Weighted>
4.6035

> <Gold.Chemscore.Internal.Correction.Weighted>
   9.000000E+99

> <Gold.Protein.RotatedTorsions>
[ 6907 6896 6895 6894 ] final   96.48 input  -60.11 | X-H torsion
[ 7974 7965 7964 7962 ] final  -35.56 input  175.53 | X-H torsion
[ 8008 7997 7996 7995 ] final   -7.14 input   59.86 | X-H torsion
[ 10167 10162 10161 10158 ] final  139.94 input  -65.29 | X-H torsion
[ 10718 10713 10712 10709 ] final  138.67 input   66.30 | X-H torsion
[ 10763 10752 10751 10750 ] final   90.73 input  -60.55 | X-H torsion
[ 11005 11000 10999 10996 ] final   26.62 input  -57.11 | X-H torsion

> <Gold.Protein.ActiveResidues>
 VAL166  LYS551  ARG553  GLY616  TRP617  ASP618  TYR619  PRO620  LYS621  CYS622 
 ASP623  PHE694  ASN695  SER759  ASP760  ASP761  ALA762  ILE779  LEU786  VAL792 
 PHE793  MET794  SER795  GLU796  ALA797  LYS798  CYS799  TRP800  GLU811  SER814 

> <Gold.Protein.RotatedAtoms>
  152.5434  134.0880  159.8264 H   0  0  0  0  0  0  0  0  0  0  0  0  # atno 6907 bound_to 6896
  151.0973  133.5262  159.2619 H   0  0  0  0  0  0  0  0  0  0  0  0  # atno 6908 bound_to 6896
  151.2031  135.0459  159.8934 H   0  0  0  0  0  0  0  0  0  0  0  0  # atno 6909 bound_to 6896
  146.0736  140.6174  142.8941 H   0  0  0  0  0  0  0  0  0  0  0  0  # atno 7974 bound_to 7965
  154.5868  140.2415  155.7976 H   0  0  0  0  0  0  0  0  0  0  0  0  # atno 8008 bound_to 7997
  156.2219  140.2995  155.9928 H   0  0  0  0  0  0  0  0  0  0  0  0  # atno 8009 bound_to 7997
  155.2444  140.0408  157.2969 H   0  0  0  0  0  0  0  0  0  0  0  0  # atno 8010 bound_to 7997
  139.5063  144.6264  151.5926 H   0  0  0  0  0  0  0  0  0  0  0  0  # atno 10167 bound_to 10162
  157.4228  131.1040  151.0335 H   0  0  0  0  0  0  0  0  0  0  0  0  # atno 10718 bound_to 10713
  153.2007  135.4423  155.0263 H   0  0  0  0  0  0  0  0  0  0  0  0  # atno 10763 bound_to 10752
  154.8145  135.3309  154.7217 H   0  0  0  0  0  0  0  0  0  0  0  0  # atno 10764 bound_to 10752
  153.7662  135.6988  153.4971 H   0  0  0  0  0  0  0  0  0  0  0  0  # atno 10765 bound_to 10752
  140.3351  134.2395  155.7697 H   0  0  0  0  0  0  0  0  0  0  0  0  # atno 11005 bound_to 11000
  144.7247  140.4486  143.6982 LP  0  0  0  0  0  0  0  0  0  0  0  0  # atno 17320 bound_to 7965
  145.6347  139.1541  143.2949 LP  0  0  0  0  0  0  0  0  0  0  0  0  # atno 17321 bound_to 7965
  140.5983  143.9656  150.6369 LP  0  0  0  0  0  0  0  0  0  0  0  0  # atno 17342 bound_to 10162
  140.2859  143.3357  152.1107 LP  0  0  0  0  0  0  0  0  0  0  0  0  # atno 17343 bound_to 10162
  157.1259  130.6082  149.5517 LP  0  0  0  0  0  0  0  0  0  0  0  0  # atno 17370 bound_to 10713
  155.9886  130.4930  150.7178 LP  0  0  0  0  0  0  0  0  0  0  0  0  # atno 17371 bound_to 10713
  141.2053  133.7863  157.0239 LP  0  0  0  0  0  0  0  0  0  0  0  0  # atno 17394 bound_to 11000
  140.0828  134.9638  157.1651 LP  0  0  0  0  0  0  0  0  0  0  0  0  # atno 17395 bound_to 11000

$$$$
