#       Name:                AV-unprocessed.smi:2026
#       Creating user name   scv26
#       Creation time:       Fri Mar 27 10:46:40 2020


#       File generated by GOLD software.
#

@<TRIPOS>MOLECULE
AV-unprocessed.smi:2026
    53    55     1
SMALL
NO_CHARGES


@<TRIPOS>ATOM
      1 ****        -4.7492   4.1034   2.2986 C.3            1 S1                 0.0000
      2 ****        -3.9084   3.1096   1.5166 C.ar           1 S1                 0.0000
      3 ****        -3.3723   3.4948   0.2670 C.ar           1 S1                 0.0000
      4 ****        -2.5860   2.5997  -0.4911 C.ar           1 S1                 0.0000
      5 ****        -1.9707   2.7638  -1.7207 N.2            1 S1                 0.0000
      6 ****        -1.3917   1.5784  -1.8902 C.2            1 S1                 0.0000
      7 ****        -1.5621   0.6638  -0.9164 N.pl3          1 S1                 0.0000
      8 ****        -1.0312  -0.6876  -0.8859 C.3            1 S1                 0.0000
      9 ****         0.4543  -0.7328  -0.4781 C.3            1 S1                 0.0000
     10 ****         0.5879  -0.1581   0.8080 O.3            1 S1                 0.0000
     11 ****         0.9814  -2.1817  -0.4331 C.3            1 S1                 0.0000
     12 ****         2.4446  -2.2396  -0.5216 N.am           1 S1                 0.0000
     13 ****         3.2815  -2.3500   0.5273 C.2            1 S1                 0.0000
     14 ****         2.8774  -2.4195   1.6875 O.2            1 S1                 0.0000
     15 ****         4.5723  -2.3724   0.1185 N.pl3          1 S1                -1.0000
     16 ****         4.6079  -2.2607  -1.3261 C.3            1 S1                 0.0000
     17 ****         5.3563  -0.9798  -1.7406 C.3            1 S1                 0.0000
     18 ****         5.2523  -3.5178  -1.9405 C.3            1 S1                 0.0000
     19 ****         3.1312  -2.1738  -1.6671 C.2            1 S1                 0.0000
     20 ****         2.6807  -2.0597  -2.8082 O.2            1 S1                 0.0000
     21 ****        -2.3501   1.2974   0.0385 C.ar           1 S1                 0.0000
     22 ****        -2.8773   0.9028   1.2811 C.ar           1 S1                 0.0000
     23 ****        -3.6600   1.8096   2.0258 C.ar           1 S1                 0.0000
     24 ****        -4.2220   1.3740   3.3674 C.3            1 S1                 0.0000
     25 ****        -4.8122   5.0635   1.7857 H              1 S1                 0.0000
     26 ****        -4.3172   4.2790   3.2841 H              1 S1                 0.0000
     27 ****        -5.7635   3.7250   2.4270 H              1 S1                 0.0000
     28 ****        -3.5606   4.4851  -0.1209 H              1 S1                 0.0000
     29 ****        -0.8089   1.3604  -2.7734 H              1 S1                 0.0000
     30 ****        -1.6342  -1.2870  -0.2026 H              1 S1                 0.0000
     31 ****        -1.1611  -1.1235  -1.8773 H              1 S1                 0.0000
     32 ****         1.0328  -0.1399  -1.1879 H              1 S1                 0.0000
     33 ****         0.1429  -0.7098   1.4325 H              1 S1                 0.0000
     34 ****         0.6140  -2.7022   0.4530 H              1 S1                 0.0000
     35 ****         0.5754  -2.7411  -1.2777 H              1 S1                 0.0000
     36 ****         5.3795  -0.8693  -2.8254 H              1 S1                 0.0000
     37 ****         6.3895  -0.9974  -1.3920 H              1 S1                 0.0000
     38 ****         4.8866  -0.0851  -1.3287 H              1 S1                 0.0000
     39 ****         5.2852  -3.4527  -3.0287 H              1 S1                 0.0000
     40 ****         4.7012  -4.4235  -1.6819 H              1 S1                 0.0000
     41 ****         6.2770  -3.6468  -1.5901 H              1 S1                 0.0000
     42 ****        -2.6782  -0.0892   1.6587 H              1 S1                 0.0000
     43 ****        -3.9702   0.3359   3.5858 H              1 S1                 0.0000
     44 ****        -5.3085   1.4627   3.3760 H              1 S1                 0.0000
     45 ****        -3.8168   1.9924   4.1686 H              1 S1                 0.0000
     46 ****        -1.9635   3.5625  -2.3224 LP             1 S1                 0.0000
     47 ****         0.1790   0.7545   0.8133 LP             1 S1                 0.0000
     48 ****         1.5564  -0.0908   1.0479 LP             1 S1                 0.0000
     49 ****         1.8959  -2.3947   1.8774 LP             1 S1                 0.0000
     50 ****         3.5305  -2.5008   2.4404 LP             1 S1                 0.0000
     51 ****         5.3704  -2.4529   0.7156 LP             1 S1                 0.0000
     52 ****         1.6927  -2.0054  -2.9526 LP             1 S1                 0.0000
     53 ****         3.3031  -2.0214  -3.5900 LP             1 S1                 0.0000
@<TRIPOS>BOND
    1    1    2 1     
    2    1   25 1     
    3    1   26 1     
    4    1   27 1     
    5    2   23 ar    
    6    2    3 ar    
    7    3    4 ar    
    8    3   28 1     
    9    4   21 ar    
   10    4    5 1     
   11    5    6 2     
   12    6    7 1     
   13    6   29 1     
   14    7    8 1     
   15    7   21 1     
   16    8    9 1     
   17    8   30 1     
   18    8   31 1     
   19    9   10 1     
   20    9   11 1     
   21    9   32 1     
   22   10   33 1     
   23   11   12 1     
   24   11   34 1     
   25   11   35 1     
   26   12   19 am    
   27   12   13 am    
   28   13   14 2     
   29   13   15 1     
   30   15   16 1     
   31   16   17 1     
   32   16   18 1     
   33   16   19 1     
   34   17   36 1     
   35   17   37 1     
   36   17   38 1     
   37   18   39 1     
   38   18   40 1     
   39   18   41 1     
   40   19   20 2     
   41   21   22 ar    
   42   22   23 ar    
   43   22   42 1     
   44   23   24 1     
   45   24   43 1     
   46   24   44 1     
   47   24   45 1     
   48    5   46 1     
   49   10   47 1     
   50   10   48 1     
   51   14   49 1     
   52   14   50 1     
   53   15   51 1     
   54   20   52 1     
   55   20   53 1     
@<TRIPOS>SUBSTRUCTURE
      1 S1             1
@<TRIPOS>SET
LONE_PAIRS      STATIC     ATOMS    <user>   **** ""
8 46 47 48 49 50 51 52 53
DONOR_HYDROGENS      STATIC     ATOMS    <user>   **** ""
1 33
ATOM$BLUE        STATIC     ATOMS    COLORGROUP SYSTEM
8 46 47 48 49 50 51 52 53
ATOM$RED        STATIC     ATOMS    COLORGROUP SYSTEM
1 33
