AV-unprocessed.smi:2087|AV-procd|sdf|8524|dock3
  -GOLD-   2272011243D 1   1.00000     0.00000
 Structure written by MMmdl.
 50 51  0  0  0  0  0  0  0  0  1 V2000
  150.4191  144.5556  159.6327 C   0  0  0  0  0  0  0  0  0  0  0  0
  151.8852  144.1135  159.7478 C   0  0  0  0  0  0  0  0  0  0  0  0
  152.7398  144.8010  158.6704 C   0  0  0  0  0  0  0  0  0  0  0  0
  151.9913  142.5752  159.6696 C   0  0  0  0  0  0  0  0  0  0  0  0
  151.0276  141.9130  158.7889 N   0  0  0  0  0  0  0  0  0  0  0  0
  151.0373  142.4504  157.4301 C   0  0  0  0  0  0  0  0  0  0  0  0
  150.0280  141.7276  156.5216 C   0  0  0  0  0  0  0  0  0  0  0  0
  150.2939  140.3292  156.5199 O   0  0  0  0  0  0  0  0  0  0  0  0
  150.2592  139.7512  157.8228 C   0  0  1  0  0  0  0  0  0  0  0  0
  150.5000  138.2330  157.7148 C   0  0  0  0  0  0  0  0  0  0  0  0
  149.2587  137.4706  157.6101 N   0  0  0  0  0  0  0  0  0  0  0  0
  149.1497  136.1428  157.7672 C   0  0  0  0  0  0  0  0  0  0  0  0
  150.1081  135.4109  158.0190 O   0  0  0  0  0  0  0  0  0  0  0  0
  147.7332  135.5652  157.6413 C   0  0  0  0  0  0  0  0  0  0  0  0
  147.1499  135.1857  158.9346 N   0  0  0  0  0  0  0  0  0  0  0  0
  146.5429  133.9512  159.0770 C   0  0  0  0  0  0  0  0  0  0  0  0
  145.9724  133.5301  160.2270 C   0  0  0  0  0  0  0  0  0  0  0  0
  145.9652  134.3762  161.4146 C   0  0  0  0  0  0  0  0  0  0  0  0
  145.4576  134.0278  162.4812 O   0  0  0  0  0  0  0  0  0  0  0  0
  146.5917  135.6343  161.2401 N   0  0  0  0  0  0  0  0  0  0  0  0
  146.6434  136.5606  162.3522 C   0  0  0  0  0  0  0  0  0  0  0  0
  147.1847  136.0690  160.0346 C   0  0  0  0  0  0  0  0  0  0  0  0
  147.7155  137.1784  159.9359 O   0  0  0  0  0  0  0  0  0  0  0  0
  151.2768  140.4772  158.7288 C   0  0  0  0  0  0  0  0  0  0  0  0
  149.9915  144.2659  158.6721 H   0  0  0  0  0  0  0  0  0  0  0  0
  150.3261  145.6381  159.7250 H   0  0  0  0  0  0  0  0  0  0  0  0
  149.8096  144.1066  160.4176 H   0  0  0  0  0  0  0  0  0  0  0  0
  152.2356  144.4498  160.7231 H   0  0  0  0  0  0  0  0  0  0  0  0
  152.4325  144.4992  157.6688 H   0  0  0  0  0  0  0  0  0  0  0  0
  153.7955  144.5532  158.7833 H   0  0  0  0  0  0  0  0  0  0  0  0
  152.6530  145.8861  158.7330 H   0  0  0  0  0  0  0  0  0  0  0  0
  153.0022  142.2990  159.3654 H   0  0  0  0  0  0  0  0  0  0  0  0
  151.8715  142.1842  160.6810 H   0  0  0  0  0  0  0  0  0  0  0  0
  150.7939  143.5119  157.4377 H   0  0  0  0  0  0  0  0  0  0  0  0
  152.0373  142.3606  157.0030 H   0  0  0  0  0  0  0  0  0  0  0  0
  149.0068  141.9089  156.8601 H   0  0  0  0  0  0  0  0  0  0  0  0
  150.0988  142.1043  155.5010 H   0  0  0  0  0  0  0  0  0  0  0  0
  149.2575  139.8998  158.2301 H   0  0  0  0  0  0  0  0  0  0  0  0
  151.0895  138.0242  156.8219 H   0  0  0  0  0  0  0  0  0  0  0  0
  151.0979  137.8844  158.5586 H   0  0  0  0  0  0  0  0  0  0  0  0
  148.4189  137.9939  157.4089 H   0  0  0  0  0  0  0  0  0  0  0  0
  147.1041  136.3129  157.1563 H   0  0  0  0  0  0  0  0  0  0  0  0
  147.7425  134.7068  156.9672 H   0  0  0  0  0  0  0  0  0  0  0  0
  146.5185  133.2883  158.2243 H   0  0  0  0  0  0  0  0  0  0  0  0
  145.5138  132.5530  160.2685 H   0  0  0  0  0  0  0  0  0  0  0  0
  147.6970  136.7561  162.5605 H   0  0  0  0  0  0  0  0  0  0  0  0
  146.1634  136.1468  163.2383 H   0  0  0  0  0  0  0  0  0  0  0  0
  146.1236  137.4683  162.0407 H   0  0  0  0  0  0  0  0  0  0  0  0
  152.2898  140.2997  158.3645 H   0  0  0  0  0  0  0  0  0  0  0  0
  151.2287  140.0533  159.7326 H   0  0  0  0  0  0  0  0  0  0  0  0
  1  2  1  0  0  0  0
  1 25  1  0  0  0  0
  1 26  1  0  0  0  0
  1 27  1  0  0  0  0
  2  3  1  0  0  0  0
  2  4  1  0  0  0  0
  2 28  1  0  0  0  0
  3 29  1  0  0  0  0
  3 30  1  0  0  0  0
  3 31  1  0  0  0  0
  4  5  1  0  0  0  0
  4 32  1  0  0  0  0
  4 33  1  0  0  0  0
  5 24  1  0  0  0  0
  5  6  1  0  0  0  0
  6  7  1  0  0  0  0
  6 34  1  0  0  0  0
  6 35  1  0  0  0  0
  7  8  1  0  0  0  0
  7 36  1  0  0  0  0
  7 37  1  0  0  0  0
  8  9  1  0  0  0  0
  9 10  1  0  0  0  0
  9 24  1  0  0  0  0
  9 38  1  0  0  0  0
 10 11  1  0  0  0  0
 10 39  1  0  0  0  0
 10 40  1  0  0  0  0
 11 12  1  0  0  0  0
 11 41  1  0  0  0  0
 12 13  2  0  0  0  0
 12 14  1  0  0  0  0
 14 15  1  0  0  0  0
 14 42  1  0  0  0  0
 14 43  1  0  0  0  0
 15 22  1  0  0  0  0
 15 16  1  0  0  0  0
 16 17  2  0  0  0  0
 16 44  1  0  0  0  0
 17 18  1  0  0  0  0
 17 45  1  0  0  0  0
 18 19  2  0  0  0  0
 18 20  1  0  0  0  0
 20 21  1  0  0  0  0
 20 22  1  0  0  0  0
 21 46  1  0  0  0  0
 21 47  1  0  0  0  0
 21 48  1  0  0  0  0
 22 23  2  0  0  0  0
 24 49  1  0  0  0  0
 24 50  1  0  0  0  0
M  END
> <s_m_source_file>
AV-unprocessed.smi

> <i_m_source_file_index>
2087

> <i_lp_mmshare_version>
43012

> <i_f3d_flags>
0

> <s_epik_input>
W0NIM11bQ0hdKFtDSDNdKVtDSDJdTjFbQ0gyXVtDSDJdT1tDQEhdKFtDSDJdMSlbQ0gyXVtOSF1DKD1PKVtDSDJdbjJbY0hdW2NIXWMoPU8pbihbQ0gzXSljMj1P

> <s_epik_cmdline>
J2VwaWtfcHl0aG9uJywgJy1waCcsICc3LjAnLCAnLXRuJywgJzgnLCAnLW1hJywgJzIwMCcsICctbWV0YWxfYmluZGluZycsICctaW1hZScsICc8aW5maWxlLm1hZT4nLCAnLW9tYWUnLCAnPG91dGZpbGUubWFlPic=

> <r_lp_tautomer_probability>
1

> <r_epik_Ionization_Penalty>
1.11669

> <r_epik_Ionization_Penalty_Charging>
1.16423e-08

> <r_epik_Ionization_Penalty_Neutral>
1.11669

> <r_epik_State_Penalty>
1.17516

> <r_epik_Charging_Adjusted_Penalty>
1.17516

> <i_epik_Tot_Q>
0

> <i_epik_Tot_abs_Q>
0

> <r_epik_Metal_State_Penalty>
1.17513

> <b_epik_Metal_Only>
0

> <s_lp_Force_Field>
OPLS_2005

> <r_lp_Energy>
34.2639

> <b_lp_Chiralities_Consistent>
1

> <s_lp_Variant>
AV-unprocessed.smi:2087-5

> <Gold.Version>
5.8.1

> <Gold.Id.Protein>
6NUR|6NUR_protein|mol2

> <Gold.PLP.Fitness>
49.0440

> <Gold.PLP.PLP>
-44.2972

> <Gold.PLP.part.hbond>
-4.0000

> <Gold.PLP.part.metal>
0.0000

> <Gold.PLP.part.buried>
-6.3610

> <Gold.PLP.part.nonpolar>
-35.5332

> <Gold.PLP.part.repulsive>
0.1444

> <Gold.PLP.ligand.clash>
0.0000

> <Gold.PLP.ligand.torsion>
1.1609

> <Gold.PLP.Chemscore.Hbond>
2.3040

> <Gold.PLP.Chemscore.CHOScore>
0.0000

> <Gold.PLP.Chemscore.Metal>
0.0000

> <Gold.Chemscore.Hbonds>
donor molecule, donor type, donor heavy atom, donor atom, acceptor molecule, acceptor atom, score
      P1  H  6896  6907       L1    13  0.83
      P1  H  6934  6947       L1    23  0.59

> <Gold.PLP.Chemscore.Internal.Correction>
0.1566

> <Gold.Rescore>
     Score         DG    S(hbond)    S(metal)    S(lipo)     H(rot)  DE(clash)    DE(int)     intcor
     14.12     -19.50       2.52        0.00      95.18       2.16       1.80       3.58       ----

> <Gold.Chemscore.Fitness>
14.1244

> <Gold.Chemscore.DG>
-19.5018

> <Gold.Chemscore.ZeroCoef>
-5.4800

> <Gold.Chemscore.Hbond>
2.5225

> <Gold.Chemscore.Metal>
0.0000

> <Gold.Chemscore.Lipo>
95.1783

> <Gold.Chemscore.Internal_Hbond>
0.0000

> <Gold.Chemscore.DEClash>
1.7960

> <Gold.Chemscore.DEInternal>
3.5814

> <Gold.Chemscore.Rot>
2.1638

> <Gold.Chemscore.Internal.Correction>
   9.000000E+99

> <Gold.Chemscore.Hbonds>
donor molecule, donor type, donor heavy atom, donor atom, acceptor molecule, acceptor atom, score
      P1  H  6896  6907       L1    13  0.83
      P1  H  6934  6947       L1    23  0.57

> <Gold.Chemscore.Hbond.Weighted>
-8.4252

> <Gold.Chemscore.Metal.Weighted>
-0.0000

> <Gold.Chemscore.Lipo.Weighted>
-11.1359

> <Gold.Chemscore.Internal_Hbond.Weighted>
0.0000

> <Gold.Chemscore.DEClash.Weighted>
1.7960

> <Gold.Chemscore.DEInternal.Weighted>
3.5814

> <Gold.Chemscore.Rot.Weighted>
5.5393

> <Gold.Chemscore.Internal.Correction.Weighted>
   9.000000E+99

> <Gold.Protein.RotatedTorsions>
[ 6907 6896 6895 6894 ] final  -74.52 input  -60.11 | X-H torsion
[ 7974 7965 7964 7962 ] final  -76.36 input  175.53 | X-H torsion
[ 8008 7997 7996 7995 ] final  -15.06 input   59.86 | X-H torsion
[ 10167 10162 10161 10158 ] final  113.42 input  -65.29 | X-H torsion
[ 10718 10713 10712 10709 ] final  114.49 input   66.30 | X-H torsion
[ 10763 10752 10751 10750 ] final -135.74 input  -60.55 | X-H torsion
[ 11005 11000 10999 10996 ] final  119.76 input  -57.11 | X-H torsion

> <Gold.Protein.ActiveResidues>
 VAL166  LYS551  ARG553  GLY616  TRP617  ASP618  TYR619  PRO620  LYS621  CYS622 
 ASP623  PHE694  ASN695  SER759  ASP760  ASP761  ALA762  ILE779  LEU786  VAL792 
 PHE793  MET794  SER795  GLU796  ALA797  LYS798  CYS799  TRP800  GLU811  SER814 

> <Gold.Protein.RotatedAtoms>
  150.7090  134.4857  159.5491 H   0  0  0  0  0  0  0  0  0  0  0  0  # atno 6907 bound_to 6896
  152.2485  134.8154  160.0458 H   0  0  0  0  0  0  0  0  0  0  0  0  # atno 6908 bound_to 6896
  151.8910  133.3481  159.3835 H   0  0  0  0  0  0  0  0  0  0  0  0  # atno 6909 bound_to 6896
  145.6138  140.9380  143.1175 H   0  0  0  0  0  0  0  0  0  0  0  0  # atno 7974 bound_to 7965
  154.5160  140.2206  155.9065 H   0  0  0  0  0  0  0  0  0  0  0  0  # atno 8008 bound_to 7997
  156.1608  140.3142  155.8770 H   0  0  0  0  0  0  0  0  0  0  0  0  # atno 8009 bound_to 7997
  155.3755  140.0469  157.3035 H   0  0  0  0  0  0  0  0  0  0  0  0  # atno 8010 bound_to 7997
  139.6463  144.7126  151.2137 H   0  0  0  0  0  0  0  0  0  0  0  0  # atno 10167 bound_to 10162
  157.6278  131.0999  150.7193 H   0  0  0  0  0  0  0  0  0  0  0  0  # atno 10718 bound_to 10713
  154.8697  135.3694  154.4948 H   0  0  0  0  0  0  0  0  0  0  0  0  # atno 10763 bound_to 10752
  153.5592  135.7023  153.5560 H   0  0  0  0  0  0  0  0  0  0  0  0  # atno 10764 bound_to 10752
  153.3643  135.4038  155.1705 H   0  0  0  0  0  0  0  0  0  0  0  0  # atno 10765 bound_to 10752
  139.9159  134.9630  156.7703 H   0  0  0  0  0  0  0  0  0  0  0  0  # atno 11005 bound_to 11000
  144.7259  139.7878  143.7365 LP  0  0  0  0  0  0  0  0  0  0  0  0  # atno 17320 bound_to 7965
  146.1484  139.4559  143.0064 LP  0  0  0  0  0  0  0  0  0  0  0  0  # atno 17321 bound_to 7965
  140.7516  143.6226  150.8499 LP  0  0  0  0  0  0  0  0  0  0  0  0  # atno 17342 bound_to 10162
  139.9869  143.5889  152.2924 LP  0  0  0  0  0  0  0  0  0  0  0  0  # atno 17343 bound_to 10162
  156.7538  130.4777  149.5451 LP  0  0  0  0  0  0  0  0  0  0  0  0  # atno 17370 bound_to 10713
  156.1461  130.6278  151.0533 LP  0  0  0  0  0  0  0  0  0  0  0  0  # atno 17371 bound_to 10713
  140.6626  133.9631  155.7813 LP  0  0  0  0  0  0  0  0  0  0  0  0  # atno 17394 bound_to 11000
  141.0633  134.0314  157.3629 LP  0  0  0  0  0  0  0  0  0  0  0  0  # atno 17395 bound_to 11000

$$$$
