AV-unprocessed.smi:867|AV-procd|sdf|3994|dock1
  -GOLD-   22720 1473D 1   1.00000     0.00000
 Structure written by MMmdl.
 53 56  0  0  0  0  0  0  0  0  2 V2000
  148.5418  138.2748  156.0778 O   0  0  0  0  0  0  0  0  0  0  0  0
  148.2835  139.1107  156.9444 C   0  0  0  0  0  0  0  0  0  0  0  0
  147.8390  138.7682  158.1665 N   0  0  0  0  0  0  0  0  0  0  0  0
  147.5927  137.4065  158.6353 C   0  0  0  0  0  0  0  0  0  0  0  0
  148.6550  136.9396  159.6484 C   0  0  0  0  0  0  0  0  0  0  0  0
  148.1133  135.9902  160.7027 C   0  0  0  0  0  0  0  0  0  0  0  0
  148.0223  136.3810  162.0547 C   0  0  0  0  0  0  0  0  0  0  0  0
  147.4892  135.4729  162.9890 C   0  0  0  0  0  0  0  0  0  0  0  0
  147.0728  134.2071  162.5307 C   0  0  0  0  0  0  0  0  0  0  0  0
  147.1583  133.8207  161.2397 N   0  0  0  0  0  0  0  0  0  0  0  0
  147.6692  134.6981  160.3498 C   0  0  0  0  0  0  0  0  0  0  0  0
  148.3352  140.4467  156.7201 N   0  0  0  0  0  0  0  0  0  0  0  0
  148.0807  141.4966  157.7150 C   0  0  0  0  0  0  0  0  0  0  0  0
  149.4248  142.1121  158.1460 C   0  0  0  0  0  0  0  0  0  0  0  0
  150.1962  142.6304  156.9793 N   0  3  0  0  0  0  0  0  0  0  0  0
  151.4993  143.2368  157.3778 C   0  0  2  0  0  0  0  0  0  0  0  0
  152.2365  142.4799  158.5102 C   0  0  0  0  0  0  0  0  0  0  0  0
  152.5912  143.5994  159.5075 C   0  0  2  0  0  0  0  0  0  0  0  0
  151.3200  144.0010  160.2746 C   0  0  0  0  0  0  0  0  0  0  0  0
  150.4973  144.7303  159.1977 C   0  0  0  0  0  0  0  0  0  0  0  0
  151.4167  144.6713  157.9580 C   0  0  1  0  0  0  0  0  0  0  0  0
  152.7954  144.8037  158.5963 C   0  0  0  0  0  0  0  0  0  0  0  0
  150.3267  141.6121  155.8977 C   0  0  0  0  0  0  0  0  0  0  0  0
  148.9623  141.0077  155.5218 C   0  0  0  0  0  0  0  0  0  0  0  0
  147.6203  139.5127  158.8121 H   0  0  0  0  0  0  0  0  0  0  0  0
  146.5959  137.3217  159.0712 H   0  0  0  0  0  0  0  0  0  0  0  0
  147.6002  136.7438  157.7697 H   0  0  0  0  0  0  0  0  0  0  0  0
  149.4710  136.4450  159.1208 H   0  0  0  0  0  0  0  0  0  0  0  0
  149.0960  137.8065  160.1422 H   0  0  0  0  0  0  0  0  0  0  0  0
  148.3457  137.3618  162.3707 H   0  0  0  0  0  0  0  0  0  0  0  0
  147.4009  135.7396  164.0315 H   0  0  0  0  0  0  0  0  0  0  0  0
  146.6595  133.4857  163.2198 H   0  0  0  0  0  0  0  0  0  0  0  0
  147.7171  134.3629  159.3242 H   0  0  0  0  0  0  0  0  0  0  0  0
  147.4443  142.2629  157.2696 H   0  0  0  0  0  0  0  0  0  0  0  0
  147.5429  141.1473  158.5964 H   0  0  0  0  0  0  0  0  0  0  0  0
  149.2319  142.9083  158.8642 H   0  0  0  0  0  0  0  0  0  0  0  0
  150.0216  141.3605  158.6655 H   0  0  0  0  0  0  0  0  0  0  0  0
  152.1398  143.2628  156.4940 H   0  0  0  0  0  0  0  0  0  0  0  0
  151.6286  141.7123  158.9901 H   0  0  0  0  0  0  0  0  0  0  0  0
  153.1354  141.9980  158.1237 H   0  0  0  0  0  0  0  0  0  0  0  0
  153.4347  143.3600  160.1558 H   0  0  0  0  0  0  0  0  0  0  0  0
  150.7941  143.1417  160.6929 H   0  0  0  0  0  0  0  0  0  0  0  0
  151.5605  144.6770  161.0964 H   0  0  0  0  0  0  0  0  0  0  0  0
  149.5261  144.2643  159.0316 H   0  0  0  0  0  0  0  0  0  0  0  0
  150.3183  145.7647  159.4941 H   0  0  0  0  0  0  0  0  0  0  0  0
  151.2002  145.4379  157.2133 H   0  0  0  0  0  0  0  0  0  0  0  0
  152.9334  145.7396  159.1411 H   0  0  0  0  0  0  0  0  0  0  0  0
  153.6177  144.6775  157.8896 H   0  0  0  0  0  0  0  0  0  0  0  0
  150.7641  142.0571  155.0047 H   0  0  0  0  0  0  0  0  0  0  0  0
  151.0050  140.8221  156.2243 H   0  0  0  0  0  0  0  0  0  0  0  0
  149.0841  140.2689  154.7279 H   0  0  0  0  0  0  0  0  0  0  0  0
  148.3131  141.7796  155.1058 H   0  0  0  0  0  0  0  0  0  0  0  0
  149.6441  143.3795  156.5869 H   0  0  0  0  0  0  0  0  0  0  0  0
  1  2  2  0  0  0  0
  2  3  1  0  0  0  0
  2 12  1  0  0  0  0
  3  4  1  0  0  0  0
  3 25  1  0  0  0  0
  4  5  1  0  0  0  0
  4 26  1  0  0  0  0
  4 27  1  0  0  0  0
  5  6  1  0  0  0  0
  5 28  1  0  0  0  0
  5 29  1  0  0  0  0
  6 11  1  0  0  0  0
  6  7  2  0  0  0  0
  7  8  1  0  0  0  0
  7 30  1  0  0  0  0
  8  9  2  0  0  0  0
  8 31  1  0  0  0  0
  9 10  1  0  0  0  0
  9 32  1  0  0  0  0
 10 11  2  0  0  0  0
 11 33  1  0  0  0  0
 12 24  1  0  0  0  0
 12 13  1  0  0  0  0
 13 14  1  0  0  0  0
 13 34  1  0  0  0  0
 13 35  1  0  0  0  0
 14 15  1  0  0  0  0
 14 36  1  0  0  0  0
 14 37  1  0  0  0  0
 15 16  1  0  0  0  0
 15 23  1  0  0  0  0
 15 53  1  0  0  0  0
 16 21  1  0  0  0  0
 16 17  1  0  0  0  0
 16 38  1  0  0  0  0
 17 18  1  0  0  0  0
 17 39  1  0  0  0  0
 17 40  1  0  0  0  0
 18 22  1  0  0  0  0
 18 19  1  0  0  0  0
 18 41  1  0  0  0  0
 19 20  1  0  0  0  0
 19 42  1  0  0  0  0
 19 43  1  0  0  0  0
 20 21  1  0  0  0  0
 20 44  1  0  0  0  0
 20 45  1  0  0  0  0
 21 22  1  0  0  0  0
 21 46  1  0  0  0  0
 22 47  1  0  0  0  0
 22 48  1  0  0  0  0
 23 24  1  0  0  0  0
 23 49  1  0  0  0  0
 23 50  1  0  0  0  0
 24 51  1  0  0  0  0
 24 52  1  0  0  0  0
M  CHG  1  15   1
M  END
> <s_m_source_file>
AV-unprocessed.smi

> <i_m_source_file_index>
867

> <i_lp_mmshare_version>
43012

> <i_f3d_flags>
0

> <s_epik_input>
W0NIMl0xW0NIMl1bQ0BASF0oW0NIMl0yKVtDQEBIXShbQ0gyXVtDQEhdMTIpTihbQ0gyXVtDSDJdMylbQ0gyXVtDSDJdTjNDKD1PKVtOSF1bQ0gyXVtDSDJdYzRbY0hdW2NIXVtjSF1uW2NIXTQ=

> <s_epik_cmdline>
J2VwaWtfcHl0aG9uJywgJy1waCcsICc3LjAnLCAnLXRuJywgJzgnLCAnLW1hJywgJzIwMCcsICctbWV0YWxfYmluZGluZycsICctaW1hZScsICc8aW5maWxlLm1hZT4nLCAnLW9tYWUnLCAnPG91dGZpbGUubWFlPic=

> <r_epik_Ionization_Penalty>
0.0161279

> <r_epik_Ionization_Penalty_Charging>
0.00262064

> <r_epik_Ionization_Penalty_Neutral>
0.0135072

> <r_epik_State_Penalty>
0.0104914

> <r_epik_Charging_Adjusted_Penalty>
0.013112

> <i_epik_Tot_Q>
1

> <i_epik_Tot_abs_Q>
1

> <r_epik_Metal_State_Penalty>
0.0102536

> <b_epik_Metal_Only>
0

> <s_lp_Force_Field>
OPLS_2005

> <r_lp_Energy>
96.6143

> <b_lp_Chiralities_Consistent>
1

> <s_lp_Variant>
AV-unprocessed.smi:867-1

> <Gold.Version>
5.8.1

> <Gold.Id.Protein>
6NUR|6NUR_protein|mol2

> <Gold.PLP.Fitness>
53.2400

> <Gold.PLP.PLP>
-48.8905

> <Gold.PLP.part.hbond>
-1.0000

> <Gold.PLP.part.metal>
0.0000

> <Gold.PLP.part.buried>
-7.1760

> <Gold.PLP.part.nonpolar>
-40.9029

> <Gold.PLP.part.repulsive>
0.1822

> <Gold.PLP.ligand.clash>
0.0000

> <Gold.PLP.ligand.torsion>
0.8953

> <Gold.PLP.Chemscore.Hbond>
2.0000

> <Gold.PLP.Chemscore.CHOScore>
0.0000

> <Gold.PLP.Chemscore.Metal>
0.0000

> <Gold.Chemscore.Hbonds>
donor molecule, donor type, donor heavy atom, donor atom, acceptor molecule, acceptor atom, score
      L1  H    15    53       P1  8028  2.00

> <Gold.PLP.Chemscore.Internal.Correction>
0.1401

> <Gold.Rescore>
     Score         DG    S(hbond)    S(metal)    S(lipo)     H(rot)  DE(clash)    DE(int)     intcor
     21.12     -22.44       1.00        0.00     146.43       1.37       0.14       1.18       ----

> <Gold.Chemscore.Fitness>
21.1218

> <Gold.Chemscore.DG>
-22.4373

> <Gold.Chemscore.ZeroCoef>
-5.4800

> <Gold.Chemscore.Hbond>
1.0000

> <Gold.Chemscore.Metal>
0.0000

> <Gold.Chemscore.Lipo>
146.4313

> <Gold.Chemscore.Internal_Hbond>
0.0000

> <Gold.Chemscore.DEClash>
0.1403

> <Gold.Chemscore.DEInternal>
1.1752

> <Gold.Chemscore.Rot>
1.3731

> <Gold.Chemscore.Internal.Correction>
   9.000000E+99

> <Gold.Chemscore.Hbonds>
donor molecule, donor type, donor heavy atom, donor atom, acceptor molecule, acceptor atom, score
      L1  H    15    53       P1  8028  1.00

> <Gold.Chemscore.Hbond.Weighted>
-3.3400

> <Gold.Chemscore.Metal.Weighted>
-0.0000

> <Gold.Chemscore.Lipo.Weighted>
-17.1325

> <Gold.Chemscore.Internal_Hbond.Weighted>
0.0000

> <Gold.Chemscore.DEClash.Weighted>
0.1403

> <Gold.Chemscore.DEInternal.Weighted>
1.1752

> <Gold.Chemscore.Rot.Weighted>
3.5152

> <Gold.Chemscore.Internal.Correction.Weighted>
   9.000000E+99

> <Gold.Protein.RotatedTorsions>
[ 6907 6896 6895 6894 ] final  146.77 input  -60.11 | X-H torsion
[ 7974 7965 7964 7962 ] final  110.47 input  175.53 | X-H torsion
[ 8008 7997 7996 7995 ] final   78.79 input   59.86 | X-H torsion
[ 10167 10162 10161 10158 ] final  -84.34 input  -65.29 | X-H torsion
[ 10718 10713 10712 10709 ] final   51.44 input   66.30 | X-H torsion
[ 10763 10752 10751 10750 ] final -129.62 input  -60.55 | X-H torsion
[ 11005 11000 10999 10996 ] final -110.42 input  -57.11 | X-H torsion

> <Gold.Protein.ActiveResidues>
 VAL166  LYS551  ARG553  GLY616  TRP617  ASP618  TYR619  PRO620  LYS621  CYS622 
 ASP623  PHE694  ASN695  SER759  ASP760  ASP761  ALA762  ILE779  LEU786  VAL792 
 PHE793  MET794  SER795  GLU796  ALA797  LYS798  CYS799  TRP800  GLU811  SER814 

> <Gold.Protein.RotatedAtoms>
  152.1636  133.4598  159.4873 H   0  0  0  0  0  0  0  0  0  0  0  0  # atno 6907 bound_to 6896
  150.6910  134.2041  159.4342 H   0  0  0  0  0  0  0  0  0  0  0  0  # atno 6908 bound_to 6896
  151.9944  134.9961  160.0613 H   0  0  0  0  0  0  0  0  0  0  0  0  # atno 6909 bound_to 6896
  145.2546  139.2726  143.4049 H   0  0  0  0  0  0  0  0  0  0  0  0  # atno 7974 bound_to 7965
  155.8607  140.3454  155.5754 H   0  0  0  0  0  0  0  0  0  0  0  0  # atno 8008 bound_to 7997
  155.7936  140.0875  157.2015 H   0  0  0  0  0  0  0  0  0  0  0  0  # atno 8009 bound_to 7997
  154.4011  140.1478  156.3179 H   0  0  0  0  0  0  0  0  0  0  0  0  # atno 8010 bound_to 7997
  140.4142  143.2610  151.8977 H   0  0  0  0  0  0  0  0  0  0  0  0  # atno 10167 bound_to 10162
  157.4981  130.8419  149.8283 H   0  0  0  0  0  0  0  0  0  0  0  0  # atno 10718 bound_to 10713
  154.8757  135.3889  154.3949 H   0  0  0  0  0  0  0  0  0  0  0  0  # atno 10763 bound_to 10752
  153.4681  135.7029  153.6015 H   0  0  0  0  0  0  0  0  0  0  0  0  # atno 10764 bound_to 10752
  153.4484  135.3839  155.2238 H   0  0  0  0  0  0  0  0  0  0  0  0  # atno 10765 bound_to 10752
  141.0793  133.9248  157.2324 H   0  0  0  0  0  0  0  0  0  0  0  0  # atno 11005 bound_to 11000
  146.3293  140.2946  142.8617 LP  0  0  0  0  0  0  0  0  0  0  0  0  # atno 17320 bound_to 7965
  144.9473  140.8141  143.5594 LP  0  0  0  0  0  0  0  0  0  0  0  0  # atno 17321 bound_to 7965
  139.4782  144.5506  151.8392 LP  0  0  0  0  0  0  0  0  0  0  0  0  # atno 17342 bound_to 10162
  140.4605  144.1728  150.5906 LP  0  0  0  0  0  0  0  0  0  0  0  0  # atno 17343 bound_to 10162
  156.0212  130.3795  150.1955 LP  0  0  0  0  0  0  0  0  0  0  0  0  # atno 17370 bound_to 10713
  157.0145  130.9961  151.3357 LP  0  0  0  0  0  0  0  0  0  0  0  0  # atno 17371 bound_to 10713
  139.9606  135.0155  156.9249 LP  0  0  0  0  0  0  0  0  0  0  0  0  # atno 17394 bound_to 11000
  140.5505  134.0632  155.7367 LP  0  0  0  0  0  0  0  0  0  0  0  0  # atno 17395 bound_to 11000

$$$$
