AV-unprocessed.smi:21|AV-procd|sdf|153|dock5
  -GOLD-   2262015373D 1   1.00000     0.00000
 Structure written by MMmdl.
 61 64  0  0  0  0  0  0  0  0  1 V2000
  151.2247  132.8659  155.0280 C   0  0  0  0  0  0  0  0  0  0  0  0
  151.0253  132.0337  156.1596 O   0  0  0  0  0  0  0  0  0  0  0  0
  152.2216  131.4330  156.6366 C   0  0  1  0  0  0  0  0  0  0  0  0
  153.3182  132.4760  156.9133 C   0  0  0  0  0  0  0  0  0  0  0  0
  153.8065  132.1381  158.3261 C   0  0  1  0  0  0  0  0  0  0  0  0
  154.4967  133.3241  159.0331 C   0  0  0  0  0  0  0  0  0  0  0  0
  155.5046  133.9780  158.1981 N   0  0  0  0  0  0  0  0  0  0  0  0
  156.8451  133.3969  158.1743 C   0  0  0  0  0  0  0  0  0  0  0  0
  155.4111  135.3312  158.1078 C   0  0  0  0  0  0  0  0  0  0  0  0
  156.1721  135.9980  157.1982 N   0  0  0  0  0  0  0  0  0  0  0  0
  156.0996  137.3280  157.0987 C   0  0  0  0  0  0  0  0  0  0  0  0
  155.3405  138.1756  157.7941 N   0  0  0  0  0  0  0  0  0  0  0  0
  154.5634  137.5175  158.7001 C   0  0  0  0  0  0  0  0  0  0  0  0
  154.5415  136.1106  158.9243 C   0  0  0  0  0  0  0  0  0  0  0  0
  153.6269  135.8104  159.9258 N   0  0  0  0  0  0  0  0  0  0  0  0
  153.1464  136.9693  160.2810 C   0  0  0  0  0  0  0  0  0  0  0  0
  153.6379  138.0493  159.5828 N   0  0  0  0  0  0  0  0  0  0  0  0
  153.2641  139.4444  159.7728 C   0  0  0  0  0  0  0  0  0  0  0  0
  154.4376  140.3751  160.1886 C   0  0  2  0  0  0  0  0  0  0  0  0
  155.2759  139.7881  161.3494 C   0  0  0  0  0  0  0  0  0  0  0  0
  156.4196  140.5786  161.5999 O   0  0  0  0  0  0  0  0  0  0  0  0
  153.9599  141.8150  160.5117 C   0  0  2  0  0  0  0  0  0  0  0  0
  153.0507  141.9237  161.7253 C   0  0  0  0  0  0  0  0  0  0  0  0
  152.4076  143.2910  161.5257 C   0  0  0  0  0  0  0  0  0  0  0  0
  152.3045  143.4621  160.1171 O   0  0  0  0  0  0  0  0  0  0  0  0
  153.0557  142.4528  159.4503 C   0  0  0  0  0  0  0  0  0  0  0  0
  152.6164  131.6427  158.9974 N   0  0  0  0  0  0  0  0  0  0  0  0
  152.8897  130.9332  160.2401 C   0  0  0  0  0  0  0  0  0  0  0  0
  151.9745  130.7924  158.0095 C   0  0  0  0  0  0  0  0  0  0  0  0
  152.5679  130.6658  155.9417 H   0  0  0  0  0  0  0  0  0  0  0  0
  154.5143  131.3121  158.2433 H   0  0  0  0  0  0  0  0  0  0  0  0
  150.2698  133.2839  154.7096 H   0  0  0  0  0  0  0  0  0  0  0  0
  151.6379  132.3006  154.1917 H   0  0  0  0  0  0  0  0  0  0  0  0
  151.8940  133.6972  155.2519 H   0  0  0  0  0  0  0  0  0  0  0  0
  154.1199  132.4500  156.1747 H   0  0  0  0  0  0  0  0  0  0  0  0
  152.8841  133.4755  156.9022 H   0  0  0  0  0  0  0  0  0  0  0  0
  153.7421  134.0299  159.3805 H   0  0  0  0  0  0  0  0  0  0  0  0
  155.0041  132.9717  159.9313 H   0  0  0  0  0  0  0  0  0  0  0  0
  157.4653  133.8712  157.4124 H   0  0  0  0  0  0  0  0  0  0  0  0
  156.8070  132.3333  157.9421 H   0  0  0  0  0  0  0  0  0  0  0  0
  157.3333  133.5161  159.1422 H   0  0  0  0  0  0  0  0  0  0  0  0
  156.7409  137.7771  156.3547 H   0  0  0  0  0  0  0  0  0  0  0  0
  152.4059  137.0668  161.0615 H   0  0  0  0  0  0  0  0  0  0  0  0
  152.8289  139.7999  158.8382 H   0  0  0  0  0  0  0  0  0  0  0  0
  152.4542  139.4905  160.5005 H   0  0  0  0  0  0  0  0  0  0  0  0
  155.1010  140.4487  159.3254 H   0  0  0  0  0  0  0  0  0  0  0  0
  154.6987  139.7648  162.2733 H   0  0  0  0  0  0  0  0  0  0  0  0
  155.5777  138.7609  161.1449 H   0  0  0  0  0  0  0  0  0  0  0  0
  156.3545  141.3715  161.0897 H   0  0  0  0  0  0  0  0  0  0  0  0
  154.8227  142.4667  160.6559 H   0  0  0  0  0  0  0  0  0  0  0  0
  152.2860  141.1459  161.6991 H   0  0  0  0  0  0  0  0  0  0  0  0
  153.5733  141.8489  162.6778 H   0  0  0  0  0  0  0  0  0  0  0  0
  151.4344  143.3696  162.0103 H   0  0  0  0  0  0  0  0  0  0  0  0
  153.0514  144.0760  161.9251 H   0  0  0  0  0  0  0  0  0  0  0  0
  153.6198  142.8761  158.6190 H   0  0  0  0  0  0  0  0  0  0  0  0
  152.3568  141.7192  159.0457 H   0  0  0  0  0  0  0  0  0  0  0  0
  151.9668  130.5409  160.6683 H   0  0  0  0  0  0  0  0  0  0  0  0
  153.3377  131.5964  160.9797 H   0  0  0  0  0  0  0  0  0  0  0  0
  153.5699  130.0958  160.0774 H   0  0  0  0  0  0  0  0  0  0  0  0
  150.9141  130.6609  158.2278 H   0  0  0  0  0  0  0  0  0  0  0  0
  152.4333  129.8023  158.0186 H   0  0  0  0  0  0  0  0  0  0  0  0
  1  2  1  0  0  0  0
  1 32  1  0  0  0  0
  1 33  1  0  0  0  0
  1 34  1  0  0  0  0
  2  3  1  0  0  0  0
  3 30  1  0  0  0  0
  3 29  1  0  0  0  0
  3  4  1  0  0  0  0
  4  5  1  0  0  0  0
  4 35  1  0  0  0  0
  4 36  1  0  0  0  0
  5 31  1  0  0  0  0
  5  6  1  0  0  0  0
  5 27  1  0  0  0  0
  6  7  1  0  0  0  0
  6 37  1  0  0  0  0
  6 38  1  0  0  0  0
  7  8  1  0  0  0  0
  7  9  1  0  0  0  0
  8 39  1  0  0  0  0
  8 40  1  0  0  0  0
  8 41  1  0  0  0  0
  9 14  1  0  0  0  0
  9 10  2  0  0  0  0
 10 11  1  0  0  0  0
 11 12  2  0  0  0  0
 11 42  1  0  0  0  0
 12 13  1  0  0  0  0
 13 17  1  0  0  0  0
 13 14  2  0  0  0  0
 14 15  1  0  0  0  0
 15 16  2  0  0  0  0
 16 17  1  0  0  0  0
 16 43  1  0  0  0  0
 17 18  1  0  0  0  0
 18 19  1  0  0  0  0
 18 44  1  0  0  0  0
 18 45  1  0  0  0  0
 19 20  1  0  0  0  0
 19 22  1  0  0  0  0
 19 46  1  0  0  0  0
 20 21  1  0  0  0  0
 20 47  1  0  0  0  0
 20 48  1  0  0  0  0
 21 49  1  0  0  0  0
 22 26  1  0  0  0  0
 22 23  1  0  0  0  0
 22 50  1  0  0  0  0
 23 24  1  0  0  0  0
 23 51  1  0  0  0  0
 23 52  1  0  0  0  0
 24 25  1  0  0  0  0
 24 53  1  0  0  0  0
 24 54  1  0  0  0  0
 25 26  1  0  0  0  0
 26 55  1  0  0  0  0
 26 56  1  0  0  0  0
 27 28  1  0  0  0  0
 27 29  1  0  0  0  0
 28 57  1  0  0  0  0
 28 58  1  0  0  0  0
 28 59  1  0  0  0  0
 29 60  1  0  0  0  0
 29 61  1  0  0  0  0
M  END
> <s_m_source_file>
AV-unprocessed.smi

> <i_m_source_file_index>
21

> <i_lp_mmshare_version>
43012

> <i_f3d_flags>
0

> <s_epik_input>
W0NIM11PW0NASF0xW0NIMl1bQ0BIXShOKFtDSDNdKVtDSDJdMSlbQ0gyXU4oW0NIM10pYyhuW2NIXW4yKWMoYzIzKW5bY0hdbjNbQ0gyXVtDQEhdKFtDSDJdW09IXSlbQ0BASF00W0NIMl1bQ0gyXU9bQ0gyXTQ=

> <s_epik_cmdline>
J2VwaWtfcHl0aG9uJywgJy1waCcsICc3LjAnLCAnLXRuJywgJzgnLCAnLW1hJywgJzIwMCcsICctbWV0YWxfYmluZGluZycsICctaW1hZScsICc8aW5maWxlLm1hZT4nLCAnLW9tYWUnLCAnPG91dGZpbGUubWFlPic=

> <r_lp_tautomer_probability>
1

> <r_epik_Ionization_Penalty>
2.17574

> <r_epik_Ionization_Penalty_Charging>
0

> <r_epik_Ionization_Penalty_Neutral>
2.17574

> <r_epik_State_Penalty>
2.31336

> <r_epik_Charging_Adjusted_Penalty>
2.31336

> <i_epik_Tot_Q>
0

> <i_epik_Tot_abs_Q>
0

> <r_epik_Metal_State_Penalty>
2.31025

> <b_epik_Metal_Only>
0

> <s_lp_Force_Field>
OPLS_2005

> <r_lp_Energy>
70.2261

> <b_lp_Chiralities_Consistent>
1

> <s_lp_Variant>
AV-unprocessed.smi:21-33

> <Gold.Version>
5.8.1

> <Gold.Id.Protein>
6NUR|6NUR_protein|mol2

> <Gold.PLP.Fitness>
47.2100

> <Gold.PLP.PLP>
-37.9419

> <Gold.PLP.part.hbond>
-4.4840

> <Gold.PLP.part.metal>
0.0000

> <Gold.PLP.part.buried>
-4.2834

> <Gold.PLP.part.nonpolar>
-29.5061

> <Gold.PLP.part.repulsive>
0.0557

> <Gold.PLP.ligand.clash>
0.0000

> <Gold.PLP.ligand.torsion>
0.8077

> <Gold.PLP.Chemscore.Hbond>
3.3600

> <Gold.PLP.Chemscore.CHOScore>
0.0000

> <Gold.PLP.Chemscore.Metal>
0.0000

> <Gold.Chemscore.Hbonds>
donor molecule, donor type, donor heavy atom, donor atom, acceptor molecule, acceptor atom, score
      P1  H  6896  6907       L1    27  0.90
      P1  H  6896  6909       L1    15  1.00
      P1  H  7997  8009       L1    12  0.51

> <Gold.PLP.Chemscore.Internal.Correction>
0.8034

> <Gold.Rescore>
     Score         DG    S(hbond)    S(metal)    S(lipo)     H(rot)  DE(clash)    DE(int)     intcor
     10.35     -14.49       1.61        0.00      96.89       3.00       2.00       2.14       ----

> <Gold.Chemscore.Fitness>
10.3501

> <Gold.Chemscore.DG>
-14.4935

> <Gold.Chemscore.ZeroCoef>
-5.4800

> <Gold.Chemscore.Hbond>
1.6062

> <Gold.Chemscore.Metal>
0.0000

> <Gold.Chemscore.Lipo>
96.8947

> <Gold.Chemscore.Internal_Hbond>
0.0000

> <Gold.Chemscore.DEClash>
2.0049

> <Gold.Chemscore.DEInternal>
2.1386

> <Gold.Chemscore.Rot>
3.0031

> <Gold.Chemscore.Internal.Correction>
   9.000000E+99

> <Gold.Chemscore.Hbonds>
donor molecule, donor type, donor heavy atom, donor atom, acceptor molecule, acceptor atom, score
      P1  H  6896  6907       L1    27  0.12
      P1  H  6896  6909       L1    15  0.55
      P1  H  7997  8009       L1    12  0.51

> <Gold.Chemscore.Hbond.Weighted>
-5.3648

> <Gold.Chemscore.Metal.Weighted>
-0.0000

> <Gold.Chemscore.Lipo.Weighted>
-11.3367

> <Gold.Chemscore.Internal_Hbond.Weighted>
0.0000

> <Gold.Chemscore.DEClash.Weighted>
2.0049

> <Gold.Chemscore.DEInternal.Weighted>
2.1386

> <Gold.Chemscore.Rot.Weighted>
7.6880

> <Gold.Chemscore.Internal.Correction.Weighted>
   9.000000E+99

> <Gold.Protein.RotatedTorsions>
[ 6907 6896 6895 6894 ] final  173.23 input  -60.11 | X-H torsion
[ 7974 7965 7964 7962 ] final  133.03 input  175.53 | X-H torsion
[ 8008 7997 7996 7995 ] final  134.48 input   59.86 | X-H torsion
[ 10167 10162 10161 10158 ] final -104.18 input  -65.29 | X-H torsion
[ 10718 10713 10712 10709 ] final  -49.48 input   66.30 | X-H torsion
[ 10763 10752 10751 10750 ] final  -48.45 input  -60.55 | X-H torsion
[ 11005 11000 10999 10996 ] final  144.75 input  -57.11 | X-H torsion

> <Gold.Protein.ActiveResidues>
 VAL166  LYS551  ARG553  GLY616  TRP617  ASP618  TYR619  PRO620  LYS621  CYS622 
 ASP623  PHE694  ASN695  SER759  ASP760  ASP761  ALA762  ILE779  LEU786  VAL792 
 PHE793  MET794  SER795  GLU796  ALA797  LYS798  CYS799  TRP800  GLU811  SER814 

> <Gold.Protein.RotatedAtoms>
  151.7716  133.3341  159.3445 H   0  0  0  0  0  0  0  0  0  0  0  0  # atno 6907 bound_to 6896
  150.7459  134.6013  159.6047 H   0  0  0  0  0  0  0  0  0  0  0  0  # atno 6908 bound_to 6896
  152.3337  134.7227  160.0334 H   0  0  0  0  0  0  0  0  0  0  0  0  # atno 6909 bound_to 6896
  144.9908  139.4409  143.5340 H   0  0  0  0  0  0  0  0  0  0  0  0  # atno 7974 bound_to 7965
  156.2999  140.2495  156.3424 H   0  0  0  0  0  0  0  0  0  0  0  0  # atno 8008 bound_to 7997
  154.9043  140.0405  157.1930 H   0  0  0  0  0  0  0  0  0  0  0  0  # atno 8009 bound_to 7997
  154.8469  140.2900  155.5627 H   0  0  0  0  0  0  0  0  0  0  0  0  # atno 8010 bound_to 7997
  140.2121  143.3739  152.1042 H   0  0  0  0  0  0  0  0  0  0  0  0  # atno 10167 bound_to 10162
  156.1889  130.4152  149.9399 H   0  0  0  0  0  0  0  0  0  0  0  0  # atno 10718 bound_to 10713
  154.0780  135.6595  153.4834 H   0  0  0  0  0  0  0  0  0  0  0  0  # atno 10763 bound_to 10752
  153.0366  135.5173  154.7501 H   0  0  0  0  0  0  0  0  0  0  0  0  # atno 10764 bound_to 10752
  154.6588  135.3012  154.9861 H   0  0  0  0  0  0  0  0  0  0  0  0  # atno 10765 bound_to 10752
  140.0657  134.9180  157.1261 H   0  0  0  0  0  0  0  0  0  0  0  0  # atno 11005 bound_to 11000
  146.3431  139.9238  142.8763 LP  0  0  0  0  0  0  0  0  0  0  0  0  # atno 17320 bound_to 7965
  145.2289  140.9965  143.4002 LP  0  0  0  0  0  0  0  0  0  0  0  0  # atno 17321 bound_to 7965
  139.5176  144.6994  151.5537 LP  0  0  0  0  0  0  0  0  0  0  0  0  # atno 17342 bound_to 10162
  140.6316  143.9064  150.6611 LP  0  0  0  0  0  0  0  0  0  0  0  0  # atno 17343 bound_to 10162
  156.7146  130.8983  151.3612 LP  0  0  0  0  0  0  0  0  0  0  0  0  # atno 17370 bound_to 10713
  157.6917  130.9240  150.0531 LP  0  0  0  0  0  0  0  0  0  0  0  0  # atno 17371 bound_to 10713
  140.3702  134.2398  155.7178 LP  0  0  0  0  0  0  0  0  0  0  0  0  # atno 17394 bound_to 11000
  141.1992  133.8018  157.0548 LP  0  0  0  0  0  0  0  0  0  0  0  0  # atno 17395 bound_to 11000

$$$$
