AV-unprocessed.smi:153|AV-procd|sdf|1258|dock5
  -GOLD-   2262018503D 1   1.00000     0.00000
 Structure written by MMmdl.
 59 62  0  0  0  0  0  0  0  0  1 V2000
  152.9089  144.7852  157.8800 C   0  0  0  0  0  0  0  0  0  0  0  0
  151.9328  144.3901  158.9985 C   0  0  2  0  0  0  0  0  0  0  0  0
  151.9228  145.4286  159.9731 O   0  0  0  0  0  0  0  0  0  0  0  0
  151.5483  144.8665  161.2177 C   0  0  0  0  0  0  0  0  0  0  0  0
  152.3384  143.5671  161.2315 C   0  0  0  0  0  0  0  0  0  0  0  0
  152.2467  143.0847  159.7840 C   0  0  1  0  0  0  0  0  0  0  0  0
  151.1134  142.2396  159.6794 O   0  0  0  0  0  0  0  0  0  0  0  0
  153.4924  142.2819  159.3224 C   0  0  0  0  0  0  0  0  0  0  0  0
  153.7185  141.0715  160.0985 N   0  0  0  0  0  0  0  0  0  0  0  0
  153.9563  140.9945  161.4507 C   0  0  0  0  0  0  0  0  0  0  0  0
  154.1174  139.7874  161.9168 N   0  0  0  0  0  0  0  0  0  0  0  0
  153.9897  138.9606  160.8043 C   0  0  0  0  0  0  0  0  0  0  0  0
  154.0468  137.5480  160.5888 C   0  0  0  0  0  0  0  0  0  0  0  0
  154.2384  136.6179  161.5716 N   0  0  0  0  0  0  0  0  0  0  0  0
  154.9436  135.3839  161.2452 C   0  0  0  0  0  0  0  0  0  0  0  0
  154.2016  137.0205  162.9799 C   0  0  0  0  0  0  0  0  0  0  0  0
  153.6980  135.8935  163.9097 C   0  0  2  0  0  0  0  0  0  0  0  0
  153.2836  136.4749  165.1300 O   0  0  0  0  0  0  0  0  0  0  0  0
  154.8170  134.8802  164.2323 C   0  0  0  0  0  0  0  0  0  0  0  0
  154.3796  133.6535  164.9003 N   0  0  0  0  0  0  0  0  0  0  0  0
  155.5248  132.8696  165.3511 C   0  0  0  0  0  0  0  0  0  0  0  0
  155.0938  131.5702  166.0529 C   0  0  0  0  0  0  0  0  0  0  0  0
  154.2803  130.8020  165.1725 O   0  0  0  0  0  0  0  0  0  0  0  0
  153.1242  131.5101  164.7381 C   0  0  0  0  0  0  0  0  0  0  0  0
  153.5470  132.8133  164.0380 C   0  0  0  0  0  0  0  0  0  0  0  0
  153.8959  137.1225  159.3041 N   0  0  0  0  0  0  0  0  0  0  0  0
  153.6862  137.9889  158.3105 C   0  0  0  0  0  0  0  0  0  0  0  0
  153.5936  139.3164  158.3711 N   0  0  0  0  0  0  0  0  0  0  0  0
  153.7547  139.7630  159.6485 C   0  0  0  0  0  0  0  0  0  0  0  0
  152.9495  144.0238  157.1014 H   0  0  0  0  0  0  0  0  0  0  0  0
  153.9177  144.9402  158.2620 H   0  0  0  0  0  0  0  0  0  0  0  0
  152.5939  145.7165  157.4087 H   0  0  0  0  0  0  0  0  0  0  0  0
  150.9284  144.3418  158.5728 H   0  0  0  0  0  0  0  0  0  0  0  0
  151.7993  145.5240  162.0501 H   0  0  0  0  0  0  0  0  0  0  0  0
  150.4739  144.6765  161.2333 H   0  0  0  0  0  0  0  0  0  0  0  0
  153.3739  143.7961  161.4857 H   0  0  0  0  0  0  0  0  0  0  0  0
  151.9689  142.8473  161.9633 H   0  0  0  0  0  0  0  0  0  0  0  0
  150.5734  142.5476  158.9676 H   0  0  0  0  0  0  0  0  0  0  0  0
  153.4032  142.0043  158.2712 H   0  0  0  0  0  0  0  0  0  0  0  0
  154.3907  142.8941  159.4052 H   0  0  0  0  0  0  0  0  0  0  0  0
  154.0011  141.8666  162.0870 H   0  0  0  0  0  0  0  0  0  0  0  0
  154.2879  134.6996  160.7066 H   0  0  0  0  0  0  0  0  0  0  0  0
  155.2797  134.8734  162.1481 H   0  0  0  0  0  0  0  0  0  0  0  0
  155.8242  135.5858  160.6343 H   0  0  0  0  0  0  0  0  0  0  0  0
  155.2016  137.3421  163.2734 H   0  0  0  0  0  0  0  0  0  0  0  0
  153.5847  137.9138  163.0890 H   0  0  0  0  0  0  0  0  0  0  0  0
  152.8431  135.3960  163.4545 H   0  0  0  0  0  0  0  0  0  0  0  0
  152.6406  135.9096  165.5294 H   0  0  0  0  0  0  0  0  0  0  0  0
  155.3277  134.6022  163.3089 H   0  0  0  0  0  0  0  0  0  0  0  0
  155.5718  135.3833  164.8391 H   0  0  0  0  0  0  0  0  0  0  0  0
  156.1641  132.6247  164.5014 H   0  0  0  0  0  0  0  0  0  0  0  0
  156.1311  133.4621  166.0373 H   0  0  0  0  0  0  0  0  0  0  0  0
  155.9681  130.9831  166.3342 H   0  0  0  0  0  0  0  0  0  0  0  0
  154.5449  131.7894  166.9703 H   0  0  0  0  0  0  0  0  0  0  0  0
  152.5565  130.8795  164.0539 H   0  0  0  0  0  0  0  0  0  0  0  0
  152.4775  131.7227  165.5907 H   0  0  0  0  0  0  0  0  0  0  0  0
  152.6481  133.3452  163.7312 H   0  0  0  0  0  0  0  0  0  0  0  0
  154.0900  132.5687  163.1235 H   0  0  0  0  0  0  0  0  0  0  0  0
  153.5735  137.5555  157.3275 H   0  0  0  0  0  0  0  0  0  0  0  0
  1  2  1  0  0  0  0
  1 30  1  0  0  0  0
  1 31  1  0  0  0  0
  1 32  1  0  0  0  0
  2  6  1  0  0  0  0
  2  3  1  0  0  0  0
  2 33  1  0  0  0  0
  3  4  1  0  0  0  0
  4  5  1  0  0  0  0
  4 34  1  0  0  0  0
  4 35  1  0  0  0  0
  5  6  1  0  0  0  0
  5 36  1  0  0  0  0
  5 37  1  0  0  0  0
  6  7  1  0  0  0  0
  6  8  1  0  0  0  0
  7 38  1  0  0  0  0
  8  9  1  0  0  0  0
  8 39  1  0  0  0  0
  8 40  1  0  0  0  0
  9 29  1  0  0  0  0
  9 10  1  0  0  0  0
 10 11  2  0  0  0  0
 10 41  1  0  0  0  0
 11 12  1  0  0  0  0
 12 29  2  0  0  0  0
 12 13  1  0  0  0  0
 13 14  1  0  0  0  0
 13 26  2  0  0  0  0
 14 15  1  0  0  0  0
 14 16  1  0  0  0  0
 15 42  1  0  0  0  0
 15 43  1  0  0  0  0
 15 44  1  0  0  0  0
 16 17  1  0  0  0  0
 16 45  1  0  0  0  0
 16 46  1  0  0  0  0
 17 18  1  0  0  0  0
 17 19  1  0  0  0  0
 17 47  1  0  0  0  0
 18 48  1  0  0  0  0
 19 20  1  0  0  0  0
 19 49  1  0  0  0  0
 19 50  1  0  0  0  0
 20 25  1  0  0  0  0
 20 21  1  0  0  0  0
 21 22  1  0  0  0  0
 21 51  1  0  0  0  0
 21 52  1  0  0  0  0
 22 23  1  0  0  0  0
 22 53  1  0  0  0  0
 22 54  1  0  0  0  0
 23 24  1  0  0  0  0
 24 25  1  0  0  0  0
 24 55  1  0  0  0  0
 24 56  1  0  0  0  0
 25 57  1  0  0  0  0
 25 58  1  0  0  0  0
 26 27  1  0  0  0  0
 27 28  2  0  0  0  0
 27 59  1  0  0  0  0
 28 29  1  0  0  0  0
M  END
> <s_m_source_file>
AV-unprocessed.smi

> <i_m_source_file_index>
153

> <i_lp_mmshare_version>
43012

> <i_f3d_flags>
0

> <s_epik_input>
W0NIMl0xW0NIMl1PW0NAQEhdKFtDSDNdKVtDQEBdMShbT0hdKVtDSDJdbihbY0hdbjIpYyhjMjMpbltjSF1uYzNOKFtDSDNdKVtDSDJdW0NASF0oW09IXSlbQ0gyXU40W0NIMl1bQ0gyXU9bQ0gyXVtDSDJdNA==

> <s_epik_cmdline>
J2VwaWtfcHl0aG9uJywgJy1waCcsICc3LjAnLCAnLXRuJywgJzgnLCAnLW1hJywgJzIwMCcsICctbWV0YWxfYmluZGluZycsICctaW1hZScsICc8aW5maWxlLm1hZT4nLCAnLW9tYWUnLCAnPG91dGZpbGUubWFlPic=

> <r_lp_tautomer_probability>
1

> <r_epik_Ionization_Penalty>
0.424123

> <r_epik_Ionization_Penalty_Charging>
0

> <r_epik_Ionization_Penalty_Neutral>
0.424123

> <r_epik_State_Penalty>
0.421495

> <r_epik_Charging_Adjusted_Penalty>
0.421495

> <i_epik_Tot_Q>
0

> <i_epik_Tot_abs_Q>
0

> <r_epik_Metal_State_Penalty>
0.421223

> <b_epik_Metal_Only>
0

> <s_lp_Force_Field>
OPLS_2005

> <r_lp_Energy>
56.4475

> <b_lp_Chiralities_Consistent>
1

> <s_lp_Variant>
AV-unprocessed.smi:153-9

> <Gold.Version>
5.8.1

> <Gold.Id.Protein>
6NUR|6NUR_protein|mol2

> <Gold.PLP.Fitness>
60.3441

> <Gold.PLP.PLP>
-58.3389

> <Gold.PLP.part.hbond>
-3.8697

> <Gold.PLP.part.metal>
0.0000

> <Gold.PLP.part.buried>
-6.3735

> <Gold.PLP.part.nonpolar>
-47.8060

> <Gold.PLP.part.repulsive>
0.2313

> <Gold.PLP.ligand.clash>
0.0000

> <Gold.PLP.ligand.torsion>
0.7213

> <Gold.PLP.Chemscore.Hbond>
1.0000

> <Gold.PLP.Chemscore.CHOScore>
0.0000

> <Gold.PLP.Chemscore.Metal>
0.0000

> <Gold.Chemscore.Hbonds>
donor molecule, donor type, donor heavy atom, donor atom, acceptor molecule, acceptor atom, score
      P1  H  7997  8010       L1    28  1.00

> <Gold.PLP.Chemscore.Internal.Correction>
0.4478

> <Gold.Rescore>
     Score         DG    S(hbond)    S(metal)    S(lipo)     H(rot)  DE(clash)    DE(int)     intcor
     10.48     -15.97       0.89        0.00     141.32       3.52       2.67       2.82       ----

> <Gold.Chemscore.Fitness>
10.4793

> <Gold.Chemscore.DG>
-15.9734

> <Gold.Chemscore.ZeroCoef>
-5.4800

> <Gold.Chemscore.Hbond>
0.8870

> <Gold.Chemscore.Metal>
0.0000

> <Gold.Chemscore.Lipo>
141.3192

> <Gold.Chemscore.Internal_Hbond>
0.0000

> <Gold.Chemscore.DEClash>
2.6724

> <Gold.Chemscore.DEInternal>
2.8217

> <Gold.Chemscore.Rot>
3.5170

> <Gold.Chemscore.Internal.Correction>
   9.000000E+99

> <Gold.Chemscore.Hbonds>
donor molecule, donor type, donor heavy atom, donor atom, acceptor molecule, acceptor atom, score
      P1  H  7997  8010       L1    28  0.68

> <Gold.Chemscore.Hbond.Weighted>
-2.9627

> <Gold.Chemscore.Metal.Weighted>
-0.0000

> <Gold.Chemscore.Lipo.Weighted>
-16.5343

> <Gold.Chemscore.Internal_Hbond.Weighted>
0.0000

> <Gold.Chemscore.DEClash.Weighted>
2.6724

> <Gold.Chemscore.DEInternal.Weighted>
2.8217

> <Gold.Chemscore.Rot.Weighted>
9.0036

> <Gold.Chemscore.Internal.Correction.Weighted>
   9.000000E+99

> <Gold.Protein.RotatedTorsions>
[ 6907 6896 6895 6894 ] final -142.28 input  -60.11 | X-H torsion
[ 7974 7965 7964 7962 ] final   42.57 input  175.53 | X-H torsion
[ 8008 7997 7996 7995 ] final   31.96 input   59.86 | X-H torsion
[ 10167 10162 10161 10158 ] final  -18.57 input  -65.29 | X-H torsion
[ 10718 10713 10712 10709 ] final   66.89 input   66.30 | X-H torsion
[ 10763 10752 10751 10750 ] final -122.23 input  -60.55 | X-H torsion
[ 11005 11000 10999 10996 ] final  167.13 input  -57.11 | X-H torsion

> <Gold.Protein.ActiveResidues>
 VAL166  LYS551  ARG553  GLY616  TRP617  ASP618  TYR619  PRO620  LYS621  CYS622 
 ASP623  PHE694  ASN695  SER759  ASP760  ASP761  ALA762  ILE779  LEU786  VAL792 
 PHE793  MET794  SER795  GLU796  ALA797  LYS798  CYS799  TRP800  GLU811  SER814 

> <Gold.Protein.RotatedAtoms>
  151.0849  133.5361  159.2618 H   0  0  0  0  0  0  0  0  0  0  0  0  # atno 6907 bound_to 6896
  151.2250  135.0532  159.8975 H   0  0  0  0  0  0  0  0  0  0  0  0  # atno 6908 bound_to 6896
  152.5428  134.0646  159.8221 H   0  0  0  0  0  0  0  0  0  0  0  0  # atno 6909 bound_to 6896
  146.0729  139.5285  142.9586 H   0  0  0  0  0  0  0  0  0  0  0  0  # atno 7974 bound_to 7965
  155.1147  140.3242  155.4512 H   0  0  0  0  0  0  0  0  0  0  0  0  # atno 8008 bound_to 7997
  156.2680  140.2038  156.6219 H   0  0  0  0  0  0  0  0  0  0  0  0  # atno 8009 bound_to 7997
  154.6729  140.0534  157.0171 H   0  0  0  0  0  0  0  0  0  0  0  0  # atno 8010 bound_to 7997
  140.7260  143.4903  151.0000 H   0  0  0  0  0  0  0  0  0  0  0  0  # atno 10167 bound_to 10162
  157.6197  130.9292  150.0169 H   0  0  0  0  0  0  0  0  0  0  0  0  # atno 10718 bound_to 10713
  154.8685  135.4140  154.2748 H   0  0  0  0  0  0  0  0  0  0  0  0  # atno 10763 bound_to 10752
  153.3652  135.7005  153.6687 H   0  0  0  0  0  0  0  0  0  0  0  0  # atno 10764 bound_to 10752
  153.5571  135.3617  155.2756 H   0  0  0  0  0  0  0  0  0  0  0  0  # atno 10765 bound_to 10752
  140.2736  134.7807  157.3697 H   0  0  0  0  0  0  0  0  0  0  0  0  # atno 11005 bound_to 11000
  145.6358  141.0294  143.1838 LP  0  0  0  0  0  0  0  0  0  0  0  0  # atno 17320 bound_to 7965
  144.7243  139.7926  143.7370 LP  0  0  0  0  0  0  0  0  0  0  0  0  # atno 17321 bound_to 7965
  139.8607  143.7318  152.3173 LP  0  0  0  0  0  0  0  0  0  0  0  0  # atno 17342 bound_to 10162
  139.7532  144.7528  151.0474 LP  0  0  0  0  0  0  0  0  0  0  0  0  # atno 17343 bound_to 10162
  156.1336  130.3643  149.9692 LP  0  0  0  0  0  0  0  0  0  0  0  0  # atno 17370 bound_to 10713
  156.7748  130.9199  151.3645 LP  0  0  0  0  0  0  0  0  0  0  0  0  # atno 17371 bound_to 10713
  140.1349  134.5046  155.8076 LP  0  0  0  0  0  0  0  0  0  0  0  0  # atno 17394 bound_to 11000
  141.2173  133.6803  156.7107 LP  0  0  0  0  0  0  0  0  0  0  0  0  # atno 17395 bound_to 11000

$$$$
