AV-unprocessed.smi:1047|AV-procd|sdf|4575|dock7
  -GOLD-   22720 3 33D 1   1.00000     0.00000
 Structure written by MMmdl.
 56 58  0  0  0  0  0  0  0  0  2 V2000
  146.9357  133.2262  151.9360 C   0  0  0  0  0  0  0  0  0  0  0  0
  146.6037  134.0898  153.1611 C   0  0  0  0  0  0  0  0  0  0  0  0
  147.7806  134.8411  153.6641 N   0  3  2  0  0  0  0  0  0  0  0  0
  148.8602  133.9445  154.1414 C   0  0  0  0  0  0  0  0  0  0  0  0
  150.0842  134.7628  154.5844 C   0  0  0  0  0  0  0  0  0  0  0  0
  149.7056  135.6851  155.5981 O   0  0  0  0  0  0  0  0  0  0  0  0
  148.7135  136.6036  155.1505 C   0  0  2  0  0  0  0  0  0  0  0  0
  148.4595  137.6398  156.2583 C   0  0  0  0  0  0  0  0  0  0  0  0
  148.1800  138.9631  155.7089 N   0  0  0  0  0  0  0  0  0  0  0  0
  149.3807  139.7385  155.4071 C   0  0  0  0  0  0  0  0  0  0  0  0
  149.2997  141.1678  155.9733 C   0  0  2  0  0  0  0  0  0  0  0  0
  148.3783  141.9192  155.2063 O   0  0  0  0  0  0  0  0  0  0  0  0
  150.6635  141.8821  156.0807 C   0  0  0  0  0  0  0  0  0  0  0  0
  151.5585  141.2214  157.0132 N   0  0  0  0  0  0  0  0  0  0  0  0
  152.1616  140.0281  156.8524 C   0  0  0  0  0  0  0  0  0  0  0  0
  152.9408  139.6019  157.8422 N   0  0  0  0  0  0  0  0  0  0  0  0
  152.8322  140.6409  158.7506 C   0  0  0  0  0  0  0  0  0  0  0  0
  153.4161  140.8104  160.0252 C   0  0  0  0  0  0  0  0  0  0  0  0
  153.1590  141.9692  160.7922 C   0  0  0  0  0  0  0  0  0  0  0  0
  153.8050  142.1085  162.1595 C   0  0  0  0  0  0  0  0  0  0  0  0
  152.3066  142.9825  160.2846 C   0  0  0  0  0  0  0  0  0  0  0  0
  152.0175  144.2373  161.0893 C   0  0  0  0  0  0  0  0  0  0  0  0
  151.7137  142.8284  159.0141 C   0  0  0  0  0  0  0  0  0  0  0  0
  151.9765  141.6705  158.2611 C   0  0  0  0  0  0  0  0  0  0  0  0
  147.4457  135.8431  154.7059 C   0  0  0  0  0  0  0  0  0  0  0  0
  146.0766  132.6172  151.6535 H   0  0  0  0  0  0  0  0  0  0  0  0
  147.7653  132.5495  152.1429 H   0  0  0  0  0  0  0  0  0  0  0  0
  147.2003  133.8308  151.0690 H   0  0  0  0  0  0  0  0  0  0  0  0
  145.7863  134.7770  152.9376 H   0  0  0  0  0  0  0  0  0  0  0  0
  146.2431  133.4264  153.9486 H   0  0  0  0  0  0  0  0  0  0  0  0
  148.4935  133.3392  154.9723 H   0  0  0  0  0  0  0  0  0  0  0  0
  149.1507  133.2566  153.3465 H   0  0  0  0  0  0  0  0  0  0  0  0
  150.8546  134.1013  154.9808 H   0  0  0  0  0  0  0  0  0  0  0  0
  150.5253  135.2930  153.7389 H   0  0  0  0  0  0  0  0  0  0  0  0
  149.1152  137.1423  154.2903 H   0  0  0  0  0  0  0  0  0  0  0  0
  147.6216  137.3085  156.8730 H   0  0  0  0  0  0  0  0  0  0  0  0
  149.3274  137.6880  156.9170 H   0  0  0  0  0  0  0  0  0  0  0  0
  147.5999  139.4857  156.3585 H   0  0  0  0  0  0  0  0  0  0  0  0
  150.2626  139.2388  155.8101 H   0  0  0  0  0  0  0  0  0  0  0  0
  149.5214  139.7871  154.3268 H   0  0  0  0  0  0  0  0  0  0  0  0
  148.8750  141.0986  156.9755 H   0  0  0  0  0  0  0  0  0  0  0  0
  148.6227  142.8311  155.2539 H   0  0  0  0  0  0  0  0  0  0  0  0
  151.1476  141.9151  155.1039 H   0  0  0  0  0  0  0  0  0  0  0  0
  150.5398  142.9170  156.4011 H   0  0  0  0  0  0  0  0  0  0  0  0
  152.0169  139.4374  155.9596 H   0  0  0  0  0  0  0  0  0  0  0  0
  154.0652  140.0382  160.4114 H   0  0  0  0  0  0  0  0  0  0  0  0
  154.4458  142.9899  162.1914 H   0  0  0  0  0  0  0  0  0  0  0  0
  154.4188  141.2401  162.4006 H   0  0  0  0  0  0  0  0  0  0  0  0
  153.0439  142.2044  162.9339 H   0  0  0  0  0  0  0  0  0  0  0  0
  151.3571  144.9147  160.5472 H   0  0  0  0  0  0  0  0  0  0  0  0
  152.9416  144.7738  161.3054 H   0  0  0  0  0  0  0  0  0  0  0  0
  151.5346  143.9833  162.0331 H   0  0  0  0  0  0  0  0  0  0  0  0
  151.0588  143.5900  158.6174 H   0  0  0  0  0  0  0  0  0  0  0  0
  146.7147  136.5560  154.3258 H   0  0  0  0  0  0  0  0  0  0  0  0
  146.9847  135.3345  155.5540 H   0  0  0  0  0  0  0  0  0  0  0  0
  148.1597  135.3470  152.8762 H   0  0  0  0  0  0  0  0  0  0  0  0
  1  2  1  0  0  0  0
  1 26  1  0  0  0  0
  1 27  1  0  0  0  0
  1 28  1  0  0  0  0
  2  3  1  0  0  0  0
  2 29  1  0  0  0  0
  2 30  1  0  0  0  0
  3 25  1  0  0  0  0
  3  4  1  0  0  0  0
  3 56  1  0  0  0  0
  4  5  1  0  0  0  0
  4 31  1  0  0  0  0
  4 32  1  0  0  0  0
  5  6  1  0  0  0  0
  5 33  1  0  0  0  0
  5 34  1  0  0  0  0
  6  7  1  0  0  0  0
  7  8  1  0  0  0  0
  7 25  1  0  0  0  0
  7 35  1  0  0  0  0
  8  9  1  0  0  0  0
  8 36  1  0  0  0  0
  8 37  1  0  0  0  0
  9 10  1  0  0  0  0
  9 38  1  0  0  0  0
 10 11  1  0  0  0  0
 10 39  1  0  0  0  0
 10 40  1  0  0  0  0
 11 12  1  0  0  0  0
 11 13  1  0  0  0  0
 11 41  1  0  0  0  0
 12 42  1  0  0  0  0
 13 14  1  0  0  0  0
 13 43  1  0  0  0  0
 13 44  1  0  0  0  0
 14 24  1  0  0  0  0
 14 15  1  0  0  0  0
 15 16  2  0  0  0  0
 15 45  1  0  0  0  0
 16 17  1  0  0  0  0
 17 24  2  0  0  0  0
 17 18  1  0  0  0  0
 18 19  2  0  0  0  0
 18 46  1  0  0  0  0
 19 20  1  0  0  0  0
 19 21  1  0  0  0  0
 20 47  1  0  0  0  0
 20 48  1  0  0  0  0
 20 49  1  0  0  0  0
 21 22  1  0  0  0  0
 21 23  2  0  0  0  0
 22 50  1  0  0  0  0
 22 51  1  0  0  0  0
 22 52  1  0  0  0  0
 23 24  1  0  0  0  0
 23 53  1  0  0  0  0
 25 54  1  0  0  0  0
 25 55  1  0  0  0  0
M  CHG  1   3   1
M  END
> <s_m_source_file>
AV-unprocessed.smi

> <i_m_source_file_index>
1047

> <i_lp_mmshare_version>
43012

> <i_f3d_flags>
0

> <s_epik_input>
W0NIM11bQ0gyXU4xW0NIMl1bQ0gyXU9bQ0BIXShbQ0gyXTEpW0NIMl1bTkhdW0NIMl1bQ0BIXShbT0hdKVtDSDJdbihbY0hdbjIpYyhjMjMpW2NIXWMoW0NIM10pYyhbY0hdMylbQ0gzXQ==

> <s_epik_cmdline>
J2VwaWtfcHl0aG9uJywgJy1waCcsICc3LjAnLCAnLXRuJywgJzgnLCAnLW1hJywgJzIwMCcsICctbWV0YWxfYmluZGluZycsICctaW1hZScsICc8aW5maWxlLm1hZT4nLCAnLW9tYWUnLCAnPG91dGZpbGUubWFlPic=

> <r_epik_Ionization_Penalty>
1.19246

> <r_epik_Ionization_Penalty_Charging>
0.210041

> <r_epik_Ionization_Penalty_Neutral>
0.982415

> <r_epik_State_Penalty>
1.57595

> <r_epik_Charging_Adjusted_Penalty>
1.78599

> <i_epik_Tot_Q>
1

> <i_epik_Tot_abs_Q>
1

> <r_epik_Metal_State_Penalty>
1.46172

> <b_epik_Metal_Only>
0

> <s_lp_Force_Field>
OPLS_2005

> <r_lp_Energy>
33.3518

> <b_lp_Chiralities_Consistent>
1

> <s_lp_Variant>
AV-unprocessed.smi:1047-16

> <Gold.Version>
5.8.1

> <Gold.Id.Protein>
6NUR|6NUR_protein|mol2

> <Gold.PLP.Fitness>
54.6039

> <Gold.PLP.PLP>
-45.0197

> <Gold.PLP.part.hbond>
-3.0000

> <Gold.PLP.part.metal>
0.0000

> <Gold.PLP.part.buried>
-4.4219

> <Gold.PLP.part.nonpolar>
-35.6026

> <Gold.PLP.part.repulsive>
0.0818

> <Gold.PLP.ligand.clash>
0.0000

> <Gold.PLP.ligand.torsion>
1.1829

> <Gold.PLP.Chemscore.Hbond>
3.8960

> <Gold.PLP.Chemscore.CHOScore>
0.0000

> <Gold.PLP.Chemscore.Metal>
0.0000

> <Gold.Chemscore.Hbonds>
donor molecule, donor type, donor heavy atom, donor atom, acceptor molecule, acceptor atom, score
      L1  H     3    56       P1  7948  2.00
      L1  H    12    42       P1  8028  1.00
      P1  H  7997  8009       L1    16  0.78

> <Gold.PLP.Chemscore.Internal.Correction>
0.2620

> <Gold.Rescore>
     Score         DG    S(hbond)    S(metal)    S(lipo)     H(rot)  DE(clash)    DE(int)     intcor
     18.99     -20.34       2.05        0.00     125.68       2.62       0.04       1.30       ----

> <Gold.Chemscore.Fitness>
18.9908

> <Gold.Chemscore.DG>
-20.3366

> <Gold.Chemscore.ZeroCoef>
-5.4800

> <Gold.Chemscore.Hbond>
2.0545

> <Gold.Chemscore.Metal>
0.0000

> <Gold.Chemscore.Lipo>
125.6770

> <Gold.Chemscore.Internal_Hbond>
0.0000

> <Gold.Chemscore.DEClash>
0.0436

> <Gold.Chemscore.DEInternal>
1.3022

> <Gold.Chemscore.Rot>
2.6209

> <Gold.Chemscore.Internal.Correction>
   9.000000E+99

> <Gold.Chemscore.Hbonds>
donor molecule, donor type, donor heavy atom, donor atom, acceptor molecule, acceptor atom, score
      L1  H     3    56       P1  7948  0.94
      L1  H    12    42       P1  8028  0.99
      P1  H  7997  8009       L1    16  0.06

> <Gold.Chemscore.Hbond.Weighted>
-6.8620

> <Gold.Chemscore.Metal.Weighted>
-0.0000

> <Gold.Chemscore.Lipo.Weighted>
-14.7042

> <Gold.Chemscore.Internal_Hbond.Weighted>
0.0000

> <Gold.Chemscore.DEClash.Weighted>
0.0436

> <Gold.Chemscore.DEInternal.Weighted>
1.3022

> <Gold.Chemscore.Rot.Weighted>
6.7096

> <Gold.Chemscore.Internal.Correction.Weighted>
   9.000000E+99

> <Gold.Protein.RotatedTorsions>
[ 6907 6896 6895 6894 ] final -149.40 input  -60.11 | X-H torsion
[ 7974 7965 7964 7962 ] final   37.21 input  175.53 | X-H torsion
[ 8008 7997 7996 7995 ] final  139.70 input   59.86 | X-H torsion
[ 10167 10162 10161 10158 ] final  109.74 input  -65.29 | X-H torsion
[ 10718 10713 10712 10709 ] final   41.58 input   66.30 | X-H torsion
[ 10763 10752 10751 10750 ] final -105.62 input  -60.55 | X-H torsion
[ 11005 11000 10999 10996 ] final -147.46 input  -57.11 | X-H torsion

> <Gold.Protein.ActiveResidues>
 VAL166  LYS551  ARG553  GLY616  TRP617  ASP618  TYR619  PRO620  LYS621  CYS622 
 ASP623  PHE694  ASN695  SER759  ASP760  ASP761  ALA762  ILE779  LEU786  VAL792 
 PHE793  MET794  SER795  GLU796  ALA797  LYS798  CYS799  TRP800  GLU811  SER814 

> <Gold.Protein.RotatedAtoms>
  151.1837  133.4709  159.2594 H   0  0  0  0  0  0  0  0  0  0  0  0  # atno 6907 bound_to 6896
  151.1234  135.0091  159.8559 H   0  0  0  0  0  0  0  0  0  0  0  0  # atno 6908 bound_to 6896
  152.5457  134.1746  159.8663 H   0  0  0  0  0  0  0  0  0  0  0  0  # atno 6909 bound_to 6896
  146.1154  139.5922  142.9325 H   0  0  0  0  0  0  0  0  0  0  0  0  # atno 7974 bound_to 7965
  156.2987  140.2360  156.4281 H   0  0  0  0  0  0  0  0  0  0  0  0  # atno 8008 bound_to 7997
  154.8295  140.0433  157.1487 H   0  0  0  0  0  0  0  0  0  0  0  0  # atno 8009 bound_to 7997
  154.9224  140.3005  155.5213 H   0  0  0  0  0  0  0  0  0  0  0  0  # atno 8010 bound_to 7997
  139.6742  144.7123  151.1631 H   0  0  0  0  0  0  0  0  0  0  0  0  # atno 10167 bound_to 10162
  157.3952  130.7829  149.7302 H   0  0  0  0  0  0  0  0  0  0  0  0  # atno 10718 bound_to 10713
  154.7958  135.4742  154.0159 H   0  0  0  0  0  0  0  0  0  0  0  0  # atno 10763 bound_to 10752
  153.1702  135.6824  153.8625 H   0  0  0  0  0  0  0  0  0  0  0  0  # atno 10764 bound_to 10752
  153.8210  135.3204  155.3388 H   0  0  0  0  0  0  0  0  0  0  0  0  # atno 10765 bound_to 10752
  140.7714  134.3184  157.5073 H   0  0  0  0  0  0  0  0  0  0  0  0  # atno 11005 bound_to 11000
  145.5577  141.0407  143.2243 LP  0  0  0  0  0  0  0  0  0  0  0  0  # atno 17320 bound_to 7965
  144.7548  139.7101  143.7258 LP  0  0  0  0  0  0  0  0  0  0  0  0  # atno 17321 bound_to 7965
  140.7629  143.5797  150.8908 LP  0  0  0  0  0  0  0  0  0  0  0  0  # atno 17342 bound_to 10162
  139.9464  143.6322  152.3040 LP  0  0  0  0  0  0  0  0  0  0  0  0  # atno 17343 bound_to 10162
  155.9808  130.4025  150.3505 LP  0  0  0  0  0  0  0  0  0  0  0  0  # atno 17370 bound_to 10713
  157.1626  131.0349  151.2834 LP  0  0  0  0  0  0  0  0  0  0  0  0  # atno 17371 bound_to 10713
  139.8755  134.9263  156.3397 LP  0  0  0  0  0  0  0  0  0  0  0  0  # atno 17394 bound_to 11000
  140.9570  133.7413  156.0349 LP  0  0  0  0  0  0  0  0  0  0  0  0  # atno 17395 bound_to 11000

$$$$
