AV-unprocessed.smi:2280|AV-procd|sdf|9191|dock2
  -GOLD-   2272012403D 1   1.00000     0.00000
 Structure written by MMmdl.
 41 42  0  0  0  0  0  0  0  0  1 V2000
  152.2551  144.2249  160.7194 C   0  0  0  0  0  0  0  0  0  0  0  0
  152.0365  143.2196  159.6026 C   0  0  0  0  0  0  0  0  0  0  0  0
  151.0338  143.5449  158.6843 N   0  0  0  0  0  0  0  0  0  0  0  0
  150.7713  142.7424  157.7050 C   0  0  0  0  0  0  0  0  0  0  0  0
  151.4684  141.5356  157.5333 N   0  0  0  0  0  0  0  0  0  0  0  0
  151.0666  140.7096  156.3832 C   0  0  0  0  0  0  0  0  0  0  0  0
  149.6145  140.1971  156.5139 C   0  0  2  0  0  0  0  0  0  0  0  0
  149.5499  138.8198  156.2037 O   0  0  0  0  0  0  0  0  0  0  0  0
  148.6308  140.9290  155.5860 C   0  0  0  0  0  0  0  0  0  0  0  0
  147.6857  141.6482  156.3682 O   0  0  0  0  0  0  0  0  0  0  0  0
  146.7461  142.4272  155.7259 C   0  0  0  0  0  0  0  0  0  0  0  0
  146.7735  142.6983  154.3340 C   0  0  0  0  0  0  0  0  0  0  0  0
  145.7828  143.5031  153.7420 C   0  0  0  0  0  0  0  0  0  0  0  0
  144.7541  144.0468  154.5300 C   0  0  0  0  0  0  0  0  0  0  0  0
  144.7170  143.7854  155.9116 C   0  0  0  0  0  0  0  0  0  0  0  0
  145.7073  142.9785  156.5162 C   0  0  0  0  0  0  0  0  0  0  0  0
  145.6618  142.6965  158.0149 C   0  0  0  0  0  0  0  0  0  0  0  0
  144.6414  143.3164  158.6089 F   0  0  0  0  0  0  0  0  0  0  0  0
  145.5306  141.3864  158.2245 F   0  0  0  0  0  0  0  0  0  0  0  0
  146.7915  143.1134  158.5873 F   0  0  0  0  0  0  0  0  0  0  0  0
  152.4756  141.1521  158.3703 C   0  0  0  0  0  0  0  0  0  0  0  0
  153.1002  140.1042  158.1933 O   0  0  0  0  0  0  0  0  0  0  0  0
  152.7579  142.0713  159.4846 C   0  0  0  0  0  0  0  0  0  0  0  0
  153.8598  141.6641  160.4551 C   0  0  0  0  0  0  0  0  0  0  0  0
  152.0810  143.7609  161.6905 H   0  0  0  0  0  0  0  0  0  0  0  0
  151.5769  145.0740  160.6282 H   0  0  0  0  0  0  0  0  0  0  0  0
  153.2751  144.6084  160.6934 H   0  0  0  0  0  0  0  0  0  0  0  0
  150.0036  142.9519  156.9581 H   0  0  0  0  0  0  0  0  0  0  0  0
  151.1560  141.3131  155.4778 H   0  0  0  0  0  0  0  0  0  0  0  0
  151.7546  139.8779  156.2158 H   0  0  0  0  0  0  0  0  0  0  0  0
  149.2598  140.3180  157.5381 H   0  0  0  0  0  0  0  0  0  0  0  0
  149.0247  138.3898  156.8616 H   0  0  0  0  0  0  0  0  0  0  0  0
  149.1676  141.5914  154.9046 H   0  0  0  0  0  0  0  0  0  0  0  0
  148.1035  140.1881  154.9828 H   0  0  0  0  0  0  0  0  0  0  0  0
  147.5470  142.3003  153.6953 H   0  0  0  0  0  0  0  0  0  0  0  0
  145.8133  143.7036  152.6810 H   0  0  0  0  0  0  0  0  0  0  0  0
  143.9934  144.6645  154.0756 H   0  0  0  0  0  0  0  0  0  0  0  0
  143.9186  144.2118  156.5005 H   0  0  0  0  0  0  0  0  0  0  0  0
  154.8010  141.5285  159.9211 H   0  0  0  0  0  0  0  0  0  0  0  0
  153.6050  140.7196  160.9371 H   0  0  0  0  0  0  0  0  0  0  0  0
  154.0329  142.3971  161.2411 H   0  0  0  0  0  0  0  0  0  0  0  0
  1  2  1  0  0  0  0
  1 25  1  0  0  0  0
  1 26  1  0  0  0  0
  1 27  1  0  0  0  0
  2 23  2  0  0  0  0
  2  3  1  0  0  0  0
  3  4  2  0  0  0  0
  4  5  1  0  0  0  0
  4 28  1  0  0  0  0
  5  6  1  0  0  0  0
  5 21  1  0  0  0  0
  6  7  1  0  0  0  0
  6 29  1  0  0  0  0
  6 30  1  0  0  0  0
  7  8  1  0  0  0  0
  7  9  1  0  0  0  0
  7 31  1  0  0  0  0
  8 32  1  0  0  0  0
  9 10  1  0  0  0  0
  9 33  1  0  0  0  0
  9 34  1  0  0  0  0
 10 11  1  0  0  0  0
 11 16  1  0  0  0  0
 11 12  2  0  0  0  0
 12 13  1  0  0  0  0
 12 35  1  0  0  0  0
 13 14  2  0  0  0  0
 13 36  1  0  0  0  0
 14 15  1  0  0  0  0
 14 37  1  0  0  0  0
 15 16  2  0  0  0  0
 15 38  1  0  0  0  0
 16 17  1  0  0  0  0
 17 18  1  0  0  0  0
 17 19  1  0  0  0  0
 17 20  1  0  0  0  0
 21 22  2  0  0  0  0
 21 23  1  0  0  0  0
 23 24  1  0  0  0  0
 24 39  1  0  0  0  0
 24 40  1  0  0  0  0
 24 41  1  0  0  0  0
M  END
> <s_m_source_file>
AV-unprocessed.smi

> <i_m_source_file_index>
2280

> <i_lp_mmshare_version>
43012

> <i_f3d_flags>
0

> <s_epik_input>
W0NIM11jMW5bY0hdbihjKD1PKWMxW0NIM10pW0NIMl1bQ0BIXShbT0hdKVtDSDJdT2MyW2NIXVtjSF1bY0hdW2NIXWMyQyhGKShGKUY=

> <s_epik_cmdline>
J2VwaWtfcHl0aG9uJywgJy1waCcsICc3LjAnLCAnLXRuJywgJzgnLCAnLW1hJywgJzIwMCcsICctbWV0YWxfYmluZGluZycsICctaW1hZScsICc8aW5maWxlLm1hZT4nLCAnLW9tYWUnLCAnPG91dGZpbGUubWFlPic=

> <r_lp_tautomer_probability>
1

> <r_epik_Ionization_Penalty>
3.7476e-05

> <r_epik_Ionization_Penalty_Charging>
8.44705e-08

> <r_epik_Ionization_Penalty_Neutral>
3.73915e-05

> <r_epik_State_Penalty>
-0

> <r_epik_Charging_Adjusted_Penalty>
8.44705e-08

> <i_epik_Tot_Q>
0

> <i_epik_Tot_abs_Q>
0

> <r_epik_Metal_State_Penalty>
-0

> <b_epik_Metal_Only>
0

> <s_lp_Force_Field>
OPLS_2005

> <r_lp_Energy>
25.7706

> <b_lp_Chiralities_Consistent>
1

> <s_lp_Variant>
AV-unprocessed.smi:2280-1

> <Gold.Version>
5.8.1

> <Gold.Id.Protein>
6NUR|6NUR_protein|mol2

> <Gold.PLP.Fitness>
45.3415

> <Gold.PLP.PLP>
-42.2485

> <Gold.PLP.part.hbond>
-1.0000

> <Gold.PLP.part.metal>
0.0000

> <Gold.PLP.part.buried>
-4.2358

> <Gold.PLP.part.nonpolar>
-35.7934

> <Gold.PLP.part.repulsive>
0.2276

> <Gold.PLP.ligand.clash>
0.4038

> <Gold.PLP.ligand.torsion>
1.4971

> <Gold.PLP.Chemscore.Hbond>
0.9920

> <Gold.PLP.Chemscore.CHOScore>
1.0000

> <Gold.PLP.Chemscore.Metal>
0.0000

> <Gold.Chemscore.Hbonds>
donor molecule, donor type, donor heavy atom, donor atom, acceptor molecule, acceptor atom, score
      P1  H  7997  8009       L1    22  1.00
      L1  C     4    28       P1  8028  1.00

> <Gold.PLP.Chemscore.Internal.Correction>
0.5150

> <Gold.Rescore>
     Score         DG    S(hbond)    S(metal)    S(lipo)     H(rot)  DE(clash)    DE(int)     intcor
      7.98     -12.27       0.92        0.00      91.40       2.73       0.10       4.19       ----

> <Gold.Chemscore.Fitness>
7.9796

> <Gold.Chemscore.DG>
-12.2699

> <Gold.Chemscore.ZeroCoef>
-5.4800

> <Gold.Chemscore.Hbond>
0.9236

> <Gold.Chemscore.Metal>
0.0000

> <Gold.Chemscore.Lipo>
91.4005

> <Gold.Chemscore.Internal_Hbond>
0.0000

> <Gold.Chemscore.DEClash>
0.1016

> <Gold.Chemscore.DEInternal>
4.1888

> <Gold.Chemscore.Rot>
2.7300

> <Gold.Chemscore.Internal.Correction>
   9.000000E+99

> <Gold.Chemscore.Hbonds>
donor molecule, donor type, donor heavy atom, donor atom, acceptor molecule, acceptor atom, score
      P1  H  7997  8009       L1    22  0.94

> <Gold.Chemscore.Hbond.Weighted>
-3.0848

> <Gold.Chemscore.Metal.Weighted>
-0.0000

> <Gold.Chemscore.Lipo.Weighted>
-10.6939

> <Gold.Chemscore.Internal_Hbond.Weighted>
0.0000

> <Gold.Chemscore.DEClash.Weighted>
0.1016

> <Gold.Chemscore.DEInternal.Weighted>
4.1888

> <Gold.Chemscore.Rot.Weighted>
6.9888

> <Gold.Chemscore.Internal.Correction.Weighted>
   9.000000E+99

> <Gold.Protein.RotatedTorsions>
[ 6907 6896 6895 6894 ] final    6.08 input  -60.11 | X-H torsion
[ 7974 7965 7964 7962 ] final -176.12 input  175.53 | X-H torsion
[ 8008 7997 7996 7995 ] final  153.63 input   59.86 | X-H torsion
[ 10167 10162 10161 10158 ] final -110.26 input  -65.29 | X-H torsion
[ 10718 10713 10712 10709 ] final  167.63 input   66.30 | X-H torsion
[ 10763 10752 10751 10750 ] final -139.13 input  -60.55 | X-H torsion
[ 11005 11000 10999 10996 ] final -108.87 input  -57.11 | X-H torsion

> <Gold.Protein.ActiveResidues>
 VAL166  LYS551  ARG553  GLY616  TRP617  ASP618  TYR619  PRO620  LYS621  CYS622 
 ASP623  PHE694  ASN695  SER759  ASP760  ASP761  ALA762  ILE779  LEU786  VAL792 
 PHE793  MET794  SER795  GLU796  ALA797  LYS798  CYS799  TRP800  GLU811  SER814 

> <Gold.Protein.RotatedAtoms>
  151.6679  135.0980  160.0192 H   0  0  0  0  0  0  0  0  0  0  0  0  # atno 6907 bound_to 6896
  152.3909  133.6673  159.6245 H   0  0  0  0  0  0  0  0  0  0  0  0  # atno 6908 bound_to 6896
  150.7824  133.8873  159.3344 H   0  0  0  0  0  0  0  0  0  0  0  0  # atno 6909 bound_to 6896
  144.7127  140.1217  143.6404 H   0  0  0  0  0  0  0  0  0  0  0  0  # atno 7974 bound_to 7965
  156.2572  140.1988  156.6520 H   0  0  0  0  0  0  0  0  0  0  0  0  # atno 8008 bound_to 7997
  154.6530  140.0570  157.0001 H   0  0  0  0  0  0  0  0  0  0  0  0  # atno 8009 bound_to 7997
  155.1390  140.3241  155.4459 H   0  0  0  0  0  0  0  0  0  0  0  0  # atno 8010 bound_to 7997
  140.1464  143.4236  152.1526 H   0  0  0  0  0  0  0  0  0  0  0  0  # atno 10167 bound_to 10162
  157.0488  131.0307  151.2688 H   0  0  0  0  0  0  0  0  0  0  0  0  # atno 10718 bound_to 10713
  154.8618  135.3591  154.5497 H   0  0  0  0  0  0  0  0  0  0  0  0  # atno 10763 bound_to 10752
  153.6115  135.7009  153.5350 H   0  0  0  0  0  0  0  0  0  0  0  0  # atno 10764 bound_to 10752
  153.3205  135.4152  155.1373 H   0  0  0  0  0  0  0  0  0  0  0  0  # atno 10765 bound_to 10752
  141.0878  133.9108  157.2145 H   0  0  0  0  0  0  0  0  0  0  0  0  # atno 11005 bound_to 11000
  145.9365  139.2640  143.1294 LP  0  0  0  0  0  0  0  0  0  0  0  0  # atno 17320 bound_to 7965
  145.9469  140.8938  143.0279 LP  0  0  0  0  0  0  0  0  0  0  0  0  # atno 17321 bound_to 7965
  139.5447  144.7288  151.4622 LP  0  0  0  0  0  0  0  0  0  0  0  0  # atno 17342 bound_to 10162
  140.6729  143.8253  150.7022 LP  0  0  0  0  0  0  0  0  0  0  0  0  # atno 17343 bound_to 10162
  157.5047  130.7901  149.7641 LP  0  0  0  0  0  0  0  0  0  0  0  0  # atno 17370 bound_to 10713
  156.0014  130.3878  150.2591 LP  0  0  0  0  0  0  0  0  0  0  0  0  # atno 17371 bound_to 10713
  139.9699  135.0131  156.9485 LP  0  0  0  0  0  0  0  0  0  0  0  0  # atno 17394 bound_to 11000
  140.5322  134.0802  155.7319 LP  0  0  0  0  0  0  0  0  0  0  0  0  # atno 17395 bound_to 11000

$$$$
