AV-unprocessed.smi:1957|AV-procd|sdf|7905|dock4
  -GOLD-   2272010 63D 1   1.00000     0.00000
 Structure written by MMmdl.
 42 43  0  0  0  0  0  0  0  0  1 V2000
  151.1283  134.4068  156.0911 C   0  0  0  0  0  0  0  0  0  0  0  0
  151.4512  135.6115  155.4191 O   0  0  0  0  0  0  0  0  0  0  0  0
  150.4626  136.6120  155.5952 C   0  0  0  0  0  0  0  0  0  0  0  0
  150.7301  137.7536  154.6028 C   0  0  0  0  0  0  0  0  0  0  0  0
  149.5261  138.5578  154.3706 N   0  0  0  0  0  0  0  0  0  0  0  0
  148.4033  137.8132  154.0495 N   0  0  0  0  0  0  0  0  0  0  0  0
  147.2724  138.4031  153.8315 C   0  0  0  0  0  0  0  0  0  0  0  0
  146.0415  137.6389  153.4882 C   0  0  0  0  0  0  0  0  0  0  0  0
  144.9383  137.9411  153.9461 O   0  0  0  0  0  0  0  0  0  0  0  0
  146.2248  136.5987  152.6535 N   0  0  0  0  0  0  0  0  0  0  0  0
  145.1856  135.6663  152.2115 C   0  0  1  0  0  0  0  0  0  0  0  0
  145.7833  134.8075  151.0736 C   0  0  0  0  0  0  0  0  0  0  0  0
  144.7249  134.1708  150.1559 C   0  0  0  0  0  0  0  0  0  0  0  0
  143.8171  133.1331  150.8337 C   0  0  0  0  0  0  0  0  0  0  0  0
  142.9566  133.7122  151.9699 C   0  0  0  0  0  0  0  0  0  0  0  0
  143.7230  133.9055  153.1938 N   0  0  0  0  0  0  0  0  0  0  0  0
  144.7575  134.7402  153.3744 C   0  0  0  0  0  0  0  0  0  0  0  0
  145.3570  134.7618  154.4496 O   0  0  0  0  0  0  0  0  0  0  0  0
  147.1590  139.8494  153.9169 C   0  0  0  0  0  0  0  0  0  0  0  0
  148.2622  140.5619  154.2338 C   0  0  0  0  0  0  0  0  0  0  0  0
  149.5524  139.9195  154.4892 C   0  0  0  0  0  0  0  0  0  0  0  0
  150.5688  140.5458  154.7873 O   0  0  0  0  0  0  0  0  0  0  0  0
  151.9202  133.6750  155.9320 H   0  0  0  0  0  0  0  0  0  0  0  0
  150.1970  133.9828  155.7135 H   0  0  0  0  0  0  0  0  0  0  0  0
  151.0299  134.5678  157.1655 H   0  0  0  0  0  0  0  0  0  0  0  0
  149.4704  136.1911  155.4236 H   0  0  0  0  0  0  0  0  0  0  0  0
  150.4902  136.9832  156.6208 H   0  0  0  0  0  0  0  0  0  0  0  0
  151.5445  138.3829  154.9658 H   0  0  0  0  0  0  0  0  0  0  0  0
  151.0853  137.3357  153.6590 H   0  0  0  0  0  0  0  0  0  0  0  0
  147.1635  136.4182  152.3278 H   0  0  0  0  0  0  0  0  0  0  0  0
  144.3273  136.2324  151.8448 H   0  0  0  0  0  0  0  0  0  0  0  0
  146.4100  135.4409  150.4434 H   0  0  0  0  0  0  0  0  0  0  0  0
  146.4515  134.0408  151.4700 H   0  0  0  0  0  0  0  0  0  0  0  0
  144.1095  134.9562  149.7153 H   0  0  0  0  0  0  0  0  0  0  0  0
  145.2344  133.6907  149.3197 H   0  0  0  0  0  0  0  0  0  0  0  0
  143.1520  132.7191  150.0752 H   0  0  0  0  0  0  0  0  0  0  0  0
  144.4104  132.2940  151.1998 H   0  0  0  0  0  0  0  0  0  0  0  0
  142.4744  134.6429  151.6678 H   0  0  0  0  0  0  0  0  0  0  0  0
  142.1536  133.0125  152.2029 H   0  0  0  0  0  0  0  0  0  0  0  0
  143.4638  133.3234  153.9773 H   0  0  0  0  0  0  0  0  0  0  0  0
  146.2194  140.3502  153.7338 H   0  0  0  0  0  0  0  0  0  0  0  0
  148.1919  141.6376  154.3017 H   0  0  0  0  0  0  0  0  0  0  0  0
  1  2  1  0  0  0  0
  1 23  1  0  0  0  0
  1 24  1  0  0  0  0
  1 25  1  0  0  0  0
  2  3  1  0  0  0  0
  3  4  1  0  0  0  0
  3 26  1  0  0  0  0
  3 27  1  0  0  0  0
  4  5  1  0  0  0  0
  4 28  1  0  0  0  0
  4 29  1  0  0  0  0
  5 21  1  0  0  0  0
  5  6  1  0  0  0  0
  6  7  2  0  0  0  0
  7  8  1  0  0  0  0
  7 19  1  0  0  0  0
  8  9  2  0  0  0  0
  8 10  1  0  0  0  0
 10 11  1  0  0  0  0
 10 30  1  0  0  0  0
 11 17  1  0  0  0  0
 11 12  1  0  0  0  0
 11 31  1  0  0  0  0
 12 13  1  0  0  0  0
 12 32  1  0  0  0  0
 12 33  1  0  0  0  0
 13 14  1  0  0  0  0
 13 34  1  0  0  0  0
 13 35  1  0  0  0  0
 14 15  1  0  0  0  0
 14 36  1  0  0  0  0
 14 37  1  0  0  0  0
 15 16  1  0  0  0  0
 15 38  1  0  0  0  0
 15 39  1  0  0  0  0
 16 17  1  0  0  0  0
 16 40  1  0  0  0  0
 17 18  2  0  0  0  0
 19 20  2  0  0  0  0
 19 41  1  0  0  0  0
 20 21  1  0  0  0  0
 20 42  1  0  0  0  0
 21 22  2  0  0  0  0
M  END
> <s_m_source_file>
AV-unprocessed.smi

> <i_m_source_file_index>
1957

> <i_lp_mmshare_version>
43012

> <i_f3d_flags>
0

> <s_epik_input>
W0NIM11PW0NIMl1bQ0gyXW4xbmMoW2NIXVtjSF1jMT1PKUMoPU8pW05IXVtDQEBIXTJbQ0gyXVtDSDJdW0NIMl1bQ0gyXVtOSF1DMj1P

> <s_epik_cmdline>
J2VwaWtfcHl0aG9uJywgJy1waCcsICc3LjAnLCAnLXRuJywgJzgnLCAnLW1hJywgJzIwMCcsICctbWV0YWxfYmluZGluZycsICctaW1hZScsICc8aW5maWxlLm1hZT4nLCAnLW9tYWUnLCAnPG91dGZpbGUubWFlPic=

> <r_lp_tautomer_probability>
1

> <r_epik_Ionization_Penalty>
2.17512e-06

> <r_epik_Ionization_Penalty_Charging>
5.0222e-09

> <r_epik_Ionization_Penalty_Neutral>
2.1701e-06

> <r_epik_State_Penalty>
-0

> <r_epik_Charging_Adjusted_Penalty>
5.0222e-09

> <i_epik_Tot_Q>
0

> <i_epik_Tot_abs_Q>
0

> <r_epik_Metal_State_Penalty>
-0

> <b_epik_Metal_Only>
0

> <s_lp_Force_Field>
OPLS_2005

> <r_lp_Energy>
29.6922

> <b_lp_Chiralities_Consistent>
1

> <s_lp_Variant>
AV-unprocessed.smi:1957-2

> <Gold.Version>
5.8.1

> <Gold.Id.Protein>
6NUR|6NUR_protein|mol2

> <Gold.PLP.Fitness>
39.0722

> <Gold.PLP.PLP>
-28.9370

> <Gold.PLP.part.hbond>
-4.0000

> <Gold.PLP.part.metal>
0.0000

> <Gold.PLP.part.buried>
-3.8722

> <Gold.PLP.part.nonpolar>
-24.1138

> <Gold.PLP.part.repulsive>
3.0813

> <Gold.PLP.ligand.clash>
0.0000

> <Gold.PLP.ligand.torsion>
0.9380

> <Gold.PLP.Chemscore.Hbond>
4.0000

> <Gold.PLP.Chemscore.CHOScore>
0.0000

> <Gold.PLP.Chemscore.Metal>
0.0000

> <Gold.Chemscore.Hbonds>
donor molecule, donor type, donor heavy atom, donor atom, acceptor molecule, acceptor atom, score
      L1  H    10    30       P1  7948  1.00
      L1  H    16    40       P1 10957  1.00
      P1  H  7989  7998       L1    22  0.99
      P1  H 10752 10764       L1     2  1.00

> <Gold.PLP.Chemscore.Internal.Correction>
0.0113

> <Gold.Rescore>
     Score         DG    S(hbond)    S(metal)    S(lipo)     H(rot)  DE(clash)    DE(int)     intcor
     18.64     -20.90       3.82        0.00      61.56       1.78       1.26       1.00       ----

> <Gold.Chemscore.Fitness>
18.6403

> <Gold.Chemscore.DG>
-20.9016

> <Gold.Chemscore.ZeroCoef>
-5.4800

> <Gold.Chemscore.Hbond>
3.8244

> <Gold.Chemscore.Metal>
0.0000

> <Gold.Chemscore.Lipo>
61.5613

> <Gold.Chemscore.Internal_Hbond>
0.0000

> <Gold.Chemscore.DEClash>
1.2607

> <Gold.Chemscore.DEInternal>
1.0006

> <Gold.Chemscore.Rot>
1.7791

> <Gold.Chemscore.Internal.Correction>
   9.000000E+99

> <Gold.Chemscore.Hbonds>
donor molecule, donor type, donor heavy atom, donor atom, acceptor molecule, acceptor atom, score
      L1  H    10    30       P1  7948  1.00
      L1  H    16    40       P1 10957  0.96
      P1  H  7989  7998       L1    22  0.87
      P1  H 10752 10764       L1     2  0.82

> <Gold.Chemscore.Hbond.Weighted>
-12.7733

> <Gold.Chemscore.Metal.Weighted>
-0.0000

> <Gold.Chemscore.Lipo.Weighted>
-7.2027

> <Gold.Chemscore.Internal_Hbond.Weighted>
0.0000

> <Gold.Chemscore.DEClash.Weighted>
1.2607

> <Gold.Chemscore.DEInternal.Weighted>
1.0006

> <Gold.Chemscore.Rot.Weighted>
4.5544

> <Gold.Chemscore.Internal.Correction.Weighted>
   9.000000E+99

> <Gold.Protein.RotatedTorsions>
[ 6907 6896 6895 6894 ] final -142.19 input  -60.11 | X-H torsion
[ 7974 7965 7964 7962 ] final  169.89 input  175.53 | X-H torsion
[ 8008 7997 7996 7995 ] final   14.17 input   59.86 | X-H torsion
[ 10167 10162 10161 10158 ] final  -33.83 input  -65.29 | X-H torsion
[ 10718 10713 10712 10709 ] final   16.93 input   66.30 | X-H torsion
[ 10763 10752 10751 10750 ] final  -52.51 input  -60.55 | X-H torsion
[ 11005 11000 10999 10996 ] final   61.11 input  -57.11 | X-H torsion

> <Gold.Protein.ActiveResidues>
 VAL166  LYS551  ARG553  GLY616  TRP617  ASP618  TYR619  PRO620  LYS621  CYS622 
 ASP623  PHE694  ASN695  SER759  ASP760  ASP761  ALA762  ILE779  LEU786  VAL792 
 PHE793  MET794  SER795  GLU796  ALA797  LYS798  CYS799  TRP800  GLU811  SER814 

> <Gold.Protein.RotatedAtoms>
  151.0837  133.5370  159.2618 H   0  0  0  0  0  0  0  0  0  0  0  0  # atno 6907 bound_to 6896
  151.2263  135.0537  159.8980 H   0  0  0  0  0  0  0  0  0  0  0  0  # atno 6908 bound_to 6896
  152.5426  134.0632  159.8215 H   0  0  0  0  0  0  0  0  0  0  0  0  # atno 6909 bound_to 6896
  144.7341  139.9120  143.6415 H   0  0  0  0  0  0  0  0  0  0  0  0  # atno 7974 bound_to 7965
  154.8447  140.2920  155.5637 H   0  0  0  0  0  0  0  0  0  0  0  0  # atno 8008 bound_to 7997
  156.3013  140.2507  156.3327 H   0  0  0  0  0  0  0  0  0  0  0  0  # atno 8009 bound_to 7997
  154.9087  140.0389  157.1923 H   0  0  0  0  0  0  0  0  0  0  0  0  # atno 8010 bound_to 7997
  140.7197  143.3592  151.1998 H   0  0  0  0  0  0  0  0  0  0  0  0  # atno 10167 bound_to 10162
  157.0749  130.6363  149.5813 H   0  0  0  0  0  0  0  0  0  0  0  0  # atno 10718 bound_to 10713
  154.1439  135.6501  153.4948 H   0  0  0  0  0  0  0  0  0  0  0  0  # atno 10763 bound_to 10752
  153.0158  135.5322  154.6877 H   0  0  0  0  0  0  0  0  0  0  0  0  # atno 10764 bound_to 10752
  154.6146  135.2957  155.0365 H   0  0  0  0  0  0  0  0  0  0  0  0  # atno 10765 bound_to 10752
  140.0184  134.6190  155.9675 H   0  0  0  0  0  0  0  0  0  0  0  0  # atno 11005 bound_to 11000
  146.0993  139.3988  143.0356 LP  0  0  0  0  0  0  0  0  0  0  0  0  # atno 17320 bound_to 7965
  145.7600  140.9939  143.1205 LP  0  0  0  0  0  0  0  0  0  0  0  0  # atno 17321 bound_to 7965
  139.7140  143.9331  152.2959 LP  0  0  0  0  0  0  0  0  0  0  0  0  # atno 17342 bound_to 10162
  139.9065  144.6881  150.8608 LP  0  0  0  0  0  0  0  0  0  0  0  0  # atno 17343 bound_to 10162
  155.9940  130.5002  150.7402 LP  0  0  0  0  0  0  0  0  0  0  0  0  # atno 17370 bound_to 10713
  157.4848  131.0905  151.0495 LP  0  0  0  0  0  0  0  0  0  0  0  0  # atno 17371 bound_to 10713
  141.1758  133.6540  156.4823 LP  0  0  0  0  0  0  0  0  0  0  0  0  # atno 17394 bound_to 11000
  140.4430  134.6998  157.5001 LP  0  0  0  0  0  0  0  0  0  0  0  0  # atno 17395 bound_to 11000

$$$$
