AV-unprocessed.smi:2603|AV-procd|sdf|10187|dock1
  -GOLD-   2272014203D 1   1.00000     0.00000
 Structure written by MMmdl.
 35 36  0  0  0  0  0  0  0  0  1 V2000
  150.4628  145.1028  159.4600 C   0  0  0  0  0  0  0  0  0  0  0  0
  151.9518  145.3545  159.2116 C   0  0  0  0  0  0  0  0  0  0  0  0
  152.5662  144.1377  158.8277 O   0  0  0  0  0  0  0  0  0  0  0  0
  152.4101  143.1256  159.8095 C   0  0  2  0  0  0  0  0  0  0  0  0
  153.4166  142.0145  159.7015 C   0  0  0  0  0  0  0  0  0  0  0  0
  151.9887  141.7902  159.2347 C   0  0  2  0  0  0  0  0  0  0  0  0
  151.7582  141.7099  157.8295 N   0  0  0  0  0  0  0  0  0  0  0  0
  150.5610  141.6239  157.2319 C   0  0  0  0  0  0  0  0  0  0  0  0
  149.4958  141.5561  157.8446 O   0  0  0  0  0  0  0  0  0  0  0  0
  150.5664  141.6235  155.7021 C   0  0  0  0  0  0  0  0  0  0  0  0
  149.9941  140.3265  155.1840 C   0  0  0  0  0  0  0  0  0  0  0  0
  150.5631  139.0231  155.2709 C   0  0  0  0  0  0  0  0  0  0  0  0
  151.8673  138.6090  155.8893 C   0  0  0  0  0  0  0  0  0  0  0  0
  149.7884  138.1074  154.7144 N   0  0  0  0  0  0  0  0  0  0  0  0
  148.6640  138.7916  154.2433 O   0  0  0  0  0  0  0  0  0  0  0  0
  148.8086  140.1088  154.5354 C   0  0  0  0  0  0  0  0  0  0  0  0
  147.6935  141.0060  154.1163 C   0  0  0  0  0  0  0  0  0  0  0  0
  149.9625  146.0158  159.7829 H   0  0  0  0  0  0  0  0  0  0  0  0
  150.3168  144.3489  160.2341 H   0  0  0  0  0  0  0  0  0  0  0  0
  149.9677  144.7538  158.5540 H   0  0  0  0  0  0  0  0  0  0  0  0
  152.0790  146.1034  158.4285 H   0  0  0  0  0  0  0  0  0  0  0  0
  152.4203  145.7399  160.1183 H   0  0  0  0  0  0  0  0  0  0  0  0
  152.0160  143.4407  160.7743 H   0  0  0  0  0  0  0  0  0  0  0  0
  154.1930  142.1092  158.9447 H   0  0  0  0  0  0  0  0  0  0  0  0
  153.7242  141.5271  160.6245 H   0  0  0  0  0  0  0  0  0  0  0  0
  151.3729  141.1628  159.8775 H   0  0  0  0  0  0  0  0  0  0  0  0
  152.5738  141.7699  157.2373 H   0  0  0  0  0  0  0  0  0  0  0  0
  149.9960  142.4834  155.3498 H   0  0  0  0  0  0  0  0  0  0  0  0
  151.5866  141.7733  155.3467 H   0  0  0  0  0  0  0  0  0  0  0  0
  152.1607  139.2910  156.6877 H   0  0  0  0  0  0  0  0  0  0  0  0
  152.6657  138.6032  155.1472 H   0  0  0  0  0  0  0  0  0  0  0  0
  151.8049  137.6092  156.3205 H   0  0  0  0  0  0  0  0  0  0  0  0
  147.8813  142.0366  154.4165 H   0  0  0  0  0  0  0  0  0  0  0  0
  146.7549  140.6909  154.5713 H   0  0  0  0  0  0  0  0  0  0  0  0
  147.5683  140.9864  153.0337 H   0  0  0  0  0  0  0  0  0  0  0  0
  1  2  1  0  0  0  0
  1 18  1  0  0  0  0
  1 19  1  0  0  0  0
  1 20  1  0  0  0  0
  2  3  1  0  0  0  0
  2 21  1  0  0  0  0
  2 22  1  0  0  0  0
  3  4  1  0  0  0  0
  4  6  1  0  0  0  0
  4  5  1  0  0  0  0
  4 23  1  0  0  0  0
  5  6  1  0  0  0  0
  5 24  1  0  0  0  0
  5 25  1  0  0  0  0
  6  7  1  0  0  0  0
  6 26  1  0  0  0  0
  7  8  1  0  0  0  0
  7 27  1  0  0  0  0
  8  9  2  0  0  0  0
  8 10  1  0  0  0  0
 10 11  1  0  0  0  0
 10 28  1  0  0  0  0
 10 29  1  0  0  0  0
 11 16  2  0  0  0  0
 11 12  1  0  0  0  0
 12 13  1  0  0  0  0
 12 14  2  0  0  0  0
 13 30  1  0  0  0  0
 13 31  1  0  0  0  0
 13 32  1  0  0  0  0
 14 15  1  0  0  0  0
 15 16  1  0  0  0  0
 16 17  1  0  0  0  0
 17 33  1  0  0  0  0
 17 34  1  0  0  0  0
 17 35  1  0  0  0  0
M  END
> <s_m_source_file>
AV-unprocessed.smi

> <i_m_source_file_index>
2603

> <i_lp_mmshare_version>
43012

> <i_f3d_flags>
0

> <s_epik_input>
W0NIM11bQ0gyXU9bQ0BASF0xW0NIMl1bQ0BIXTFbTkhdQyg9TylbQ0gyXWMyYyhbQ0gzXSlub2MyW0NIM10=

> <s_epik_cmdline>
J2VwaWtfcHl0aG9uJywgJy1waCcsICc3LjAnLCAnLXRuJywgJzgnLCAnLW1hJywgJzIwMCcsICctbWV0YWxfYmluZGluZycsICctaW1hZScsICc8aW5maWxlLm1hZT4nLCAnLW9tYWUnLCAnPG91dGZpbGUubWFlPic=

> <r_lp_tautomer_probability>
1

> <r_epik_Ionization_Penalty>
2.37325e-08

> <r_epik_Ionization_Penalty_Charging>
0

> <r_epik_Ionization_Penalty_Neutral>
2.37325e-08

> <r_epik_State_Penalty>
-0

> <r_epik_Charging_Adjusted_Penalty>
0

> <i_epik_Tot_Q>
0

> <i_epik_Tot_abs_Q>
0

> <r_epik_Metal_State_Penalty>
-0

> <b_epik_Metal_Only>
0

> <s_lp_Force_Field>
OPLS_2005

> <r_lp_Energy>
11.1697

> <b_lp_Chiralities_Consistent>
1

> <s_lp_Variant>
AV-unprocessed.smi:2603-3

> <Gold.Version>
5.8.1

> <Gold.Id.Protein>
6NUR|6NUR_protein|mol2

> <Gold.PLP.Fitness>
35.5004

> <Gold.PLP.PLP>
-36.0233

> <Gold.PLP.part.hbond>
0.0000

> <Gold.PLP.part.metal>
0.0000

> <Gold.PLP.part.buried>
-4.7606

> <Gold.PLP.part.nonpolar>
-31.7618

> <Gold.PLP.part.repulsive>
0.8524

> <Gold.PLP.ligand.clash>
0.0000

> <Gold.PLP.ligand.torsion>
0.6125

> <Gold.PLP.Chemscore.Hbond>
0.0000

> <Gold.PLP.Chemscore.CHOScore>
0.0000

> <Gold.PLP.Chemscore.Metal>
0.0000

> <Gold.PLP.Chemscore.Internal.Correction>
0.7022

> <Gold.Rescore>
     Score         DG    S(hbond)    S(metal)    S(lipo)     H(rot)  DE(clash)    DE(int)     intcor
     11.54     -12.42       0.00        0.00      96.35       1.69       0.05       0.82       ----

> <Gold.Chemscore.Fitness>
11.5450

> <Gold.Chemscore.DG>
-12.4182

> <Gold.Chemscore.ZeroCoef>
-5.4800

> <Gold.Chemscore.Hbond>
0.0000

> <Gold.Chemscore.Metal>
0.0000

> <Gold.Chemscore.Lipo>
96.3502

> <Gold.Chemscore.Internal_Hbond>
0.0000

> <Gold.Chemscore.DEClash>
0.0485

> <Gold.Chemscore.DEInternal>
0.8248

> <Gold.Chemscore.Rot>
1.6933

> <Gold.Chemscore.Internal.Correction>
   9.000000E+99

> <Gold.Chemscore.Hbond.Weighted>
-0.0000

> <Gold.Chemscore.Metal.Weighted>
-0.0000

> <Gold.Chemscore.Lipo.Weighted>
-11.2730

> <Gold.Chemscore.Internal_Hbond.Weighted>
0.0000

> <Gold.Chemscore.DEClash.Weighted>
0.0485

> <Gold.Chemscore.DEInternal.Weighted>
0.8248

> <Gold.Chemscore.Rot.Weighted>
4.3348

> <Gold.Chemscore.Internal.Correction.Weighted>
   9.000000E+99

> <Gold.Protein.RotatedTorsions>
[ 6907 6896 6895 6894 ] final  -84.95 input  -60.11 | X-H torsion
[ 7974 7965 7964 7962 ] final  121.64 input  175.53 | X-H torsion
[ 8008 7997 7996 7995 ] final   74.79 input   59.86 | X-H torsion
[ 10167 10162 10161 10158 ] final   36.08 input  -65.29 | X-H torsion
[ 10718 10713 10712 10709 ] final    3.38 input   66.30 | X-H torsion
[ 10763 10752 10751 10750 ] final   73.40 input  -60.55 | X-H torsion
[ 11005 11000 10999 10996 ] final   -8.56 input  -57.11 | X-H torsion

> <Gold.Protein.ActiveResidues>
 VAL166  LYS551  ARG553  GLY616  TRP617  ASP618  TYR619  PRO620  LYS621  CYS622 
 ASP623  PHE694  ASN695  SER759  ASP760  ASP761  ALA762  ILE779  LEU786  VAL792 
 PHE793  MET794  SER795  GLU796  ALA797  LYS798  CYS799  TRP800  GLU811  SER814 

> <Gold.Protein.RotatedAtoms>
  150.6873  134.3280  159.4814 H   0  0  0  0  0  0  0  0  0  0  0  0  # atno 6907 bound_to 6896
  152.1147  134.9246  160.0574 H   0  0  0  0  0  0  0  0  0  0  0  0  # atno 6908 bound_to 6896
  152.0475  133.3969  159.4400 H   0  0  0  0  0  0  0  0  0  0  0  0  # atno 6909 bound_to 6896
  145.1169  139.3415  143.4734 H   0  0  0  0  0  0  0  0  0  0  0  0  # atno 7974 bound_to 7965
  155.8036  140.3475  155.5416 H   0  0  0  0  0  0  0  0  0  0  0  0  # atno 8008 bound_to 7997
  155.8513  140.0957  157.1693 H   0  0  0  0  0  0  0  0  0  0  0  0  # atno 8009 bound_to 7997
  154.4008  140.1376  156.3835 H   0  0  0  0  0  0  0  0  0  0  0  0  # atno 8010 bound_to 7997
  140.4162  144.1524  150.6143 H   0  0  0  0  0  0  0  0  0  0  0  0  # atno 10167 bound_to 10162
  156.8770  130.5640  149.5654 H   0  0  0  0  0  0  0  0  0  0  0  0  # atno 10718 bound_to 10713
  153.0519  135.5064  154.7887 H   0  0  0  0  0  0  0  0  0  0  0  0  # atno 10763 bound_to 10752
  154.6743  135.2958  154.9702 H   0  0  0  0  0  0  0  0  0  0  0  0  # atno 10764 bound_to 10752
  154.0509  135.6704  153.4853 H   0  0  0  0  0  0  0  0  0  0  0  0  # atno 10765 bound_to 10752
  140.7248  133.8798  155.8847 H   0  0  0  0  0  0  0  0  0  0  0  0  # atno 11005 bound_to 11000
  146.3523  140.1112  142.8604 LP  0  0  0  0  0  0  0  0  0  0  0  0  # atno 17320 bound_to 7965
  145.0783  140.9204  143.4840 LP  0  0  0  0  0  0  0  0  0  0  0  0  # atno 17321 bound_to 7965
  140.4584  143.2458  151.9253 LP  0  0  0  0  0  0  0  0  0  0  0  0  # atno 17342 bound_to 10162
  139.4782  144.5492  151.8412 LP  0  0  0  0  0  0  0  0  0  0  0  0  # atno 17343 bound_to 10162
  156.0697  130.5732  150.9359 LP  0  0  0  0  0  0  0  0  0  0  0  0  # atno 17370 bound_to 10713
  157.6163  131.0933  150.8705 LP  0  0  0  0  0  0  0  0  0  0  0  0  # atno 17371 bound_to 10713
  140.9973  134.1198  157.4352 LP  0  0  0  0  0  0  0  0  0  0  0  0  # atno 17394 bound_to 11000
  139.8840  135.0058  156.6337 LP  0  0  0  0  0  0  0  0  0  0  0  0  # atno 17395 bound_to 11000

$$$$
