AV-unprocessed.smi:252|AV-procd|sdf|1937|dock5
  -GOLD-   2262021 63D 1   1.00000     0.00000
 Structure written by MMmdl.
 56 59  0  0  0  0  0  0  0  0  1 V2000
  147.7567  127.1130  151.5549 C   0  0  0  0  0  0  0  0  0  0  0  0
  147.2754  127.8948  152.7871 C   0  0  0  0  0  0  0  0  0  0  0  0
  147.2663  129.4128  152.5802 C   0  0  0  0  0  0  0  0  0  0  0  0
  147.9930  130.1458  153.2522 O   0  0  0  0  0  0  0  0  0  0  0  0
  146.4235  129.8729  151.6425 N   0  0  0  0  0  0  0  0  0  0  0  0
  146.2451  131.2764  151.2846 C   0  0  1  0  0  0  0  0  0  0  0  0
  144.9297  131.4520  150.5040 C   0  0  0  0  0  0  0  0  0  0  0  0
  144.6795  132.9363  150.1942 C   0  0  0  0  0  0  0  0  0  0  0  0
  144.7218  133.7846  151.4756 C   0  0  0  0  0  0  0  0  0  0  0  0
  145.9706  133.5591  152.2045 N   0  0  0  0  0  0  0  0  0  0  0  0
  146.3210  134.4559  153.1610 C   0  0  0  0  0  0  0  0  0  0  0  0
  146.9491  134.0339  154.2911 N   0  0  0  0  0  0  0  0  0  0  0  0
  147.3118  134.9133  155.2297 C   0  0  0  0  0  0  0  0  0  0  0  0
  147.1462  136.2371  155.2420 N   0  0  0  0  0  0  0  0  0  0  0  0
  146.5099  136.6664  154.1149 C   0  0  0  0  0  0  0  0  0  0  0  0
  146.0628  135.8504  153.0374 C   0  0  0  0  0  0  0  0  0  0  0  0
  145.4400  136.6373  152.0756 N   0  0  0  0  0  0  0  0  0  0  0  0
  145.5261  137.8494  152.5507 C   0  0  0  0  0  0  0  0  0  0  0  0
  146.1632  137.9604  153.7661 N   0  0  0  0  0  0  0  0  0  0  0  0
  146.4029  139.1846  154.5154 C   0  0  0  0  0  0  0  0  0  0  0  0
  147.5263  140.0670  153.9099 C   0  0  1  0  0  0  0  0  0  0  0  0
  147.1820  140.3505  152.5643 O   0  0  0  0  0  0  0  0  0  0  0  0
  147.7133  141.3983  154.6326 C   0  0  0  0  0  0  0  0  0  0  0  0
  149.1805  141.7158  154.3901 C   0  0  0  0  0  0  0  0  0  0  0  0
  149.7924  140.4452  154.5225 O   0  0  0  0  0  0  0  0  0  0  0  0
  148.9593  139.4623  153.9123 C   0  0  1  0  0  0  0  0  0  0  0  0
  149.1548  138.1469  154.6821 C   0  0  0  0  0  0  0  0  0  0  0  0
  146.2433  132.1636  152.5460 C   0  0  0  0  0  0  0  0  0  0  0  0
  147.7048  126.0394  151.7365 H   0  0  0  0  0  0  0  0  0  0  0  0
  148.7916  127.3537  151.3084 H   0  0  0  0  0  0  0  0  0  0  0  0
  147.1416  127.3296  150.6806 H   0  0  0  0  0  0  0  0  0  0  0  0
  146.2690  127.5659  153.0501 H   0  0  0  0  0  0  0  0  0  0  0  0
  147.9135  127.6655  153.6407 H   0  0  0  0  0  0  0  0  0  0  0  0
  145.8623  129.2007  151.1397 H   0  0  0  0  0  0  0  0  0  0  0  0
  147.0698  131.5829  150.6379 H   0  0  0  0  0  0  0  0  0  0  0  0
  144.9601  130.8790  149.5765 H   0  0  0  0  0  0  0  0  0  0  0  0
  144.0957  131.0592  151.0875 H   0  0  0  0  0  0  0  0  0  0  0  0
  145.4366  133.2957  149.4961 H   0  0  0  0  0  0  0  0  0  0  0  0
  143.7168  133.0588  149.6975 H   0  0  0  0  0  0  0  0  0  0  0  0
  144.6232  134.8392  151.2146 H   0  0  0  0  0  0  0  0  0  0  0  0
  143.8788  133.5303  152.1195 H   0  0  0  0  0  0  0  0  0  0  0  0
  147.8080  134.4967  156.0938 H   0  0  0  0  0  0  0  0  0  0  0  0
  145.1275  138.7021  152.0207 H   0  0  0  0  0  0  0  0  0  0  0  0
  145.4621  139.7345  154.5502 H   0  0  0  0  0  0  0  0  0  0  0  0
  146.6420  138.9153  155.5449 H   0  0  0  0  0  0  0  0  0  0  0  0
  147.9771  140.5022  152.0768 H   0  0  0  0  0  0  0  0  0  0  0  0
  147.0400  142.1860  154.2912 H   0  0  0  0  0  0  0  0  0  0  0  0
  147.5567  141.2686  155.7042 H   0  0  0  0  0  0  0  0  0  0  0  0
  149.3400  142.1013  153.3819 H   0  0  0  0  0  0  0  0  0  0  0  0
  149.5823  142.4338  155.1051 H   0  0  0  0  0  0  0  0  0  0  0  0
  149.3134  139.3169  152.8899 H   0  0  0  0  0  0  0  0  0  0  0  0
  148.5568  137.3420  154.2546 H   0  0  0  0  0  0  0  0  0  0  0  0
  148.8852  138.2530  155.7330 H   0  0  0  0  0  0  0  0  0  0  0  0
  150.1978  137.8322  154.6444 H   0  0  0  0  0  0  0  0  0  0  0  0
  145.4739  131.8227  153.2402 H   0  0  0  0  0  0  0  0  0  0  0  0
  147.1946  132.0615  153.0667 H   0  0  0  0  0  0  0  0  0  0  0  0
  1  2  1  0  0  0  0
  1 29  1  0  0  0  0
  1 30  1  0  0  0  0
  1 31  1  0  0  0  0
  2  3  1  0  0  0  0
  2 32  1  0  0  0  0
  2 33  1  0  0  0  0
  3  4  2  0  0  0  0
  3  5  1  0  0  0  0
  5  6  1  0  0  0  0
  5 34  1  0  0  0  0
  6 28  1  0  0  0  0
  6  7  1  0  0  0  0
  6 35  1  0  0  0  0
  7  8  1  0  0  0  0
  7 36  1  0  0  0  0
  7 37  1  0  0  0  0
  8  9  1  0  0  0  0
  8 38  1  0  0  0  0
  8 39  1  0  0  0  0
  9 10  1  0  0  0  0
  9 40  1  0  0  0  0
  9 41  1  0  0  0  0
 10 11  1  0  0  0  0
 10 28  1  0  0  0  0
 11 16  1  0  0  0  0
 11 12  2  0  0  0  0
 12 13  1  0  0  0  0
 13 14  2  0  0  0  0
 13 42  1  0  0  0  0
 14 15  1  0  0  0  0
 15 19  1  0  0  0  0
 15 16  2  0  0  0  0
 16 17  1  0  0  0  0
 17 18  2  0  0  0  0
 18 19  1  0  0  0  0
 18 43  1  0  0  0  0
 19 20  1  0  0  0  0
 20 21  1  0  0  0  0
 20 44  1  0  0  0  0
 20 45  1  0  0  0  0
 21 26  1  0  0  0  0
 21 22  1  0  0  0  0
 21 23  1  0  0  0  0
 22 46  1  0  0  0  0
 23 24  1  0  0  0  0
 23 47  1  0  0  0  0
 23 48  1  0  0  0  0
 24 25  1  0  0  0  0
 24 49  1  0  0  0  0
 24 50  1  0  0  0  0
 25 26  1  0  0  0  0
 26 27  1  0  0  0  0
 26 51  1  0  0  0  0
 27 52  1  0  0  0  0
 27 53  1  0  0  0  0
 27 54  1  0  0  0  0
 28 55  1  0  0  0  0
 28 56  1  0  0  0  0
M  END
> <s_m_source_file>
AV-unprocessed.smi

> <i_m_source_file_index>
252

> <i_lp_mmshare_version>
43012

> <i_f3d_flags>
0

> <s_epik_input>
W0NIM11bQ0gyXUMoPU8pW05IXVtDQEBIXTFbQ0gyXVtDSDJdW0NIMl1OKFtDSDJdMSljKG5bY0hdbjIpYyhjMjMpbltjSF1uM1tDSDJdW0NAQF00KFtPSF0pW0NIMl1bQ0gyXU9bQ0BIXTRbQ0gzXQ==

> <s_epik_cmdline>
J2VwaWtfcHl0aG9uJywgJy1waCcsICc3LjAnLCAnLXRuJywgJzgnLCAnLW1hJywgJzIwMCcsICctbWV0YWxfYmluZGluZycsICctaW1hZScsICc8aW5maWxlLm1hZT4nLCAnLW9tYWUnLCAnPG91dGZpbGUubWFlPic=

> <r_lp_tautomer_probability>
1

> <r_epik_Ionization_Penalty>
0.00182575

> <r_epik_Ionization_Penalty_Charging>
0

> <r_epik_Ionization_Penalty_Neutral>
0.00182575

> <r_epik_State_Penalty>
0.00104524

> <r_epik_Charging_Adjusted_Penalty>
0.00104524

> <i_epik_Tot_Q>
0

> <i_epik_Tot_abs_Q>
0

> <r_epik_Metal_State_Penalty>
-0

> <b_epik_Metal_Only>
0

> <s_lp_Force_Field>
OPLS_2005

> <r_lp_Energy>
35.3243

> <b_lp_Chiralities_Consistent>
1

> <s_lp_Variant>
AV-unprocessed.smi:252-2

> <Gold.Version>
5.8.1

> <Gold.Id.Protein>
6NUR|6NUR_protein|mol2

> <Gold.PLP.Fitness>
42.8910

> <Gold.PLP.PLP>
-33.7888

> <Gold.PLP.part.hbond>
-3.0000

> <Gold.PLP.part.metal>
0.0000

> <Gold.PLP.part.buried>
1.2116

> <Gold.PLP.part.nonpolar>
-31.3984

> <Gold.PLP.part.repulsive>
0.6937

> <Gold.PLP.ligand.clash>
0.0126

> <Gold.PLP.ligand.torsion>
0.7985

> <Gold.PLP.Chemscore.Hbond>
1.6065

> <Gold.PLP.Chemscore.CHOScore>
1.8262

> <Gold.PLP.Chemscore.Metal>
0.0000

> <Gold.Chemscore.Hbonds>
donor molecule, donor type, donor heavy atom, donor atom, acceptor molecule, acceptor atom, score
      L1  H    22    46       P1  7957  1.00
      P1  H  7989  7998       L1    25  0.56
      L1  C    18    43       P1 10171  0.91
      L1  C    18    43       P1 10175  1.00

> <Gold.PLP.Chemscore.Internal.Correction>
0.4137

> <Gold.Rescore>
     Score         DG    S(hbond)    S(metal)    S(lipo)     H(rot)  DE(clash)    DE(int)     intcor
      6.61     -12.80       1.01        0.00      92.97       2.70       0.41       5.78       ----

> <Gold.Chemscore.Fitness>
6.6138

> <Gold.Chemscore.DG>
-12.8010

> <Gold.Chemscore.ZeroCoef>
-5.4800

> <Gold.Chemscore.Hbond>
1.0077

> <Gold.Chemscore.Metal>
0.0000

> <Gold.Chemscore.Lipo>
92.9733

> <Gold.Chemscore.Internal_Hbond>
0.0000

> <Gold.Chemscore.DEClash>
0.4061

> <Gold.Chemscore.DEInternal>
5.7811

> <Gold.Chemscore.Rot>
2.7041

> <Gold.Chemscore.Internal.Correction>
   9.000000E+99

> <Gold.Chemscore.Hbonds>
donor molecule, donor type, donor heavy atom, donor atom, acceptor molecule, acceptor atom, score
      L1  H    22    46       P1  7957  0.99
      P1  H  7989  7998       L1    25  0.10

> <Gold.Chemscore.Hbond.Weighted>
-3.3656

> <Gold.Chemscore.Metal.Weighted>
-0.0000

> <Gold.Chemscore.Lipo.Weighted>
-10.8779

> <Gold.Chemscore.Internal_Hbond.Weighted>
0.0000

> <Gold.Chemscore.DEClash.Weighted>
0.4061

> <Gold.Chemscore.DEInternal.Weighted>
5.7811

> <Gold.Chemscore.Rot.Weighted>
6.9225

> <Gold.Chemscore.Internal.Correction.Weighted>
   9.000000E+99

> <Gold.Protein.RotatedTorsions>
[ 6907 6896 6895 6894 ] final  148.04 input  -60.11 | X-H torsion
[ 7974 7965 7964 7962 ] final  -36.12 input  175.53 | X-H torsion
[ 8008 7997 7996 7995 ] final   31.95 input   59.86 | X-H torsion
[ 10167 10162 10161 10158 ] final  -70.60 input  -65.29 | X-H torsion
[ 10718 10713 10712 10709 ] final   31.82 input   66.30 | X-H torsion
[ 10763 10752 10751 10750 ] final  118.78 input  -60.55 | X-H torsion
[ 11005 11000 10999 10996 ] final -134.97 input  -57.11 | X-H torsion

> <Gold.Protein.ActiveResidues>
 VAL166  LYS551  ARG553  GLY616  TRP617  ASP618  TYR619  PRO620  LYS621  CYS622 
 ASP623  PHE694  ASN695  SER759  ASP760  ASP761  ALA762  ILE779  LEU786  VAL792 
 PHE793  MET794  SER795  GLU796  ALA797  LYS798  CYS799  TRP800  GLU811  SER814 

> <Gold.Protein.RotatedAtoms>
  152.1468  133.4497  159.4793 H   0  0  0  0  0  0  0  0  0  0  0  0  # atno 6907 bound_to 6896
  150.6891  134.2238  159.4416 H   0  0  0  0  0  0  0  0  0  0  0  0  # atno 6908 bound_to 6896
  152.0132  134.9864  160.0619 H   0  0  0  0  0  0  0  0  0  0  0  0  # atno 6909 bound_to 6896
  146.0688  140.6241  142.8962 H   0  0  0  0  0  0  0  0  0  0  0  0  # atno 7974 bound_to 7965
  155.1147  140.3242  155.4512 H   0  0  0  0  0  0  0  0  0  0  0  0  # atno 8008 bound_to 7997
  156.2680  140.2038  156.6218 H   0  0  0  0  0  0  0  0  0  0  0  0  # atno 8009 bound_to 7997
  154.6729  140.0534  157.0172 H   0  0  0  0  0  0  0  0  0  0  0  0  # atno 8010 bound_to 7997
  140.5339  143.2319  151.7212 H   0  0  0  0  0  0  0  0  0  0  0  0  # atno 10167 bound_to 10162
  157.2774  130.7238  149.6537 H   0  0  0  0  0  0  0  0  0  0  0  0  # atno 10718 bound_to 10713
  153.5729  135.3499  155.2845 H   0  0  0  0  0  0  0  0  0  0  0  0  # atno 10763 bound_to 10752
  154.8679  135.4163  154.2705 H   0  0  0  0  0  0  0  0  0  0  0  0  # atno 10764 bound_to 10752
  153.3475  135.7053  153.6886 H   0  0  0  0  0  0  0  0  0  0  0  0  # atno 10765 bound_to 10752
  140.8941  134.1774  157.4507 H   0  0  0  0  0  0  0  0  0  0  0  0  # atno 11005 bound_to 11000
  144.7219  140.4401  143.7002 LP  0  0  0  0  0  0  0  0  0  0  0  0  # atno 17320 bound_to 7965
  145.6428  139.1552  143.2906 LP  0  0  0  0  0  0  0  0  0  0  0  0  # atno 17321 bound_to 7965
  139.4964  144.4072  152.0119 LP  0  0  0  0  0  0  0  0  0  0  0  0  # atno 17342 bound_to 10162
  140.3176  144.3465  150.6017 LP  0  0  0  0  0  0  0  0  0  0  0  0  # atno 17343 bound_to 10162
  155.9664  130.4349  150.5067 LP  0  0  0  0  0  0  0  0  0  0  0  0  # atno 17370 bound_to 10713
  157.3004  131.0644  151.2072 LP  0  0  0  0  0  0  0  0  0  0  0  0  # atno 17371 bound_to 10713
  139.8733  134.9871  156.5353 LP  0  0  0  0  0  0  0  0  0  0  0  0  # atno 17394 bound_to 11000
  140.8310  133.8279  155.8984 LP  0  0  0  0  0  0  0  0  0  0  0  0  # atno 17395 bound_to 11000

$$$$
