#       Name:                AV-unprocessed.smi:1570
#       Creating user name   scv26
#       Creation time:       Fri Mar 27 06:53:12 2020


#       File generated by GOLD software.
#

@<TRIPOS>MOLECULE
AV-unprocessed.smi:1570
    58    60     1
SMALL
NO_CHARGES


@<TRIPOS>ATOM
      1 ****        -1.6187   4.9597  -1.3318 C.3            1 S1                 0.0000
      2 ****        -2.8263   4.0619  -1.6290 C.3            1 S1                 0.0000
      3 ****        -2.7934   2.8474  -0.8181 N.am           1 S1                 0.0000
      4 ****        -2.2371   1.6625  -1.1614 C.2            1 S1                 0.0000
      5 ****        -1.6752   1.4067  -2.2266 O.2            1 S1                 0.0000
      6 ****        -2.3893   0.8081  -0.1216 N.am           1 S1                 0.0000
      7 ****        -1.9337  -0.5806  -0.0673 C.3            1 S1                 0.0000
      8 ****        -0.4106  -0.6768   0.1563 C.3            1 S1                 0.0000
      9 ****        -0.1584  -0.5402   1.5413 O.3            1 S1                 0.0000
     10 ****         0.1477  -2.0442  -0.2881 C.3            1 S1                 0.0000
     11 ****         1.6314  -2.0899  -0.2400 N.4            1 S1                 1.0000
     12 ****         2.1570  -3.4651  -0.0801 C.3            1 S1                 0.0000
     13 ****         3.6882  -3.4399   0.0797 C.3            1 S1                 0.0000
     14 ****         4.2819  -4.8508   0.1561 C.3            1 S1                 0.0000
     15 ****         4.2726  -2.7792  -1.0399 O.3            1 S1                 0.0000
     16 ****         3.8163  -1.4437  -1.2553 C.3            1 S1                 0.0000
     17 ****         4.3510  -0.4647  -0.1948 C.3            1 S1                 0.0000
     18 ****         2.2818  -1.4226  -1.3949 C.3            1 S1                 0.0000
     19 ****        -3.0489   1.4711   0.9238 C.ar           1 S1                 0.0000
     20 ****        -3.4236   1.0373   2.2078 C.ar           1 S1                 0.0000
     21 ****        -4.0813   1.9728   3.0406 C.ar           1 S1                 0.0000
     22 ****        -4.3444   3.2914   2.5874 C.ar           1 S1                 0.0000
     23 ****        -3.9538   3.7033   1.2919 C.ar           1 S1                 0.0000
     24 ****        -3.3033   2.7539   0.4846 C.ar           1 S1                 0.0000
     25 ****        -1.6512   5.8656  -1.9372 H              1 S1                 0.0000
     26 ****        -0.6816   4.4466  -1.5505 H              1 S1                 0.0000
     27 ****        -1.5994   5.2617  -0.2841 H              1 S1                 0.0000
     28 ****        -3.7525   4.6044  -1.4375 H              1 S1                 0.0000
     29 ****        -2.8428   3.8021  -2.6885 H              1 S1                 0.0000
     30 ****        -2.4821  -1.1493   0.6842 H              1 S1                 0.0000
     31 ****        -2.1923  -1.0398  -1.0228 H              1 S1                 0.0000
     32 ****         0.0950   0.1265  -0.3781 H              1 S1                 0.0000
     33 ****        -0.6615  -1.1913   2.0064 H              1 S1                 0.0000
     34 ****        -0.2725  -2.8203   0.3539 H              1 S1                 0.0000
     35 ****        -0.1790  -2.2827  -1.3017 H              1 S1                 0.0000
     36 ****         1.7078  -3.9319   0.7974 H              1 S1                 0.0000
     37 ****         1.8728  -4.0671  -0.9450 H              1 S1                 0.0000
     38 ****         3.9521  -2.9135   0.9972 H              1 S1                 0.0000
     39 ****         3.8800  -5.4009   1.0075 H              1 S1                 0.0000
     40 ****         5.3658  -4.8120   0.2682 H              1 S1                 0.0000
     41 ****         4.0616  -5.4221  -0.7462 H              1 S1                 0.0000
     42 ****         4.2392  -1.1319  -2.2108 H              1 S1                 0.0000
     43 ****         4.0968   0.5631  -0.4553 H              1 S1                 0.0000
     44 ****         5.4372  -0.5256  -0.1230 H              1 S1                 0.0000
     45 ****         3.9377  -0.6576   0.7948 H              1 S1                 0.0000
     46 ****         1.9935  -1.9395  -2.3119 H              1 S1                 0.0000
     47 ****         1.9383  -0.3939  -1.4971 H              1 S1                 0.0000
     48 ****        -3.2185   0.0349   2.5523 H              1 S1                 0.0000
     49 ****        -4.3853   1.6806   4.0350 H              1 S1                 0.0000
     50 ****        -4.8473   3.9900   3.2399 H              1 S1                 0.0000
     51 ****        -4.1471   4.7069   0.9431 H              1 S1                 0.0000
     52 ****         1.9043  -1.5834   0.5907 H              1 S1                 0.0000
     53 ****        -1.5994   2.1100  -2.9335 LP             1 S1                 0.0000
     54 ****        -1.2945   0.4957  -2.3850 LP             1 S1                 0.0000
     55 ****        -0.4289   0.3737   1.8441 LP             1 S1                 0.0000
     56 ****         0.8159  -0.6761   1.7210 LP             1 S1                 0.0000
     57 ****         4.0656  -3.3141  -1.8591 LP             1 S1                 0.0000
     58 ****         5.2626  -2.7507  -0.9018 LP             1 S1                 0.0000
@<TRIPOS>BOND
    1    1    2 1     
    2    1   25 1     
    3    1   26 1     
    4    1   27 1     
    5    2    3 1     
    6    2   28 1     
    7    2   29 1     
    8    3   24 1     
    9    3    4 am    
   10    4    5 2     
   11    4    6 am    
   12    6    7 1     
   13    6   19 1     
   14    7    8 1     
   15    7   30 1     
   16    7   31 1     
   17    8    9 1     
   18    8   10 1     
   19    8   32 1     
   20    9   33 1     
   21   10   11 1     
   22   10   34 1     
   23   10   35 1     
   24   11   18 1     
   25   11   12 1     
   26   11   52 1     
   27   12   13 1     
   28   12   36 1     
   29   12   37 1     
   30   13   14 1     
   31   13   15 1     
   32   13   38 1     
   33   14   39 1     
   34   14   40 1     
   35   14   41 1     
   36   15   16 1     
   37   16   17 1     
   38   16   18 1     
   39   16   42 1     
   40   17   43 1     
   41   17   44 1     
   42   17   45 1     
   43   18   46 1     
   44   18   47 1     
   45   19   24 ar    
   46   19   20 ar    
   47   20   21 ar    
   48   20   48 1     
   49   21   22 ar    
   50   21   49 1     
   51   22   23 ar    
   52   22   50 1     
   53   23   24 ar    
   54   23   51 1     
   55    5   53 1     
   56    5   54 1     
   57    9   55 1     
   58    9   56 1     
   59   15   57 1     
   60   15   58 1     
@<TRIPOS>SUBSTRUCTURE
      1 S1             1
@<TRIPOS>SET
LONE_PAIRS      STATIC     ATOMS    <user>   **** ""
6 53 54 55 56 57 58
DONOR_HYDROGENS      STATIC     ATOMS    <user>   **** ""
2 33 52
ATOM$BLUE        STATIC     ATOMS    COLORGROUP SYSTEM
6 53 54 55 56 57 58
ATOM$RED        STATIC     ATOMS    COLORGROUP SYSTEM
2 33 52
