AV-unprocessed.smi:1005|AV-procd|sdf|4378|dock10
  -GOLD-   22720 2293D 1   1.00000     0.00000
 Structure written by MMmdl.
 58 60  0  0  0  0  0  0  0  0  4 V2000
  152.4415  143.9417  161.5838 C   0  0  0  0  0  0  0  0  0  0  0  0
  152.2653  142.9513  160.4453 C   0  0  0  0  0  0  0  0  0  0  0  0
  152.9733  141.7292  160.4994 C   0  0  0  0  0  0  0  0  0  0  0  0
  152.7900  140.8428  159.4449 C   0  0  0  0  0  0  0  0  0  0  0  0
  153.3361  139.5800  159.2045 N   0  3  0  0  0  0  0  0  0  0  0  0
  152.8524  139.0914  158.0289 C   0  0  0  0  0  0  0  0  0  0  0  0
  151.9998  140.0219  157.5183 N   0  0  0  0  0  0  0  0  0  0  0  0
  151.2091  140.0038  156.2802 C   0  0  0  0  0  0  0  0  0  0  0  0
  151.7757  139.0378  155.2206 C   0  0  2  0  0  0  0  0  0  0  0  0
  152.9449  139.6010  154.6572 O   0  0  0  0  0  0  0  0  0  0  0  0
  150.7613  138.7694  154.0915 C   0  0  0  0  0  0  0  0  0  0  0  0
  149.9673  137.5338  154.3165 N   0  3  1  0  0  0  0  0  0  0  0  0
  150.7869  136.3608  154.7084 C   0  0  0  0  0  0  0  0  0  0  0  0
  149.8964  135.1202  154.8805 C   0  0  0  0  0  0  0  0  0  0  0  0
  148.8796  135.3938  155.8367 O   0  0  0  0  0  0  0  0  0  0  0  0
  148.0188  136.4522  155.4306 C   0  0  1  0  0  0  0  0  0  0  0  0
  146.9171  136.5815  156.5018 C   0  0  0  0  0  0  0  0  0  0  0  0
  147.4186  137.0746  157.8112 N   0  3  0  0  0  0  0  0  0  0  0  0
  148.3583  136.1195  158.4397 C   0  0  0  0  0  0  0  0  0  0  0  0
  146.3381  137.4647  158.7469 C   0  0  0  0  0  0  0  0  0  0  0  0
  148.8611  137.7376  155.2825 C   0  0  0  0  0  0  0  0  0  0  0  0
  151.9366  141.1350  158.3634 C   0  0  0  0  0  0  0  0  0  0  0  0
  151.2347  142.3357  158.2919 C   0  0  0  0  0  0  0  0  0  0  0  0
  151.4091  143.2516  159.3541 C   0  0  0  0  0  0  0  0  0  0  0  0
  150.6571  144.5708  159.3039 C   0  0  0  0  0  0  0  0  0  0  0  0
  153.1052  143.5496  162.3549 H   0  0  0  0  0  0  0  0  0  0  0  0
  151.4823  144.1624  162.0525 H   0  0  0  0  0  0  0  0  0  0  0  0
  152.8712  144.8740  161.2165 H   0  0  0  0  0  0  0  0  0  0  0  0
  153.6288  141.4952  161.3257 H   0  0  0  0  0  0  0  0  0  0  0  0
  153.0984  138.1371  157.5855 H   0  0  0  0  0  0  0  0  0  0  0  0
  150.1800  139.7462  156.5342 H   0  0  0  0  0  0  0  0  0  0  0  0
  151.1856  141.0232  155.8922 H   0  0  0  0  0  0  0  0  0  0  0  0
  152.0519  138.1050  155.7105 H   0  0  0  0  0  0  0  0  0  0  0  0
  153.3322  138.9662  154.0733 H   0  0  0  0  0  0  0  0  0  0  0  0
  150.0838  139.6170  153.9759 H   0  0  0  0  0  0  0  0  0  0  0  0
  151.3073  138.6872  153.1502 H   0  0  0  0  0  0  0  0  0  0  0  0
  151.5470  136.1536  153.9559 H   0  0  0  0  0  0  0  0  0  0  0  0
  151.3111  136.5736  155.6414 H   0  0  0  0  0  0  0  0  0  0  0  0
  149.4513  134.8238  153.9293 H   0  0  0  0  0  0  0  0  0  0  0  0
  150.4915  134.2761  155.2294 H   0  0  0  0  0  0  0  0  0  0  0  0
  147.5760  136.1828  154.4709 H   0  0  0  0  0  0  0  0  0  0  0  0
  146.1252  137.2448  156.1504 H   0  0  0  0  0  0  0  0  0  0  0  0
  146.4536  135.6024  156.6348 H   0  0  0  0  0  0  0  0  0  0  0  0
  147.8613  135.1759  158.6689 H   0  0  0  0  0  0  0  0  0  0  0  0
  148.7623  136.5271  159.3674 H   0  0  0  0  0  0  0  0  0  0  0  0
  149.2011  135.9118  157.7796 H   0  0  0  0  0  0  0  0  0  0  0  0
  145.6896  136.6168  158.9716 H   0  0  0  0  0  0  0  0  0  0  0  0
  145.7240  138.2671  158.3399 H   0  0  0  0  0  0  0  0  0  0  0  0
  146.7576  137.8270  159.6863 H   0  0  0  0  0  0  0  0  0  0  0  0
  149.2734  138.0344  156.2485 H   0  0  0  0  0  0  0  0  0  0  0  0
  148.2269  138.5561  154.9397 H   0  0  0  0  0  0  0  0  0  0  0  0
  150.5836  142.5646  157.4613 H   0  0  0  0  0  0  0  0  0  0  0  0
  150.0664  144.6594  158.3915 H   0  0  0  0  0  0  0  0  0  0  0  0
  151.3519  145.4106  159.3322 H   0  0  0  0  0  0  0  0  0  0  0  0
  149.9762  144.6554  160.1511 H   0  0  0  0  0  0  0  0  0  0  0  0
  147.9585  137.9074  157.6232 H   0  0  0  0  0  0  0  0  0  0  0  0
  149.5344  137.3123  153.4307 H   0  0  0  0  0  0  0  0  0  0  0  0
  153.9928  139.0868  159.7962 H   0  0  0  0  0  0  0  0  0  0  0  0
  1  2  1  0  0  0  0
  1 26  1  0  0  0  0
  1 27  1  0  0  0  0
  1 28  1  0  0  0  0
  2 24  1  0  0  0  0
  2  3  2  0  0  0  0
  3  4  1  0  0  0  0
  3 29  1  0  0  0  0
  4 22  2  0  0  0  0
  4  5  1  0  0  0  0
  5  6  2  0  0  0  0
  5 58  1  0  0  0  0
  6  7  1  0  0  0  0
  6 30  1  0  0  0  0
  7  8  1  0  0  0  0
  7 22  1  0  0  0  0
  8  9  1  0  0  0  0
  8 31  1  0  0  0  0
  8 32  1  0  0  0  0
  9 10  1  0  0  0  0
  9 11  1  0  0  0  0
  9 33  1  0  0  0  0
 10 34  1  0  0  0  0
 11 12  1  0  0  0  0
 11 35  1  0  0  0  0
 11 36  1  0  0  0  0
 12 21  1  0  0  0  0
 12 13  1  0  0  0  0
 12 57  1  0  0  0  0
 13 14  1  0  0  0  0
 13 37  1  0  0  0  0
 13 38  1  0  0  0  0
 14 15  1  0  0  0  0
 14 39  1  0  0  0  0
 14 40  1  0  0  0  0
 15 16  1  0  0  0  0
 16 17  1  0  0  0  0
 16 21  1  0  0  0  0
 16 41  1  0  0  0  0
 17 18  1  0  0  0  0
 17 42  1  0  0  0  0
 17 43  1  0  0  0  0
 18 19  1  0  0  0  0
 18 20  1  0  0  0  0
 18 56  1  0  0  0  0
 19 44  1  0  0  0  0
 19 45  1  0  0  0  0
 19 46  1  0  0  0  0
 20 47  1  0  0  0  0
 20 48  1  0  0  0  0
 20 49  1  0  0  0  0
 21 50  1  0  0  0  0
 21 51  1  0  0  0  0
 22 23  1  0  0  0  0
 23 24  2  0  0  0  0
 23 52  1  0  0  0  0
 24 25  1  0  0  0  0
 25 53  1  0  0  0  0
 25 54  1  0  0  0  0
 25 55  1  0  0  0  0
M  CHG  1   5   1
M  CHG  1  12   1
M  CHG  1  18   1
M  END
> <s_m_source_file>
AV-unprocessed.smi

> <i_m_source_file_index>
1005

> <i_lp_mmshare_version>
43012

> <i_f3d_flags>
0

> <s_epik_input>
W0NIM11jKFtjSF0xKWMoW0NIM10pW2NIXWMoYzEyKW4oW2NIXW4yKVtDSDJdW0NASF0oW09IXSlbQ0gyXU4zW0NIMl1bQ0gyXU9bQ0BIXShbQ0gyXTMpW0NIMl1OKFtDSDNdKVtDSDNd

> <s_epik_cmdline>
J2VwaWtfcHl0aG9uJywgJy1waCcsICc3LjAnLCAnLXRuJywgJzgnLCAnLW1hJywgJzIwMCcsICctbWV0YWxfYmluZGluZycsICctaW1hZScsICc8aW5maWxlLm1hZT4nLCAnLW9tYWUnLCAnPG91dGZpbGUubWFlPic=

> <r_epik_Ionization_Penalty>
2.30802

> <r_epik_Ionization_Penalty_Charging>
2.30798

> <r_epik_Ionization_Penalty_Neutral>
3.4851e-05

> <r_epik_State_Penalty>
2.52618

> <r_epik_Charging_Adjusted_Penalty>
4.83416

> <i_epik_Tot_Q>
3

> <i_epik_Tot_abs_Q>
3

> <r_epik_Metal_State_Penalty>
6.53149

> <b_epik_Metal_Only>
0

> <s_lp_Force_Field>
OPLS_2005

> <r_lp_Energy>
43.2014

> <b_lp_Chiralities_Consistent>
1

> <s_lp_Variant>
AV-unprocessed.smi:1005-17

> <Gold.Version>
5.8.1

> <Gold.Id.Protein>
6NUR|6NUR_protein|mol2

> <Gold.PLP.Fitness>
49.7987

> <Gold.PLP.PLP>
-42.6149

> <Gold.PLP.part.hbond>
-3.0000

> <Gold.PLP.part.metal>
0.0000

> <Gold.PLP.part.buried>
-5.8649

> <Gold.PLP.part.nonpolar>
-33.4714

> <Gold.PLP.part.repulsive>
0.2085

> <Gold.PLP.ligand.clash>
0.0000

> <Gold.PLP.ligand.torsion>
1.1025

> <Gold.PLP.Chemscore.Hbond>
3.0757

> <Gold.PLP.Chemscore.CHOScore>
0.0000

> <Gold.PLP.Chemscore.Metal>
0.0000

> <Gold.Chemscore.Hbonds>
donor molecule, donor type, donor heavy atom, donor atom, acceptor molecule, acceptor atom, score
      L1  H    12    57       P1  7948  2.00
      P1  H  7989  7998       L1    10  0.12
      P1  H  7997  8009       L1    10  0.98

> <Gold.PLP.Chemscore.Internal.Correction>
0.1616

> <Gold.Rescore>
     Score         DG    S(hbond)    S(metal)    S(lipo)     H(rot)  DE(clash)    DE(int)     intcor
     17.08     -18.50       1.81        0.00     115.44       2.56       0.00       1.41       ----

> <Gold.Chemscore.Fitness>
17.0801

> <Gold.Chemscore.DG>
-18.4964

> <Gold.Chemscore.ZeroCoef>
-5.4800

> <Gold.Chemscore.Hbond>
1.8130

> <Gold.Chemscore.Metal>
0.0000

> <Gold.Chemscore.Lipo>
115.4360

> <Gold.Chemscore.Internal_Hbond>
0.0000

> <Gold.Chemscore.DEClash>
0.0015

> <Gold.Chemscore.DEInternal>
1.4149

> <Gold.Chemscore.Rot>
2.5566

> <Gold.Chemscore.Internal.Correction>
   9.000000E+99

> <Gold.Chemscore.Hbonds>
donor molecule, donor type, donor heavy atom, donor atom, acceptor molecule, acceptor atom, score
      L1  H    12    57       P1  7948  0.86
      P1  H  7997  8009       L1    10  0.48

> <Gold.Chemscore.Hbond.Weighted>
-6.0554

> <Gold.Chemscore.Metal.Weighted>
-0.0000

> <Gold.Chemscore.Lipo.Weighted>
-13.5060

> <Gold.Chemscore.Internal_Hbond.Weighted>
0.0000

> <Gold.Chemscore.DEClash.Weighted>
0.0015

> <Gold.Chemscore.DEInternal.Weighted>
1.4149

> <Gold.Chemscore.Rot.Weighted>
6.5450

> <Gold.Chemscore.Internal.Correction.Weighted>
   9.000000E+99

> <Gold.Protein.RotatedTorsions>
[ 6907 6896 6895 6894 ] final  159.80 input  -60.11 | X-H torsion
[ 7974 7965 7964 7962 ] final   26.08 input  175.53 | X-H torsion
[ 8008 7997 7996 7995 ] final -139.79 input   59.86 | X-H torsion
[ 10167 10162 10161 10158 ] final -161.23 input  -65.29 | X-H torsion
[ 10718 10713 10712 10709 ] final  -99.29 input   66.30 | X-H torsion
[ 10763 10752 10751 10750 ] final  -56.08 input  -60.55 | X-H torsion
[ 11005 11000 10999 10996 ] final -145.14 input  -57.11 | X-H torsion

> <Gold.Protein.ActiveResidues>
 VAL166  LYS551  ARG553  GLY616  TRP617  ASP618  TYR619  PRO620  LYS621  CYS622 
 ASP623  PHE694  ASN695  SER759  ASP760  ASP761  ALA762  ILE779  LEU786  VAL792 
 PHE793  MET794  SER795  GLU796  ALA797  LYS798  CYS799  TRP800  GLU811  SER814 

> <Gold.Protein.RotatedAtoms>
  151.9802  133.3755  159.4104 H   0  0  0  0  0  0  0  0  0  0  0  0  # atno 6907 bound_to 6896
  150.6936  134.4046  159.5144 H   0  0  0  0  0  0  0  0  0  0  0  0  # atno 6908 bound_to 6896
  152.1764  134.8791  160.0581 H   0  0  0  0  0  0  0  0  0  0  0  0  # atno 6909 bound_to 6896
  146.1856  139.7378  142.8869 H   0  0  0  0  0  0  0  0  0  0  0  0  # atno 7974 bound_to 7965
  155.4506  140.0538  157.3001 H   0  0  0  0  0  0  0  0  0  0  0  0  # atno 8008 bound_to 7997
  154.4779  140.2069  155.9790 H   0  0  0  0  0  0  0  0  0  0  0  0  # atno 8009 bound_to 7997
  156.1160  140.3196  155.8145 H   0  0  0  0  0  0  0  0  0  0  0  0  # atno 8010 bound_to 7997
  139.6481  144.0135  152.2141 H   0  0  0  0  0  0  0  0  0  0  0  0  # atno 10167 bound_to 10162
  156.0130  130.5276  150.6649 H   0  0  0  0  0  0  0  0  0  0  0  0  # atno 10718 bound_to 10713
  154.2010  135.6411  153.5087 H   0  0  0  0  0  0  0  0  0  0  0  0  # atno 10763 bound_to 10752
  153.0012  135.5451  154.6316 H   0  0  0  0  0  0  0  0  0  0  0  0  # atno 10764 bound_to 10752
  154.5728  135.2918  155.0783 H   0  0  0  0  0  0  0  0  0  0  0  0  # atno 10765 bound_to 10752
  140.7953  134.2920  157.4999 H   0  0  0  0  0  0  0  0  0  0  0  0  # atno 11005 bound_to 11000
  145.3948  141.0377  143.3103 LP  0  0  0  0  0  0  0  0  0  0  0  0  # atno 17320 bound_to 7965
  144.8391  139.5501  143.6908 LP  0  0  0  0  0  0  0  0  0  0  0  0  # atno 17321 bound_to 7965
  139.9842  144.6407  150.7873 LP  0  0  0  0  0  0  0  0  0  0  0  0  # atno 17342 bound_to 10162
  140.7524  143.2990  151.3130 LP  0  0  0  0  0  0  0  0  0  0  0  0  # atno 17343 bound_to 10162
  157.4383  131.0858  151.0969 LP  0  0  0  0  0  0  0  0  0  0  0  0  # atno 17370 bound_to 10713
  157.1521  130.6188  149.5585 LP  0  0  0  0  0  0  0  0  0  0  0  0  # atno 17371 bound_to 10713
  139.8727  134.9398  156.3752 LP  0  0  0  0  0  0  0  0  0  0  0  0  # atno 17394 bound_to 11000
  140.9349  133.7554  156.0072 LP  0  0  0  0  0  0  0  0  0  0  0  0  # atno 17395 bound_to 11000

$$$$
