AV-unprocessed.smi:1234|AV-procd|sdf|5173|dock4
  -GOLD-   22720 4243D 1   1.00000     0.00000
 Structure written by MMmdl.
 33 34  0  0  0  0  0  0  0  0  1 V2000
  150.4519  135.2532  155.9180 O   0  0  0  0  0  0  0  0  0  0  0  0
  149.9680  135.5387  154.8221 C   0  0  0  0  0  0  0  0  0  0  0  0
  149.2810  134.6674  154.0693 N   0  0  0  0  0  0  0  0  0  0  0  0
  148.9987  133.2851  154.4400 C   0  0  0  0  0  0  0  0  0  0  0  0
  148.0085  132.6251  153.4591 C   0  0  0  0  0  0  0  0  0  0  0  0
  146.8112  133.5206  153.0980 C   0  0  0  0  0  0  0  0  0  0  0  0
  146.6869  134.6236  153.6327 O   0  0  0  0  0  0  0  0  0  0  0  0
  145.9213  133.0608  152.1942 N   0  0  0  0  0  0  0  0  0  0  0  0
  145.9976  131.7793  151.4931 C   0  0  0  0  0  0  0  0  0  0  0  0
  144.9079  131.8292  150.4212 C   0  0  0  0  0  0  0  0  0  0  0  0
  143.8911  132.8222  150.9670 C   0  0  0  0  0  0  0  0  0  0  0  0
  144.7301  133.8031  151.7859 C   0  0  0  0  0  0  0  0  0  0  0  0
  150.0511  136.7403  154.2241 N   0  0  0  0  0  0  0  0  0  0  0  0
  150.6776  137.9204  154.7052 C   0  0  0  0  0  0  0  0  0  0  0  0
  150.2378  139.1597  154.4351 N   0  0  0  0  0  0  0  0  0  0  0  0
  151.0332  140.1333  155.0248 N   0  0  0  0  0  0  0  0  0  0  0  0
  152.0398  139.5912  155.7159 C   0  0  0  0  0  0  0  0  0  0  0  0
  152.1134  137.8374  155.7160 S   0  0  0  0  0  0  0  0  0  0  0  0
  148.9178  134.9837  153.1821 H   0  0  0  0  0  0  0  0  0  0  0  0
  149.9301  132.7178  154.4911 H   0  0  0  0  0  0  0  0  0  0  0  0
  148.5827  133.2911  155.4479 H   0  0  0  0  0  0  0  0  0  0  0  0
  148.5322  132.3569  152.5410 H   0  0  0  0  0  0  0  0  0  0  0  0
  147.6314  131.6985  153.8938 H   0  0  0  0  0  0  0  0  0  0  0  0
  146.9774  131.6083  151.0454 H   0  0  0  0  0  0  0  0  0  0  0  0
  145.7993  130.9726  152.2005 H   0  0  0  0  0  0  0  0  0  0  0  0
  145.3277  132.2135  149.4906 H   0  0  0  0  0  0  0  0  0  0  0  0
  144.4747  130.8507  150.2124 H   0  0  0  0  0  0  0  0  0  0  0  0
  143.3132  133.3116  150.1825 H   0  0  0  0  0  0  0  0  0  0  0  0
  143.1912  132.3033  151.6233 H   0  0  0  0  0  0  0  0  0  0  0  0
  144.1705  134.1850  152.6412 H   0  0  0  0  0  0  0  0  0  0  0  0
  145.0349  134.6529  151.1731 H   0  0  0  0  0  0  0  0  0  0  0  0
  149.6043  136.8243  153.3230 H   0  0  0  0  0  0  0  0  0  0  0  0
  152.7439  140.2291  156.2294 H   0  0  0  0  0  0  0  0  0  0  0  0
  1  2  2  0  0  0  0
  2  3  1  0  0  0  0
  2 13  1  0  0  0  0
  3  4  1  0  0  0  0
  3 19  1  0  0  0  0
  4  5  1  0  0  0  0
  4 20  1  0  0  0  0
  4 21  1  0  0  0  0
  5  6  1  0  0  0  0
  5 22  1  0  0  0  0
  5 23  1  0  0  0  0
  6  7  2  0  0  0  0
  6  8  1  0  0  0  0
  8 12  1  0  0  0  0
  8  9  1  0  0  0  0
  9 10  1  0  0  0  0
  9 24  1  0  0  0  0
  9 25  1  0  0  0  0
 10 11  1  0  0  0  0
 10 26  1  0  0  0  0
 10 27  1  0  0  0  0
 11 12  1  0  0  0  0
 11 28  1  0  0  0  0
 11 29  1  0  0  0  0
 12 30  1  0  0  0  0
 12 31  1  0  0  0  0
 13 14  1  0  0  0  0
 13 32  1  0  0  0  0
 14 18  1  0  0  0  0
 14 15  2  0  0  0  0
 15 16  1  0  0  0  0
 16 17  2  0  0  0  0
 17 18  1  0  0  0  0
 17 33  1  0  0  0  0
M  END
> <s_m_source_file>
AV-unprocessed.smi

> <i_m_source_file_index>
1234

> <i_lp_mmshare_version>
43012

> <i_f3d_flags>
0

> <s_epik_input>
czFbY0hdbm5jMVtOSF1DKD1PKVtOSF1bQ0gyXVtDSDJdQyg9TylOMltDSDJdW0NIMl1bQ0gyXVtDSDJdMg==

> <s_epik_cmdline>
J2VwaWtfcHl0aG9uJywgJy1waCcsICc3LjAnLCAnLXRuJywgJzgnLCAnLW1hJywgJzIwMCcsICctbWV0YWxfYmluZGluZycsICctaW1hZScsICc8aW5maWxlLm1hZT4nLCAnLW9tYWUnLCAnPG91dGZpbGUubWFlPic=

> <r_lp_tautomer_probability>
1

> <r_epik_Ionization_Penalty>
0.00246339

> <r_epik_Ionization_Penalty_Charging>
0

> <r_epik_Ionization_Penalty_Neutral>
0.00246339

> <r_epik_State_Penalty>
-0

> <r_epik_Charging_Adjusted_Penalty>
0

> <i_epik_Tot_Q>
0

> <i_epik_Tot_abs_Q>
0

> <r_epik_Metal_State_Penalty>
0.351039

> <b_epik_Metal_Only>
0

> <s_lp_Force_Field>
OPLS_2005

> <r_lp_Energy>
26.1559

> <b_lp_Chiralities_Consistent>
1

> <s_lp_Variant>
AV-unprocessed.smi:1234-1

> <Gold.Version>
5.8.1

> <Gold.Id.Protein>
6NUR|6NUR_protein|mol2

> <Gold.PLP.Fitness>
38.9866

> <Gold.PLP.PLP>
-30.8420

> <Gold.PLP.part.hbond>
-4.0000

> <Gold.PLP.part.metal>
0.0000

> <Gold.PLP.part.buried>
-3.4889

> <Gold.PLP.part.nonpolar>
-24.2388

> <Gold.PLP.part.repulsive>
0.4378

> <Gold.PLP.ligand.clash>
0.0000

> <Gold.PLP.ligand.torsion>
0.3247

> <Gold.PLP.Chemscore.Hbond>
2.9280

> <Gold.PLP.Chemscore.CHOScore>
0.0000

> <Gold.PLP.Chemscore.Metal>
0.0000

> <Gold.Chemscore.Hbonds>
donor molecule, donor type, donor heavy atom, donor atom, acceptor molecule, acceptor atom, score
      L1  H     3    19       P1  7948  0.96
      L1  H    13    32       P1  7948  1.00
      P1  H  7989  7998       L1    16  0.85

> <Gold.PLP.Chemscore.Internal.Correction>
0.0100

> <Gold.Rescore>
     Score         DG    S(hbond)    S(metal)    S(lipo)     H(rot)  DE(clash)    DE(int)     intcor
     11.12     -13.25       1.75        0.00      55.64       1.79       0.00       2.14       ----

> <Gold.Chemscore.Fitness>
11.1167

> <Gold.Chemscore.DG>
-13.2532

> <Gold.Chemscore.ZeroCoef>
-5.4800

> <Gold.Chemscore.Hbond>
1.7475

> <Gold.Chemscore.Metal>
0.0000

> <Gold.Chemscore.Lipo>
55.6399

> <Gold.Chemscore.Internal_Hbond>
0.0000

> <Gold.Chemscore.DEClash>
0.0004

> <Gold.Chemscore.DEInternal>
2.1361

> <Gold.Chemscore.Rot>
1.7865

> <Gold.Chemscore.Internal.Correction>
   9.000000E+99

> <Gold.Chemscore.Hbonds>
donor molecule, donor type, donor heavy atom, donor atom, acceptor molecule, acceptor atom, score
      L1  H     3    19       P1  7948  0.24
      L1  H    13    32       P1  7948  0.64
      P1  H  7989  7998       L1    16  0.11

> <Gold.Chemscore.Hbond.Weighted>
-5.8368

> <Gold.Chemscore.Metal.Weighted>
-0.0000

> <Gold.Chemscore.Lipo.Weighted>
-6.5099

> <Gold.Chemscore.Internal_Hbond.Weighted>
0.0000

> <Gold.Chemscore.DEClash.Weighted>
0.0004

> <Gold.Chemscore.DEInternal.Weighted>
2.1361

> <Gold.Chemscore.Rot.Weighted>
4.5735

> <Gold.Chemscore.Internal.Correction.Weighted>
   9.000000E+99

> <Gold.Protein.RotatedTorsions>
[ 6907 6896 6895 6894 ] final  -29.34 input  -60.11 | X-H torsion
[ 7974 7965 7964 7962 ] final  -24.45 input  175.53 | X-H torsion
[ 8008 7997 7996 7995 ] final   -6.33 input   59.86 | X-H torsion
[ 10167 10162 10161 10158 ] final   29.47 input  -65.29 | X-H torsion
[ 10718 10713 10712 10709 ] final   44.76 input   66.30 | X-H torsion
[ 10763 10752 10751 10750 ] final   13.97 input  -60.55 | X-H torsion
[ 11005 11000 10999 10996 ] final    2.58 input  -57.11 | X-H torsion

> <Gold.Protein.ActiveResidues>
 VAL166  LYS551  ARG553  GLY616  TRP617  ASP618  TYR619  PRO620  LYS621  CYS622 
 ASP623  PHE694  ASN695  SER759  ASP760  ASP761  ALA762  ILE779  LEU786  VAL792 
 PHE793  MET794  SER795  GLU796  ALA797  LYS798  CYS799  TRP800  GLU811  SER814 

> <Gold.Protein.RotatedAtoms>
  151.1205  135.0077  159.8536 H   0  0  0  0  0  0  0  0  0  0  0  0  # atno 6907 bound_to 6896
  152.5447  134.1728  159.8614 H   0  0  0  0  0  0  0  0  0  0  0  0  # atno 6908 bound_to 6896
  151.1786  133.4694  159.2627 H   0  0  0  0  0  0  0  0  0  0  0  0  # atno 6909 bound_to 6896
  146.1554  140.4753  142.8594 H   0  0  0  0  0  0  0  0  0  0  0  0  # atno 7974 bound_to 7965
  154.5948  140.2435  155.7871 H   0  0  0  0  0  0  0  0  0  0  0  0  # atno 8008 bound_to 7997
  156.2272  140.2979  156.0049 H   0  0  0  0  0  0  0  0  0  0  0  0  # atno 8009 bound_to 7997
  155.2312  140.0403  157.2953 H   0  0  0  0  0  0  0  0  0  0  0  0  # atno 8010 bound_to 7997
  140.4763  144.0685  150.6252 H   0  0  0  0  0  0  0  0  0  0  0  0  # atno 10167 bound_to 10162
  157.4303  130.8021  149.7596 H   0  0  0  0  0  0  0  0  0  0  0  0  # atno 10718 bound_to 10713
  153.1668  135.6805  153.8664 H   0  0  0  0  0  0  0  0  0  0  0  0  # atno 10763 bound_to 10752
  153.8042  135.3152  155.3394 H   0  0  0  0  0  0  0  0  0  0  0  0  # atno 10764 bound_to 10752
  154.7971  135.4801  154.0277 H   0  0  0  0  0  0  0  0  0  0  0  0  # atno 10765 bound_to 10752
  140.6027  133.9821  155.8139 H   0  0  0  0  0  0  0  0  0  0  0  0  # atno 11005 bound_to 11000
  144.7956  140.6116  143.6512 LP  0  0  0  0  0  0  0  0  0  0  0  0  # atno 17320 bound_to 7965
  145.4722  139.1502  143.3808 LP  0  0  0  0  0  0  0  0  0  0  0  0  # atno 17321 bound_to 7965
  140.3914  143.2750  152.0056 LP  0  0  0  0  0  0  0  0  0  0  0  0  # atno 17342 bound_to 10162
  139.4826  144.6074  151.7496 LP  0  0  0  0  0  0  0  0  0  0  0  0  # atno 17343 bound_to 10162
  155.9911  130.3940  150.3001 LP  0  0  0  0  0  0  0  0  0  0  0  0  # atno 17370 bound_to 10713
  157.1157  131.0233  151.3030 LP  0  0  0  0  0  0  0  0  0  0  0  0  # atno 17371 bound_to 10713
  141.0861  133.9988  157.3310 LP  0  0  0  0  0  0  0  0  0  0  0  0  # atno 17394 bound_to 11000
  139.9225  135.0201  156.8118 LP  0  0  0  0  0  0  0  0  0  0  0  0  # atno 17395 bound_to 11000

$$$$
