AV-unprocessed.smi:1999|AV-procd|sdf|8099|dock2
  -GOLD-   2272010323D 1   1.00000     0.00000
 Structure written by MMmdl.
 38 39  0  0  0  0  0  0  0  0  3 V2000
  146.7491  133.9604  162.5360 C   0  0  0  0  0  0  0  0  0  0  0  0
  147.2344  135.0355  161.6250 C   0  0  0  0  0  0  0  0  0  0  0  0
  147.6009  136.2441  162.0593 N   0  0  0  0  0  0  0  0  0  0  0  0
  148.0161  137.0676  161.0232 N   0  0  0  0  0  0  0  0  0  0  0  0
  147.9694  136.4683  159.8245 C   0  0  0  0  0  0  0  0  0  0  0  0
  148.3352  137.0929  158.6931 N   0  5  0  0  0  0  0  0  0  0  0  0
  149.1406  136.4640  157.8096 C   0  0  0  0  0  0  0  0  0  0  0  0
  149.8017  135.4456  158.0232 O   0  0  0  0  0  0  0  0  0  0  0  0
  149.2116  137.0742  156.6166 N   0  0  0  0  0  0  0  0  0  0  0  0
  150.0826  136.7085  155.4978 C   0  0  1  0  0  0  0  0  0  0  0  0
  151.5064  137.2072  155.7789 C   0  0  0  0  0  0  0  0  0  0  0  0
  150.0530  135.1813  155.2612 C   0  0  0  0  0  0  0  0  0  0  0  0
  148.9484  134.7659  154.3607 N   0  3  0  0  0  0  0  0  0  0  0  0
  149.0577  133.3645  153.8917 C   0  0  0  0  0  0  0  0  0  0  0  0
  147.9441  133.0650  152.8752 C   0  0  0  0  0  0  0  0  0  0  0  0
  146.6768  133.3103  153.4743 O   0  0  0  0  0  0  0  0  0  0  0  0
  146.5277  134.6687  153.8712 C   0  0  0  0  0  0  0  0  0  0  0  0
  147.6003  135.0245  154.9149 C   0  0  0  0  0  0  0  0  0  0  0  0
  147.3764  134.8096  159.8896 S   0  0  0  0  0  0  0  0  0  0  0  0
  147.5559  133.2573  162.7433 H   0  0  0  0  0  0  0  0  0  0  0  0
  145.9234  133.4205  162.0723 H   0  0  0  0  0  0  0  0  0  0  0  0
  146.4019  134.3846  163.4787 H   0  0  0  0  0  0  0  0  0  0  0  0
  148.6379  137.8958  156.4912 H   0  0  0  0  0  0  0  0  0  0  0  0
  149.7440  137.2144  154.5927 H   0  0  0  0  0  0  0  0  0  0  0  0
  152.1746  136.9723  154.9501 H   0  0  0  0  0  0  0  0  0  0  0  0
  151.9189  136.7495  156.6788 H   0  0  0  0  0  0  0  0  0  0  0  0
  151.5228  138.2888  155.9180 H   0  0  0  0  0  0  0  0  0  0  0  0
  151.0076  134.8270  154.8692 H   0  0  0  0  0  0  0  0  0  0  0  0
  149.9229  134.6939  156.2287 H   0  0  0  0  0  0  0  0  0  0  0  0
  150.0300  133.1935  153.4301 H   0  0  0  0  0  0  0  0  0  0  0  0
  148.9831  132.6842  154.7413 H   0  0  0  0  0  0  0  0  0  0  0  0
  148.0624  133.6745  151.9775 H   0  0  0  0  0  0  0  0  0  0  0  0
  147.9920  132.0221  152.5617 H   0  0  0  0  0  0  0  0  0  0  0  0
  146.6002  135.3236  153.0012 H   0  0  0  0  0  0  0  0  0  0  0  0
  145.5320  134.8073  154.2923 H   0  0  0  0  0  0  0  0  0  0  0  0
  147.4560  134.4377  155.8233 H   0  0  0  0  0  0  0  0  0  0  0  0
  147.5067  136.0759  155.1894 H   0  0  0  0  0  0  0  0  0  0  0  0
  149.0282  135.3532  153.5415 H   0  0  0  0  0  0  0  0  0  0  0  0
  1  2  1  0  0  0  0
  1 20  1  0  0  0  0
  1 21  1  0  0  0  0
  1 22  1  0  0  0  0
  2 19  1  0  0  0  0
  2  3  2  0  0  0  0
  3  4  1  0  0  0  0
  4  5  2  0  0  0  0
  5  6  1  0  0  0  0
  5 19  1  0  0  0  0
  6  7  1  0  0  0  0
  7  8  2  0  0  0  0
  7  9  1  0  0  0  0
  9 10  1  0  0  0  0
  9 23  1  0  0  0  0
 10 11  1  0  0  0  0
 10 12  1  0  0  0  0
 10 24  1  0  0  0  0
 11 25  1  0  0  0  0
 11 26  1  0  0  0  0
 11 27  1  0  0  0  0
 12 13  1  0  0  0  0
 12 28  1  0  0  0  0
 12 29  1  0  0  0  0
 13 18  1  0  0  0  0
 13 14  1  0  0  0  0
 13 38  1  0  0  0  0
 14 15  1  0  0  0  0
 14 30  1  0  0  0  0
 14 31  1  0  0  0  0
 15 16  1  0  0  0  0
 15 32  1  0  0  0  0
 15 33  1  0  0  0  0
 16 17  1  0  0  0  0
 17 18  1  0  0  0  0
 17 34  1  0  0  0  0
 17 35  1  0  0  0  0
 18 36  1  0  0  0  0
 18 37  1  0  0  0  0
M  CHG  1   6  -1
M  CHG  1  13   1
M  END
> <s_m_source_file>
AV-unprocessed.smi

> <i_m_source_file_index>
1999

> <i_lp_mmshare_version>
43012

> <i_f3d_flags>
0

> <s_epik_input>
W0NIM11jMW5uYyhzMSlbTkhdQyg9TylbTkhdW0NASF0oW0NIM10pW0NIMl1OMltDSDJdW0NIMl1PW0NIMl1bQ0gyXTI=

> <s_epik_cmdline>
J2VwaWtfcHl0aG9uJywgJy1waCcsICc3LjAnLCAnLXRuJywgJzgnLCAnLW1hJywgJzIwMCcsICctbWV0YWxfYmluZGluZycsICctaW1hZScsICc8aW5maWxlLm1hZT4nLCAnLW9tYWUnLCAnPG91dGZpbGUubWFlPic=

> <r_lp_tautomer_probability>
1

> <r_epik_Ionization_Penalty>
3.39984

> <r_epik_Ionization_Penalty_Charging>
3.28696

> <r_epik_Ionization_Penalty_Neutral>
0.11288

> <r_epik_State_Penalty>
3.47917

> <r_epik_Charging_Adjusted_Penalty>
6.76613

> <i_epik_Tot_Q>
0

> <i_epik_Tot_abs_Q>
2

> <r_epik_Metal_State_Penalty>
1.13142

> <b_epik_Metal_Only>
1

> <s_lp_Force_Field>
OPLS_2005

> <r_lp_Energy>
12.2925

> <b_lp_Chiralities_Consistent>
1

> <s_lp_Variant>
AV-unprocessed.smi:1999-8

> <Gold.Version>
5.8.1

> <Gold.Id.Protein>
6NUR|6NUR_protein|mol2

> <Gold.PLP.Fitness>
40.2623

> <Gold.PLP.PLP>
-27.9827

> <Gold.PLP.part.hbond>
-4.0000

> <Gold.PLP.part.metal>
0.0000

> <Gold.PLP.part.buried>
-4.6912

> <Gold.PLP.part.nonpolar>
-19.3815

> <Gold.PLP.part.repulsive>
0.1168

> <Gold.PLP.ligand.clash>
0.0000

> <Gold.PLP.ligand.torsion>
1.0169

> <Gold.PLP.Chemscore.Hbond>
4.7200

> <Gold.PLP.Chemscore.CHOScore>
0.0000

> <Gold.PLP.Chemscore.Metal>
0.0000

> <Gold.Chemscore.Hbonds>
donor molecule, donor type, donor heavy atom, donor atom, acceptor molecule, acceptor atom, score
      L1  H    13    38       P1  7948  2.00
      P1  H  6896  6908       L1     8  0.99
      P1  H  6931  6943       L1     4  1.00
      P1  H  6934  6947       L1     4  0.59

> <Gold.PLP.Chemscore.Internal.Correction>
0.1533

> <Gold.Rescore>
     Score         DG    S(hbond)    S(metal)    S(lipo)     H(rot)  DE(clash)    DE(int)     intcor
     14.46     -16.92       2.93        0.00      49.25       1.60       0.00       2.47       ----

> <Gold.Chemscore.Fitness>
14.4567

> <Gold.Chemscore.DG>
-16.9244

> <Gold.Chemscore.ZeroCoef>
-5.4800

> <Gold.Chemscore.Hbond>
2.9303

> <Gold.Chemscore.Metal>
0.0000

> <Gold.Chemscore.Lipo>
49.2533

> <Gold.Chemscore.Internal_Hbond>
0.0000

> <Gold.Chemscore.DEClash>
0.0000

> <Gold.Chemscore.DEInternal>
2.4678

> <Gold.Chemscore.Rot>
1.6036

> <Gold.Chemscore.Internal.Correction>
   9.000000E+99

> <Gold.Chemscore.Hbonds>
donor molecule, donor type, donor heavy atom, donor atom, acceptor molecule, acceptor atom, score
      L1  H    13    38       P1  7948  0.60
      P1  H  6896  6908       L1     8  0.92
      P1  H  6931  6943       L1     4  0.33
      P1  H  6934  6947       L1     4  0.43

> <Gold.Chemscore.Hbond.Weighted>
-9.7871

> <Gold.Chemscore.Metal.Weighted>
-0.0000

> <Gold.Chemscore.Lipo.Weighted>
-5.7626

> <Gold.Chemscore.Internal_Hbond.Weighted>
0.0000

> <Gold.Chemscore.DEClash.Weighted>
0.0000

> <Gold.Chemscore.DEInternal.Weighted>
2.4678

> <Gold.Chemscore.Rot.Weighted>
4.1053

> <Gold.Chemscore.Internal.Correction.Weighted>
   9.000000E+99

> <Gold.Protein.RotatedTorsions>
[ 6907 6896 6895 6894 ] final  171.46 input  -60.11 | X-H torsion
[ 7974 7965 7964 7962 ] final  -69.39 input  175.53 | X-H torsion
[ 8008 7997 7996 7995 ] final -172.22 input   59.86 | X-H torsion
[ 10167 10162 10161 10158 ] final  -89.30 input  -65.29 | X-H torsion
[ 10718 10713 10712 10709 ] final  148.42 input   66.30 | X-H torsion
[ 10763 10752 10751 10750 ] final   50.55 input  -60.55 | X-H torsion
[ 11005 11000 10999 10996 ] final  -47.87 input  -57.11 | X-H torsion

> <Gold.Protein.ActiveResidues>
 VAL166  LYS551  ARG553  GLY616  TRP617  ASP618  TYR619  PRO620  LYS621  CYS622 
 ASP623  PHE694  ASN695  SER759  ASP760  ASP761  ALA762  ILE779  LEU786  VAL792 
 PHE793  MET794  SER795  GLU796  ALA797  LYS798  CYS799  TRP800  GLU811  SER814 

> <Gold.Protein.RotatedAtoms>
  151.7999  133.3369  159.3523 H   0  0  0  0  0  0  0  0  0  0  0  0  # atno 6907 bound_to 6896
  150.7362  134.5763  159.5925 H   0  0  0  0  0  0  0  0  0  0  0  0  # atno 6908 bound_to 6896
  152.3150  134.7451  160.0378 H   0  0  0  0  0  0  0  0  0  0  0  0  # atno 6909 bound_to 6896
  145.7044  140.9104  143.0714 H   0  0  0  0  0  0  0  0  0  0  0  0  # atno 7974 bound_to 7965
  155.9417  140.1110  157.1050 H   0  0  0  0  0  0  0  0  0  0  0  0  # atno 8008 bound_to 7997
  154.4091  140.1217  156.5002 H   0  0  0  0  0  0  0  0  0  0  0  0  # atno 8009 bound_to 7997
  155.6953  140.3472  155.4912 H   0  0  0  0  0  0  0  0  0  0  0  0  # atno 8010 bound_to 7997
  140.3661  143.2817  151.9556 H   0  0  0  0  0  0  0  0  0  0  0  0  # atno 10167 bound_to 10162
  157.3088  131.0884  151.1332 H   0  0  0  0  0  0  0  0  0  0  0  0  # atno 10718 bound_to 10713
  152.9784  135.5875  154.4271 H   0  0  0  0  0  0  0  0  0  0  0  0  # atno 10763 bound_to 10752
  154.3888  135.2767  155.2169 H   0  0  0  0  0  0  0  0  0  0  0  0  # atno 10764 bound_to 10752
  154.4050  135.6094  153.5974 H   0  0  0  0  0  0  0  0  0  0  0  0  # atno 10765 bound_to 10752
  141.0667  133.6691  156.3360 H   0  0  0  0  0  0  0  0  0  0  0  0  # atno 11005 bound_to 11000
  144.6959  139.8990  143.7457 LP  0  0  0  0  0  0  0  0  0  0  0  0  # atno 17320 bound_to 7965
  146.0769  139.3757  143.0488 LP  0  0  0  0  0  0  0  0  0  0  0  0  # atno 17321 bound_to 7965
  139.4808  144.5949  151.7708 LP  0  0  0  0  0  0  0  0  0  0  0  0  # atno 17342 bound_to 10162
  140.5079  144.1070  150.5987 LP  0  0  0  0  0  0  0  0  0  0  0  0  # atno 17343 bound_to 10162
  157.2662  130.6682  149.5998 LP  0  0  0  0  0  0  0  0  0  0  0  0  # atno 17370 bound_to 10713
  155.9676  130.4493  150.5653 LP  0  0  0  0  0  0  0  0  0  0  0  0  # atno 17371 bound_to 10713
  140.5759  134.5794  157.5468 LP  0  0  0  0  0  0  0  0  0  0  0  0  # atno 17394 bound_to 11000
  139.9483  134.7662  156.0509 LP  0  0  0  0  0  0  0  0  0  0  0  0  # atno 17395 bound_to 11000

$$$$
