AV-unprocessed.smi:2047|AV-procd|sdf|8316|dock3
  -GOLD-   2272010583D 1   1.00000     0.00000
 Structure written by MMmdl.
 42 44  0  0  0  0  0  0  0  0  1 V2000
  150.6552  134.4057  155.3623 O   0  0  0  0  0  0  0  0  0  0  0  0
  150.0211  134.9002  154.4304 C   0  0  0  0  0  0  0  0  0  0  0  0
  149.2102  134.2259  153.5978 N   0  0  0  0  0  0  0  0  0  0  0  0
  148.9374  132.8286  153.5701 C   0  0  0  0  0  0  0  0  0  0  0  0
  149.8027  131.8889  154.1829 C   0  0  0  0  0  0  0  0  0  0  0  0
  149.4532  130.5277  154.1850 C   0  0  0  0  0  0  0  0  0  0  0  0
  148.2389  130.1525  153.5874 C   0  0  0  0  0  0  0  0  0  0  0  0
  147.3972  131.0350  153.0137 N   0  0  0  0  0  0  0  0  0  0  0  0
  147.7270  132.3500  152.9909 C   0  0  0  0  0  0  0  0  0  0  0  0
  146.8128  133.2271  152.3633 N   0  0  0  0  0  0  0  0  0  0  0  0
  145.4630  133.3912  152.8925 C   0  0  0  0  0  0  0  0  0  0  0  0
  144.6809  134.0726  151.7734 C   0  0  0  0  0  0  0  0  0  0  0  0
  145.2915  133.4470  150.5231 C   0  0  0  0  0  0  0  0  0  0  0  0
  146.7604  133.2326  150.9041 C   0  0  0  0  0  0  0  0  0  0  0  0
  150.0729  136.2000  154.1074 N   0  0  0  0  0  0  0  0  0  0  0  0
  150.8634  137.2063  154.8096 C   0  0  1  0  0  0  0  0  0  0  0  0
  152.0749  137.6834  153.9816 C   0  0  0  0  0  0  0  0  0  0  0  0
  152.6207  138.9745  154.6048 C   0  0  0  0  0  0  0  0  0  0  0  0
  151.1868  139.8164  155.3765 S   0  0  0  0  0  0  0  0  0  0  0  0
  151.4528  139.9887  156.8125 O   0  0  0  0  0  0  0  0  0  0  0  0
  150.7725  140.9537  154.5411 O   0  0  0  0  0  0  0  0  0  0  0  0
  150.0060  138.4358  155.1382 C   0  0  0  0  0  0  0  0  0  0  0  0
  148.8253  134.7539  152.8282 H   0  0  0  0  0  0  0  0  0  0  0  0
  150.7162  132.1907  154.6718 H   0  0  0  0  0  0  0  0  0  0  0  0
  150.0950  129.7913  154.6456 H   0  0  0  0  0  0  0  0  0  0  0  0
  147.9314  129.1175  153.5749 H   0  0  0  0  0  0  0  0  0  0  0  0
  145.0112  132.4228  153.1118 H   0  0  0  0  0  0  0  0  0  0  0  0
  145.4638  133.9850  153.8068 H   0  0  0  0  0  0  0  0  0  0  0  0
  143.6048  133.9147  151.8501 H   0  0  0  0  0  0  0  0  0  0  0  0
  144.8705  135.1468  151.7843 H   0  0  0  0  0  0  0  0  0  0  0  0
  144.8185  132.4832  150.3291 H   0  0  0  0  0  0  0  0  0  0  0  0
  145.1702  134.0663  149.6338 H   0  0  0  0  0  0  0  0  0  0  0  0
  147.3631  134.0618  150.5337 H   0  0  0  0  0  0  0  0  0  0  0  0
  147.1526  132.3099  150.4741 H   0  0  0  0  0  0  0  0  0  0  0  0
  149.5219  136.5176  153.3234 H   0  0  0  0  0  0  0  0  0  0  0  0
  151.2285  136.7891  155.7500 H   0  0  0  0  0  0  0  0  0  0  0  0
  152.8492  136.9189  153.9125 H   0  0  0  0  0  0  0  0  0  0  0  0
  151.7500  137.8981  152.9625 H   0  0  0  0  0  0  0  0  0  0  0  0
  153.3403  138.7490  155.3921 H   0  0  0  0  0  0  0  0  0  0  0  0
  153.0967  139.6302  153.8755 H   0  0  0  0  0  0  0  0  0  0  0  0
  149.3548  138.6994  154.3041 H   0  0  0  0  0  0  0  0  0  0  0  0
  149.3943  138.3052  156.0310 H   0  0  0  0  0  0  0  0  0  0  0  0
  1  2  2  0  0  0  0
  2  3  1  0  0  0  0
  2 15  1  0  0  0  0
  3  4  1  0  0  0  0
  3 23  1  0  0  0  0
  4  9  1  0  0  0  0
  4  5  2  0  0  0  0
  5  6  1  0  0  0  0
  5 24  1  0  0  0  0
  6  7  2  0  0  0  0
  6 25  1  0  0  0  0
  7  8  1  0  0  0  0
  7 26  1  0  0  0  0
  8  9  2  0  0  0  0
  9 10  1  0  0  0  0
 10 14  1  0  0  0  0
 10 11  1  0  0  0  0
 11 12  1  0  0  0  0
 11 27  1  0  0  0  0
 11 28  1  0  0  0  0
 12 13  1  0  0  0  0
 12 29  1  0  0  0  0
 12 30  1  0  0  0  0
 13 14  1  0  0  0  0
 13 31  1  0  0  0  0
 13 32  1  0  0  0  0
 14 33  1  0  0  0  0
 14 34  1  0  0  0  0
 15 16  1  0  0  0  0
 15 35  1  0  0  0  0
 16 22  1  0  0  0  0
 16 17  1  0  0  0  0
 16 36  1  0  0  0  0
 17 18  1  0  0  0  0
 17 37  1  0  0  0  0
 17 38  1  0  0  0  0
 18 19  1  0  0  0  0
 18 39  1  0  0  0  0
 18 40  1  0  0  0  0
 19 20  2  0  0  0  0
 19 21  2  0  0  0  0
 19 22  1  0  0  0  0
 22 41  1  0  0  0  0
 22 42  1  0  0  0  0
M  END
> <s_m_source_file>
AV-unprocessed.smi

> <i_m_source_file_index>
2047

> <i_lp_mmshare_version>
43012

> <i_f3d_flags>
0

> <s_epik_input>
Tz1TMSg9TylbQ0gyXVtDSDJdW0NASF0oW0NIMl0xKVtOSF1DKD1PKVtOSF1jMltjSF1bY0hdW2NIXW5jMk4zW0NIMl1bQ0gyXVtDSDJdW0NIMl0z

> <s_epik_cmdline>
J2VwaWtfcHl0aG9uJywgJy1waCcsICc3LjAnLCAnLXRuJywgJzgnLCAnLW1hJywgJzIwMCcsICctbWV0YWxfYmluZGluZycsICctaW1hZScsICc8aW5maWxlLm1hZT4nLCAnLW9tYWUnLCAnPG91dGZpbGUubWFlPic=

> <r_lp_tautomer_probability>
1

> <r_epik_Ionization_Penalty>
0.0840625

> <r_epik_Ionization_Penalty_Charging>
0

> <r_epik_Ionization_Penalty_Neutral>
0.0840625

> <r_epik_State_Penalty>
0.0741601

> <r_epik_Charging_Adjusted_Penalty>
0.0741601

> <i_epik_Tot_Q>
0

> <i_epik_Tot_abs_Q>
0

> <r_epik_Metal_State_Penalty>
0.0657339

> <b_epik_Metal_Only>
0

> <s_lp_Force_Field>
OPLS_2005

> <r_lp_Energy>
33.4382

> <b_lp_Chiralities_Consistent>
1

> <s_lp_Variant>
AV-unprocessed.smi:2047-2

> <Gold.Version>
5.8.1

> <Gold.Id.Protein>
6NUR|6NUR_protein|mol2

> <Gold.PLP.Fitness>
42.7032

> <Gold.PLP.PLP>
-35.5381

> <Gold.PLP.part.hbond>
-3.4048

> <Gold.PLP.part.metal>
0.0000

> <Gold.PLP.part.buried>
-3.1218

> <Gold.PLP.part.nonpolar>
-28.6910

> <Gold.PLP.part.repulsive>
0.4376

> <Gold.PLP.ligand.clash>
0.0000

> <Gold.PLP.ligand.torsion>
0.4163

> <Gold.PLP.Chemscore.Hbond>
2.5600

> <Gold.PLP.Chemscore.CHOScore>
0.0000

> <Gold.PLP.Chemscore.Metal>
0.0000

> <Gold.Chemscore.Hbonds>
donor molecule, donor type, donor heavy atom, donor atom, acceptor molecule, acceptor atom, score
      L1  H     3    23       P1  7948  0.64
      L1  H    15    35       P1  7948  0.94
      P1  H  7989  7998       L1    21  0.39

> <Gold.PLP.Chemscore.Internal.Correction>
0.3176

> <Gold.Rescore>
     Score         DG    S(hbond)    S(metal)    S(lipo)     H(rot)  DE(clash)    DE(int)     intcor
     14.80     -16.61       1.93        0.00      67.20       1.25       0.09       1.72       ----

> <Gold.Chemscore.Fitness>
14.7990

> <Gold.Chemscore.DG>
-16.6083

> <Gold.Chemscore.ZeroCoef>
-5.4800

> <Gold.Chemscore.Hbond>
1.9344

> <Gold.Chemscore.Metal>
0.0000

> <Gold.Chemscore.Lipo>
67.1975

> <Gold.Chemscore.Internal_Hbond>
0.0000

> <Gold.Chemscore.DEClash>
0.0936

> <Gold.Chemscore.DEInternal>
1.7157

> <Gold.Chemscore.Rot>
1.2480

> <Gold.Chemscore.Internal.Correction>
   9.000000E+99

> <Gold.Chemscore.Hbonds>
donor molecule, donor type, donor heavy atom, donor atom, acceptor molecule, acceptor atom, score
      L1  H     3    23       P1  7948  0.07
      L1  H    15    35       P1  7948  0.53
      P1  H  7989  7998       L1    21  0.17

> <Gold.Chemscore.Hbond.Weighted>
-6.4610

> <Gold.Chemscore.Metal.Weighted>
-0.0000

> <Gold.Chemscore.Lipo.Weighted>
-7.8621

> <Gold.Chemscore.Internal_Hbond.Weighted>
0.0000

> <Gold.Chemscore.DEClash.Weighted>
0.0936

> <Gold.Chemscore.DEInternal.Weighted>
1.7157

> <Gold.Chemscore.Rot.Weighted>
3.1948

> <Gold.Chemscore.Internal.Correction.Weighted>
   9.000000E+99

> <Gold.Protein.RotatedTorsions>
[ 6907 6896 6895 6894 ] final  -53.85 input  -60.11 | X-H torsion
[ 7974 7965 7964 7962 ] final   10.54 input  175.53 | X-H torsion
[ 8008 7997 7996 7995 ] final -123.66 input   59.86 | X-H torsion
[ 10167 10162 10161 10158 ] final  166.55 input  -65.29 | X-H torsion
[ 10718 10713 10712 10709 ] final -130.10 input   66.30 | X-H torsion
[ 10763 10752 10751 10750 ] final -129.60 input  -60.55 | X-H torsion
[ 11005 11000 10999 10996 ] final -108.81 input  -57.11 | X-H torsion

> <Gold.Protein.ActiveResidues>
 VAL166  LYS551  ARG553  GLY616  TRP617  ASP618  TYR619  PRO620  LYS621  CYS622 
 ASP623  PHE694  ASN695  SER759  ASP760  ASP761  ALA762  ILE779  LEU786  VAL792 
 PHE793  MET794  SER795  GLU796  ALA797  LYS798  CYS799  TRP800  GLU811  SER814 

> <Gold.Protein.RotatedAtoms>
  150.8389  134.7674  159.6915 H   0  0  0  0  0  0  0  0  0  0  0  0  # atno 6907 bound_to 6896
  152.4481  134.5449  159.9860 H   0  0  0  0  0  0  0  0  0  0  0  0  # atno 6908 bound_to 6896
  151.5593  133.3368  159.3004 H   0  0  0  0  0  0  0  0  0  0  0  0  # atno 6909 bound_to 6896
  146.2386  139.9619  142.8457 H   0  0  0  0  0  0  0  0  0  0  0  0  # atno 7974 bound_to 7965
  155.1842  140.0411  157.2888 H   0  0  0  0  0  0  0  0  0  0  0  0  # atno 8008 bound_to 7997
  154.6183  140.2494  155.7554 H   0  0  0  0  0  0  0  0  0  0  0  0  # atno 8009 bound_to 7997
  156.2419  140.2900  156.0478 H   0  0  0  0  0  0  0  0  0  0  0  0  # atno 8010 bound_to 7997
  139.4927  144.4015  151.9403 H   0  0  0  0  0  0  0  0  0  0  0  0  # atno 10167 bound_to 10162
  156.2111  130.6919  151.0651 H   0  0  0  0  0  0  0  0  0  0  0  0  # atno 10718 bound_to 10713
  154.8757  135.3890  154.3946 H   0  0  0  0  0  0  0  0  0  0  0  0  # atno 10763 bound_to 10752
  153.4678  135.7029  153.6017 H   0  0  0  0  0  0  0  0  0  0  0  0  # atno 10764 bound_to 10752
  153.4487  135.3839  155.2239 H   0  0  0  0  0  0  0  0  0  0  0  0  # atno 10765 bound_to 10752
  141.0881  133.9102  157.2138 H   0  0  0  0  0  0  0  0  0  0  0  0  # atno 11005 bound_to 11000
  145.1763  140.9745  143.4292 LP  0  0  0  0  0  0  0  0  0  0  0  0  # atno 17320 bound_to 7965
  144.9982  139.3623  143.6180 LP  0  0  0  0  0  0  0  0  0  0  0  0  # atno 17321 bound_to 7965
  140.3455  144.3152  150.5959 LP  0  0  0  0  0  0  0  0  0  0  0  0  # atno 17342 bound_to 10162
  140.5530  143.2203  151.7895 LP  0  0  0  0  0  0  0  0  0  0  0  0  # atno 17343 bound_to 10162
  157.7039  131.0764  150.6731 LP  0  0  0  0  0  0  0  0  0  0  0  0  # atno 17370 bound_to 10713
  156.6791  130.4562  149.5633 LP  0  0  0  0  0  0  0  0  0  0  0  0  # atno 17371 bound_to 10713
  139.9703  135.0130  156.9494 LP  0  0  0  0  0  0  0  0  0  0  0  0  # atno 17394 bound_to 11000
  140.5315  134.0809  155.7317 LP  0  0  0  0  0  0  0  0  0  0  0  0  # atno 17395 bound_to 11000

$$$$
