AV-unprocessed.smi:828|AV-procd|sdf|3858|dock10
  -GOLD-   22720 1313D 1   1.00000     0.00000
 Structure written by MMmdl.
 35 36  0  0  0  0  0  0  0  0  2 V2000
  150.7272  142.2547  157.8835 C   0  0  0  0  0  0  0  0  0  0  0  0
  150.5653  141.3204  156.7337 C   0  0  0  0  0  0  0  0  0  0  0  0
  151.6058  140.7608  156.1039 N   0  0  0  0  0  0  0  0  0  0  0  0
  151.2079  139.9325  155.0638 N   0  0  0  0  0  0  0  0  0  0  0  0
  149.8742  139.8925  154.9392 C   0  0  0  0  0  0  0  0  0  0  0  0
  149.1971  139.1272  153.9529 N   0  0  0  0  0  0  0  0  0  0  0  0
  147.9921  139.3586  153.4030 C   0  0  0  0  0  0  0  0  0  0  0  0
  147.2640  140.3187  153.6569 O   0  0  0  0  0  0  0  0  0  0  0  0
  147.6632  138.4000  152.5251 N   0  0  0  0  0  0  0  0  0  0  0  0
  146.4196  138.3652  151.7619 C   0  0  0  0  0  0  0  0  0  0  0  0
  145.4862  137.2205  152.2082 C   0  0  2  0  0  0  0  0  0  0  0  0
  145.2318  137.1879  153.7292 C   0  0  0  0  0  0  0  0  0  0  0  0
  145.9946  135.9671  154.2333 C   0  0  0  0  0  0  0  0  0  0  0  0
  145.9581  135.0247  153.0371 C   0  0  0  0  0  0  0  0  0  0  0  0
  146.0803  135.9059  151.8599 N   0  3  1  0  0  0  0  0  0  0  0  0
  145.5684  135.3117  150.6064 C   0  0  0  0  0  0  0  0  0  0  0  0
  148.9883  140.8746  156.0932 S   0  0  0  0  0  0  0  0  0  0  0  0
  151.6436  142.0311  158.4306 H   0  0  0  0  0  0  0  0  0  0  0  0
  149.8831  142.1608  158.5669 H   0  0  0  0  0  0  0  0  0  0  0  0
  150.7752  143.2825  157.5236 H   0  0  0  0  0  0  0  0  0  0  0  0
  149.6862  138.3036  153.6351 H   0  0  0  0  0  0  0  0  0  0  0  0
  148.3177  137.6469  152.3709 H   0  0  0  0  0  0  0  0  0  0  0  0
  145.9129  139.3272  151.8546 H   0  0  0  0  0  0  0  0  0  0  0  0
  146.6717  138.2519  150.7069 H   0  0  0  0  0  0  0  0  0  0  0  0
  144.5228  137.3218  151.7055 H   0  0  0  0  0  0  0  0  0  0  0  0
  145.5340  138.0998  154.2450 H   0  0  0  0  0  0  0  0  0  0  0  0
  144.1658  137.0505  153.9148 H   0  0  0  0  0  0  0  0  0  0  0  0
  147.0260  136.2411  154.4591 H   0  0  0  0  0  0  0  0  0  0  0  0
  145.5557  135.5313  155.1314 H   0  0  0  0  0  0  0  0  0  0  0  0
  146.7515  134.2775  153.0649 H   0  0  0  0  0  0  0  0  0  0  0  0
  145.0002  134.5024  153.0120 H   0  0  0  0  0  0  0  0  0  0  0  0
  144.4996  135.1047  150.6756 H   0  0  0  0  0  0  0  0  0  0  0  0
  146.0856  134.3767  150.3892 H   0  0  0  0  0  0  0  0  0  0  0  0
  145.7320  135.9901  149.7685 H   0  0  0  0  0  0  0  0  0  0  0  0
  147.0689  136.0709  151.7347 H   0  0  0  0  0  0  0  0  0  0  0  0
  1  2  1  0  0  0  0
  1 18  1  0  0  0  0
  1 19  1  0  0  0  0
  1 20  1  0  0  0  0
  2 17  1  0  0  0  0
  2  3  2  0  0  0  0
  3  4  1  0  0  0  0
  4  5  2  0  0  0  0
  5  6  1  0  0  0  0
  5 17  1  0  0  0  0
  6  7  1  0  0  0  0
  6 21  1  0  0  0  0
  7  8  2  0  0  0  0
  7  9  1  0  0  0  0
  9 10  1  0  0  0  0
  9 22  1  0  0  0  0
 10 11  1  0  0  0  0
 10 23  1  0  0  0  0
 10 24  1  0  0  0  0
 11 15  1  0  0  0  0
 11 12  1  0  0  0  0
 11 25  1  0  0  0  0
 12 13  1  0  0  0  0
 12 26  1  0  0  0  0
 12 27  1  0  0  0  0
 13 14  1  0  0  0  0
 13 28  1  0  0  0  0
 13 29  1  0  0  0  0
 14 15  1  0  0  0  0
 14 30  1  0  0  0  0
 14 31  1  0  0  0  0
 15 16  1  0  0  0  0
 15 35  1  0  0  0  0
 16 32  1  0  0  0  0
 16 33  1  0  0  0  0
 16 34  1  0  0  0  0
M  CHG  1  15   1
M  END
> <s_m_source_file>
AV-unprocessed.smi

> <i_m_source_file_index>
828

> <i_lp_mmshare_version>
43012

> <i_f3d_flags>
0

> <s_epik_input>
W0NIM11jMW5uYyhzMSlbTkhdQyg9TylbTkhdW0NIMl1bQ0BASF0yW0NIMl1bQ0gyXVtDSDJdTjJbQ0gzXQ==

> <s_epik_cmdline>
J2VwaWtfcHl0aG9uJywgJy1waCcsICc3LjAnLCAnLXRuJywgJzgnLCAnLW1hJywgJzIwMCcsICctbWV0YWxfYmluZGluZycsICctaW1hZScsICc8aW5maWxlLm1hZT4nLCAnLW9tYWUnLCAnPG91dGZpbGUubWFlPic=

> <r_lp_tautomer_probability>
1

> <r_epik_Ionization_Penalty>
0.00466477

> <r_epik_Ionization_Penalty_Charging>
0.00372199

> <r_epik_Ionization_Penalty_Neutral>
0.000942783

> <r_epik_State_Penalty>
-0

> <r_epik_Charging_Adjusted_Penalty>
0.00372199

> <i_epik_Tot_Q>
1

> <i_epik_Tot_abs_Q>
1

> <r_epik_Metal_State_Penalty>
0.28212

> <b_epik_Metal_Only>
0

> <s_lp_Force_Field>
OPLS_2005

> <r_lp_Energy>
24.623

> <b_lp_Chiralities_Consistent>
1

> <s_lp_Variant>
AV-unprocessed.smi:828-1

> <Gold.Version>
5.8.1

> <Gold.Id.Protein>
6NUR|6NUR_protein|mol2

> <Gold.PLP.Fitness>
36.6497

> <Gold.PLP.PLP>
-25.1036

> <Gold.PLP.part.hbond>
-6.0000

> <Gold.PLP.part.metal>
0.0000

> <Gold.PLP.part.buried>
2.7637

> <Gold.PLP.part.nonpolar>
-22.1865

> <Gold.PLP.part.repulsive>
0.4422

> <Gold.PLP.ligand.clash>
0.0000

> <Gold.PLP.ligand.torsion>
0.2272

> <Gold.PLP.Chemscore.Hbond>
4.0000

> <Gold.PLP.Chemscore.CHOScore>
0.0000

> <Gold.PLP.Chemscore.Metal>
0.0000

> <Gold.Chemscore.Hbonds>
donor molecule, donor type, donor heavy atom, donor atom, acceptor molecule, acceptor atom, score
      L1  H     9    22       P1  7948  1.00
      L1  H    15    35       P1  7948  2.00
      P1  H  7989  7998       L1     4  1.00

> <Gold.PLP.Chemscore.Internal.Correction>
0.0005

> <Gold.Rescore>
     Score         DG    S(hbond)    S(metal)    S(lipo)     H(rot)  DE(clash)    DE(int)     intcor
     15.74     -16.23       2.88        0.00      38.81       1.33       0.07       0.42       ----

> <Gold.Chemscore.Fitness>
15.7447

> <Gold.Chemscore.DG>
-16.2339

> <Gold.Chemscore.ZeroCoef>
-5.4800

> <Gold.Chemscore.Hbond>
2.8793

> <Gold.Chemscore.Metal>
0.0000

> <Gold.Chemscore.Lipo>
38.8054

> <Gold.Chemscore.Internal_Hbond>
0.0000

> <Gold.Chemscore.DEClash>
0.0701

> <Gold.Chemscore.DEInternal>
0.4191

> <Gold.Chemscore.Rot>
1.3294

> <Gold.Chemscore.Internal.Correction>
   9.000000E+99

> <Gold.Chemscore.Hbonds>
donor molecule, donor type, donor heavy atom, donor atom, acceptor molecule, acceptor atom, score
      L1  H     9    22       P1  7948  0.99
      L1  H    15    35       P1  7948  1.00
      P1  H  7989  7998       L1     4  0.13

> <Gold.Chemscore.Hbond.Weighted>
-9.6170

> <Gold.Chemscore.Metal.Weighted>
-0.0000

> <Gold.Chemscore.Lipo.Weighted>
-4.5402

> <Gold.Chemscore.Internal_Hbond.Weighted>
0.0000

> <Gold.Chemscore.DEClash.Weighted>
0.0701

> <Gold.Chemscore.DEInternal.Weighted>
0.4191

> <Gold.Chemscore.Rot.Weighted>
3.4033

> <Gold.Chemscore.Internal.Correction.Weighted>
   9.000000E+99

> <Gold.Protein.RotatedTorsions>
[ 6907 6896 6895 6894 ] final   66.33 input  -60.11 | X-H torsion
[ 7974 7965 7964 7962 ] final   78.92 input  175.53 | X-H torsion
[ 8008 7997 7996 7995 ] final   11.89 input   59.86 | X-H torsion
[ 10167 10162 10161 10158 ] final -159.27 input  -65.29 | X-H torsion
[ 10718 10713 10712 10709 ] final  104.19 input   66.30 | X-H torsion
[ 10763 10752 10751 10750 ] final  160.38 input  -60.55 | X-H torsion
[ 11005 11000 10999 10996 ] final -129.47 input  -57.11 | X-H torsion

> <Gold.Protein.ActiveResidues>
 VAL166  LYS551  ARG553  GLY616  TRP617  ASP618  TYR619  PRO620  LYS621  CYS622 
 ASP623  PHE694  ASN695  SER759  ASP760  ASP761  ALA762  ILE779  LEU786  VAL792 
 PHE793  MET794  SER795  GLU796  ALA797  LYS798  CYS799  TRP800  GLU811  SER814 

> <Gold.Protein.RotatedAtoms>
  152.4473  134.5467  159.9854 H   0  0  0  0  0  0  0  0  0  0  0  0  # atno 6907 bound_to 6896
  151.5549  133.3406  159.2968 H   0  0  0  0  0  0  0  0  0  0  0  0  # atno 6908 bound_to 6896
  150.8393  134.7711  159.6982 H   0  0  0  0  0  0  0  0  0  0  0  0  # atno 6909 bound_to 6896
  145.6709  139.2496  143.1869 H   0  0  0  0  0  0  0  0  0  0  0  0  # atno 7974 bound_to 7965
  154.8131  140.2871  155.5839 H   0  0  0  0  0  0  0  0  0  0  0  0  # atno 8008 bound_to 7997
  156.2990  140.2564  156.2953 H   0  0  0  0  0  0  0  0  0  0  0  0  # atno 8009 bound_to 7997
  154.9425  140.0381  157.2093 H   0  0  0  0  0  0  0  0  0  0  0  0  # atno 8010 bound_to 7997
  139.6628  143.9882  152.2236 H   0  0  0  0  0  0  0  0  0  0  0  0  # atno 10167 bound_to 10162
  157.6748  131.0797  150.5668 H   0  0  0  0  0  0  0  0  0  0  0  0  # atno 10718 bound_to 10713
  154.2466  135.2773  155.2833 H   0  0  0  0  0  0  0  0  0  0  0  0  # atno 10763 bound_to 10752
  154.5500  135.5678  153.6917 H   0  0  0  0  0  0  0  0  0  0  0  0  # atno 10764 bound_to 10752
  152.9989  135.6272  154.2611 H   0  0  0  0  0  0  0  0  0  0  0  0  # atno 10765 bound_to 10752
  140.9429  134.1169  157.4134 H   0  0  0  0  0  0  0  0  0  0  0  0  # atno 11005 bound_to 11000
  146.1046  140.7502  142.9532 LP  0  0  0  0  0  0  0  0  0  0  0  0  # atno 17320 bound_to 7965
  144.7057  140.3842  143.7120 LP  0  0  0  0  0  0  0  0  0  0  0  0  # atno 17321 bound_to 7965
  139.9626  144.6548  150.8065 LP  0  0  0  0  0  0  0  0  0  0  0  0  # atno 17342 bound_to 10162
  140.7587  143.3113  151.2839 LP  0  0  0  0  0  0  0  0  0  0  0  0  # atno 17343 bound_to 10162
  156.5970  130.4344  149.5913 LP  0  0  0  0  0  0  0  0  0  0  0  0  # atno 17370 bound_to 10713
  156.2537  130.6922  151.1668 LP  0  0  0  0  0  0  0  0  0  0  0  0  # atno 17371 bound_to 10713
  139.8825  135.0042  156.6235 LP  0  0  0  0  0  0  0  0  0  0  0  0  # atno 17394 bound_to 11000
  140.7710  133.8738  155.8491 LP  0  0  0  0  0  0  0  0  0  0  0  0  # atno 17395 bound_to 11000

$$$$
