AV-unprocessed.smi:1034|AV-procd|sdf|4514|dock9
  -GOLD-   22720 2523D 1   1.00000     0.00000
 Structure written by MMmdl.
 39 40  0  0  0  0  0  0  0  0  1 V2000
  148.1137  143.9042  161.2152 O   0  0  0  0  0  0  0  0  0  0  0  0
  148.0034  144.4597  160.1218 C   0  0  0  0  0  0  0  0  0  0  0  0
  146.8399  144.9231  159.6434 N   0  0  0  0  0  0  0  0  0  0  0  0
  145.5607  144.8546  160.3396 C   0  0  0  0  0  0  0  0  0  0  0  0
  144.4670  144.2328  159.4556 C   0  0  0  0  0  0  0  0  0  0  0  0
  144.9572  142.5639  158.8306 S   0  0  0  0  0  0  0  0  0  0  0  0
  145.6662  141.8597  159.9100 O   0  0  0  0  0  0  0  0  0  0  0  0
  143.7907  141.9351  158.1912 O   0  0  0  0  0  0  0  0  0  0  0  0
  146.1198  142.9031  157.5769 N   0  0  0  0  0  0  0  0  0  0  0  0
  145.6870  143.0922  156.1758 C   0  0  0  0  0  0  0  0  0  0  0  0
  145.8918  141.8375  155.3114 C   0  0  0  0  0  0  0  0  0  0  0  0
  147.6314  141.3381  155.2652 S   0  0  0  0  0  0  0  0  0  0  0  0
  147.8926  141.2153  157.0516 C   0  0  0  0  0  0  0  0  0  0  0  0
  147.5355  142.5303  157.7651 C   0  0  0  0  0  0  0  0  0  0  0  0
  149.0078  144.6840  159.2563 N   0  0  0  0  0  0  0  0  0  0  0  0
  150.3826  144.3587  159.4028 C   0  0  0  0  0  0  0  0  0  0  0  0
  151.1982  144.7006  158.3003 C   0  0  0  0  0  0  0  0  0  0  0  0
  152.5782  144.4236  158.3474 C   0  0  0  0  0  0  0  0  0  0  0  0
  153.1077  143.8095  159.4962 C   0  0  0  0  0  0  0  0  0  0  0  0
  152.2262  143.4999  160.5485 C   0  0  0  0  0  0  0  0  0  0  0  0
  150.9035  143.7657  160.5060 N   0  0  0  0  0  0  0  0  0  0  0  0
  146.8408  145.3657  158.7360 H   0  0  0  0  0  0  0  0  0  0  0  0
  145.6674  144.2923  161.2689 H   0  0  0  0  0  0  0  0  0  0  0  0
  145.2834  145.8690  160.6243 H   0  0  0  0  0  0  0  0  0  0  0  0
  143.5174  144.1557  159.9783 H   0  0  0  0  0  0  0  0  0  0  0  0
  144.2997  144.8680  158.5854 H   0  0  0  0  0  0  0  0  0  0  0  0
  144.6424  143.3984  156.1423 H   0  0  0  0  0  0  0  0  0  0  0  0
  146.2540  143.9207  155.7499 H   0  0  0  0  0  0  0  0  0  0  0  0
  145.2858  141.0085  155.6716 H   0  0  0  0  0  0  0  0  0  0  0  0
  145.5667  142.0358  154.2900 H   0  0  0  0  0  0  0  0  0  0  0  0
  147.3019  140.3860  157.4368 H   0  0  0  0  0  0  0  0  0  0  0  0
  148.9383  140.9660  157.2312 H   0  0  0  0  0  0  0  0  0  0  0  0
  148.1627  143.3370  157.3841 H   0  0  0  0  0  0  0  0  0  0  0  0
  147.7583  142.4487  158.8288 H   0  0  0  0  0  0  0  0  0  0  0  0
  148.7622  145.1508  158.3959 H   0  0  0  0  0  0  0  0  0  0  0  0
  150.7757  145.1730  157.4253 H   0  0  0  0  0  0  0  0  0  0  0  0
  153.2187  144.6793  157.5164 H   0  0  0  0  0  0  0  0  0  0  0  0
  154.1608  143.5816  159.5698 H   0  0  0  0  0  0  0  0  0  0  0  0
  152.5924  143.0278  161.4481 H   0  0  0  0  0  0  0  0  0  0  0  0
  1  2  2  0  0  0  0
  2  3  1  0  0  0  0
  2 15  1  0  0  0  0
  3  4  1  0  0  0  0
  3 22  1  0  0  0  0
  4  5  1  0  0  0  0
  4 23  1  0  0  0  0
  4 24  1  0  0  0  0
  5  6  1  0  0  0  0
  5 25  1  0  0  0  0
  5 26  1  0  0  0  0
  6  7  2  0  0  0  0
  6  8  2  0  0  0  0
  6  9  1  0  0  0  0
  9 14  1  0  0  0  0
  9 10  1  0  0  0  0
 10 11  1  0  0  0  0
 10 27  1  0  0  0  0
 10 28  1  0  0  0  0
 11 12  1  0  0  0  0
 11 29  1  0  0  0  0
 11 30  1  0  0  0  0
 12 13  1  0  0  0  0
 13 14  1  0  0  0  0
 13 31  1  0  0  0  0
 13 32  1  0  0  0  0
 14 33  1  0  0  0  0
 14 34  1  0  0  0  0
 15 16  1  0  0  0  0
 15 35  1  0  0  0  0
 16 21  1  0  0  0  0
 16 17  2  0  0  0  0
 17 18  1  0  0  0  0
 17 36  1  0  0  0  0
 18 19  2  0  0  0  0
 18 37  1  0  0  0  0
 19 20  1  0  0  0  0
 19 38  1  0  0  0  0
 20 21  2  0  0  0  0
 20 39  1  0  0  0  0
M  END
> <s_m_source_file>
AV-unprocessed.smi

> <i_m_source_file_index>
1034

> <i_lp_mmshare_version>
43012

> <i_f3d_flags>
0

> <s_epik_input>
bjFbY0hdW2NIXVtjSF1bY0hdYzFbTkhdQyg9TylbTkhdW0NIMl1bQ0gyXVMoPU8pKD1PKU4yW0NIMl1bQ0gyXVNbQ0gyXVtDSDJdMg==

> <s_epik_cmdline>
J2VwaWtfcHl0aG9uJywgJy1waCcsICc3LjAnLCAnLXRuJywgJzgnLCAnLW1hJywgJzIwMCcsICctbWV0YWxfYmluZGluZycsICctaW1hZScsICc8aW5maWxlLm1hZT4nLCAnLW9tYWUnLCAnPG91dGZpbGUubWFlPic=

> <r_lp_tautomer_probability>
1

> <r_epik_Ionization_Penalty>
3.90463e-05

> <r_epik_Ionization_Penalty_Charging>
0

> <r_epik_Ionization_Penalty_Neutral>
3.90463e-05

> <r_epik_State_Penalty>
-0

> <r_epik_Charging_Adjusted_Penalty>
0

> <i_epik_Tot_Q>
0

> <i_epik_Tot_abs_Q>
0

> <r_epik_Metal_State_Penalty>
-0

> <b_epik_Metal_Only>
0

> <s_lp_Force_Field>
OPLS_2005

> <r_lp_Energy>
-0.604615

> <b_lp_Chiralities_Consistent>
1

> <s_lp_Variant>
AV-unprocessed.smi:1034-1

> <Gold.Version>
5.8.1

> <Gold.Id.Protein>
6NUR|6NUR_protein|mol2

> <Gold.PLP.Fitness>
46.9470

> <Gold.PLP.PLP>
-35.6669

> <Gold.PLP.part.hbond>
-4.9686

> <Gold.PLP.part.metal>
0.0000

> <Gold.PLP.part.buried>
-5.8432

> <Gold.PLP.part.nonpolar>
-24.8294

> <Gold.PLP.part.repulsive>
0.4897

> <Gold.PLP.ligand.clash>
0.0000

> <Gold.PLP.ligand.torsion>
1.3618

> <Gold.PLP.Chemscore.Hbond>
3.9600

> <Gold.PLP.Chemscore.CHOScore>
0.0000

> <Gold.PLP.Chemscore.Metal>
0.0000

> <Gold.Chemscore.Hbonds>
donor molecule, donor type, donor heavy atom, donor atom, acceptor molecule, acceptor atom, score
      L1  H     3    22       P1  8029  0.94
      L1  H    15    35       P1  8029  1.00
      P1  H  6933  6944       L1     1  1.00
      P1  H  6934  6946       L1     7  1.00

> <Gold.PLP.Chemscore.Internal.Correction>
2.1237

> <Gold.Rescore>
     Score         DG    S(hbond)    S(metal)    S(lipo)     H(rot)  DE(clash)    DE(int)     intcor
     19.93     -22.74       3.85        0.00      73.18       1.63       0.00       2.81       ----

> <Gold.Chemscore.Fitness>
19.9259

> <Gold.Chemscore.DG>
-22.7363

> <Gold.Chemscore.ZeroCoef>
-5.4800

> <Gold.Chemscore.Hbond>
3.8536

> <Gold.Chemscore.Metal>
0.0000

> <Gold.Chemscore.Lipo>
73.1751

> <Gold.Chemscore.Internal_Hbond>
0.0000

> <Gold.Chemscore.DEClash>
0.0000

> <Gold.Chemscore.DEInternal>
2.8104

> <Gold.Chemscore.Rot>
1.6313

> <Gold.Chemscore.Internal.Correction>
   9.000000E+99

> <Gold.Chemscore.Hbonds>
donor molecule, donor type, donor heavy atom, donor atom, acceptor molecule, acceptor atom, score
      L1  H     3    22       P1  8029  0.92
      L1  H    15    35       P1  8029  0.93
      P1  H  6933  6944       L1     1  0.97
      P1  H  6934  6946       L1     7  1.00

> <Gold.Chemscore.Hbond.Weighted>
-12.8710

> <Gold.Chemscore.Metal.Weighted>
-0.0000

> <Gold.Chemscore.Lipo.Weighted>
-8.5615

> <Gold.Chemscore.Internal_Hbond.Weighted>
0.0000

> <Gold.Chemscore.DEClash.Weighted>
0.0000

> <Gold.Chemscore.DEInternal.Weighted>
2.8104

> <Gold.Chemscore.Rot.Weighted>
4.1761

> <Gold.Chemscore.Internal.Correction.Weighted>
   9.000000E+99

> <Gold.Protein.RotatedTorsions>
[ 6907 6896 6895 6894 ] final  103.54 input  -60.11 | X-H torsion
[ 7974 7965 7964 7962 ] final  -18.25 input  175.53 | X-H torsion
[ 8008 7997 7996 7995 ] final   96.40 input   59.86 | X-H torsion
[ 10167 10162 10161 10158 ] final   15.84 input  -65.29 | X-H torsion
[ 10718 10713 10712 10709 ] final  -62.21 input   66.30 | X-H torsion
[ 10763 10752 10751 10750 ] final  -42.96 input  -60.55 | X-H torsion
[ 11005 11000 10999 10996 ] final   37.90 input  -57.11 | X-H torsion

> <Gold.Protein.ActiveResidues>
 VAL166  LYS551  ARG553  GLY616  TRP617  ASP618  TYR619  PRO620  LYS621  CYS622 
 ASP623  PHE694  ASN695  SER759  ASP760  ASP761  ALA762  ILE779  LEU786  VAL792 
 PHE793  MET794  SER795  GLU796  ALA797  LYS798  CYS799  TRP800  GLU811  SER814 

> <Gold.Protein.RotatedAtoms>
  152.5292  133.9811  159.7806 H   0  0  0  0  0  0  0  0  0  0  0  0  # atno 6907 bound_to 6896
  151.0064  133.5999  159.2695 H   0  0  0  0  0  0  0  0  0  0  0  0  # atno 6908 bound_to 6896
  151.3089  135.0795  159.9318 H   0  0  0  0  0  0  0  0  0  0  0  0  # atno 6909 bound_to 6896
  146.1901  140.3894  142.8461 H   0  0  0  0  0  0  0  0  0  0  0  0  # atno 7974 bound_to 7965
  156.0792  140.3273  155.7672 H   0  0  0  0  0  0  0  0  0  0  0  0  # atno 8008 bound_to 7997
  155.5180  140.0582  157.2929 H   0  0  0  0  0  0  0  0  0  0  0  0  # atno 8009 bound_to 7997
  154.4572  140.1949  156.0362 H   0  0  0  0  0  0  0  0  0  0  0  0  # atno 8010 bound_to 7997
  140.5839  143.8928  150.6813 H   0  0  0  0  0  0  0  0  0  0  0  0  # atno 10167 bound_to 10162
  156.0870  130.4206  150.1102 H   0  0  0  0  0  0  0  0  0  0  0  0  # atno 10718 bound_to 10713
  153.9877  135.6709  153.4752 H   0  0  0  0  0  0  0  0  0  0  0  0  # atno 10763 bound_to 10752
  153.0719  135.4969  154.8319 H   0  0  0  0  0  0  0  0  0  0  0  0  # atno 10764 bound_to 10752
  154.7127  135.3100  154.9134 H   0  0  0  0  0  0  0  0  0  0  0  0  # atno 10765 bound_to 10752
  140.2180  134.3675  155.8018 H   0  0  0  0  0  0  0  0  0  0  0  0  # atno 11005 bound_to 11000
  144.8471  140.6945  143.6192 LP  0  0  0  0  0  0  0  0  0  0  0  0  # atno 17320 bound_to 7965
  145.3818  139.1635  143.4276 LP  0  0  0  0  0  0  0  0  0  0  0  0  # atno 17321 bound_to 7965
  140.2434  143.3647  152.1467 LP  0  0  0  0  0  0  0  0  0  0  0  0  # atno 17342 bound_to 10162
  139.5186  144.7008  151.5499 LP  0  0  0  0  0  0  0  0  0  0  0  0  # atno 17343 bound_to 10162
  156.9121  130.9655  151.3561 LP  0  0  0  0  0  0  0  0  0  0  0  0  # atno 17370 bound_to 10713
  157.6008  130.8511  149.8799 LP  0  0  0  0  0  0  0  0  0  0  0  0  # atno 17371 bound_to 10713
  141.2224  133.7178  156.8528 LP  0  0  0  0  0  0  0  0  0  0  0  0  # atno 17394 bound_to 11000
  140.1880  134.8986  157.3027 LP  0  0  0  0  0  0  0  0  0  0  0  0  # atno 17395 bound_to 11000

$$$$
