#       Name:                AV-unprocessed.smi:1683
#       Creating user name   scv26
#       Creation time:       Fri Mar 27 07:50:42 2020


#       File generated by GOLD software.
#

@<TRIPOS>MOLECULE
AV-unprocessed.smi:1683
    40    41     1
SMALL
NO_CHARGES


@<TRIPOS>ATOM
      1 ****        -1.1395   0.8597  -2.2668 O.2            1 S1                 0.0000
      2 ****        -1.7026   1.3167  -1.2717 C.2            1 S1                 0.0000
      3 ****        -1.9336   0.6026  -0.1608 N.am           1 S1                 0.0000
      4 ****        -1.5694  -0.7989   0.0193 C.3            1 S1                 0.0000
      5 ****        -0.0771  -0.9701   0.3618 C.3            1 S1                 0.0000
      6 ****         0.3619  -0.3096   1.6660 C.3            1 S1                 0.0000
      7 ****         1.6659  -1.0370   1.9818 C.3            1 S1                 0.0000
      8 ****         1.4633  -2.4330   1.5315 N.4            1 S1                 1.0000
      9 ****         2.6884  -3.1302   1.0667 C.3            1 S1                 0.0000
     10 ****         3.6692  -3.4460   2.2104 C.3            1 S1                 0.0000
     11 ****         4.6654  -4.1910   1.7338 F              1 S1                 0.0000
     12 ****         4.1870  -2.3319   2.7266 F              1 S1                 0.0000
     13 ****         3.0469  -4.1288   3.1713 F              1 S1                 0.0000
     14 ****         0.3542  -2.4309   0.5463 C.3            1 S1                 0.0000
     15 ****        -2.1553   2.5754  -1.1492 N.am           1 S1                 0.0000
     16 ****        -2.1113   3.6034  -2.1249 C.2            1 S1                 0.0000
     17 ****        -2.5764   4.9314  -1.9234 C.2            1 S1                 0.0000
     18 ****        -2.4132   5.6714  -3.0107 N.2            1 S1                 0.0000
     19 ****        -1.8502   4.8280  -3.9051 N.pl3          1 S1                 0.0000
     20 ****        -1.6488   3.5585  -3.4102 C.2            1 S1                 0.0000
     21 ****        -1.6131   5.1295  -4.8397 H              1 S1                 0.0000
     22 ****        -2.4029   1.0564   0.6095 H              1 S1                 0.0000
     23 ****        -2.1876  -1.2092   0.8183 H              1 S1                 0.0000
     24 ****        -1.8175  -1.3639  -0.8809 H              1 S1                 0.0000
     25 ****         0.5253  -0.5488  -0.4453 H              1 S1                 0.0000
     26 ****         0.4929   0.7690   1.5736 H              1 S1                 0.0000
     27 ****        -0.3705  -0.4963   2.4529 H              1 S1                 0.0000
     28 ****         2.4796  -0.5767   1.4188 H              1 S1                 0.0000
     29 ****         1.9200  -0.9891   3.0410 H              1 S1                 0.0000
     30 ****         2.3886  -4.0744   0.6094 H              1 S1                 0.0000
     31 ****         3.1790  -2.5492   0.2840 H              1 S1                 0.0000
     32 ****        -0.4595  -3.0275   0.9605 H              1 S1                 0.0000
     33 ****         0.6333  -2.8786  -0.4090 H              1 S1                 0.0000
     34 ****        -2.5826   2.8240  -0.2691 H              1 S1                 0.0000
     35 ****        -3.0177   5.3741  -1.0425 H              1 S1                 0.0000
     36 ****        -1.2105   2.7697  -4.0035 H              1 S1                 0.0000
     37 ****         1.1188  -2.9489   2.3287 H              1 S1                 0.0000
     38 ****        -0.8283  -0.0906  -2.2729 LP             1 S1                 0.0000
     39 ****        -0.9934   1.4389  -3.0688 LP             1 S1                 0.0000
     40 ****        -2.6520   6.6338  -3.1401 LP             1 S1                 0.0000
@<TRIPOS>BOND
    1    1    2 2     
    2    2    3 am    
    3    2   15 am    
    4    3    4 1     
    5    3   22 1     
    6    4    5 1     
    7    4   23 1     
    8    4   24 1     
    9    5   14 1     
   10    5    6 1     
   11    5   25 1     
   12    6    7 1     
   13    6   26 1     
   14    6   27 1     
   15    7    8 1     
   16    7   28 1     
   17    7   29 1     
   18    8    9 1     
   19    8   14 1     
   20    8   37 1     
   21    9   10 1     
   22    9   30 1     
   23    9   31 1     
   24   10   11 1     
   25   10   12 1     
   26   10   13 1     
   27   14   32 1     
   28   14   33 1     
   29   15   16 1     
   30   15   34 1     
   31   16   20 2     
   32   16   17 1     
   33   17   18 2     
   34   17   35 1     
   35   18   19 1     
   36   19   21 1     
   37   19   20 1     
   38   20   36 1     
   39    1   38 1     
   40    1   39 1     
   41   18   40 1     
@<TRIPOS>SUBSTRUCTURE
      1 S1             1
@<TRIPOS>SET
LONE_PAIRS      STATIC     ATOMS    <user>   **** ""
3 38 39 40
DONOR_HYDROGENS      STATIC     ATOMS    <user>   **** ""
4 22 37 34 21
ATOM$BLUE        STATIC     ATOMS    COLORGROUP SYSTEM
3 38 39 40
ATOM$RED        STATIC     ATOMS    COLORGROUP SYSTEM
4 22 37 34 21
