AV-unprocessed.smi:1401|AV-procd|sdf|5688|dock5
  -GOLD-   22720 5313D 1   1.00000     0.00000
 Structure written by MMmdl.
 48 50  0  0  0  0  0  0  0  0  1 V2000
  151.8837  144.3424  161.6289 C   0  0  0  0  0  0  0  0  0  0  0  0
  152.5911  143.2474  160.8771 C   0  0  0  0  0  0  0  0  0  0  0  0
  152.1745  143.0045  159.6783 N   0  0  0  0  0  0  0  0  0  0  0  0
  152.7626  142.0300  158.8944 N   0  0  0  0  0  0  0  0  0  0  0  0
  152.2011  141.9409  157.5356 C   0  0  0  0  0  0  0  0  0  0  0  0
  151.1465  140.8345  157.3542 C   0  0  0  0  0  0  0  0  0  0  0  0
  151.0238  139.9724  158.2234 O   0  0  0  0  0  0  0  0  0  0  0  0
  150.3834  140.8706  156.2486 N   0  0  0  0  0  0  0  0  0  0  0  0
  149.2747  139.9784  155.9291 C   0  0  2  0  0  0  0  0  0  0  0  0
  149.7735  138.5254  155.8483 C   0  0  0  0  0  0  0  0  0  0  0  0
  148.6282  140.4524  154.6059 C   0  0  2  0  0  0  0  0  0  0  0  0
  148.1759  141.9316  154.5930 C   0  0  0  0  0  0  0  0  0  0  0  0
  146.7408  141.8491  154.0408 C   0  0  2  0  0  0  0  0  0  0  0  0
  145.8148  141.2865  155.1344 C   0  0  0  0  0  0  0  0  0  0  0  0
  146.2177  139.8013  155.1864 C   0  0  0  0  0  0  0  0  0  0  0  0
  147.3483  139.7151  154.1401 C   0  0  1  0  0  0  0  0  0  0  0  0
  146.8326  140.6752  153.0723 C   0  0  0  0  0  0  0  0  0  0  0  0
  153.8052  141.2426  159.2877 C   0  0  0  0  0  0  0  0  0  0  0  0
  154.3142  140.3990  158.5487 O   0  0  0  0  0  0  0  0  0  0  0  0
  154.2637  141.5147  160.6519 C   0  0  0  0  0  0  0  0  0  0  0  0
  155.3540  140.7121  161.1042 C   0  0  0  0  0  0  0  0  0  0  0  0
  156.2497  140.0679  161.4545 N   0  0  0  0  0  0  0  0  0  0  0  0
  153.6970  142.4716  161.4287 C   0  0  0  0  0  0  0  0  0  0  0  0
  154.1431  142.8003  162.8468 C   0  0  0  0  0  0  0  0  0  0  0  0
  151.4021  143.9486  162.5239 H   0  0  0  0  0  0  0  0  0  0  0  0
  151.1124  144.8196  161.0227 H   0  0  0  0  0  0  0  0  0  0  0  0
  152.5860  145.1182  161.9343 H   0  0  0  0  0  0  0  0  0  0  0  0
  151.7623  142.8927  157.2317 H   0  0  0  0  0  0  0  0  0  0  0  0
  153.0067  141.7582  156.8224 H   0  0  0  0  0  0  0  0  0  0  0  0
  150.5617  141.6135  155.5885 H   0  0  0  0  0  0  0  0  0  0  0  0
  148.5442  140.0555  156.7347 H   0  0  0  0  0  0  0  0  0  0  0  0
  148.9527  137.8365  155.6488 H   0  0  0  0  0  0  0  0  0  0  0  0
  150.2357  138.2118  156.7847 H   0  0  0  0  0  0  0  0  0  0  0  0
  150.5123  138.4027  155.0558 H   0  0  0  0  0  0  0  0  0  0  0  0
  149.3743  140.3294  153.8180 H   0  0  0  0  0  0  0  0  0  0  0  0
  148.1998  142.3959  155.5799 H   0  0  0  0  0  0  0  0  0  0  0  0
  148.8180  142.5213  153.9373 H   0  0  0  0  0  0  0  0  0  0  0  0
  146.3851  142.7831  153.6048 H   0  0  0  0  0  0  0  0  0  0  0  0
  145.9521  141.7889  156.0927 H   0  0  0  0  0  0  0  0  0  0  0  0
  144.7671  141.3897  154.8497 H   0  0  0  0  0  0  0  0  0  0  0  0
  146.5185  139.4777  156.1818 H   0  0  0  0  0  0  0  0  0  0  0  0
  145.3768  139.1746  154.8865 H   0  0  0  0  0  0  0  0  0  0  0  0
  147.5333  138.7024  153.7807 H   0  0  0  0  0  0  0  0  0  0  0  0
  145.8677  140.3821  152.6544 H   0  0  0  0  0  0  0  0  0  0  0  0
  147.5388  140.8409  152.2568 H   0  0  0  0  0  0  0  0  0  0  0  0
  154.9366  142.1395  163.1939 H   0  0  0  0  0  0  0  0  0  0  0  0
  153.3108  142.7027  163.5443 H   0  0  0  0  0  0  0  0  0  0  0  0
  154.5190  143.8224  162.9005 H   0  0  0  0  0  0  0  0  0  0  0  0
  1  2  1  0  0  0  0
  1 25  1  0  0  0  0
  1 26  1  0  0  0  0
  1 27  1  0  0  0  0
  2 23  1  0  0  0  0
  2  3  2  0  0  0  0
  3  4  1  0  0  0  0
  4  5  1  0  0  0  0
  4 18  1  0  0  0  0
  5  6  1  0  0  0  0
  5 28  1  0  0  0  0
  5 29  1  0  0  0  0
  6  7  2  0  0  0  0
  6  8  1  0  0  0  0
  8  9  1  0  0  0  0
  8 30  1  0  0  0  0
  9 10  1  0  0  0  0
  9 11  1  0  0  0  0
  9 31  1  0  0  0  0
 10 32  1  0  0  0  0
 10 33  1  0  0  0  0
 10 34  1  0  0  0  0
 11 16  1  0  0  0  0
 11 12  1  0  0  0  0
 11 35  1  0  0  0  0
 12 13  1  0  0  0  0
 12 36  1  0  0  0  0
 12 37  1  0  0  0  0
 13 17  1  0  0  0  0
 13 14  1  0  0  0  0
 13 38  1  0  0  0  0
 14 15  1  0  0  0  0
 14 39  1  0  0  0  0
 14 40  1  0  0  0  0
 15 16  1  0  0  0  0
 15 41  1  0  0  0  0
 15 42  1  0  0  0  0
 16 17  1  0  0  0  0
 16 43  1  0  0  0  0
 17 44  1  0  0  0  0
 17 45  1  0  0  0  0
 18 19  2  0  0  0  0
 18 20  1  0  0  0  0
 20 21  1  0  0  0  0
 20 23  2  0  0  0  0
 21 22  3  0  0  0  0
 23 24  1  0  0  0  0
 24 46  1  0  0  0  0
 24 47  1  0  0  0  0
 24 48  1  0  0  0  0
M  END
> <s_m_source_file>
AV-unprocessed.smi

> <i_m_source_file_index>
1401

> <i_lp_mmshare_version>
43012

> <i_f3d_flags>
0

> <s_epik_input>
TiNDYyhjMVtDSDNdKWMoPU8pbihuYzFbQ0gzXSlbQ0gyXUMoPU8pW05IXVtDQEhdKFtDSDNdKVtDQEhdKFtDSDJdW0NASF0yMylbQ0BIXShbQ0gyXTMpW0NIMl1bQ0gyXTI=

> <s_epik_cmdline>
J2VwaWtfcHl0aG9uJywgJy1waCcsICc3LjAnLCAnLXRuJywgJzgnLCAnLW1hJywgJzIwMCcsICctbWV0YWxfYmluZGluZycsICctaW1hZScsICc8aW5maWxlLm1hZT4nLCAnLW9tYWUnLCAnPG91dGZpbGUubWFlPic=

> <r_lp_tautomer_probability>
1

> <r_epik_Ionization_Penalty>
2.16501e-08

> <r_epik_Ionization_Penalty_Charging>
2.29436e-11

> <r_epik_Ionization_Penalty_Neutral>
2.16271e-08

> <r_epik_State_Penalty>
-0

> <r_epik_Charging_Adjusted_Penalty>
2.29436e-11

> <i_epik_Tot_Q>
0

> <i_epik_Tot_abs_Q>
0

> <r_epik_Metal_State_Penalty>
-0

> <b_epik_Metal_Only>
0

> <s_lp_Force_Field>
OPLS_2005

> <r_lp_Energy>
65.8104

> <b_lp_Chiralities_Consistent>
1

> <s_lp_Variant>
AV-unprocessed.smi:1401-1

> <Gold.Version>
5.8.1

> <Gold.Id.Protein>
6NUR|6NUR_protein|mol2

> <Gold.PLP.Fitness>
43.6620

> <Gold.PLP.PLP>
-41.7094

> <Gold.PLP.part.hbond>
-1.0000

> <Gold.PLP.part.metal>
0.0000

> <Gold.PLP.part.buried>
-2.6579

> <Gold.PLP.part.nonpolar>
-35.8462

> <Gold.PLP.part.repulsive>
0.0518

> <Gold.PLP.ligand.clash>
0.0000

> <Gold.PLP.ligand.torsion>
0.5178

> <Gold.PLP.Chemscore.Hbond>
0.9913

> <Gold.PLP.Chemscore.CHOScore>
0.0000

> <Gold.PLP.Chemscore.Metal>
0.0000

> <Gold.Chemscore.Hbonds>
donor molecule, donor type, donor heavy atom, donor atom, acceptor molecule, acceptor atom, score
      P1  H  7997  8009       L1    19  0.60

> <Gold.PLP.Chemscore.Internal.Correction>
0.0143

> <Gold.Rescore>
     Score         DG    S(hbond)    S(metal)    S(lipo)     H(rot)  DE(clash)    DE(int)     intcor
     16.23     -16.99       0.99        0.00     105.77       1.63       0.27       0.49       ----

> <Gold.Chemscore.Fitness>
16.2274

> <Gold.Chemscore.DG>
-16.9869

> <Gold.Chemscore.ZeroCoef>
-5.4800

> <Gold.Chemscore.Hbond>
0.9878

> <Gold.Chemscore.Metal>
0.0000

> <Gold.Chemscore.Lipo>
105.7727

> <Gold.Chemscore.Internal_Hbond>
0.0000

> <Gold.Chemscore.DEClash>
0.2716

> <Gold.Chemscore.DEInternal>
0.4879

> <Gold.Chemscore.Rot>
1.6281

> <Gold.Chemscore.Internal.Correction>
   9.000000E+99

> <Gold.Chemscore.Hbonds>
donor molecule, donor type, donor heavy atom, donor atom, acceptor molecule, acceptor atom, score
      P1  H  7997  8009       L1    19  0.60

> <Gold.Chemscore.Hbond.Weighted>
-3.2993

> <Gold.Chemscore.Metal.Weighted>
-0.0000

> <Gold.Chemscore.Lipo.Weighted>
-12.3754

> <Gold.Chemscore.Internal_Hbond.Weighted>
0.0000

> <Gold.Chemscore.DEClash.Weighted>
0.2716

> <Gold.Chemscore.DEInternal.Weighted>
0.4879

> <Gold.Chemscore.Rot.Weighted>
4.1678

> <Gold.Chemscore.Internal.Correction.Weighted>
   9.000000E+99

> <Gold.Protein.RotatedTorsions>
[ 6907 6896 6895 6894 ] final -111.93 input  -60.11 | X-H torsion
[ 7974 7965 7964 7962 ] final  114.41 input  175.53 | X-H torsion
[ 8008 7997 7996 7995 ] final  132.58 input   59.86 | X-H torsion
[ 10167 10162 10161 10158 ] final  -46.49 input  -65.29 | X-H torsion
[ 10718 10713 10712 10709 ] final -122.29 input   66.30 | X-H torsion
[ 10763 10752 10751 10750 ] final  107.52 input  -60.55 | X-H torsion
[ 11005 11000 10999 10996 ] final  122.01 input  -57.11 | X-H torsion

> <Gold.Protein.ActiveResidues>
 VAL166  LYS551  ARG553  GLY616  TRP617  ASP618  TYR619  PRO620  LYS621  CYS622 
 ASP623  PHE694  ASN695  SER759  ASP760  ASP761  ALA762  ILE779  LEU786  VAL792 
 PHE793  MET794  SER795  GLU796  ALA797  LYS798  CYS799  TRP800  GLU811  SER814 

> <Gold.Protein.RotatedAtoms>
  150.7724  133.9163  159.3384 H   0  0  0  0  0  0  0  0  0  0  0  0  # atno 6907 bound_to 6896
  151.7046  135.0922  160.0266 H   0  0  0  0  0  0  0  0  0  0  0  0  # atno 6908 bound_to 6896
  152.3747  133.6427  159.6149 H   0  0  0  0  0  0  0  0  0  0  0  0  # atno 6909 bound_to 6896
  145.2048  139.2935  143.4299 H   0  0  0  0  0  0  0  0  0  0  0  0  # atno 7974 bound_to 7965
  156.2984  140.2543  156.3113 H   0  0  0  0  0  0  0  0  0  0  0  0  # atno 8008 bound_to 7997
  154.9323  140.0398  157.2073 H   0  0  0  0  0  0  0  0  0  0  0  0  # atno 8009 bound_to 7997
  154.8206  140.2859  155.5794 H   0  0  0  0  0  0  0  0  0  0  0  0  # atno 8010 bound_to 7997
  140.6815  143.2828  151.3791 H   0  0  0  0  0  0  0  0  0  0  0  0  # atno 10167 bound_to 10162
  156.1406  130.6463  150.9765 H   0  0  0  0  0  0  0  0  0  0  0  0  # atno 10718 bound_to 10713
  153.4079  135.3841  155.2031 H   0  0  0  0  0  0  0  0  0  0  0  0  # atno 10763 bound_to 10752
  154.8735  135.3787  154.4537 H   0  0  0  0  0  0  0  0  0  0  0  0  # atno 10764 bound_to 10752
  153.5042  135.7088  153.5877 H   0  0  0  0  0  0  0  0  0  0  0  0  # atno 10765 bound_to 10752
  139.9250  134.9640  156.8044 H   0  0  0  0  0  0  0  0  0  0  0  0  # atno 11005 bound_to 11000
  146.3410  140.2304  142.8593 LP  0  0  0  0  0  0  0  0  0  0  0  0  # atno 17320 bound_to 7965
  144.9913  140.8549  143.5338 LP  0  0  0  0  0  0  0  0  0  0  0  0  # atno 17321 bound_to 7965
  139.6141  144.1039  152.2328 LP  0  0  0  0  0  0  0  0  0  0  0  0  # atno 17342 bound_to 10162
  140.0462  144.5968  150.7372 LP  0  0  0  0  0  0  0  0  0  0  0  0  # atno 17343 bound_to 10162
  157.6572  131.0887  150.7920 LP  0  0  0  0  0  0  0  0  0  0  0  0  # atno 17370 bound_to 10713
  156.7996  130.4916  149.5372 LP  0  0  0  0  0  0  0  0  0  0  0  0  # atno 17371 bound_to 10713
  140.6363  133.9859  155.7686 LP  0  0  0  0  0  0  0  0  0  0  0  0  # atno 17394 bound_to 11000
  141.0800  134.0076  157.3400 LP  0  0  0  0  0  0  0  0  0  0  0  0  # atno 17395 bound_to 11000

$$$$
