AV-unprocessed.smi:1769|AV-procd|sdf|7152|dock3
  -GOLD-   22720 8393D 1   1.00000     0.00000
 Structure written by MMmdl.
 41 42  0  0  0  0  0  0  0  0  1 V2000
  153.3993  133.8417  162.4707 C   0  0  0  0  0  0  0  0  0  0  0  0
  153.3312  135.2086  161.7858 C   0  0  0  0  0  0  0  0  0  0  0  0
  153.4903  135.2528  160.5656 O   0  0  0  0  0  0  0  0  0  0  0  0
  153.1046  136.3143  162.5352 N   0  0  0  0  0  0  0  0  0  0  0  0
  152.9945  136.3416  163.9993 C   0  0  0  0  0  0  0  0  0  0  0  0
  154.2506  137.0195  164.5761 C   0  0  0  0  0  0  0  0  0  0  0  0
  154.4426  138.4268  163.9776 C   0  0  0  0  0  0  0  0  0  0  0  0
  154.3772  138.4056  162.4319 C   0  0  2  0  0  0  0  0  0  0  0  0
  154.4238  139.8209  161.8434 C   0  0  0  0  0  0  0  0  0  0  0  0
  154.8772  140.7539  162.5070 O   0  0  0  0  0  0  0  0  0  0  0  0
  153.9254  139.9688  160.6052 N   0  0  0  0  0  0  0  0  0  0  0  0
  153.7812  141.2367  159.8937 C   0  0  0  0  0  0  0  0  0  0  0  0
  153.2687  142.3628  160.8129 C   0  0  0  0  0  0  0  0  0  0  0  0
  152.5913  143.4981  160.0649 C   0  0  0  0  0  0  0  0  0  0  0  0
  152.1122  144.6352  160.7481 C   0  0  0  0  0  0  0  0  0  0  0  0
  151.5230  145.6754  160.0046 C   0  0  0  0  0  0  0  0  0  0  0  0
  151.4323  145.5312  158.6058 C   0  0  0  0  0  0  0  0  0  0  0  0
  151.8809  144.4445  157.9415 N   0  0  0  0  0  0  0  0  0  0  0  0
  152.4483  143.4532  158.6619 C   0  0  0  0  0  0  0  0  0  0  0  0
  153.1012  137.6680  161.9677 C   0  0  0  0  0  0  0  0  0  0  0  0
  154.1874  133.8247  163.2242 H   0  0  0  0  0  0  0  0  0  0  0  0
  153.6180  133.0579  161.7446 H   0  0  0  0  0  0  0  0  0  0  0  0
  152.4483  133.5998  162.9455 H   0  0  0  0  0  0  0  0  0  0  0  0
  152.1049  136.9072  164.2798 H   0  0  0  0  0  0  0  0  0  0  0  0
  152.8645  135.3573  164.4469 H   0  0  0  0  0  0  0  0  0  0  0  0
  154.1775  137.0834  165.6620 H   0  0  0  0  0  0  0  0  0  0  0  0
  155.1265  136.4067  164.3595 H   0  0  0  0  0  0  0  0  0  0  0  0
  153.6651  139.0818  164.3742 H   0  0  0  0  0  0  0  0  0  0  0  0
  155.3939  138.8435  164.3109 H   0  0  0  0  0  0  0  0  0  0  0  0
  155.2436  137.8517  162.0645 H   0  0  0  0  0  0  0  0  0  0  0  0
  153.5749  139.1449  160.1380 H   0  0  0  0  0  0  0  0  0  0  0  0
  154.7260  141.5308  159.4335 H   0  0  0  0  0  0  0  0  0  0  0  0
  153.0797  141.0885  159.0726 H   0  0  0  0  0  0  0  0  0  0  0  0
  152.5643  141.9515  161.5367 H   0  0  0  0  0  0  0  0  0  0  0  0
  154.0978  142.7668  161.3949 H   0  0  0  0  0  0  0  0  0  0  0  0
  152.2076  144.7179  161.8208 H   0  0  0  0  0  0  0  0  0  0  0  0
  151.1540  146.5646  160.4942 H   0  0  0  0  0  0  0  0  0  0  0  0
  150.9875  146.3101  158.0044 H   0  0  0  0  0  0  0  0  0  0  0  0
  152.8065  142.6023  158.1013 H   0  0  0  0  0  0  0  0  0  0  0  0
  153.0416  137.6615  160.8783 H   0  0  0  0  0  0  0  0  0  0  0  0
  152.2073  138.1949  162.3061 H   0  0  0  0  0  0  0  0  0  0  0  0
  1  2  1  0  0  0  0
  1 21  1  0  0  0  0
  1 22  1  0  0  0  0
  1 23  1  0  0  0  0
  2  3  2  0  0  0  0
  2  4  1  0  0  0  0
  4 20  1  0  0  0  0
  4  5  1  0  0  0  0
  5  6  1  0  0  0  0
  5 24  1  0  0  0  0
  5 25  1  0  0  0  0
  6  7  1  0  0  0  0
  6 26  1  0  0  0  0
  6 27  1  0  0  0  0
  7  8  1  0  0  0  0
  7 28  1  0  0  0  0
  7 29  1  0  0  0  0
  8  9  1  0  0  0  0
  8 20  1  0  0  0  0
  8 30  1  0  0  0  0
  9 10  2  0  0  0  0
  9 11  1  0  0  0  0
 11 12  1  0  0  0  0
 11 31  1  0  0  0  0
 12 13  1  0  0  0  0
 12 32  1  0  0  0  0
 12 33  1  0  0  0  0
 13 14  1  0  0  0  0
 13 34  1  0  0  0  0
 13 35  1  0  0  0  0
 14 19  1  0  0  0  0
 14 15  2  0  0  0  0
 15 16  1  0  0  0  0
 15 36  1  0  0  0  0
 16 17  2  0  0  0  0
 16 37  1  0  0  0  0
 17 18  1  0  0  0  0
 17 38  1  0  0  0  0
 18 19  2  0  0  0  0
 19 39  1  0  0  0  0
 20 40  1  0  0  0  0
 20 41  1  0  0  0  0
M  END
> <s_m_source_file>
AV-unprocessed.smi

> <i_m_source_file_index>
1769

> <i_lp_mmshare_version>
43012

> <i_f3d_flags>
0

> <s_epik_input>
W0NIM11DKD1PKU4xW0NIMl1bQ0gyXVtDSDJdW0NASF0oW0NIMl0xKUMoPU8pW05IXVtDSDJdW0NIMl1jMltjSF1bY0hdW2NIXW5bY0hdMg==

> <s_epik_cmdline>
J2VwaWtfcHl0aG9uJywgJy1waCcsICc3LjAnLCAnLXRuJywgJzgnLCAnLW1hJywgJzIwMCcsICctbWV0YWxfYmluZGluZycsICctaW1hZScsICc8aW5maWxlLm1hZT4nLCAnLW9tYWUnLCAnPG91dGZpbGUubWFlPic=

> <r_epik_Ionization_Penalty>
0.0134099

> <r_epik_Ionization_Penalty_Charging>
0

> <r_epik_Ionization_Penalty_Neutral>
0.0134099

> <r_epik_State_Penalty>
0.010434

> <r_epik_Charging_Adjusted_Penalty>
0.010434

> <i_epik_Tot_Q>
0

> <i_epik_Tot_abs_Q>
0

> <r_epik_Metal_State_Penalty>
0.0102025

> <b_epik_Metal_Only>
0

> <s_lp_Force_Field>
OPLS_2005

> <r_lp_Energy>
22.8084

> <b_lp_Chiralities_Consistent>
1

> <s_lp_Variant>
AV-unprocessed.smi:1769-2

> <Gold.Version>
5.8.1

> <Gold.Id.Protein>
6NUR|6NUR_protein|mol2

> <Gold.PLP.Fitness>
50.7615

> <Gold.PLP.PLP>
-47.3581

> <Gold.PLP.part.hbond>
-1.4001

> <Gold.PLP.part.metal>
0.0000

> <Gold.PLP.part.buried>
-6.0745

> <Gold.PLP.part.nonpolar>
-40.8085

> <Gold.PLP.part.repulsive>
0.1728

> <Gold.PLP.ligand.clash>
0.0000

> <Gold.PLP.ligand.torsion>
0.9029

> <Gold.PLP.Chemscore.Hbond>
0.7313

> <Gold.PLP.Chemscore.CHOScore>
0.9942

> <Gold.PLP.Chemscore.Metal>
0.0000

> <Gold.Chemscore.Hbonds>
donor molecule, donor type, donor heavy atom, donor atom, acceptor molecule, acceptor atom, score
      P1  H  6896  6909       L1     3  0.44

> <Gold.PLP.Chemscore.Internal.Correction>
0.0329

> <Gold.Rescore>
     Score         DG    S(hbond)    S(metal)    S(lipo)     H(rot)  DE(clash)    DE(int)     intcor
     15.97     -18.88       0.90        0.00     122.14       1.52       1.53       1.38       ----

> <Gold.Chemscore.Fitness>
15.9695

> <Gold.Chemscore.DG>
-18.8807

> <Gold.Chemscore.ZeroCoef>
-5.4800

> <Gold.Chemscore.Hbond>
0.8991

> <Gold.Chemscore.Metal>
0.0000

> <Gold.Chemscore.Lipo>
122.1388

> <Gold.Chemscore.Internal_Hbond>
0.0000

> <Gold.Chemscore.DEClash>
1.5265

> <Gold.Chemscore.DEInternal>
1.3846

> <Gold.Chemscore.Rot>
1.5205

> <Gold.Chemscore.Internal.Correction>
   9.000000E+99

> <Gold.Chemscore.Hbonds>
donor molecule, donor type, donor heavy atom, donor atom, acceptor molecule, acceptor atom, score
      P1  H  6896  6909       L1     3  0.26

> <Gold.Chemscore.Hbond.Weighted>
-3.0030

> <Gold.Chemscore.Metal.Weighted>
-0.0000

> <Gold.Chemscore.Lipo.Weighted>
-14.2902

> <Gold.Chemscore.Internal_Hbond.Weighted>
0.0000

> <Gold.Chemscore.DEClash.Weighted>
1.5265

> <Gold.Chemscore.DEInternal.Weighted>
1.3846

> <Gold.Chemscore.Rot.Weighted>
3.8926

> <Gold.Chemscore.Internal.Correction.Weighted>
   9.000000E+99

> <Gold.Protein.RotatedTorsions>
[ 6907 6896 6895 6894 ] final -176.86 input  -60.11 | X-H torsion
[ 7974 7965 7964 7962 ] final  172.94 input  175.53 | X-H torsion
[ 8008 7997 7996 7995 ] final  -24.95 input   59.86 | X-H torsion
[ 10167 10162 10161 10158 ] final  112.03 input  -65.29 | X-H torsion
[ 10718 10713 10712 10709 ] final   59.09 input   66.30 | X-H torsion
[ 10763 10752 10751 10750 ] final  149.84 input  -60.55 | X-H torsion
[ 11005 11000 10999 10996 ] final -138.34 input  -57.11 | X-H torsion

> <Gold.Protein.ActiveResidues>
 VAL166  LYS551  ARG553  GLY616  TRP617  ASP618  TYR619  PRO620  LYS621  CYS622 
 ASP623  PHE694  ASN695  SER759  ASP760  ASP761  ALA762  ILE779  LEU786  VAL792 
 PHE793  MET794  SER795  GLU796  ALA797  LYS798  CYS799  TRP800  GLU811  SER814 

> <Gold.Protein.RotatedAtoms>
  151.6117  133.3346  159.3068 H   0  0  0  0  0  0  0  0  0  0  0  0  # atno 6907 bound_to 6896
  150.8153  134.7335  159.6736 H   0  0  0  0  0  0  0  0  0  0  0  0  # atno 6908 bound_to 6896
  152.4249  134.5892  160.0021 H   0  0  0  0  0  0  0  0  0  0  0  0  # atno 6909 bound_to 6896
  144.7255  139.9574  143.6434 H   0  0  0  0  0  0  0  0  0  0  0  0  # atno 7974 bound_to 7965
  154.4501  140.1939  156.0544 H   0  0  0  0  0  0  0  0  0  0  0  0  # atno 8008 bound_to 7997
  156.0630  140.3294  155.7456 H   0  0  0  0  0  0  0  0  0  0  0  0  # atno 8009 bound_to 7997
  155.5383  140.0584  157.2866 H   0  0  0  0  0  0  0  0  0  0  0  0  # atno 8010 bound_to 7997
  139.6566  144.7129  151.1944 H   0  0  0  0  0  0  0  0  0  0  0  0  # atno 10167 bound_to 10162
  157.5648  130.8863  149.9170 H   0  0  0  0  0  0  0  0  0  0  0  0  # atno 10718 bound_to 10713
  154.0777  135.2862  155.3296 H   0  0  0  0  0  0  0  0  0  0  0  0  # atno 10763 bound_to 10752
  154.6704  135.5301  153.8135 H   0  0  0  0  0  0  0  0  0  0  0  0  # atno 10764 bound_to 10752
  153.0461  135.6556  154.0954 H   0  0  0  0  0  0  0  0  0  0  0  0  # atno 10765 bound_to 10752
  140.8625  134.2151  157.4699 H   0  0  0  0  0  0  0  0  0  0  0  0  # atno 11005 bound_to 11000
  146.0664  139.3655  143.0549 LP  0  0  0  0  0  0  0  0  0  0  0  0  # atno 17320 bound_to 7965
  145.8025  140.9764  143.0991 LP  0  0  0  0  0  0  0  0  0  0  0  0  # atno 17321 bound_to 7965
  140.7562  143.6061  150.8651 LP  0  0  0  0  0  0  0  0  0  0  0  0  # atno 17342 bound_to 10162
  139.9715  143.6051  152.2972 LP  0  0  0  0  0  0  0  0  0  0  0  0  # atno 17343 bound_to 10162
  156.0697  130.3687  150.0801 LP  0  0  0  0  0  0  0  0  0  0  0  0  # atno 17370 bound_to 10713
  156.8961  130.9605  151.3582 LP  0  0  0  0  0  0  0  0  0  0  0  0  # atno 17371 bound_to 10713
  139.8707  134.9736  156.4816 LP  0  0  0  0  0  0  0  0  0  0  0  0  # atno 17394 bound_to 11000
  140.8666  133.8019  155.9321 LP  0  0  0  0  0  0  0  0  0  0  0  0  # atno 17395 bound_to 11000

$$$$
