#       Name:                AV-unprocessed.smi:1669
#       Creating user name   scv26
#       Creation time:       Fri Mar 27 07:40:42 2020


#       File generated by GOLD software.
#

@<TRIPOS>MOLECULE
AV-unprocessed.smi:1669
    53    55     1
SMALL
NO_CHARGES


@<TRIPOS>ATOM
      1 ****        -0.3000   2.3604  -2.6497 C.3            1 S1                 0.0000
      2 ****        -1.1404   1.7249  -1.6092 N.4            1 S1                 1.0000
      3 ****        -2.5807   2.0298  -1.7959 C.3            1 S1                 0.0000
      4 ****        -3.3782   1.7894  -0.5253 C.ar           1 S1                 0.0000
      5 ****        -3.2226   2.6555   0.5777 C.ar           1 S1                 0.0000
      6 ****        -3.9471   2.4288   1.7640 C.ar           1 S1                 0.0000
      7 ****        -4.8334   1.3381   1.8506 C.ar           1 S1                 0.0000
      8 ****        -4.9961   0.4749   0.7501 C.ar           1 S1                 0.0000
      9 ****        -4.2709   0.7000  -0.4361 C.ar           1 S1                 0.0000
     10 ****        -0.8518   0.2756  -1.4449 C.3            1 S1                 0.0000
     11 ****         0.3403   0.0346  -0.5010 C.3            1 S1                 0.0000
     12 ****        -0.0105   0.4943   0.7905 O.3            1 S1                 0.0000
     13 ****         0.7225  -1.4568  -0.4306 C.3            1 S1                 0.0000
     14 ****         1.8248  -1.7062   0.4892 N.pl3          1 S1                 0.0000
     15 ****         1.7816  -2.2238   1.7436 C.2            1 S1                 0.0000
     16 ****         0.4997  -2.6456   2.3942 C.3            1 S1                 0.0000
     17 ****         0.0461  -3.9011   1.9363 O.3            1 S1                 0.0000
     18 ****         2.9561  -2.3351   2.3648 N.2            1 S1                 0.0000
     19 ****         3.8454  -1.8504   1.4259 C.ar           1 S1                 0.0000
     20 ****         5.2499  -1.7038   1.4798 C.ar           1 S1                 0.0000
     21 ****         5.9548  -1.1759   0.3783 C.ar           1 S1                 0.0000
     22 ****         5.2674  -0.7873  -0.7898 C.ar           1 S1                 0.0000
     23 ****         3.8680  -0.9238  -0.8639 C.ar           1 S1                 0.0000
     24 ****         3.1692  -1.4508   0.2386 C.ar           1 S1                 0.0000
     25 ****        -0.5417   1.9693  -3.6388 H              1 S1                 0.0000
     26 ****         0.7596   2.1858  -2.4637 H              1 S1                 0.0000
     27 ****        -0.4550   3.4397  -2.6634 H              1 S1                 0.0000
     28 ****        -2.7051   3.0794  -2.0667 H              1 S1                 0.0000
     29 ****        -2.9833   1.4439  -2.6237 H              1 S1                 0.0000
     30 ****        -2.5424   3.4927   0.5194 H              1 S1                 0.0000
     31 ****        -3.8223   3.0912   2.6079 H              1 S1                 0.0000
     32 ****        -5.3891   1.1641   2.7603 H              1 S1                 0.0000
     33 ****        -5.6768  -0.3610   0.8168 H              1 S1                 0.0000
     34 ****        -4.3998   0.0309  -1.2742 H              1 S1                 0.0000
     35 ****        -1.7172  -0.2516  -1.0433 H              1 S1                 0.0000
     36 ****        -0.6643  -0.1698  -2.4233 H              1 S1                 0.0000
     37 ****         1.2062   0.6048  -0.8379 H              1 S1                 0.0000
     38 ****         0.7261   0.3588   1.3680 H              1 S1                 0.0000
     39 ****        -0.1389  -2.0604  -0.1452 H              1 S1                 0.0000
     40 ****         1.0219  -1.8104  -1.4180 H              1 S1                 0.0000
     41 ****         0.6453  -2.7021   3.4736 H              1 S1                 0.0000
     42 ****        -0.2708  -1.8940   2.2233 H              1 S1                 0.0000
     43 ****        -0.1287  -3.8378   1.0101 H              1 S1                 0.0000
     44 ****         5.7858  -1.9988   2.3699 H              1 S1                 0.0000
     45 ****         7.0284  -1.0689   0.4300 H              1 S1                 0.0000
     46 ****         5.8156  -0.3843  -1.6288 H              1 S1                 0.0000
     47 ****         3.3395  -0.6271  -1.7575 H              1 S1                 0.0000
     48 ****        -0.8876   2.1583  -0.7321 H              1 S1                 0.0000
     49 ****        -0.8014  -0.0168   1.1271 LP             1 S1                 0.0000
     50 ****        -0.2345   1.4682   0.7525 LP             1 S1                 0.0000
     51 ****        -0.7912  -4.1543   2.4209 LP             1 S1                 0.0000
     52 ****         0.7486  -4.5936   2.1003 LP             1 S1                 0.0000
     53 ****         3.1460  -2.6832   3.2828 LP             1 S1                 0.0000
@<TRIPOS>BOND
    1    1    2 1     
    2    1   25 1     
    3    1   26 1     
    4    1   27 1     
    5    2    3 1     
    6    2   10 1     
    7    2   48 1     
    8    3    4 1     
    9    3   28 1     
   10    3   29 1     
   11    4    9 ar    
   12    4    5 ar    
   13    5    6 ar    
   14    5   30 1     
   15    6    7 ar    
   16    6   31 1     
   17    7    8 ar    
   18    7   32 1     
   19    8    9 ar    
   20    8   33 1     
   21    9   34 1     
   22   10   11 1     
   23   10   35 1     
   24   10   36 1     
   25   11   12 1     
   26   11   13 1     
   27   11   37 1     
   28   12   38 1     
   29   13   14 1     
   30   13   39 1     
   31   13   40 1     
   32   14   24 1     
   33   14   15 1     
   34   15   16 1     
   35   15   18 2     
   36   16   17 1     
   37   16   41 1     
   38   16   42 1     
   39   17   43 1     
   40   18   19 1     
   41   19   24 ar    
   42   19   20 ar    
   43   20   21 ar    
   44   20   44 1     
   45   21   22 ar    
   46   21   45 1     
   47   22   23 ar    
   48   22   46 1     
   49   23   24 ar    
   50   23   47 1     
   51   12   49 1     
   52   12   50 1     
   53   17   51 1     
   54   17   52 1     
   55   18   53 1     
@<TRIPOS>SUBSTRUCTURE
      1 S1             1
@<TRIPOS>SET
LONE_PAIRS      STATIC     ATOMS    <user>   **** ""
5 49 50 51 52 53
DONOR_HYDROGENS      STATIC     ATOMS    <user>   **** ""
3 48 38 43
ATOM$BLUE        STATIC     ATOMS    COLORGROUP SYSTEM
5 49 50 51 52 53
ATOM$RED        STATIC     ATOMS    COLORGROUP SYSTEM
3 48 38 43
