AV-unprocessed.smi:160|AV-procd|sdf|1372|dock3
  -GOLD-   2262019 93D 1   1.00000     0.00000
 Structure written by MMmdl.
 28 29  0  0  0  0  0  0  0  0  2 V2000
  153.4903  136.4453  159.3362 N   0  5  0  0  0  0  0  0  0  0  0  0
  153.5130  136.9284  158.0747 C   0  0  0  0  0  0  0  0  0  0  0  0
  154.1129  136.4382  157.1185 O   0  0  0  0  0  0  0  0  0  0  0  0
  152.7093  138.1916  157.8736 C   0  0  0  0  0  0  0  0  0  0  0  0
  152.0489  138.7726  158.9211 N   0  0  0  0  0  0  0  0  0  0  0  0
  151.5075  139.8036  158.2861 C   0  0  0  0  0  0  0  0  0  0  0  0
  151.8109  139.8657  156.9848 N   0  0  0  0  0  0  0  0  0  0  0  0
  151.3946  140.8258  155.9147 C   0  0  1  0  0  0  0  0  0  0  0  0
  150.8100  140.0936  154.8794 O   0  0  0  0  0  0  0  0  0  0  0  0
  149.3989  140.0623  155.0621 C   0  0  2  0  0  0  0  0  0  0  0  0
  148.6761  139.6308  153.7733 C   0  0  0  0  0  0  0  0  0  0  0  0
  149.2212  138.4209  153.2913 O   0  0  0  0  0  0  0  0  0  0  0  0
  149.1171  141.4940  155.5352 C   0  0  2  0  0  0  0  0  0  0  0  0
  149.0518  142.3799  154.4288 O   0  0  0  0  0  0  0  0  0  0  0  0
  150.3088  141.7805  156.4506 C   0  0  2  0  0  0  0  0  0  0  0  0
  150.7009  143.1408  156.4347 O   0  0  0  0  0  0  0  0  0  0  0  0
  152.5931  138.7999  156.6887 N   0  0  0  0  0  0  0  0  0  0  0  0
  152.3199  141.3074  155.5957 H   0  0  0  0  0  0  0  0  0  0  0  0
  149.1548  139.3763  155.8759 H   0  0  0  0  0  0  0  0  0  0  0  0
  148.1730  141.5610  156.0770 H   0  0  0  0  0  0  0  0  0  0  0  0
  150.0484  141.5035  157.4735 H   0  0  0  0  0  0  0  0  0  0  0  0
  153.6870  137.0913  160.1098 H   0  0  0  0  0  0  0  0  0  0  0  0
  150.8768  140.5267  158.7821 H   0  0  0  0  0  0  0  0  0  0  0  0
  147.6193  139.4538  153.9767 H   0  0  0  0  0  0  0  0  0  0  0  0
  148.7357  140.4027  153.0053 H   0  0  0  0  0  0  0  0  0  0  0  0
  149.5196  138.5586  152.4050 H   0  0  0  0  0  0  0  0  0  0  0  0
  149.2477  143.2519  154.7367 H   0  0  0  0  0  0  0  0  0  0  0  0
  149.9821  143.6527  156.0952 H   0  0  0  0  0  0  0  0  0  0  0  0
  1  2  1  0  0  0  0
  1 22  1  0  0  0  0
  2  3  2  0  0  0  0
  2  4  1  0  0  0  0
  4 17  2  0  0  0  0
  4  5  1  0  0  0  0
  5  6  2  0  0  0  0
  6  7  1  0  0  0  0
  6 23  1  0  0  0  0
  7  8  1  0  0  0  0
  7 17  1  0  0  0  0
  8 18  1  0  0  0  0
  8 15  1  0  0  0  0
  8  9  1  0  0  0  0
  9 10  1  0  0  0  0
 10 19  1  0  0  0  0
 10 11  1  0  0  0  0
 10 13  1  0  0  0  0
 11 12  1  0  0  0  0
 11 24  1  0  0  0  0
 11 25  1  0  0  0  0
 12 26  1  0  0  0  0
 13 20  1  0  0  0  0
 13 14  1  0  0  0  0
 13 15  1  0  0  0  0
 14 27  1  0  0  0  0
 15 21  1  0  0  0  0
 15 16  1  0  0  0  0
 16 28  1  0  0  0  0
M  CHG  1   1  -1
M  END
> <s_m_source_file>
AV-unprocessed.smi

> <i_m_source_file_index>
160

> <i_lp_mmshare_version>
43012

> <i_f3d_flags>
0

> <s_epik_input>
W05IMl1DKD1PKWMxbltjSF1uKG4xKVtDQEBIXTJPW0NASF0oW0NIMl1bT0hdKVtDQEBIXShbT0hdKVtDQEhdMltPSF0=

> <s_epik_cmdline>
J2VwaWtfcHl0aG9uJywgJy1waCcsICc3LjAnLCAnLXRuJywgJzgnLCAnLW1hJywgJzIwMCcsICctbWV0YWxfYmluZGluZycsICctaW1hZScsICc8aW5maWxlLm1hZT4nLCAnLW9tYWUnLCAnPG91dGZpbGUubWFlPic=

> <r_lp_tautomer_probability>
1

> <r_epik_Ionization_Penalty>
6.6993

> <r_epik_Ionization_Penalty_Charging>
6.6993

> <r_epik_Ionization_Penalty_Neutral>
6.01698e-06

> <r_epik_State_Penalty>
6.69929

> <r_epik_Charging_Adjusted_Penalty>
13.3986

> <i_epik_Tot_Q>
-1

> <i_epik_Tot_abs_Q>
1

> <r_epik_Metal_State_Penalty>
2.62798

> <b_epik_Metal_Only>
1

> <s_epik_Chemistry_Notes>
This compound contains an acetal/aminal-like group ( X-CH(R)-Y where X, Y are N, S, or O) that may be acid/base labile, releasing an aldehyde.

> <s_lp_Force_Field>
OPLS_2005

> <r_lp_Energy>
45.7221

> <b_lp_Chiralities_Consistent>
1

> <s_lp_Variant>
AV-unprocessed.smi:160-30

> <Gold.Version>
5.8.1

> <Gold.Id.Protein>
6NUR|6NUR_protein|mol2

> <Gold.PLP.Fitness>
46.1033

> <Gold.PLP.PLP>
-24.9354

> <Gold.PLP.part.hbond>
-8.3759

> <Gold.PLP.part.metal>
0.0000

> <Gold.PLP.part.buried>
-1.5728

> <Gold.PLP.part.nonpolar>
-14.6676

> <Gold.PLP.part.repulsive>
0.0587

> <Gold.PLP.ligand.clash>
0.0000

> <Gold.PLP.ligand.torsion>
0.1616

> <Gold.PLP.Chemscore.Hbond>
7.1535

> <Gold.PLP.Chemscore.CHOScore>
0.0000

> <Gold.PLP.Chemscore.Metal>
0.0000

> <Gold.Chemscore.Hbonds>
donor molecule, donor type, donor heavy atom, donor atom, acceptor molecule, acceptor atom, score
      L1  H    12    26       P1  7957  0.77
      L1  H    14    27       P1  8028  1.00
      L1  H    16    28       P1  8028  1.00
      P1  H  6896  6909       L1     1  1.62
      P1  H  7989  7998       L1     9  0.95
      P1  H  7997  8010       L1    17  0.34
      P1  H  8011  8017       L1    14  0.10
      P1  H 10752 10765       L1     3  0.84

> <Gold.PLP.Chemscore.Internal.Correction>
0.0307

> <Gold.Rescore>
     Score         DG    S(hbond)    S(metal)    S(lipo)     H(rot)  DE(clash)    DE(int)     intcor
     14.07     -15.29       5.17        0.00      24.67       4.04       0.61       0.61       ----

> <Gold.Chemscore.Fitness>
14.0729

> <Gold.Chemscore.DG>
-15.2942

> <Gold.Chemscore.ZeroCoef>
-5.4800

> <Gold.Chemscore.Hbond>
5.1708

> <Gold.Chemscore.Metal>
0.0000

> <Gold.Chemscore.Lipo>
24.6739

> <Gold.Chemscore.Internal_Hbond>
0.0000

> <Gold.Chemscore.DEClash>
0.6092

> <Gold.Chemscore.DEInternal>
0.6121

> <Gold.Chemscore.Rot>
4.0403

> <Gold.Chemscore.Internal.Correction>
   9.000000E+99

> <Gold.Chemscore.Hbonds>
donor molecule, donor type, donor heavy atom, donor atom, acceptor molecule, acceptor atom, score
      L1  H    12    26       P1  7957  0.34
      L1  H    14    27       P1  8028  0.97
      L1  H    16    28       P1  8028  0.98
      P1  H  6896  6909       L1     1  0.51
      P1  H  7989  7998       L1     9  0.21
      P1  H  7997  8010       L1    17  0.01
      P1  H  8011  8017       L1    14  0.04
      P1  H 10752 10765       L1     3  0.77

> <Gold.Chemscore.Hbond.Weighted>
-17.2704

> <Gold.Chemscore.Metal.Weighted>
-0.0000

> <Gold.Chemscore.Lipo.Weighted>
-2.8868

> <Gold.Chemscore.Internal_Hbond.Weighted>
0.0000

> <Gold.Chemscore.DEClash.Weighted>
0.6092

> <Gold.Chemscore.DEInternal.Weighted>
0.6121

> <Gold.Chemscore.Rot.Weighted>
10.3431

> <Gold.Chemscore.Internal.Correction.Weighted>
   9.000000E+99

> <Gold.Protein.RotatedTorsions>
[ 6907 6896 6895 6894 ] final  155.29 input  -60.11 | X-H torsion
[ 7974 7965 7964 7962 ] final  126.02 input  175.53 | X-H torsion
[ 8008 7997 7996 7995 ] final   63.20 input   59.86 | X-H torsion
[ 10167 10162 10161 10158 ] final  -59.35 input  -65.29 | X-H torsion
[ 10718 10713 10712 10709 ] final    7.55 input   66.30 | X-H torsion
[ 10763 10752 10751 10750 ] final -114.34 input  -60.55 | X-H torsion
[ 11005 11000 10999 10996 ] final  -98.50 input  -57.11 | X-H torsion

> <Gold.Protein.ActiveResidues>
 VAL166  LYS551  ARG553  GLY616  TRP617  ASP618  TYR619  PRO620  LYS621  CYS622 
 ASP623  PHE694  ASN695  SER759  ASP760  ASP761  ALA762  ILE779  LEU786  VAL792 
 PHE793  MET794  SER795  GLU796  ALA797  LYS798  CYS799  TRP800  GLU811  SER814 

> <Gold.Protein.RotatedAtoms>
  152.0462  133.3999  159.4357 H   0  0  0  0  0  0  0  0  0  0  0  0  # atno 6907 bound_to 6896
  150.6872  134.3359  159.4856 H   0  0  0  0  0  0  0  0  0  0  0  0  # atno 6908 bound_to 6896
  152.1163  134.9237  160.0615 H   0  0  0  0  0  0  0  0  0  0  0  0  # atno 6909 bound_to 6896
  145.0665  139.3764  143.4979 H   0  0  0  0  0  0  0  0  0  0  0  0  # atno 7974 bound_to 7965
  155.6265  140.3496  155.4669 H   0  0  0  0  0  0  0  0  0  0  0  0  # atno 8008 bound_to 7997
  156.0037  140.1218  157.0546 H   0  0  0  0  0  0  0  0  0  0  0  0  # atno 8009 bound_to 7997
  154.4257  140.1095  156.5719 H   0  0  0  0  0  0  0  0  0  0  0  0  # atno 8010 bound_to 7997
  140.6141  143.2396  151.5640 H   0  0  0  0  0  0  0  0  0  0  0  0  # atno 10167 bound_to 10162
  156.9386  130.5853  149.5652 H   0  0  0  0  0  0  0  0  0  0  0  0  # atno 10718 bound_to 10713
  154.8436  135.4421  154.1490 H   0  0  0  0  0  0  0  0  0  0  0  0  # atno 10763 bound_to 10752
  153.2656  135.6940  153.7539 H   0  0  0  0  0  0  0  0  0  0  0  0  # atno 10764 bound_to 10752
  153.6800  135.3404  155.3151 H   0  0  0  0  0  0  0  0  0  0  0  0  # atno 10765 bound_to 10752
  141.1342  133.8250  157.0848 H   0  0  0  0  0  0  0  0  0  0  0  0  # atno 11005 bound_to 11000
  146.3527  140.0388  142.8644 LP  0  0  0  0  0  0  0  0  0  0  0  0  # atno 17320 bound_to 7965
  145.1345  140.9537  143.4525 LP  0  0  0  0  0  0  0  0  0  0  0  0  # atno 17321 bound_to 7965
  139.5384  144.2716  152.1300 LP  0  0  0  0  0  0  0  0  0  0  0  0  # atno 17342 bound_to 10162
  140.1921  144.4741  150.6473 LP  0  0  0  0  0  0  0  0  0  0  0  0  # atno 17343 bound_to 10162
  156.0414  130.5496  150.8780 LP  0  0  0  0  0  0  0  0  0  0  0  0  # atno 17370 bound_to 10713
  157.5800  131.0946  150.9286 LP  0  0  0  0  0  0  0  0  0  0  0  0  # atno 17371 bound_to 10713
  140.0429  134.9845  157.0995 LP  0  0  0  0  0  0  0  0  0  0  0  0  # atno 17394 bound_to 11000
  140.4108  134.1983  155.7163 LP  0  0  0  0  0  0  0  0  0  0  0  0  # atno 17395 bound_to 11000

$$$$
