#       Name:                AV-unprocessed.smi:2622
#       Creating user name   scv26
#       Creation time:       Fri Mar 27 14:23:23 2020


#       File generated by GOLD software.
#

@<TRIPOS>MOLECULE
AV-unprocessed.smi:2622
    34    35     1
SMALL
NO_CHARGES


@<TRIPOS>ATOM
      1 ****        -2.6714   2.9777   0.0050 O.co2          1 S1                 0.0000
      2 ****        -2.0586   1.8870   0.0049 C.2            1 S1                 0.0000
      3 ****        -2.6727   0.7976   0.0046 O.co2          1 S1                -1.0000
      4 ****        -0.5447   1.9134   0.0054 C.ar           1 S1                 0.0000
      5 ****         0.1153   3.1687   0.0044 C.ar           1 S1                 0.0000
      6 ****         1.5220   3.2384   0.0050 C.ar           1 S1                 0.0000
      7 ****         2.2627   2.0447   0.0068 C.ar           1 S1                 0.0000
      8 ****         1.6176   0.8613   0.0078 N.pl3          1 S1                 1.0000
      9 ****         0.2662   0.7370   0.0073 C.ar           1 S1                 0.0000
     10 ****        -0.2484  -0.5700   0.0062 N.3            1 S1                 0.0000
     11 ****         0.0091  -1.3106  -1.2211 C.3            1 S1                 0.0000
     12 ****        -0.7447  -2.6508  -1.1876 C.3            1 S1                 0.0000
     13 ****        -0.3764  -3.3759  -0.0170 O.3            1 S1                 0.0000
     14 ****        -0.7106  -2.6717   1.1762 C.3            1 S1                 0.0000
     15 ****         0.0453  -1.3328   1.2117 C.3            1 S1                 0.0000
     16 ****        -0.4467   4.0914   0.0030 H              1 S1                 0.0000
     17 ****         2.0226   4.1955   0.0040 H              1 S1                 0.0000
     18 ****         3.3419   1.9989   0.0070 H              1 S1                 0.0000
     19 ****        -0.3097  -0.7215  -2.0819 H              1 S1                 0.0000
     20 ****         1.0799  -1.4886  -1.3276 H              1 S1                 0.0000
     21 ****        -1.8240  -2.4901  -1.2040 H              1 S1                 0.0000
     22 ****        -0.4968  -3.2441  -2.0677 H              1 S1                 0.0000
     23 ****        -1.7890  -2.5107   1.2260 H              1 S1                 0.0000
     24 ****        -0.4386  -3.2806   2.0383 H              1 S1                 0.0000
     25 ****         1.1185  -1.5138   1.2833 H              1 S1                 0.0000
     26 ****        -0.2473  -0.7590   2.0920 H              1 S1                 0.0000
     27 ****         2.1779   0.0089   0.0085 H              1 S1                 0.0000
     28 ****        -3.6713   2.9894   0.0048 LP             1 S1                 0.0000
     29 ****        -2.1613   3.8378   0.0052 LP             1 S1                 0.0000
     30 ****        -3.6726   0.7873   0.0044 LP             1 S1                 0.0000
     31 ****        -2.1638  -0.0632   0.0045 LP             1 S1                 0.0000
     32 ****        -1.2390  -0.4347   0.0251 LP             1 S1                 0.0000
     33 ****         0.6110  -3.5338  -0.0326 LP             1 S1                 0.0000
     34 ****        -0.8544  -4.2542  -0.0179 LP             1 S1                 0.0000
@<TRIPOS>BOND
    1    1    2 ar    
    2    2    3 ar    
    3    2    4 1     
    4    4    9 ar    
    5    4    5 ar    
    6    5    6 ar    
    7    5   16 1     
    8    6    7 ar    
    9    6   17 1     
   10    7    8 ar    
   11    7   18 1     
   12    8    9 ar    
   13    8   27 1     
   14    9   10 1     
   15   10   15 1     
   16   10   11 1     
   17   11   12 1     
   18   11   19 1     
   19   11   20 1     
   20   12   13 1     
   21   12   21 1     
   22   12   22 1     
   23   13   14 1     
   24   14   15 1     
   25   14   23 1     
   26   14   24 1     
   27   15   25 1     
   28   15   26 1     
   29    1   28 1     
   30    1   29 1     
   31    3   30 1     
   32    3   31 1     
   33   10   32 1     
   34   13   33 1     
   35   13   34 1     
@<TRIPOS>SUBSTRUCTURE
      1 S1             1
@<TRIPOS>SET
LONE_PAIRS      STATIC     ATOMS    <user>   **** ""
7 28 29 30 31 32 33 34
DONOR_HYDROGENS      STATIC     ATOMS    <user>   **** ""
1 27
ATOM$BLUE        STATIC     ATOMS    COLORGROUP SYSTEM
7 28 29 30 31 32 33 34
ATOM$RED        STATIC     ATOMS    COLORGROUP SYSTEM
1 27
