AV-unprocessed.smi:3231|AV-procd|sdf|12336|dock7
  -GOLD-   2272018193D 1   1.00000     0.00000
 Structure written by MMmdl.
 42 43  0  0  0  0  0  0  0  0  3 V2000
  144.5361  138.1887  152.4991 O   0  0  0  0  0  0  0  0  0  0  0  0
  145.9117  137.8889  152.3735 C   0  0  1  0  0  0  0  0  0  0  0  0
  146.6906  139.1736  152.7137 C   0  0  0  0  0  0  0  0  0  0  0  0
  148.1234  138.9014  152.9482 N   0  3  0  0  0  0  0  0  0  0  0  0
  148.5389  139.0563  154.3557 C   0  0  0  0  0  0  0  0  0  0  0  0
  150.0417  139.3539  154.4570 C   0  0  0  0  0  0  0  0  0  0  0  0
  150.3393  140.2421  155.5635 N   0  0  0  0  0  0  0  0  0  0  0  0
  149.9968  141.5692  155.7168 C   0  0  0  0  0  0  0  0  0  0  0  0
  150.4992  141.9811  156.9177 C   0  0  0  0  0  0  0  0  0  0  0  0
  151.1440  140.8212  157.4311 C   0  0  0  0  0  0  0  0  0  0  0  0
  151.0469  139.7820  156.6174 N   0  0  0  0  0  0  0  0  0  0  0  0
  146.2534  136.7220  153.3273 C   0  0  0  0  0  0  0  0  0  0  0  0
  146.5341  135.4442  152.6213 N   0  3  0  0  0  0  0  0  0  0  0  0
  146.6570  134.2740  153.5267 C   0  0  0  0  0  0  0  0  0  0  0  0
  146.9678  132.9993  152.7229 C   0  0  0  0  0  0  0  0  0  0  0  0
  145.9565  132.7927  151.7452 O   0  0  0  0  0  0  0  0  0  0  0  0
  145.8928  133.8642  150.8132 C   0  0  0  0  0  0  0  0  0  0  0  0
  145.5443  135.1676  151.5520 C   0  0  0  0  0  0  0  0  0  0  0  0
  144.4250  139.1263  152.5368 H   0  0  0  0  0  0  0  0  0  0  0  0
  146.1056  137.6253  151.3342 H   0  0  0  0  0  0  0  0  0  0  0  0
  146.6172  139.8821  151.8869 H   0  0  0  0  0  0  0  0  0  0  0  0
  146.2573  139.6611  153.5886 H   0  0  0  0  0  0  0  0  0  0  0  0
  148.3250  137.9541  152.6627 H   0  0  0  0  0  0  0  0  0  0  0  0
  147.9673  139.8638  154.8155 H   0  0  0  0  0  0  0  0  0  0  0  0
  148.2995  138.1412  154.8990 H   0  0  0  0  0  0  0  0  0  0  0  0
  150.6077  138.4310  154.5933 H   0  0  0  0  0  0  0  0  0  0  0  0
  150.4018  139.8144  153.5360 H   0  0  0  0  0  0  0  0  0  0  0  0
  149.4307  142.1046  154.9687 H   0  0  0  0  0  0  0  0  0  0  0  0
  150.4200  142.9624  157.3617 H   0  0  0  0  0  0  0  0  0  0  0  0
  151.6759  140.7044  158.3639 H   0  0  0  0  0  0  0  0  0  0  0  0
  147.1122  136.9743  153.9510 H   0  0  0  0  0  0  0  0  0  0  0  0
  145.4155  136.5795  154.0122 H   0  0  0  0  0  0  0  0  0  0  0  0
  147.4477  134.4346  154.2583 H   0  0  0  0  0  0  0  0  0  0  0  0
  145.7281  134.1418  154.0838 H   0  0  0  0  0  0  0  0  0  0  0  0
  147.9462  133.0675  152.2445 H   0  0  0  0  0  0  0  0  0  0  0  0
  146.9983  132.1352  153.3869 H   0  0  0  0  0  0  0  0  0  0  0  0
  146.8404  133.9577  150.2803 H   0  0  0  0  0  0  0  0  0  0  0  0
  145.1295  133.6393  150.0681 H   0  0  0  0  0  0  0  0  0  0  0  0
  144.5461  135.0944  151.9863 H   0  0  0  0  0  0  0  0  0  0  0  0
  145.5252  135.9944  150.8410 H   0  0  0  0  0  0  0  0  0  0  0  0
  148.6692  139.5351  152.3816 H   0  0  0  0  0  0  0  0  0  0  0  0
  147.4235  135.5564  152.1559 H   0  0  0  0  0  0  0  0  0  0  0  0
  1  2  1  0  0  0  0
  1 19  1  0  0  0  0
  2  3  1  0  0  0  0
  2 12  1  0  0  0  0
  2 20  1  0  0  0  0
  3  4  1  0  0  0  0
  3 21  1  0  0  0  0
  3 22  1  0  0  0  0
  4  5  1  0  0  0  0
  4 23  1  0  0  0  0
  4 41  1  0  0  0  0
  5  6  1  0  0  0  0
  5 24  1  0  0  0  0
  5 25  1  0  0  0  0
  6  7  1  0  0  0  0
  6 26  1  0  0  0  0
  6 27  1  0  0  0  0
  7 11  1  0  0  0  0
  7  8  1  0  0  0  0
  8  9  2  0  0  0  0
  8 28  1  0  0  0  0
  9 10  1  0  0  0  0
  9 29  1  0  0  0  0
 10 11  2  0  0  0  0
 10 30  1  0  0  0  0
 12 13  1  0  0  0  0
 12 31  1  0  0  0  0
 12 32  1  0  0  0  0
 13 18  1  0  0  0  0
 13 14  1  0  0  0  0
 13 42  1  0  0  0  0
 14 15  1  0  0  0  0
 14 33  1  0  0  0  0
 14 34  1  0  0  0  0
 15 16  1  0  0  0  0
 15 35  1  0  0  0  0
 15 36  1  0  0  0  0
 16 17  1  0  0  0  0
 17 18  1  0  0  0  0
 17 37  1  0  0  0  0
 17 38  1  0  0  0  0
 18 39  1  0  0  0  0
 18 40  1  0  0  0  0
M  CHG  1   4   1
M  CHG  1  13   1
M  END
> <s_m_source_file>
AV-unprocessed.smi

> <i_m_source_file_index>
3231

> <i_lp_mmshare_version>
43012

> <i_f3d_flags>
0

> <s_epik_input>
W0NIMl0xW0NIMl1PW0NIMl1bQ0gyXU4xW0NIMl1bQ0BIXShbT0hdKVtDSDJdW05IXVtDSDJdW0NIMl1uMltjSF1bY0hdW2NIXW4y

> <s_epik_cmdline>
J2VwaWtfcHl0aG9uJywgJy1waCcsICc3LjAnLCAnLXRuJywgJzgnLCAnLW1hJywgJzIwMCcsICctbWV0YWxfYmluZGluZycsICctaW1hZScsICc8aW5maWxlLm1hZT4nLCAnLW9tYWUnLCAnPG91dGZpbGUubWFlPic=

> <r_lp_tautomer_probability>
1

> <r_epik_Ionization_Penalty>
2.09881

> <r_epik_Ionization_Penalty_Charging>
2.09628

> <r_epik_Ionization_Penalty_Neutral>
0.0025303

> <r_epik_State_Penalty>
1.58657

> <r_epik_Charging_Adjusted_Penalty>
3.68285

> <i_epik_Tot_Q>
2

> <i_epik_Tot_abs_Q>
2

> <r_epik_Metal_State_Penalty>
1.58685

> <b_epik_Metal_Only>
0

> <s_lp_Force_Field>
OPLS_2005

> <r_lp_Energy>
27.3068

> <b_lp_Chiralities_Consistent>
1

> <s_lp_Variant>
AV-unprocessed.smi:3231-6

> <Gold.Version>
5.8.1

> <Gold.Id.Protein>
6NUR|6NUR_protein|mol2

> <Gold.PLP.Fitness>
48.7327

> <Gold.PLP.PLP>
-32.7379

> <Gold.PLP.part.hbond>
-4.5375

> <Gold.PLP.part.metal>
0.0000

> <Gold.PLP.part.buried>
-3.5636

> <Gold.PLP.part.nonpolar>
-25.9409

> <Gold.PLP.part.repulsive>
0.2113

> <Gold.PLP.ligand.clash>
0.0000

> <Gold.PLP.ligand.torsion>
1.6113

> <Gold.PLP.Chemscore.Hbond>
5.9913

> <Gold.PLP.Chemscore.CHOScore>
0.3239

> <Gold.PLP.Chemscore.Metal>
0.0000

> <Gold.Chemscore.Hbonds>
donor molecule, donor type, donor heavy atom, donor atom, acceptor molecule, acceptor atom, score
      L1  H     1    19       P1 10175  0.99
      L1  H     4    23       P1  7948  2.00
      L1  H     4    41       P1  7957  1.00
      L1  H    13    42       P1  7948  2.00
      L1  C     8    28       P1  8028  0.31

> <Gold.PLP.Chemscore.Internal.Correction>
0.2720

> <Gold.Rescore>
     Score         DG    S(hbond)    S(metal)    S(lipo)     H(rot)  DE(clash)    DE(int)     intcor
     17.20     -18.85       3.90        0.00      67.47       2.94       0.06       1.59       ----

> <Gold.Chemscore.Fitness>
17.1997

> <Gold.Chemscore.DG>
-18.8524

> <Gold.Chemscore.ZeroCoef>
-5.4800

> <Gold.Chemscore.Hbond>
3.8964

> <Gold.Chemscore.Metal>
0.0000

> <Gold.Chemscore.Lipo>
67.4732

> <Gold.Chemscore.Internal_Hbond>
0.0000

> <Gold.Chemscore.DEClash>
0.0638

> <Gold.Chemscore.DEInternal>
1.5890

> <Gold.Chemscore.Rot>
2.9437

> <Gold.Chemscore.Internal.Correction>
   9.000000E+99

> <Gold.Chemscore.Hbonds>
donor molecule, donor type, donor heavy atom, donor atom, acceptor molecule, acceptor atom, score
      L1  H     1    19       P1 10175  0.91
      L1  H     4    23       P1  7948  0.98
      L1  H     4    41       P1  7957  0.98
      L1  H    13    42       P1  7948  0.99

> <Gold.Chemscore.Hbond.Weighted>
-13.0139

> <Gold.Chemscore.Metal.Weighted>
-0.0000

> <Gold.Chemscore.Lipo.Weighted>
-7.8944

> <Gold.Chemscore.Internal_Hbond.Weighted>
0.0000

> <Gold.Chemscore.DEClash.Weighted>
0.0638

> <Gold.Chemscore.DEInternal.Weighted>
1.5890

> <Gold.Chemscore.Rot.Weighted>
7.5359

> <Gold.Chemscore.Internal.Correction.Weighted>
   9.000000E+99

> <Gold.Protein.RotatedTorsions>
[ 6907 6896 6895 6894 ] final  127.39 input  -60.11 | X-H torsion
[ 7974 7965 7964 7962 ] final -102.82 input  175.53 | X-H torsion
[ 8008 7997 7996 7995 ] final  -55.11 input   59.86 | X-H torsion
[ 10167 10162 10161 10158 ] final  170.87 input  -65.29 | X-H torsion
[ 10718 10713 10712 10709 ] final   89.10 input   66.30 | X-H torsion
[ 10763 10752 10751 10750 ] final  165.08 input  -60.55 | X-H torsion
[ 11005 11000 10999 10996 ] final  161.94 input  -57.11 | X-H torsion

> <Gold.Protein.ActiveResidues>
 VAL166  LYS551  ARG553  GLY616  TRP617  ASP618  TYR619  PRO620  LYS621  CYS622 
 ASP623  PHE694  ASN695  SER759  ASP760  ASP761  ALA762  ILE779  LEU786  VAL792 
 PHE793  MET794  SER795  GLU796  ALA797  LYS798  CYS799  TRP800  GLU811  SER814 

> <Gold.Protein.RotatedAtoms>
  152.3817  133.6555  159.6166 H   0  0  0  0  0  0  0  0  0  0  0  0  # atno 6907 bound_to 6896
  150.7746  133.9102  159.3376 H   0  0  0  0  0  0  0  0  0  0  0  0  # atno 6908 bound_to 6896
  151.6907  135.0948  160.0284 H   0  0  0  0  0  0  0  0  0  0  0  0  # atno 6909 bound_to 6896
  145.2639  140.9278  143.3025 H   0  0  0  0  0  0  0  0  0  0  0  0  # atno 7974 bound_to 7965
  154.4184  140.1160  156.5423 H   0  0  0  0  0  0  0  0  0  0  0  0  # atno 8008 bound_to 7997
  155.6495  140.3496  155.4724 H   0  0  0  0  0  0  0  0  0  0  0  0  # atno 8009 bound_to 7997
  155.9804  140.1159  157.0721 H   0  0  0  0  0  0  0  0  0  0  0  0  # atno 8010 bound_to 7997
  139.5030  144.3548  151.9885 H   0  0  0  0  0  0  0  0  0  0  0  0  # atno 10167 bound_to 10162
  157.6953  131.0320  150.3375 H   0  0  0  0  0  0  0  0  0  0  0  0  # atno 10718 bound_to 10713
  154.3186  135.2756  155.2531 H   0  0  0  0  0  0  0  0  0  0  0  0  # atno 10763 bound_to 10752
  154.4894  135.5837  153.6451 H   0  0  0  0  0  0  0  0  0  0  0  0  # atno 10764 bound_to 10752
  152.9879  135.6131  154.3369 H   0  0  0  0  0  0  0  0  0  0  0  0  # atno 10765 bound_to 10752
  140.2208  134.8197  157.3218 H   0  0  0  0  0  0  0  0  0  0  0  0  # atno 11005 bound_to 11000
  144.9394  139.4206  143.6456 LP  0  0  0  0  0  0  0  0  0  0  0  0  # atno 17320 bound_to 7965
  146.3267  139.8346  142.8902 LP  0  0  0  0  0  0  0  0  0  0  0  0  # atno 17321 bound_to 7965
  140.2985  144.3674  150.6067 LP  0  0  0  0  0  0  0  0  0  0  0  0  # atno 17342 bound_to 10162
  140.5892  143.2168  151.7285 LP  0  0  0  0  0  0  0  0  0  0  0  0  # atno 17343 bound_to 10162
  156.3840  130.3885  149.7080 LP  0  0  0  0  0  0  0  0  0  0  0  0  # atno 17370 bound_to 10713
  156.4452  130.7880  151.2902 LP  0  0  0  0  0  0  0  0  0  0  0  0  # atno 17371 bound_to 10713
  140.1852  134.4440  155.7748 LP  0  0  0  0  0  0  0  0  0  0  0  0  # atno 17394 bound_to 11000
  141.2223  133.7001  156.7934 LP  0  0  0  0  0  0  0  0  0  0  0  0  # atno 17395 bound_to 11000

$$$$
