AV-unprocessed.smi:1027|AV-procd|sdf|4472|dock8
  -GOLD-   22720 2443D 1   1.00000     0.00000
 Structure written by MMmdl.
 34 35  0  0  0  0  0  0  0  0  2 V2000
  153.1887  142.0195  161.0822 C   0  0  0  0  0  0  0  0  0  0  0  0
  152.8253  143.1758  160.1299 C   0  0  0  0  0  0  0  0  0  0  0  0
  152.1914  144.3231  160.9374 C   0  0  0  0  0  0  0  0  0  0  0  0
  151.9235  142.7083  158.9565 C   0  0  1  0  0  0  0  0  0  0  0  0
  151.7114  143.7921  157.8822 C   0  0  0  0  0  0  0  0  0  0  0  0
  152.4990  141.5213  158.3223 N   0  0  0  0  0  0  0  0  0  0  0  0
  151.8980  140.7251  157.4257 C   0  0  0  0  0  0  0  0  0  0  0  0
  150.7504  140.9744  157.0497 O   0  0  0  0  0  0  0  0  0  0  0  0
  152.6654  139.6876  157.0207 N   0  5  0  0  0  0  0  0  0  0  0  0
  152.0889  138.5775  156.5314 C   0  0  0  0  0  0  0  0  0  0  0  0
  152.6960  137.7876  155.6345 N   0  0  0  0  0  0  0  0  0  0  0  0
  151.9270  136.6943  155.2632 N   0  0  0  0  0  0  0  0  0  0  0  0
  150.7496  136.6696  155.8925 C   0  0  0  0  0  0  0  0  0  0  0  0
  149.7416  135.5941  155.6602 C   0  0  0  0  0  0  0  0  0  0  0  0
  150.0314  134.1649  156.0577 C   0  0  0  0  0  0  0  0  0  0  0  0
  149.9446  134.5346  154.5993 C   0  0  0  0  0  0  0  0  0  0  0  0
  150.4935  137.9995  157.0109 S   0  0  0  0  0  0  0  0  0  0  0  0
  152.2940  141.5618  161.5053 H   0  0  0  0  0  0  0  0  0  0  0  0
  153.8043  142.3713  161.9105 H   0  0  0  0  0  0  0  0  0  0  0  0
  153.7550  141.2369  160.5769 H   0  0  0  0  0  0  0  0  0  0  0  0
  153.7588  143.5516  159.7086 H   0  0  0  0  0  0  0  0  0  0  0  0
  151.2170  144.0366  161.3342 H   0  0  0  0  0  0  0  0  0  0  0  0
  152.0583  145.2198  160.3334 H   0  0  0  0  0  0  0  0  0  0  0  0
  152.8224  144.6038  161.7811 H   0  0  0  0  0  0  0  0  0  0  0  0
  150.9489  142.4456  159.3721 H   0  0  0  0  0  0  0  0  0  0  0  0
  151.1722  144.6530  158.2761 H   0  0  0  0  0  0  0  0  0  0  0  0
  151.1231  143.4090  157.0477 H   0  0  0  0  0  0  0  0  0  0  0  0
  152.6624  144.1443  157.4811 H   0  0  0  0  0  0  0  0  0  0  0  0
  153.4388  141.2746  158.5955 H   0  0  0  0  0  0  0  0  0  0  0  0
  148.7331  135.9728  155.8140 H   0  0  0  0  0  0  0  0  0  0  0  0
  151.0175  133.9425  156.4609 H   0  0  0  0  0  0  0  0  0  0  0  0
  149.2127  133.5867  156.4807 H   0  0  0  0  0  0  0  0  0  0  0  0
  149.0670  134.2030  154.0483 H   0  0  0  0  0  0  0  0  0  0  0  0
  150.8738  134.5439  154.0333 H   0  0  0  0  0  0  0  0  0  0  0  0
  1  2  1  0  0  0  0
  1 18  1  0  0  0  0
  1 19  1  0  0  0  0
  1 20  1  0  0  0  0
  2  3  1  0  0  0  0
  2  4  1  0  0  0  0
  2 21  1  0  0  0  0
  3 22  1  0  0  0  0
  3 23  1  0  0  0  0
  3 24  1  0  0  0  0
  4  5  1  0  0  0  0
  4  6  1  0  0  0  0
  4 25  1  0  0  0  0
  5 26  1  0  0  0  0
  5 27  1  0  0  0  0
  5 28  1  0  0  0  0
  6  7  1  0  0  0  0
  6 29  1  0  0  0  0
  7  8  2  0  0  0  0
  7  9  1  0  0  0  0
  9 10  1  0  0  0  0
 10 17  1  0  0  0  0
 10 11  2  0  0  0  0
 11 12  1  0  0  0  0
 12 13  2  0  0  0  0
 13 14  1  0  0  0  0
 13 17  1  0  0  0  0
 14 16  1  0  0  0  0
 14 15  1  0  0  0  0
 14 30  1  0  0  0  0
 15 16  1  0  0  0  0
 15 31  1  0  0  0  0
 15 32  1  0  0  0  0
 16 33  1  0  0  0  0
 16 34  1  0  0  0  0
M  CHG  1   9  -1
M  END
> <s_m_source_file>
AV-unprocessed.smi

> <i_m_source_file_index>
1027

> <i_lp_mmshare_version>
43012

> <i_f3d_flags>
0

> <s_epik_input>
W0NIM11bQ0hdKFtDSDNdKVtDQEhdKFtDSDNdKVtOSF1DKD1PKVtOSF1jMW5uYyhzMSlbQ0hdMltDSDJdW0NIMl0y

> <s_epik_cmdline>
J2VwaWtfcHl0aG9uJywgJy1waCcsICc3LjAnLCAnLXRuJywgJzgnLCAnLW1hJywgJzIwMCcsICctbWV0YWxfYmluZGluZycsICctaW1hZScsICc8aW5maWxlLm1hZT4nLCAnLW9tYWUnLCAnPG91dGZpbGUubWFlPic=

> <r_lp_tautomer_probability>
1

> <r_epik_Ionization_Penalty>
3.99975

> <r_epik_Ionization_Penalty_Charging>
3.83446

> <r_epik_Ionization_Penalty_Neutral>
0.165297

> <r_epik_State_Penalty>
3.83354

> <r_epik_Charging_Adjusted_Penalty>
7.668

> <i_epik_Tot_Q>
-1

> <i_epik_Tot_abs_Q>
1

> <r_epik_Metal_State_Penalty>
0.575872

> <b_epik_Metal_Only>
1

> <s_lp_Force_Field>
OPLS_2005

> <r_lp_Energy>
2.2869

> <b_lp_Chiralities_Consistent>
1

> <s_lp_Variant>
AV-unprocessed.smi:1027-4

> <Gold.Version>
5.8.1

> <Gold.Id.Protein>
6NUR|6NUR_protein|mol2

> <Gold.PLP.Fitness>
39.0131

> <Gold.PLP.PLP>
-30.8434

> <Gold.PLP.part.hbond>
-2.8244

> <Gold.PLP.part.metal>
0.0000

> <Gold.PLP.part.buried>
-3.8715

> <Gold.PLP.part.nonpolar>
-23.6974

> <Gold.PLP.part.repulsive>
0.2084

> <Gold.PLP.ligand.clash>
0.0000

> <Gold.PLP.ligand.torsion>
0.5057

> <Gold.PLP.Chemscore.Hbond>
3.0000

> <Gold.PLP.Chemscore.CHOScore>
0.0000

> <Gold.PLP.Chemscore.Metal>
0.0000

> <Gold.Chemscore.Hbonds>
donor molecule, donor type, donor heavy atom, donor atom, acceptor molecule, acceptor atom, score
      P1  H  7997  8008       L1     9  2.00
      P1  H 10752 10765       L1    12  1.00

> <Gold.PLP.Chemscore.Internal.Correction>
0.1811

> <Gold.Rescore>
     Score         DG    S(hbond)    S(metal)    S(lipo)     H(rot)  DE(clash)    DE(int)     intcor
     15.92     -17.43       1.76        0.00      81.57       1.36       0.08       1.44       ----

> <Gold.Chemscore.Fitness>
15.9164

> <Gold.Chemscore.DG>
-17.4297

> <Gold.Chemscore.ZeroCoef>
-5.4800

> <Gold.Chemscore.Hbond>
1.7643

> <Gold.Chemscore.Metal>
0.0000

> <Gold.Chemscore.Lipo>
81.5672

> <Gold.Chemscore.Internal_Hbond>
0.0000

> <Gold.Chemscore.DEClash>
0.0757

> <Gold.Chemscore.DEInternal>
1.4376

> <Gold.Chemscore.Rot>
1.3618

> <Gold.Chemscore.Internal.Correction>
   9.000000E+99

> <Gold.Chemscore.Hbonds>
donor molecule, donor type, donor heavy atom, donor atom, acceptor molecule, acceptor atom, score
      P1  H  7997  8008       L1     9  0.91
      P1  H 10752 10765       L1    12  0.57

> <Gold.Chemscore.Hbond.Weighted>
-5.8926

> <Gold.Chemscore.Metal.Weighted>
-0.0000

> <Gold.Chemscore.Lipo.Weighted>
-9.5434

> <Gold.Chemscore.Internal_Hbond.Weighted>
0.0000

> <Gold.Chemscore.DEClash.Weighted>
0.0757

> <Gold.Chemscore.DEInternal.Weighted>
1.4376

> <Gold.Chemscore.Rot.Weighted>
3.4863

> <Gold.Chemscore.Internal.Correction.Weighted>
   9.000000E+99

> <Gold.Protein.RotatedTorsions>
[ 6907 6896 6895 6894 ] final  -21.68 input  -60.11 | X-H torsion
[ 7974 7965 7964 7962 ] final -126.99 input  175.53 | X-H torsion
[ 8008 7997 7996 7995 ] final  -62.44 input   59.86 | X-H torsion
[ 10167 10162 10161 10158 ] final -155.03 input  -65.29 | X-H torsion
[ 10718 10713 10712 10709 ] final   71.60 input   66.30 | X-H torsion
[ 10763 10752 10751 10750 ] final  172.74 input  -60.55 | X-H torsion
[ 11005 11000 10999 10996 ] final  -83.49 input  -57.11 | X-H torsion

> <Gold.Protein.ActiveResidues>
 VAL166  LYS551  ARG553  GLY616  TRP617  ASP618  TYR619  PRO620  LYS621  CYS622 
 ASP623  PHE694  ASN695  SER759  ASP760  ASP761  ALA762  ILE779  LEU786  VAL792 
 PHE793  MET794  SER795  GLU796  ALA797  LYS798  CYS799  TRP800  GLU811  SER814 

> <Gold.Protein.RotatedAtoms>
  151.2297  135.0549  159.8982 H   0  0  0  0  0  0  0  0  0  0  0  0  # atno 6907 bound_to 6896
  152.5406  134.0551  159.8137 H   0  0  0  0  0  0  0  0  0  0  0  0  # atno 6908 bound_to 6896
  151.0728  133.5403  159.2657 H   0  0  0  0  0  0  0  0  0  0  0  0  # atno 6909 bound_to 6896
  144.9816  140.7646  143.4609 H   0  0  0  0  0  0  0  0  0  0  0  0  # atno 7974 bound_to 7965
  154.4500  140.0996  156.6587 H   0  0  0  0  0  0  0  0  0  0  0  0  # atno 8008 bound_to 7997
  155.5317  140.3481  155.4409 H   0  0  0  0  0  0  0  0  0  0  0  0  # atno 8009 bound_to 7997
  156.0660  140.1338  156.9875 H   0  0  0  0  0  0  0  0  0  0  0  0  # atno 8010 bound_to 7997
  139.6964  143.9335  152.2409 H   0  0  0  0  0  0  0  0  0  0  0  0  # atno 10167 bound_to 10162
  157.6460  130.9536  150.0812 H   0  0  0  0  0  0  0  0  0  0  0  0  # atno 10718 bound_to 10713
  154.4302  135.2759  155.1917 H   0  0  0  0  0  0  0  0  0  0  0  0  # atno 10763 bound_to 10752
  154.3826  135.6084  153.5803 H   0  0  0  0  0  0  0  0  0  0  0  0  # atno 10764 bound_to 10752
  152.9836  135.5884  154.4612 H   0  0  0  0  0  0  0  0  0  0  0  0  # atno 10765 bound_to 10752
  141.1657  133.7297  156.8728 H   0  0  0  0  0  0  0  0  0  0  0  0  # atno 11005 bound_to 11000
  145.2413  139.2071  143.4991 LP  0  0  0  0  0  0  0  0  0  0  0  0  # atno 17320 bound_to 7965
  146.3409  140.2309  142.8593 LP  0  0  0  0  0  0  0  0  0  0  0  0  # atno 17321 bound_to 7965
  139.9165  144.6825  150.8507 LP  0  0  0  0  0  0  0  0  0  0  0  0  # atno 17342 bound_to 10162
  140.7697  143.3405  151.2217 LP  0  0  0  0  0  0  0  0  0  0  0  0  # atno 17343 bound_to 10162
  156.1787  130.3649  149.9064 LP  0  0  0  0  0  0  0  0  0  0  0  0  # atno 17370 bound_to 10713
  156.7022  130.8937  151.3600 LP  0  0  0  0  0  0  0  0  0  0  0  0  # atno 17371 bound_to 10713
  140.1769  134.9060  157.2902 LP  0  0  0  0  0  0  0  0  0  0  0  0  # atno 17394 bound_to 11000
  140.2438  134.3764  155.7469 LP  0  0  0  0  0  0  0  0  0  0  0  0  # atno 17395 bound_to 11000

$$$$
