#       Name:                AV-unprocessed.smi:309
#       Creating user name   scv26
#       Creation time:       Thu Mar 26 22:19:24 2020


#       File generated by GOLD software.
#

@<TRIPOS>MOLECULE
AV-unprocessed.smi:309
    41    43     1
SMALL
NO_CHARGES


@<TRIPOS>ATOM
      1 ****        -0.0574   3.0343  -0.1325 O.3            1 S1                 0.0000
      2 ****         0.0555   2.1237  -1.2058 C.3            1 S1                 0.0000
      3 ****        -0.8597   0.9401  -1.0663 C.2            1 S1                 0.0000
      4 ****        -2.1678   1.1077  -0.8640 N.2            1 S1                 0.0000
      5 ****        -2.6413  -0.1869  -0.8143 C.ar           1 S1                 0.0000
      6 ****        -3.9536  -0.6764  -0.6251 C.ar           1 S1                 0.0000
      7 ****        -4.2039  -2.0639  -0.6182 C.ar           1 S1                 0.0000
      8 ****        -3.1479  -2.9794  -0.8024 C.ar           1 S1                 0.0000
      9 ****        -1.8335  -2.5118  -0.9939 C.ar           1 S1                 0.0000
     10 ****        -1.5870  -1.1251  -0.9955 C.ar           1 S1                 0.0000
     11 ****        -0.4381  -0.3515  -1.1494 N.pl3          1 S1                 0.0000
     12 ****         0.9113  -0.8683  -1.3687 C.3            1 S1                 0.0000
     13 ****         1.6708  -1.2158  -0.0660 C.3            1 S1                 0.0000
     14 ****         1.0118  -2.2712   0.6077 O.3            1 S1                 0.0000
     15 ****         1.9158   0.0007   0.8268 C.ar           1 S1                 0.0000
     16 ****         1.0079   0.3048   1.8684 C.ar           1 S1                 0.0000
     17 ****         1.2085   1.4283   2.6919 C.ar           1 S1                 0.0000
     18 ****         0.0834   1.7871   3.9492 Cl             1 S1                 0.0000
     19 ****         2.3225   2.2614   2.4846 C.ar           1 S1                 0.0000
     20 ****         3.2299   1.9721   1.4491 C.ar           1 S1                 0.0000
     21 ****         3.0316   0.8506   0.6190 C.ar           1 S1                 0.0000
     22 ****         4.1645   0.5597  -0.6543 Cl             1 S1                 0.0000
     23 ****         0.5135   3.7681  -0.3001 H              1 S1                 0.0000
     24 ****        -0.1873   2.6436  -2.1326 H              1 S1                 0.0000
     25 ****         1.0974   1.8241  -1.2779 H              1 S1                 0.0000
     26 ****        -4.7693   0.0177  -0.4862 H              1 S1                 0.0000
     27 ****        -5.2107  -2.4272  -0.4721 H              1 S1                 0.0000
     28 ****        -3.3471  -4.0410  -0.7966 H              1 S1                 0.0000
     29 ****        -1.0237  -3.2121  -1.1342 H              1 S1                 0.0000
     30 ****         0.8278  -1.7648  -1.9842 H              1 S1                 0.0000
     31 ****         1.4809  -0.1664  -1.9755 H              1 S1                 0.0000
     32 ****         2.6385  -1.6330  -0.3429 H              1 S1                 0.0000
     33 ****         1.5570  -2.5552   1.3253 H              1 S1                 0.0000
     34 ****         0.1396  -0.3160   2.0349 H              1 S1                 0.0000
     35 ****         2.4789   3.1251   3.1139 H              1 S1                 0.0000
     36 ****         4.0800   2.6186   1.2881 H              1 S1                 0.0000
     37 ****         0.2113   2.5857   0.7199 LP             1 S1                 0.0000
     38 ****        -1.0025   3.3524  -0.0582 LP             1 S1                 0.0000
     39 ****        -2.6792   1.9619  -0.7712 LP             1 S1                 0.0000
     40 ****         0.8612  -3.0323  -0.0233 LP             1 S1                 0.0000
     41 ****         0.1322  -1.9502   0.9588 LP             1 S1                 0.0000
@<TRIPOS>BOND
    1    1    2 1     
    2    1   23 1     
    3    2    3 1     
    4    2   24 1     
    5    2   25 1     
    6    3   11 1     
    7    3    4 2     
    8    4    5 1     
    9    5   10 ar    
   10    5    6 ar    
   11    6    7 ar    
   12    6   26 1     
   13    7    8 ar    
   14    7   27 1     
   15    8    9 ar    
   16    8   28 1     
   17    9   10 ar    
   18    9   29 1     
   19   10   11 1     
   20   11   12 1     
   21   12   13 1     
   22   12   30 1     
   23   12   31 1     
   24   13   14 1     
   25   13   15 1     
   26   13   32 1     
   27   14   33 1     
   28   15   21 ar    
   29   15   16 ar    
   30   16   17 ar    
   31   16   34 1     
   32   17   18 1     
   33   17   19 ar    
   34   19   20 ar    
   35   19   35 1     
   36   20   21 ar    
   37   20   36 1     
   38   21   22 1     
   39    1   37 1     
   40    1   38 1     
   41    4   39 1     
   42   14   40 1     
   43   14   41 1     
@<TRIPOS>SUBSTRUCTURE
      1 S1             1
@<TRIPOS>SET
LONE_PAIRS      STATIC     ATOMS    <user>   **** ""
5 37 38 39 40 41
DONOR_HYDROGENS      STATIC     ATOMS    <user>   **** ""
2 23 33
ATOM$BLUE        STATIC     ATOMS    COLORGROUP SYSTEM
5 37 38 39 40 41
ATOM$RED        STATIC     ATOMS    COLORGROUP SYSTEM
2 23 33
