AV-unprocessed.smi:1879|AV-procd|sdf|7632|dock4
  -GOLD-   22720 9353D 1   1.00000     0.00000
 Structure written by MMmdl.
 46 48  0  0  0  0  0  0  0  0  1 V2000
  147.6571  132.2047  153.8603 O   0  0  0  0  0  0  0  0  0  0  0  0
  147.9597  133.2826  153.3480 C   0  0  0  0  0  0  0  0  0  0  0  0
  149.0923  133.9635  153.5894 N   0  0  0  0  0  0  0  0  0  0  0  0
  150.1671  133.5989  154.4485 C   0  0  0  0  0  0  0  0  0  0  0  0
  150.6098  132.2569  154.5453 C   0  0  0  0  0  0  0  0  0  0  0  0
  151.6255  131.9291  155.4595 C   0  0  0  0  0  0  0  0  0  0  0  0
  152.1542  132.9546  156.2603 C   0  0  0  0  0  0  0  0  0  0  0  0
  151.7349  134.2336  156.1906 N   0  0  0  0  0  0  0  0  0  0  0  0
  150.7661  134.5694  155.3030 C   0  0  0  0  0  0  0  0  0  0  0  0
  150.3798  135.9295  155.2665 N   0  0  0  0  0  0  0  0  0  0  0  0
  149.8707  136.5875  156.4652 C   0  0  0  0  0  0  0  0  0  0  0  0
  149.9309  138.0798  156.1531 C   0  0  0  0  0  0  0  0  0  0  0  0
  151.1952  138.1839  155.3060 C   0  0  0  0  0  0  0  0  0  0  0  0
  151.2164  136.8671  154.5225 C   0  0  0  0  0  0  0  0  0  0  0  0
  147.1939  133.9188  152.4504 N   0  0  0  0  0  0  0  0  0  0  0  0
  145.9038  133.4459  151.9572 C   0  0  2  0  0  0  0  0  0  0  0  0
  146.0393  132.0374  151.3446 C   0  0  0  0  0  0  0  0  0  0  0  0
  144.7033  131.5445  150.7614 C   0  0  0  0  0  0  0  0  0  0  0  0
  144.1034  132.5389  149.7492 C   0  0  2  0  0  0  0  0  0  0  0  0
  144.8778  132.5530  148.5663 O   0  0  0  0  0  0  0  0  0  0  0  0
  144.0104  133.9599  150.3368 C   0  0  0  0  0  0  0  0  0  0  0  0
  145.3515  134.4395  150.9191 C   0  0  0  0  0  0  0  0  0  0  0  0
  149.2525  134.7812  153.0193 H   0  0  0  0  0  0  0  0  0  0  0  0
  150.1703  131.4704  153.9508 H   0  0  0  0  0  0  0  0  0  0  0  0
  151.9801  130.9134  155.5535 H   0  0  0  0  0  0  0  0  0  0  0  0
  152.9300  132.7423  156.9810 H   0  0  0  0  0  0  0  0  0  0  0  0
  148.8564  136.2623  156.6975 H   0  0  0  0  0  0  0  0  0  0  0  0
  150.5067  136.3718  157.3248 H   0  0  0  0  0  0  0  0  0  0  0  0
  149.0610  138.3740  155.5639 H   0  0  0  0  0  0  0  0  0  0  0  0
  149.9625  138.7009  157.0487 H   0  0  0  0  0  0  0  0  0  0  0  0
  151.2047  139.0618  154.6596 H   0  0  0  0  0  0  0  0  0  0  0  0
  152.0684  138.2369  155.9573 H   0  0  0  0  0  0  0  0  0  0  0  0
  152.2344  136.4974  154.3917 H   0  0  0  0  0  0  0  0  0  0  0  0
  150.7814  137.0174  153.5344 H   0  0  0  0  0  0  0  0  0  0  0  0
  147.5267  134.7968  152.0794 H   0  0  0  0  0  0  0  0  0  0  0  0
  145.1994  133.4020  152.7902 H   0  0  0  0  0  0  0  0  0  0  0  0
  146.7980  132.0462  150.5608 H   0  0  0  0  0  0  0  0  0  0  0  0
  146.3869  131.3306  152.0990 H   0  0  0  0  0  0  0  0  0  0  0  0
  144.8347  130.5658  150.2986 H   0  0  0  0  0  0  0  0  0  0  0  0
  143.9954  131.4002  151.5786 H   0  0  0  0  0  0  0  0  0  0  0  0
  143.1044  132.2027  149.4696 H   0  0  0  0  0  0  0  0  0  0  0  0
  144.9605  133.4471  148.2721 H   0  0  0  0  0  0  0  0  0  0  0  0
  143.6583  134.6611  149.5795 H   0  0  0  0  0  0  0  0  0  0  0  0
  143.2602  133.9674  151.1285 H   0  0  0  0  0  0  0  0  0  0  0  0
  145.2196  135.4211  151.3761 H   0  0  0  0  0  0  0  0  0  0  0  0
  146.0730  134.5711  150.1114 H   0  0  0  0  0  0  0  0  0  0  0  0
  1  2  2  0  0  0  0
  2  3  1  0  0  0  0
  2 15  1  0  0  0  0
  3  4  1  0  0  0  0
  3 23  1  0  0  0  0
  4  9  1  0  0  0  0
  4  5  2  0  0  0  0
  5  6  1  0  0  0  0
  5 24  1  0  0  0  0
  6  7  2  0  0  0  0
  6 25  1  0  0  0  0
  7  8  1  0  0  0  0
  7 26  1  0  0  0  0
  8  9  2  0  0  0  0
  9 10  1  0  0  0  0
 10 14  1  0  0  0  0
 10 11  1  0  0  0  0
 11 12  1  0  0  0  0
 11 27  1  0  0  0  0
 11 28  1  0  0  0  0
 12 13  1  0  0  0  0
 12 29  1  0  0  0  0
 12 30  1  0  0  0  0
 13 14  1  0  0  0  0
 13 31  1  0  0  0  0
 13 32  1  0  0  0  0
 14 33  1  0  0  0  0
 14 34  1  0  0  0  0
 15 16  1  0  0  0  0
 15 35  1  0  0  0  0
 16 22  1  0  0  0  0
 16 17  1  0  0  0  0
 16 36  1  0  0  0  0
 17 18  1  0  0  0  0
 17 37  1  0  0  0  0
 17 38  1  0  0  0  0
 18 19  1  0  0  0  0
 18 39  1  0  0  0  0
 18 40  1  0  0  0  0
 19 20  1  0  0  0  0
 19 21  1  0  0  0  0
 19 41  1  0  0  0  0
 20 42  1  0  0  0  0
 21 22  1  0  0  0  0
 21 43  1  0  0  0  0
 21 44  1  0  0  0  0
 22 45  1  0  0  0  0
 22 46  1  0  0  0  0
M  END
> <s_m_source_file>
AV-unprocessed.smi

> <i_m_source_file_index>
1879

> <i_lp_mmshare_version>
43012

> <i_f3d_flags>
0

> <s_epik_input>
W0NIMl0xW0NIMl1bQ0BIXShbT0hdKVtDSDJdW0NIMl1bQ0BIXTFbTkhdQyg9TylbTkhdYzJbY0hdW2NIXVtjSF1uYzJOM1tDSDJdW0NIMl1bQ0gyXVtDSDJdMw==

> <s_epik_cmdline>
J2VwaWtfcHl0aG9uJywgJy1waCcsICc3LjAnLCAnLXRuJywgJzgnLCAnLW1hJywgJzIwMCcsICctbWV0YWxfYmluZGluZycsICctaW1hZScsICc8aW5maWxlLm1hZT4nLCAnLW9tYWUnLCAnPG91dGZpbGUubWFlPic=

> <r_lp_tautomer_probability>
1

> <r_epik_Ionization_Penalty>
0.104121

> <r_epik_Ionization_Penalty_Charging>
0

> <r_epik_Ionization_Penalty_Neutral>
0.104121

> <r_epik_State_Penalty>
0.0934704

> <r_epik_Charging_Adjusted_Penalty>
0.0934704

> <i_epik_Tot_Q>
0

> <i_epik_Tot_abs_Q>
0

> <r_epik_Metal_State_Penalty>
0.0794466

> <b_epik_Metal_Only>
0

> <s_lp_Force_Field>
OPLS_2005

> <r_lp_Energy>
39.1778

> <b_lp_Chiralities_Consistent>
1

> <s_lp_Variant>
AV-unprocessed.smi:1879-2

> <Gold.Version>
5.8.1

> <Gold.Id.Protein>
6NUR|6NUR_protein|mol2

> <Gold.PLP.Fitness>
42.1116

> <Gold.PLP.PLP>
-34.9080

> <Gold.PLP.part.hbond>
-4.0000

> <Gold.PLP.part.metal>
0.0000

> <Gold.PLP.part.buried>
-4.3783

> <Gold.PLP.part.nonpolar>
-26.5590

> <Gold.PLP.part.repulsive>
0.1782

> <Gold.PLP.ligand.clash>
0.0000

> <Gold.PLP.ligand.torsion>
0.6204

> <Gold.PLP.Chemscore.Hbond>
2.7000

> <Gold.PLP.Chemscore.CHOScore>
0.0000

> <Gold.PLP.Chemscore.Metal>
0.0000

> <Gold.Chemscore.Hbonds>
donor molecule, donor type, donor heavy atom, donor atom, acceptor molecule, acceptor atom, score
      L1  H     3    23       P1  7948  0.35
      L1  H    15    35       P1  7948  1.00
      L1  H    20    42       P1  7921  0.93
      P1  H 10752 10765       L1     8  0.12

> <Gold.PLP.Chemscore.Internal.Correction>
0.3444

> <Gold.Rescore>
     Score         DG    S(hbond)    S(metal)    S(lipo)     H(rot)  DE(clash)    DE(int)     intcor
     14.95     -16.57       1.73        0.00      81.99       1.67       0.03       1.58       ----

> <Gold.Chemscore.Fitness>
14.9492

> <Gold.Chemscore.DG>
-16.5677

> <Gold.Chemscore.ZeroCoef>
-5.4800

> <Gold.Chemscore.Hbond>
1.7295

> <Gold.Chemscore.Metal>
0.0000

> <Gold.Chemscore.Lipo>
81.9876

> <Gold.Chemscore.Internal_Hbond>
0.0000

> <Gold.Chemscore.DEClash>
0.0340

> <Gold.Chemscore.DEInternal>
1.5845

> <Gold.Chemscore.Rot>
1.6723

> <Gold.Chemscore.Internal.Correction>
   9.000000E+99

> <Gold.Chemscore.Hbonds>
donor molecule, donor type, donor heavy atom, donor atom, acceptor molecule, acceptor atom, score
      L1  H     3    23       P1  7948  0.01
      L1  H    15    35       P1  7948  0.76
      L1  H    20    42       P1  7921  0.63

> <Gold.Chemscore.Hbond.Weighted>
-5.7764

> <Gold.Chemscore.Metal.Weighted>
-0.0000

> <Gold.Chemscore.Lipo.Weighted>
-9.5925

> <Gold.Chemscore.Internal_Hbond.Weighted>
0.0000

> <Gold.Chemscore.DEClash.Weighted>
0.0340

> <Gold.Chemscore.DEInternal.Weighted>
1.5845

> <Gold.Chemscore.Rot.Weighted>
4.2812

> <Gold.Chemscore.Internal.Correction.Weighted>
   9.000000E+99

> <Gold.Protein.RotatedTorsions>
[ 6907 6896 6895 6894 ] final -141.20 input  -60.11 | X-H torsion
[ 7974 7965 7964 7962 ] final  165.99 input  175.53 | X-H torsion
[ 8008 7997 7996 7995 ] final   -8.48 input   59.86 | X-H torsion
[ 10167 10162 10161 10158 ] final -154.68 input  -65.29 | X-H torsion
[ 10718 10713 10712 10709 ] final   81.47 input   66.30 | X-H torsion
[ 10763 10752 10751 10750 ] final -156.67 input  -60.55 | X-H torsion
[ 11005 11000 10999 10996 ] final  134.96 input  -57.11 | X-H torsion

> <Gold.Protein.ActiveResidues>
 VAL166  LYS551  ARG553  GLY616  TRP617  ASP618  TYR619  PRO620  LYS621  CYS622 
 ASP623  PHE694  ASN695  SER759  ASP760  ASP761  ALA762  ILE779  LEU786  VAL792 
 PHE793  MET794  SER795  GLU796  ALA797  LYS798  CYS799  TRP800  GLU811  SER814 

> <Gold.Protein.RotatedAtoms>
  151.0706  133.5469  159.2627 H   0  0  0  0  0  0  0  0  0  0  0  0  # atno 6907 bound_to 6896
  151.2410  135.0588  159.9035 H   0  0  0  0  0  0  0  0  0  0  0  0  # atno 6908 bound_to 6896
  152.5411  134.0481  159.8151 H   0  0  0  0  0  0  0  0  0  0  0  0  # atno 6909 bound_to 6896
  144.7480  139.8550  143.6375 H   0  0  0  0  0  0  0  0  0  0  0  0  # atno 7974 bound_to 7965
  154.5737  140.2380  155.8154 H   0  0  0  0  0  0  0  0  0  0  0  0  # atno 8008 bound_to 7997
  156.2127  140.3021  155.9726 H   0  0  0  0  0  0  0  0  0  0  0  0  # atno 8009 bound_to 7997
  155.2665  140.0416  157.2993 H   0  0  0  0  0  0  0  0  0  0  0  0  # atno 8010 bound_to 7997
  139.6994  143.9289  152.2422 H   0  0  0  0  0  0  0  0  0  0  0  0  # atno 10167 bound_to 10162
  157.6833  131.0005  150.2232 H   0  0  0  0  0  0  0  0  0  0  0  0  # atno 10718 bound_to 10713
  154.7695  135.3141  154.8218 H   0  0  0  0  0  0  0  0  0  0  0  0  # atno 10763 bound_to 10752
  153.8957  135.6821  153.4762 H   0  0  0  0  0  0  0  0  0  0  0  0  # atno 10764 bound_to 10752
  153.1306  135.4782  154.9277 H   0  0  0  0  0  0  0  0  0  0  0  0  # atno 10765 bound_to 10752
  139.9949  134.9501  156.9941 H   0  0  0  0  0  0  0  0  0  0  0  0  # atno 11005 bound_to 11000
  146.1389  139.4441  143.0121 LP  0  0  0  0  0  0  0  0  0  0  0  0  # atno 17320 bound_to 7965
  145.7049  141.0124  143.1484 LP  0  0  0  0  0  0  0  0  0  0  0  0  # atno 17321 bound_to 7965
  139.9127  144.6847  150.8545 LP  0  0  0  0  0  0  0  0  0  0  0  0  # atno 17342 bound_to 10162
  140.7705  143.3432  151.2165 LP  0  0  0  0  0  0  0  0  0  0  0  0  # atno 17343 bound_to 10162
  156.2879  130.3742  149.7870 LP  0  0  0  0  0  0  0  0  0  0  0  0  # atno 17370 bound_to 10713
  156.5539  130.8354  151.3308 LP  0  0  0  0  0  0  0  0  0  0  0  0  # atno 17371 bound_to 10713
  140.4838  134.1263  155.7221 LP  0  0  0  0  0  0  0  0  0  0  0  0  # atno 17394 bound_to 11000
  141.1596  133.8818  157.1884 LP  0  0  0  0  0  0  0  0  0  0  0  0  # atno 17395 bound_to 11000

$$$$
