#       Name:                AV-unprocessed.smi:621
#       Creating user name   scv26
#       Creation time:       Fri Mar 27 00:01:14 2020


#       File generated by GOLD software.
#

@<TRIPOS>MOLECULE
AV-unprocessed.smi:621
    39    40     1
SMALL
NO_CHARGES


@<TRIPOS>ATOM
      1 ****         1.6267   1.1027   0.4437 O.2            1 S1                 0.0000
      2 ****         1.2958   0.0282  -0.0587 C.2            1 S1                 0.0000
      3 ****         2.1243  -1.0001  -0.3131 N.am           1 S1                 0.0000
      4 ****         3.5202  -1.0864  -0.0649 C.ar           1 S1                 0.0000
      5 ****         4.1183  -2.3128  -0.4337 C.ar           1 S1                 0.0000
      6 ****         5.4987  -2.5003  -0.2269 C.ar           1 S1                 0.0000
      7 ****         6.2467  -1.4552   0.3439 C.ar           1 S1                 0.0000
      8 ****         5.5742  -0.2665   0.6819 C.ar           1 S1                 0.0000
      9 ****         4.2514  -0.0845   0.4845 N.ar           1 S1                 0.0000
     10 ****         0.0378  -0.2640  -0.4213 N.am           1 S1                 0.0000
     11 ****        -1.1162   0.6214  -0.2808 C.3            1 S1                 0.0000
     12 ****        -1.7308   0.4572   1.1277 C.3            1 S1                 0.0000
     13 ****        -2.7392   1.5630   1.4816 C.3            1 S1                 0.0000
     14 ****        -4.1908   1.3041   1.0418 C.3            1 S1                 0.0000
     15 ****        -4.3860   0.6818  -0.3517 C.3            1 S1                 0.0000
     16 ****        -3.3915   1.1473  -1.4276 C.3            1 S1                 0.0000
     17 ****        -2.0926   0.3228  -1.4341 C.3            1 S1                 0.0000
     18 ****         1.7062  -1.8196  -0.7276 H              1 S1                 0.0000
     19 ****         3.5284  -3.1055  -0.8709 H              1 S1                 0.0000
     20 ****         5.9744  -3.4300  -0.5021 H              1 S1                 0.0000
     21 ****         7.3072  -1.5615   0.5184 H              1 S1                 0.0000
     22 ****         6.1117   0.5601   1.1225 H              1 S1                 0.0000
     23 ****        -0.1387  -1.1722  -0.8252 H              1 S1                 0.0000
     24 ****        -0.7745   1.6519  -0.3951 H              1 S1                 0.0000
     25 ****        -2.1774  -0.5305   1.2507 H              1 S1                 0.0000
     26 ****        -0.9252   0.5103   1.8614 H              1 S1                 0.0000
     27 ****        -2.7405   1.7059   2.5626 H              1 S1                 0.0000
     28 ****        -2.3952   2.5127   1.0706 H              1 S1                 0.0000
     29 ****        -4.6773   0.6580   1.7736 H              1 S1                 0.0000
     30 ****        -4.7294   2.2513   1.0868 H              1 S1                 0.0000
     31 ****        -4.3500  -0.4054  -0.2731 H              1 S1                 0.0000
     32 ****        -5.4000   0.9105  -0.6819 H              1 S1                 0.0000
     33 ****        -3.8674   1.0171  -2.4002 H              1 S1                 0.0000
     34 ****        -3.1833   2.2143  -1.3400 H              1 S1                 0.0000
     35 ****        -1.5756   0.5147  -2.3753 H              1 S1                 0.0000
     36 ****        -2.3389  -0.7400  -1.4478 H              1 S1                 0.0000
     37 ****         2.5805   1.2633   0.6976 LP             1 S1                 0.0000
     38 ****         0.9416   1.8146   0.5978 LP             1 S1                 0.0000
     39 ****         3.8156   0.7785   0.7402 LP             1 S1                 0.0000
@<TRIPOS>BOND
    1    1    2 2     
    2    2    3 am    
    3    2   10 am    
    4    3    4 1     
    5    3   18 1     
    6    4    9 ar    
    7    4    5 ar    
    8    5    6 ar    
    9    5   19 1     
   10    6    7 ar    
   11    6   20 1     
   12    7    8 ar    
   13    7   21 1     
   14    8    9 ar    
   15    8   22 1     
   16   10   11 1     
   17   10   23 1     
   18   11   17 1     
   19   11   12 1     
   20   11   24 1     
   21   12   13 1     
   22   12   25 1     
   23   12   26 1     
   24   13   14 1     
   25   13   27 1     
   26   13   28 1     
   27   14   15 1     
   28   14   29 1     
   29   14   30 1     
   30   15   16 1     
   31   15   31 1     
   32   15   32 1     
   33   16   17 1     
   34   16   33 1     
   35   16   34 1     
   36   17   35 1     
   37   17   36 1     
   38    1   37 1     
   39    1   38 1     
   40    9   39 1     
@<TRIPOS>SUBSTRUCTURE
      1 S1             1
@<TRIPOS>SET
LONE_PAIRS      STATIC     ATOMS    <user>   **** ""
3 37 38 39
DONOR_HYDROGENS      STATIC     ATOMS    <user>   **** ""
2 18 23
ATOM$BLUE        STATIC     ATOMS    COLORGROUP SYSTEM
3 37 38 39
ATOM$RED        STATIC     ATOMS    COLORGROUP SYSTEM
2 18 23
