AV-unprocessed.smi:1726|AV-procd|sdf|6962|dock5
  -GOLD-   22720 8173D 1   1.00000     0.00000
 Structure written by MMmdl.
 42 43  0  0  0  0  0  0  0  0  3 V2000
  143.9405  134.5753  151.3489 C   0  0  0  0  0  0  0  0  0  0  0  0
  145.3458  135.0436  150.9433 C   0  0  0  0  0  0  0  0  0  0  0  0
  146.3544  134.7747  151.9981 N   0  3  2  0  0  0  0  0  0  0  0  0
  146.8257  133.3654  151.9906 C   0  0  0  0  0  0  0  0  0  0  0  0
  147.9817  133.1601  152.9854 C   0  0  0  0  0  0  0  0  0  0  0  0
  147.5971  133.6254  154.4005 C   0  0  0  0  0  0  0  0  0  0  0  0
  147.0583  135.0672  154.3802 C   0  0  1  0  0  0  0  0  0  0  0  0
  148.1442  136.0008  154.0788 N   0  0  0  0  0  0  0  0  0  0  0  0
  148.6805  136.8746  154.9431 C   0  0  0  0  0  0  0  0  0  0  0  0
  148.3072  136.9767  156.1110 O   0  0  0  0  0  0  0  0  0  0  0  0
  149.6535  137.5927  154.3544 N   0  0  0  0  0  0  0  0  0  0  0  0
  150.4339  138.6417  154.8710 C   0  0  0  0  0  0  0  0  0  0  0  0
  149.9460  139.7286  155.5322 C   0  0  0  0  0  0  0  0  0  0  0  0
  150.8123  140.7896  156.0314 C   0  0  0  0  0  0  0  0  0  0  0  0
  150.3226  142.0133  156.7843 C   0  0  0  0  0  0  0  0  0  0  0  0
  150.8489  142.0421  158.0083 F   0  0  0  0  0  0  0  0  0  0  0  0
  150.6948  143.1243  156.1494 F   0  0  0  0  0  0  0  0  0  0  0  0
  148.9942  142.0180  156.8969 F   0  0  0  0  0  0  0  0  0  0  0  0
  152.1431  140.5608  155.7454 C   0  0  0  0  0  0  0  0  0  0  0  0
  152.7056  139.5220  155.0902 N   0  5  0  0  0  0  0  0  0  0  0  0
  151.8882  138.5329  154.6314 C   0  0  0  0  0  0  0  0  0  0  0  0
  152.3343  137.5587  154.0240 O   0  0  0  0  0  0  0  0  0  0  0  0
  145.9064  135.1795  153.3569 C   0  0  0  0  0  0  0  0  0  0  0  0
  143.2097  134.8535  150.5891 H   0  0  0  0  0  0  0  0  0  0  0  0
  143.6291  135.0330  152.2884 H   0  0  0  0  0  0  0  0  0  0  0  0
  143.8848  133.4938  151.4687 H   0  0  0  0  0  0  0  0  0  0  0  0
  145.6520  134.5823  150.0034 H   0  0  0  0  0  0  0  0  0  0  0  0
  145.2951  136.1172  150.7577 H   0  0  0  0  0  0  0  0  0  0  0  0
  145.9947  132.7018  152.2358 H   0  0  0  0  0  0  0  0  0  0  0  0
  147.1645  133.0926  150.9902 H   0  0  0  0  0  0  0  0  0  0  0  0
  148.2707  132.1090  153.0069 H   0  0  0  0  0  0  0  0  0  0  0  0
  148.8587  133.7103  152.6422 H   0  0  0  0  0  0  0  0  0  0  0  0
  146.8313  132.9600  154.8013 H   0  0  0  0  0  0  0  0  0  0  0  0
  148.4533  133.5452  155.0715 H   0  0  0  0  0  0  0  0  0  0  0  0
  146.6759  135.3047  155.3745 H   0  0  0  0  0  0  0  0  0  0  0  0
  148.5227  135.9720  153.1431 H   0  0  0  0  0  0  0  0  0  0  0  0
  149.8824  137.3429  153.4033 H   0  0  0  0  0  0  0  0  0  0  0  0
  148.8889  139.8485  155.6971 H   0  0  0  0  0  0  0  0  0  0  0  0
  152.8626  141.3306  156.0978 H   0  0  0  0  0  0  0  0  0  0  0  0
  145.5225  136.1986  153.3444 H   0  0  0  0  0  0  0  0  0  0  0  0
  145.0718  134.5474  153.6653 H   0  0  0  0  0  0  0  0  0  0  0  0
  147.1585  135.3431  151.7726 H   0  0  0  0  0  0  0  0  0  0  0  0
  1  2  1  0  0  0  0
  1 24  1  0  0  0  0
  1 25  1  0  0  0  0
  1 26  1  0  0  0  0
  2  3  1  0  0  0  0
  2 27  1  0  0  0  0
  2 28  1  0  0  0  0
  3 23  1  0  0  0  0
  3  4  1  0  0  0  0
  3 42  1  0  0  0  0
  4  5  1  0  0  0  0
  4 29  1  0  0  0  0
  4 30  1  0  0  0  0
  5  6  1  0  0  0  0
  5 31  1  0  0  0  0
  5 32  1  0  0  0  0
  6  7  1  0  0  0  0
  6 33  1  0  0  0  0
  6 34  1  0  0  0  0
  7  8  1  0  0  0  0
  7 23  1  0  0  0  0
  7 35  1  0  0  0  0
  8  9  1  0  0  0  0
  8 36  1  0  0  0  0
  9 10  2  0  0  0  0
  9 11  1  0  0  0  0
 11 12  1  0  0  0  0
 11 37  1  0  0  0  0
 12 21  1  0  0  0  0
 12 13  2  0  0  0  0
 13 14  1  0  0  0  0
 13 38  1  0  0  0  0
 14 15  1  0  0  0  0
 14 19  2  0  0  0  0
 15 16  1  0  0  0  0
 15 17  1  0  0  0  0
 15 18  1  0  0  0  0
 19 20  1  0  0  0  0
 19 39  1  0  0  0  0
 20 21  1  0  0  0  0
 21 22  2  0  0  0  0
 23 40  1  0  0  0  0
 23 41  1  0  0  0  0
M  CHG  1   3   1
M  CHG  1  20  -1
M  END
> <s_m_source_file>
AV-unprocessed.smi

> <i_m_source_file_index>
1726

> <i_lp_mmshare_version>
43012

> <i_f3d_flags>
0

> <s_epik_input>
W0NIM11bQ0gyXU4xW0NIMl1bQ0gyXVtDSDJdW0NASF0oW0NIMl0xKVtOSF1DKD1PKVtOSF1jMltjSF1jKEMoRikoRilGKVtjSF1bbkhdYzI9Tw==

> <s_epik_cmdline>
J2VwaWtfcHl0aG9uJywgJy1waCcsICc3LjAnLCAnLXRuJywgJzgnLCAnLW1hJywgJzIwMCcsICctbWV0YWxfYmluZGluZycsICctaW1hZScsICc8aW5maWxlLm1hZT4nLCAnLW9tYWUnLCAnPG91dGZpbGUubWFlPic=

> <r_lp_tautomer_probability>
1

> <r_epik_Ionization_Penalty>
3.01007

> <r_epik_Ionization_Penalty_Charging>
0.14897

> <r_epik_Ionization_Penalty_Neutral>
2.8611

> <r_epik_State_Penalty>
2.85632

> <r_epik_Charging_Adjusted_Penalty>
3.00529

> <i_epik_Tot_Q>
0

> <i_epik_Tot_abs_Q>
2

> <r_epik_Metal_State_Penalty>
0.443826

> <b_epik_Metal_Only>
1

> <s_lp_Force_Field>
OPLS_2005

> <r_lp_Energy>
34.8935

> <b_lp_Chiralities_Consistent>
1

> <s_lp_Variant>
AV-unprocessed.smi:1726-6

> <Gold.Version>
5.8.1

> <Gold.Id.Protein>
6NUR|6NUR_protein|mol2

> <Gold.PLP.Fitness>
45.1057

> <Gold.PLP.PLP>
-31.6681

> <Gold.PLP.part.hbond>
-4.7857

> <Gold.PLP.part.metal>
0.0000

> <Gold.PLP.part.buried>
-2.1135

> <Gold.PLP.part.nonpolar>
-27.0734

> <Gold.PLP.part.repulsive>
0.2125

> <Gold.PLP.ligand.clash>
0.0000

> <Gold.PLP.ligand.torsion>
0.6470

> <Gold.PLP.Chemscore.Hbond>
4.8955

> <Gold.PLP.Chemscore.CHOScore>
0.0000

> <Gold.PLP.Chemscore.Metal>
0.0000

> <Gold.Chemscore.Hbonds>
donor molecule, donor type, donor heavy atom, donor atom, acceptor molecule, acceptor atom, score
      L1  H     3    42       P1  7948  2.00
      L1  H     8    36       P1  7948  0.59
      L1  H    11    37       P1  7948  0.67
      P1  H  7997  8008       L1    20  0.50
      P1  H 10752 10765       L1    22  0.77

> <Gold.PLP.Chemscore.Internal.Correction>
0.0451

> <Gold.Rescore>
     Score         DG    S(hbond)    S(metal)    S(lipo)     H(rot)  DE(clash)    DE(int)     intcor
     17.92     -19.31       3.12        0.00      57.15       1.28       0.61       0.78       ----

> <Gold.Chemscore.Fitness>
17.9192

> <Gold.Chemscore.DG>
-19.3062

> <Gold.Chemscore.ZeroCoef>
-5.4800

> <Gold.Chemscore.Hbond>
3.1185

> <Gold.Chemscore.Metal>
0.0000

> <Gold.Chemscore.Lipo>
57.1482

> <Gold.Chemscore.Internal_Hbond>
0.0000

> <Gold.Chemscore.DEClash>
0.6063

> <Gold.Chemscore.DEInternal>
0.7808

> <Gold.Chemscore.Rot>
1.2796

> <Gold.Chemscore.Internal.Correction>
   9.000000E+99

> <Gold.Chemscore.Hbonds>
donor molecule, donor type, donor heavy atom, donor atom, acceptor molecule, acceptor atom, score
      L1  H     3    42       P1  7948  0.97
      L1  H     8    36       P1  7948  0.58
      L1  H    11    37       P1  7948  0.32
      P1  H 10752 10765       L1    22  0.76

> <Gold.Chemscore.Hbond.Weighted>
-10.4157

> <Gold.Chemscore.Metal.Weighted>
-0.0000

> <Gold.Chemscore.Lipo.Weighted>
-6.6863

> <Gold.Chemscore.Internal_Hbond.Weighted>
0.0000

> <Gold.Chemscore.DEClash.Weighted>
0.6063

> <Gold.Chemscore.DEInternal.Weighted>
0.7808

> <Gold.Chemscore.Rot.Weighted>
3.2759

> <Gold.Chemscore.Internal.Correction.Weighted>
   9.000000E+99

> <Gold.Protein.RotatedTorsions>
[ 6907 6896 6895 6894 ] final -178.06 input  -60.11 | X-H torsion
[ 7974 7965 7964 7962 ] final  -48.56 input  175.53 | X-H torsion
[ 8008 7997 7996 7995 ] final  -16.99 input   59.86 | X-H torsion
[ 10167 10162 10161 10158 ] final  -46.61 input  -65.29 | X-H torsion
[ 10718 10713 10712 10709 ] final -172.47 input   66.30 | X-H torsion
[ 10763 10752 10751 10750 ] final  153.51 input  -60.55 | X-H torsion
[ 11005 11000 10999 10996 ] final -169.99 input  -57.11 | X-H torsion

> <Gold.Protein.ActiveResidues>
 VAL166  LYS551  ARG553  GLY616  TRP617  ASP618  TYR619  PRO620  LYS621  CYS622 
 ASP623  PHE694  ASN695  SER759  ASP760  ASP761  ALA762  ILE779  LEU786  VAL792 
 PHE793  MET794  SER795  GLU796  ALA797  LYS798  CYS799  TRP800  GLU811  SER814 

> <Gold.Protein.RotatedAtoms>
  151.6311  133.3332  159.3108 H   0  0  0  0  0  0  0  0  0  0  0  0  # atno 6907 bound_to 6896
  150.8056  134.7182  159.6652 H   0  0  0  0  0  0  0  0  0  0  0  0  # atno 6908 bound_to 6896
  152.4151  134.6061  160.0064 H   0  0  0  0  0  0  0  0  0  0  0  0  # atno 6909 bound_to 6896
  145.9499  140.7582  142.9510 H   0  0  0  0  0  0  0  0  0  0  0  0  # atno 7974 bound_to 7965
  154.5012  140.2155  155.9344 H   0  0  0  0  0  0  0  0  0  0  0  0  # atno 8008 bound_to 7997
  156.1436  140.3175  155.8501 H   0  0  0  0  0  0  0  0  0  0  0  0  # atno 8009 bound_to 7997
  155.4074  140.0488  157.3024 H   0  0  0  0  0  0  0  0  0  0  0  0  # atno 8010 bound_to 7997
  140.6810  143.2823  151.3807 H   0  0  0  0  0  0  0  0  0  0  0  0  # atno 10167 bound_to 10162
  156.7561  130.9396  151.3116 H   0  0  0  0  0  0  0  0  0  0  0  0  # atno 10718 bound_to 10713
  154.1374  135.2823  155.3169 H   0  0  0  0  0  0  0  0  0  0  0  0  # atno 10763 bound_to 10752
  154.6312  135.5434  153.7686 H   0  0  0  0  0  0  0  0  0  0  0  0  # atno 10764 bound_to 10752
  153.0261  135.6463  154.1522 H   0  0  0  0  0  0  0  0  0  0  0  0  # atno 10765 bound_to 10752
  140.5245  134.5677  157.5057 H   0  0  0  0  0  0  0  0  0  0  0  0  # atno 11005 bound_to 11000
  144.6794  140.2418  143.7343 LP  0  0  0  0  0  0  0  0  0  0  0  0  # atno 17320 bound_to 7965
  145.8185  139.2033  143.1951 LP  0  0  0  0  0  0  0  0  0  0  0  0  # atno 17321 bound_to 7965
  139.6133  144.1054  152.2321 LP  0  0  0  0  0  0  0  0  0  0  0  0  # atno 17342 bound_to 10162
  140.0475  144.5959  150.7362 LP  0  0  0  0  0  0  0  0  0  0  0  0  # atno 17343 bound_to 10162
  157.6755  130.9091  150.0141 LP  0  0  0  0  0  0  0  0  0  0  0  0  # atno 17370 bound_to 10713
  156.1369  130.3642  149.9643 LP  0  0  0  0  0  0  0  0  0  0  0  0  # atno 17371 bound_to 10713
  139.9588  134.7489  156.0283 LP  0  0  0  0  0  0  0  0  0  0  0  0  # atno 17394 bound_to 11000
  141.1316  133.6585  156.3480 LP  0  0  0  0  0  0  0  0  0  0  0  0  # atno 17395 bound_to 11000

$$$$
