AV-unprocessed.smi:1768|AV-procd|sdf|7146|dock2
  -GOLD-   22720 8383D 1   1.00000     0.00000
 Structure written by MMmdl.
 33 34  0  0  0  0  0  0  0  0  1 V2000
  143.5796  143.9842  162.2478 C   0  0  0  0  0  0  0  0  0  0  0  0
  144.7152  143.6485  161.3425 C   0  0  0  0  0  0  0  0  0  0  0  0
  145.8553  143.0996  161.7794 N   0  0  0  0  0  0  0  0  0  0  0  0
  146.7627  142.8829  160.7519 N   0  0  0  0  0  0  0  0  0  0  0  0
  146.2780  143.2767  159.5661 C   0  0  0  0  0  0  0  0  0  0  0  0
  146.9941  143.1703  158.3447 N   0  0  0  0  0  0  0  0  0  0  0  0
  147.3761  142.0561  157.6964 C   0  0  0  0  0  0  0  0  0  0  0  0
  147.1770  140.9048  158.0841 O   0  0  0  0  0  0  0  0  0  0  0  0
  148.0156  142.3578  156.5568 N   0  0  0  0  0  0  0  0  0  0  0  0
  148.5630  141.3985  155.5987 C   0  0  1  0  0  0  0  0  0  0  0  0
  148.1476  141.8201  154.1817 C   0  0  0  0  0  0  0  0  0  0  0  0
  150.0947  141.3116  155.7506 C   0  0  1  0  0  0  0  0  0  0  0  0
  150.5820  140.9908  157.1664 C   0  0  0  0  0  0  0  0  0  0  0  0
  151.9299  140.3650  156.8930 C   0  0  0  0  0  0  0  0  0  0  0  0
  151.6399  139.5524  155.6358 C   0  0  0  0  0  0  0  0  0  0  0  0
  150.6210  140.2634  154.9380 O   0  0  0  0  0  0  0  0  0  0  0  0
  144.6567  143.9479  159.6101 S   0  0  0  0  0  0  0  0  0  0  0  0
  143.8145  143.7151  163.2782 H   0  0  0  0  0  0  0  0  0  0  0  0
  142.6854  143.4419  161.9405 H   0  0  0  0  0  0  0  0  0  0  0  0
  143.3737  145.0537  162.2046 H   0  0  0  0  0  0  0  0  0  0  0  0
  147.2374  144.0476  157.9090 H   0  0  0  0  0  0  0  0  0  0  0  0
  148.1330  143.3340  156.3285 H   0  0  0  0  0  0  0  0  0  0  0  0
  148.1487  140.4055  155.7813 H   0  0  0  0  0  0  0  0  0  0  0  0
  148.5084  141.1103  153.4370 H   0  0  0  0  0  0  0  0  0  0  0  0
  148.5466  142.8020  153.9255 H   0  0  0  0  0  0  0  0  0  0  0  0
  147.0620  141.8668  154.0893 H   0  0  0  0  0  0  0  0  0  0  0  0
  150.5577  142.2441  155.4228 H   0  0  0  0  0  0  0  0  0  0  0  0
  150.6426  141.8714  157.8066 H   0  0  0  0  0  0  0  0  0  0  0  0
  149.9248  140.2639  157.6463 H   0  0  0  0  0  0  0  0  0  0  0  0
  152.6665  141.1409  156.6799 H   0  0  0  0  0  0  0  0  0  0  0  0
  152.2993  139.7568  157.7192 H   0  0  0  0  0  0  0  0  0  0  0  0
  152.5257  139.4132  155.0154 H   0  0  0  0  0  0  0  0  0  0  0  0
  151.2527  138.5677  155.9000 H   0  0  0  0  0  0  0  0  0  0  0  0
  1  2  1  0  0  0  0
  1 18  1  0  0  0  0
  1 19  1  0  0  0  0
  1 20  1  0  0  0  0
  2 17  1  0  0  0  0
  2  3  2  0  0  0  0
  3  4  1  0  0  0  0
  4  5  2  0  0  0  0
  5  6  1  0  0  0  0
  5 17  1  0  0  0  0
  6  7  1  0  0  0  0
  6 21  1  0  0  0  0
  7  8  2  0  0  0  0
  7  9  1  0  0  0  0
  9 10  1  0  0  0  0
  9 22  1  0  0  0  0
 10 11  1  0  0  0  0
 10 12  1  0  0  0  0
 10 23  1  0  0  0  0
 11 24  1  0  0  0  0
 11 25  1  0  0  0  0
 11 26  1  0  0  0  0
 12 16  1  0  0  0  0
 12 13  1  0  0  0  0
 12 27  1  0  0  0  0
 13 14  1  0  0  0  0
 13 28  1  0  0  0  0
 13 29  1  0  0  0  0
 14 15  1  0  0  0  0
 14 30  1  0  0  0  0
 14 31  1  0  0  0  0
 15 16  1  0  0  0  0
 15 32  1  0  0  0  0
 15 33  1  0  0  0  0
M  END
> <s_m_source_file>
AV-unprocessed.smi

> <i_m_source_file_index>
1768

> <i_lp_mmshare_version>
43012

> <i_f3d_flags>
0

> <s_epik_input>
W0NIM11jMW5uYyhzMSlbTkhdQyg9TylbTkhdW0NASF0oW0NIM10pW0NAQEhdMltDSDJdW0NIMl1bQ0gyXU8y

> <s_epik_cmdline>
J2VwaWtfcHl0aG9uJywgJy1waCcsICc3LjAnLCAnLXRuJywgJzgnLCAnLW1hJywgJzIwMCcsICctbWV0YWxfYmluZGluZycsICctaW1hZScsICc8aW5maWxlLm1hZT4nLCAnLW9tYWUnLCAnPG91dGZpbGUubWFlPic=

> <r_lp_tautomer_probability>
1

> <r_epik_Ionization_Penalty>
0.000523083

> <r_epik_Ionization_Penalty_Charging>
0

> <r_epik_Ionization_Penalty_Neutral>
0.000523083

> <r_epik_State_Penalty>
-0

> <r_epik_Charging_Adjusted_Penalty>
0

> <i_epik_Tot_Q>
0

> <i_epik_Tot_abs_Q>
0

> <r_epik_Metal_State_Penalty>
0.223408

> <b_epik_Metal_Only>
0

> <s_lp_Force_Field>
OPLS_2005

> <r_lp_Energy>
16.9545

> <b_lp_Chiralities_Consistent>
1

> <s_lp_Variant>
AV-unprocessed.smi:1768-4

> <Gold.Version>
5.8.1

> <Gold.Id.Protein>
6NUR|6NUR_protein|mol2

> <Gold.PLP.Fitness>
41.1592

> <Gold.PLP.PLP>
-29.1881

> <Gold.PLP.part.hbond>
-5.7439

> <Gold.PLP.part.metal>
0.0000

> <Gold.PLP.part.buried>
-3.9758

> <Gold.PLP.part.nonpolar>
-20.6794

> <Gold.PLP.part.repulsive>
0.1999

> <Gold.PLP.ligand.clash>
0.0000

> <Gold.PLP.ligand.torsion>
0.8504

> <Gold.PLP.Chemscore.Hbond>
4.5539

> <Gold.PLP.Chemscore.CHOScore>
0.0000

> <Gold.PLP.Chemscore.Metal>
0.0000

> <Gold.Chemscore.Hbonds>
donor molecule, donor type, donor heavy atom, donor atom, acceptor molecule, acceptor atom, score
      L1  H     6    21       P1  8029  0.69
      L1  H     9    22       P1  8028  1.00
      P1  H  6933  6944       L1     4  0.93
      P1  H  6934  6946       L1     4  0.86
      P1  H  7989  7998       L1    16  0.95

> <Gold.PLP.Chemscore.Internal.Correction>
0.0103

> <Gold.Rescore>
     Score         DG    S(hbond)    S(metal)    S(lipo)     H(rot)  DE(clash)    DE(int)     intcor
     17.63     -18.63       3.00        0.00      54.92       1.29       0.35       0.65       ----

> <Gold.Chemscore.Fitness>
17.6350

> <Gold.Chemscore.DG>
-18.6284

> <Gold.Chemscore.ZeroCoef>
-5.4800

> <Gold.Chemscore.Hbond>
3.0030

> <Gold.Chemscore.Metal>
0.0000

> <Gold.Chemscore.Lipo>
54.9194

> <Gold.Chemscore.Internal_Hbond>
0.0000

> <Gold.Chemscore.DEClash>
0.3482

> <Gold.Chemscore.DEInternal>
0.6452

> <Gold.Chemscore.Rot>
1.2919

> <Gold.Chemscore.Internal.Correction>
   9.000000E+99

> <Gold.Chemscore.Hbonds>
donor molecule, donor type, donor heavy atom, donor atom, acceptor molecule, acceptor atom, score
      L1  H     6    21       P1  8029  0.10
      L1  H     9    22       P1  8028  0.30
      P1  H  6933  6944       L1     4  0.70
      P1  H  6934  6946       L1     4  0.19
      P1  H  7989  7998       L1    16  0.18

> <Gold.Chemscore.Hbond.Weighted>
-10.0300

> <Gold.Chemscore.Metal.Weighted>
-0.0000

> <Gold.Chemscore.Lipo.Weighted>
-6.4256

> <Gold.Chemscore.Internal_Hbond.Weighted>
0.0000

> <Gold.Chemscore.DEClash.Weighted>
0.3482

> <Gold.Chemscore.DEInternal.Weighted>
0.6452

> <Gold.Chemscore.Rot.Weighted>
3.3072

> <Gold.Chemscore.Internal.Correction.Weighted>
   9.000000E+99

> <Gold.Protein.RotatedTorsions>
[ 6907 6896 6895 6894 ] final   41.69 input  -60.11 | X-H torsion
[ 7974 7965 7964 7962 ] final  -64.02 input  175.53 | X-H torsion
[ 8008 7997 7996 7995 ] final   63.28 input   59.86 | X-H torsion
[ 10167 10162 10161 10158 ] final  118.30 input  -65.29 | X-H torsion
[ 10718 10713 10712 10709 ] final  -42.11 input   66.30 | X-H torsion
[ 10763 10752 10751 10750 ] final  -52.62 input  -60.55 | X-H torsion
[ 11005 11000 10999 10996 ] final   36.81 input  -57.11 | X-H torsion

> <Gold.Protein.ActiveResidues>
 VAL166  LYS551  ARG553  GLY616  TRP617  ASP618  TYR619  PRO620  LYS621  CYS622 
 ASP623  PHE694  ASN695  SER759  ASP760  ASP761  ALA762  ILE779  LEU786  VAL792 
 PHE793  MET794  SER795  GLU796  ALA797  LYS798  CYS799  TRP800  GLU811  SER814 

> <Gold.Protein.RotatedAtoms>
  152.1984  134.8610  160.0510 H   0  0  0  0  0  0  0  0  0  0  0  0  # atno 6907 bound_to 6896
  151.9472  133.3650  159.3995 H   0  0  0  0  0  0  0  0  0  0  0  0  # atno 6908 bound_to 6896
  150.6949  134.4302  159.5289 H   0  0  0  0  0  0  0  0  0  0  0  0  # atno 6909 bound_to 6896
  145.7719  140.8808  143.0375 H   0  0  0  0  0  0  0  0  0  0  0  0  # atno 7974 bound_to 7965
  155.6277  140.3496  155.4672 H   0  0  0  0  0  0  0  0  0  0  0  0  # atno 8008 bound_to 7997
  156.0028  140.1217  157.0554 H   0  0  0  0  0  0  0  0  0  0  0  0  # atno 8009 bound_to 7997
  154.4254  140.1097  156.5707 H   0  0  0  0  0  0  0  0  0  0  0  0  # atno 8010 bound_to 7997
  139.6121  144.7084  151.2822 H   0  0  0  0  0  0  0  0  0  0  0  0  # atno 10167 bound_to 10162
  156.2631  130.4199  149.8520 H   0  0  0  0  0  0  0  0  0  0  0  0  # atno 10718 bound_to 10713
  154.1457  135.6498  153.4952 H   0  0  0  0  0  0  0  0  0  0  0  0  # atno 10763 bound_to 10752
  153.0153  135.5326  154.6860 H   0  0  0  0  0  0  0  0  0  0  0  0  # atno 10764 bound_to 10752
  154.6133  135.2956  155.0379 H   0  0  0  0  0  0  0  0  0  0  0  0  # atno 10765 bound_to 10752
  140.2289  134.3552  155.7972 H   0  0  0  0  0  0  0  0  0  0  0  0  # atno 11005 bound_to 11000
  144.6811  139.9867  143.7484 LP  0  0  0  0  0  0  0  0  0  0  0  0  # atno 17320 bound_to 7965
  146.0161  139.3211  143.0841 LP  0  0  0  0  0  0  0  0  0  0  0  0  # atno 17321 bound_to 7965
  140.7326  143.6819  150.7994 LP  0  0  0  0  0  0  0  0  0  0  0  0  # atno 17342 bound_to 10162
  140.0415  143.5341  152.2715 LP  0  0  0  0  0  0  0  0  0  0  0  0  # atno 17343 bound_to 10162
  156.6028  130.8554  151.3436 LP  0  0  0  0  0  0  0  0  0  0  0  0  # atno 17370 bound_to 10713
  157.7258  130.9620  150.1628 LP  0  0  0  0  0  0  0  0  0  0  0  0  # atno 17371 bound_to 10713
  141.2219  133.7234  156.8698 LP  0  0  0  0  0  0  0  0  0  0  0  0  # atno 17394 bound_to 11000
  140.1772  134.9059  157.2904 LP  0  0  0  0  0  0  0  0  0  0  0  0  # atno 17395 bound_to 11000

$$$$
