AV-unprocessed.smi:1952|AV-procd|sdf|7889|dock6
  -GOLD-   2272010 43D 1   1.00000     0.00000
 Structure written by MMmdl.
 39 40  0  0  0  0  0  0  0  0  3 V2000
  152.3572  140.6736  159.3170 C   0  0  0  0  0  0  0  0  0  0  0  0
  152.0804  140.3972  157.8791 C   0  0  0  0  0  0  0  0  0  0  0  0
  151.0398  140.7171  157.0539 C   0  0  0  0  0  0  0  0  0  0  0  0
  151.4251  140.1474  155.8102 C   0  0  0  0  0  0  0  0  0  0  0  0
  150.7155  140.1874  154.6720 N   0  5  0  0  0  0  0  0  0  0  0  0
  149.3699  140.0677  154.7075 C   0  0  0  0  0  0  0  0  0  0  0  0
  148.6691  140.0112  155.7204 O   0  0  0  0  0  0  0  0  0  0  0  0
  148.7992  140.0459  153.4933 N   0  0  0  0  0  0  0  0  0  0  0  0
  147.3647  140.0281  153.2001 C   0  0  2  0  0  0  0  0  0  0  0  0
  146.7229  141.3162  153.7324 C   0  0  0  0  0  0  0  0  0  0  0  0
  146.6982  138.7713  153.8049 C   0  0  0  0  0  0  0  0  0  0  0  0
  146.4901  137.6970  152.8020 N   0  3  0  0  0  0  0  0  0  0  0  0
  145.6410  136.5864  153.2896 C   0  0  0  0  0  0  0  0  0  0  0  0
  145.5742  135.4738  152.2294 C   0  0  0  0  0  0  0  0  0  0  0  0
  145.0827  136.0073  151.0049 O   0  0  0  0  0  0  0  0  0  0  0  0
  145.9288  137.0291  150.4893 C   0  0  0  0  0  0  0  0  0  0  0  0
  145.9995  138.1909  151.4935 C   0  0  0  0  0  0  0  0  0  0  0  0
  152.5901  139.5239  155.8776 N   0  0  0  0  0  0  0  0  0  0  0  0
  153.0202  139.6859  157.2002 O   0  0  0  0  0  0  0  0  0  0  0  0
  152.6527  139.7624  159.8370 H   0  0  0  0  0  0  0  0  0  0  0  0
  151.4732  141.0742  159.8132 H   0  0  0  0  0  0  0  0  0  0  0  0
  153.1627  141.4004  159.4219 H   0  0  0  0  0  0  0  0  0  0  0  0
  150.1464  141.2718  157.2989 H   0  0  0  0  0  0  0  0  0  0  0  0
  149.4210  140.0820  152.6985 H   0  0  0  0  0  0  0  0  0  0  0  0
  147.2151  140.0239  152.1195 H   0  0  0  0  0  0  0  0  0  0  0  0
  145.6569  141.3460  153.5053 H   0  0  0  0  0  0  0  0  0  0  0  0
  147.1797  142.1976  153.2810 H   0  0  0  0  0  0  0  0  0  0  0  0
  146.8354  141.4006  154.8140 H   0  0  0  0  0  0  0  0  0  0  0  0
  147.3477  138.3947  154.5966 H   0  0  0  0  0  0  0  0  0  0  0  0
  145.7509  139.0232  154.2839 H   0  0  0  0  0  0  0  0  0  0  0  0
  146.0522  136.1826  154.2155 H   0  0  0  0  0  0  0  0  0  0  0  0
  144.6401  136.9583  153.5139 H   0  0  0  0  0  0  0  0  0  0  0  0
  146.5568  135.0244  152.0751 H   0  0  0  0  0  0  0  0  0  0  0  0
  144.9081  134.6771  152.5611 H   0  0  0  0  0  0  0  0  0  0  0  0
  146.9236  136.6289  150.2858 H   0  0  0  0  0  0  0  0  0  0  0  0
  145.5243  137.3774  149.5389 H   0  0  0  0  0  0  0  0  0  0  0  0
  145.0139  138.6424  151.6157 H   0  0  0  0  0  0  0  0  0  0  0  0
  146.6605  138.9667  151.1083 H   0  0  0  0  0  0  0  0  0  0  0  0
  147.4034  137.2955  152.6376 H   0  0  0  0  0  0  0  0  0  0  0  0
  1  2  1  0  0  0  0
  1 20  1  0  0  0  0
  1 21  1  0  0  0  0
  1 22  1  0  0  0  0
  2 19  1  0  0  0  0
  2  3  2  0  0  0  0
  3  4  1  0  0  0  0
  3 23  1  0  0  0  0
  4  5  1  0  0  0  0
  4 18  2  0  0  0  0
  5  6  1  0  0  0  0
  6  7  2  0  0  0  0
  6  8  1  0  0  0  0
  8  9  1  0  0  0  0
  8 24  1  0  0  0  0
  9 10  1  0  0  0  0
  9 11  1  0  0  0  0
  9 25  1  0  0  0  0
 10 26  1  0  0  0  0
 10 27  1  0  0  0  0
 10 28  1  0  0  0  0
 11 12  1  0  0  0  0
 11 29  1  0  0  0  0
 11 30  1  0  0  0  0
 12 17  1  0  0  0  0
 12 13  1  0  0  0  0
 12 39  1  0  0  0  0
 13 14  1  0  0  0  0
 13 31  1  0  0  0  0
 13 32  1  0  0  0  0
 14 15  1  0  0  0  0
 14 33  1  0  0  0  0
 14 34  1  0  0  0  0
 15 16  1  0  0  0  0
 16 17  1  0  0  0  0
 16 35  1  0  0  0  0
 16 36  1  0  0  0  0
 17 37  1  0  0  0  0
 17 38  1  0  0  0  0
 18 19  1  0  0  0  0
M  CHG  1   5  -1
M  CHG  1  12   1
M  END
> <s_m_source_file>
AV-unprocessed.smi

> <i_m_source_file_index>
1952

> <i_lp_mmshare_version>
43012

> <i_f3d_flags>
0

> <s_epik_input>
W0NIM11jMVtjSF1jKG5vMSlbTkhdQyg9TylbTkhdW0NASF0oW0NIM10pW0NIMl1OMltDSDJdW0NIMl1PW0NIMl1bQ0gyXTI=

> <s_epik_cmdline>
J2VwaWtfcHl0aG9uJywgJy1waCcsICc3LjAnLCAnLXRuJywgJzgnLCAnLW1hJywgJzIwMCcsICctbWV0YWxfYmluZGluZycsICctaW1hZScsICc8aW5maWxlLm1hZT4nLCAnLW9tYWUnLCAnPG91dGZpbGUubWFlPic=

> <r_epik_Ionization_Penalty>
6.62152

> <r_epik_Ionization_Penalty_Charging>
6.62142

> <r_epik_Ionization_Penalty_Neutral>
9.8734e-05

> <r_epik_State_Penalty>
6.82189

> <r_epik_Charging_Adjusted_Penalty>
13.4433

> <i_epik_Tot_Q>
0

> <i_epik_Tot_abs_Q>
2

> <r_epik_Metal_State_Penalty>
2.76365

> <b_epik_Metal_Only>
1

> <s_lp_Force_Field>
OPLS_2005

> <r_lp_Energy>
7.85486

> <b_lp_Chiralities_Consistent>
1

> <s_lp_Variant>
AV-unprocessed.smi:1952-7

> <Gold.Version>
5.8.1

> <Gold.Id.Protein>
6NUR|6NUR_protein|mol2

> <Gold.PLP.Fitness>
40.3050

> <Gold.PLP.PLP>
-27.3571

> <Gold.PLP.part.hbond>
-4.5290

> <Gold.PLP.part.metal>
0.0000

> <Gold.PLP.part.buried>
1.3906

> <Gold.PLP.part.nonpolar>
-25.5437

> <Gold.PLP.part.repulsive>
0.5082

> <Gold.PLP.ligand.clash>
0.0000

> <Gold.PLP.ligand.torsion>
0.9777

> <Gold.PLP.Chemscore.Hbond>
4.9440

> <Gold.PLP.Chemscore.CHOScore>
0.0000

> <Gold.PLP.Chemscore.Metal>
0.0000

> <Gold.Chemscore.Hbonds>
donor molecule, donor type, donor heavy atom, donor atom, acceptor molecule, acceptor atom, score
      L1  H     8    24       P1  7957  0.98
      L1  H    12    39       P1  7948  2.00
      P1  H  7989  7998       L1     5  1.00
      P1  H  7997  8009       L1    19  0.98

> <Gold.PLP.Chemscore.Internal.Correction>
0.0712

> <Gold.Rescore>
     Score         DG    S(hbond)    S(metal)    S(lipo)     H(rot)  DE(clash)    DE(int)     intcor
     13.51     -17.80       2.92        0.00      56.60       1.58       0.54       3.75       ----

> <Gold.Chemscore.Fitness>
13.5126

> <Gold.Chemscore.DG>
-17.8042

> <Gold.Chemscore.ZeroCoef>
-5.4800

> <Gold.Chemscore.Hbond>
2.9182

> <Gold.Chemscore.Metal>
0.0000

> <Gold.Chemscore.Lipo>
56.5951

> <Gold.Chemscore.Internal_Hbond>
0.0000

> <Gold.Chemscore.DEClash>
0.5389

> <Gold.Chemscore.DEInternal>
3.7527

> <Gold.Chemscore.Rot>
1.5798

> <Gold.Chemscore.Internal.Correction>
   9.000000E+99

> <Gold.Chemscore.Hbonds>
donor molecule, donor type, donor heavy atom, donor atom, acceptor molecule, acceptor atom, score
      L1  H     8    24       P1  7957  0.89
      L1  H    12    39       P1  7948  0.93
      P1  H  7989  7998       L1     5  0.70
      P1  H  7997  8009       L1    19  0.28

> <Gold.Chemscore.Hbond.Weighted>
-9.7467

> <Gold.Chemscore.Metal.Weighted>
-0.0000

> <Gold.Chemscore.Lipo.Weighted>
-6.6216

> <Gold.Chemscore.Internal_Hbond.Weighted>
0.0000

> <Gold.Chemscore.DEClash.Weighted>
0.5389

> <Gold.Chemscore.DEInternal.Weighted>
3.7527

> <Gold.Chemscore.Rot.Weighted>
4.0442

> <Gold.Chemscore.Internal.Correction.Weighted>
   9.000000E+99

> <Gold.Protein.RotatedTorsions>
[ 6907 6896 6895 6894 ] final   -1.28 input  -60.11 | X-H torsion
[ 7974 7965 7964 7962 ] final  138.29 input  175.53 | X-H torsion
[ 8008 7997 7996 7995 ] final  156.33 input   59.86 | X-H torsion
[ 10167 10162 10161 10158 ] final   43.63 input  -65.29 | X-H torsion
[ 10718 10713 10712 10709 ] final  126.17 input   66.30 | X-H torsion
[ 10763 10752 10751 10750 ] final   -3.51 input  -60.55 | X-H torsion
[ 11005 11000 10999 10996 ] final  174.12 input  -57.11 | X-H torsion

> <Gold.Protein.ActiveResidues>
 VAL166  LYS551  ARG553  GLY616  TRP617  ASP618  TYR619  PRO620  LYS621  CYS622 
 ASP623  PHE694  ASN695  SER759  ASP760  ASP761  ALA762  ILE779  LEU786  VAL792 
 PHE793  MET794  SER795  GLU796  ALA797  LYS798  CYS799  TRP800  GLU811  SER814 

> <Gold.Protein.RotatedAtoms>
  151.5487  135.1067  159.9943 H   0  0  0  0  0  0  0  0  0  0  0  0  # atno 6907 bound_to 6896
  152.4502  133.7609  159.6757 H   0  0  0  0  0  0  0  0  0  0  0  0  # atno 6908 bound_to 6896
  150.8428  133.7842  159.3078 H   0  0  0  0  0  0  0  0  0  0  0  0  # atno 6909 bound_to 6896
  144.9386  139.4958  143.5583 H   0  0  0  0  0  0  0  0  0  0  0  0  # atno 7974 bound_to 7965
  156.2428  140.1915  156.6938 H   0  0  0  0  0  0  0  0  0  0  0  0  # atno 8008 bound_to 7997
  154.6232  140.0606  156.9667 H   0  0  0  0  0  0  0  0  0  0  0  0  # atno 8009 bound_to 7997
  155.1829  140.3278  155.4374 H   0  0  0  0  0  0  0  0  0  0  0  0  # atno 8010 bound_to 7997
  140.3424  144.2453  150.6154 H   0  0  0  0  0  0  0  0  0  0  0  0  # atno 10167 bound_to 10162
  157.5441  131.1096  150.8810 H   0  0  0  0  0  0  0  0  0  0  0  0  # atno 10718 bound_to 10713
  153.3724  135.6995  153.6627 H   0  0  0  0  0  0  0  0  0  0  0  0  # atno 10763 bound_to 10752
  153.5272  135.3599  155.2660 H   0  0  0  0  0  0  0  0  0  0  0  0  # atno 10764 bound_to 10752
  154.8683  135.4172  154.3005 H   0  0  0  0  0  0  0  0  0  0  0  0  # atno 10765 bound_to 10752
  140.3479  134.7220  157.4247 H   0  0  0  0  0  0  0  0  0  0  0  0  # atno 11005 bound_to 11000
  146.3276  139.8389  142.8894 LP  0  0  0  0  0  0  0  0  0  0  0  0  # atno 17320 bound_to 7965
  145.3027  141.0198  143.3599 LP  0  0  0  0  0  0  0  0  0  0  0  0  # atno 17321 bound_to 7965
  140.5296  143.2246  151.8260 LP  0  0  0  0  0  0  0  0  0  0  0  0  # atno 17342 bound_to 10162
  139.4838  144.4737  151.9394 LP  0  0  0  0  0  0  0  0  0  0  0  0  # atno 17343 bound_to 10162
  156.9354  130.5365  149.5279 LP  0  0  0  0  0  0  0  0  0  0  0  0  # atno 17370 bound_to 10713
  156.0521  130.5589  150.9012 LP  0  0  0  0  0  0  0  0  0  0  0  0  # atno 17371 bound_to 10713
  140.0727  134.5840  155.8624 LP  0  0  0  0  0  0  0  0  0  0  0  0  # atno 17394 bound_to 11000
  141.2020  133.6622  156.5984 LP  0  0  0  0  0  0  0  0  0  0  0  0  # atno 17395 bound_to 11000

$$$$
