AV-unprocessed.smi:160|AV-procd|sdf|1371|dock7
  -GOLD-   2262019 93D 1   1.00000     0.00000
 Structure written by MMmdl.
 28 29  0  0  0  0  0  0  0  0  2 V2000
  152.1806  137.2196  153.9095 N   0  5  0  0  0  0  0  0  0  0  0  0
  152.6174  138.3340  154.5357 C   0  0  0  0  0  0  0  0  0  0  0  0
  153.7919  138.6529  154.7181 O   0  0  0  0  0  0  0  0  0  0  0  0
  151.5204  139.2415  155.0395 C   0  0  0  0  0  0  0  0  0  0  0  0
  151.7847  140.1984  155.9806 N   0  0  0  0  0  0  0  0  0  0  0  0
  150.5710  140.7187  156.1010 C   0  0  0  0  0  0  0  0  0  0  0  0
  149.6517  140.1532  155.3140 N   0  0  0  0  0  0  0  0  0  0  0  0
  148.1910  140.4483  155.1781 C   0  0  2  0  0  0  0  0  0  0  0  0
  147.4946  139.2825  155.5019 O   0  0  0  0  0  0  0  0  0  0  0  0
  146.5061  139.0024  154.5136 C   0  0  2  0  0  0  0  0  0  0  0  0
  146.1890  137.4972  154.4629 C   0  0  0  0  0  0  0  0  0  0  0  0
  147.3773  136.7547  154.2881 O   0  0  0  0  0  0  0  0  0  0  0  0
  147.0841  139.6026  153.2241 C   0  0  2  0  0  0  0  0  0  0  0  0
  147.9735  138.6981  152.5919 O   0  0  0  0  0  0  0  0  0  0  0  0
  147.7833  140.8517  153.7463 C   0  0  2  0  0  0  0  0  0  0  0  0
  148.8285  141.3107  152.9048 O   0  0  0  0  0  0  0  0  0  0  0  0
  150.2571  139.1657  154.6100 N   0  0  0  0  0  0  0  0  0  0  0  0
  148.0027  141.2332  155.9117 H   0  0  0  0  0  0  0  0  0  0  0  0
  145.6066  139.5661  154.7686 H   0  0  0  0  0  0  0  0  0  0  0  0
  146.2998  139.8543  152.5096 H   0  0  0  0  0  0  0  0  0  0  0  0
  147.0461  141.6498  153.8419 H   0  0  0  0  0  0  0  0  0  0  0  0
  151.4992  137.3231  153.1480 H   0  0  0  0  0  0  0  0  0  0  0  0
  150.3476  141.5309  156.7769 H   0  0  0  0  0  0  0  0  0  0  0  0
  145.7411  137.1753  155.4033 H   0  0  0  0  0  0  0  0  0  0  0  0
  145.4782  137.2681  153.6681 H   0  0  0  0  0  0  0  0  0  0  0  0
  147.6923  136.8981  153.4088 H   0  0  0  0  0  0  0  0  0  0  0  0
  148.4359  139.1618  151.9103 H   0  0  0  0  0  0  0  0  0  0  0  0
  149.1563  140.5796  152.4043 H   0  0  0  0  0  0  0  0  0  0  0  0
  1  2  1  0  0  0  0
  1 22  1  0  0  0  0
  2  3  2  0  0  0  0
  2  4  1  0  0  0  0
  4 17  2  0  0  0  0
  4  5  1  0  0  0  0
  5  6  2  0  0  0  0
  6  7  1  0  0  0  0
  6 23  1  0  0  0  0
  7  8  1  0  0  0  0
  7 17  1  0  0  0  0
  8 18  1  0  0  0  0
  8 15  1  0  0  0  0
  8  9  1  0  0  0  0
  9 10  1  0  0  0  0
 10 19  1  0  0  0  0
 10 11  1  0  0  0  0
 10 13  1  0  0  0  0
 11 12  1  0  0  0  0
 11 24  1  0  0  0  0
 11 25  1  0  0  0  0
 12 26  1  0  0  0  0
 13 20  1  0  0  0  0
 13 14  1  0  0  0  0
 13 15  1  0  0  0  0
 14 27  1  0  0  0  0
 15 21  1  0  0  0  0
 15 16  1  0  0  0  0
 16 28  1  0  0  0  0
M  CHG  1   1  -1
M  END
> <s_m_source_file>
AV-unprocessed.smi

> <i_m_source_file_index>
160

> <i_lp_mmshare_version>
43012

> <i_f3d_flags>
0

> <s_epik_input>
W05IMl1DKD1PKWMxbltjSF1uKG4xKVtDQEBIXTJPW0NASF0oW0NIMl1bT0hdKVtDQEBIXShbT0hdKVtDQEhdMltPSF0=

> <s_epik_cmdline>
J2VwaWtfcHl0aG9uJywgJy1waCcsICc3LjAnLCAnLXRuJywgJzgnLCAnLW1hJywgJzIwMCcsICctbWV0YWxfYmluZGluZycsICctaW1hZScsICc8aW5maWxlLm1hZT4nLCAnLW9tYWUnLCAnPG91dGZpbGUubWFlPic=

> <r_lp_tautomer_probability>
1

> <r_epik_Ionization_Penalty>
6.6993

> <r_epik_Ionization_Penalty_Charging>
6.6993

> <r_epik_Ionization_Penalty_Neutral>
6.01698e-06

> <r_epik_State_Penalty>
6.69929

> <r_epik_Charging_Adjusted_Penalty>
13.3986

> <i_epik_Tot_Q>
-1

> <i_epik_Tot_abs_Q>
1

> <r_epik_Metal_State_Penalty>
2.62798

> <b_epik_Metal_Only>
1

> <s_epik_Chemistry_Notes>
This compound contains an acetal/aminal-like group ( X-CH(R)-Y where X, Y are N, S, or O) that may be acid/base labile, releasing an aldehyde.

> <s_lp_Force_Field>
OPLS_2005

> <r_lp_Energy>
51.4861

> <b_lp_Chiralities_Consistent>
1

> <s_lp_Variant>
AV-unprocessed.smi:160-29

> <Gold.Version>
5.8.1

> <Gold.Id.Protein>
6NUR|6NUR_protein|mol2

> <Gold.PLP.Fitness>
45.5232

> <Gold.PLP.PLP>
-26.0097

> <Gold.PLP.part.hbond>
-7.5518

> <Gold.PLP.part.metal>
0.0000

> <Gold.PLP.part.buried>
-3.4240

> <Gold.PLP.part.nonpolar>
-15.6130

> <Gold.PLP.part.repulsive>
0.1426

> <Gold.PLP.ligand.clash>
0.0000

> <Gold.PLP.ligand.torsion>
0.1510

> <Gold.PLP.Chemscore.Hbond>
6.6028

> <Gold.PLP.Chemscore.CHOScore>
0.0000

> <Gold.PLP.Chemscore.Metal>
0.0000

> <Gold.Chemscore.Hbonds>
donor molecule, donor type, donor heavy atom, donor atom, acceptor molecule, acceptor atom, score
      L1  H     1    22       P1  7949  0.38
      L1  H    12    26       P1  7948  0.77
      L1  H    14    27       P1  7957  1.00
      L1  H    16    28       P1  7957  0.71
      P1  H  7997  8008       L1     3  0.82
      P1  H  8011  8017       L1    16  0.90
      P1  H 10752 10764       L1     1  1.86

> <Gold.PLP.Chemscore.Internal.Correction>
0.0072

> <Gold.Rescore>
     Score         DG    S(hbond)    S(metal)    S(lipo)     H(rot)  DE(clash)    DE(int)     intcor
     12.21     -13.83       4.98        0.00      17.76       4.04       1.35       0.27       ----

> <Gold.Chemscore.Fitness>
12.2110

> <Gold.Chemscore.DG>
-13.8331

> <Gold.Chemscore.ZeroCoef>
-5.4800

> <Gold.Chemscore.Hbond>
4.9754

> <Gold.Chemscore.Metal>
0.0000

> <Gold.Chemscore.Lipo>
17.7633

> <Gold.Chemscore.Internal_Hbond>
0.0000

> <Gold.Chemscore.DEClash>
1.3502

> <Gold.Chemscore.DEInternal>
0.2720

> <Gold.Chemscore.Rot>
4.0403

> <Gold.Chemscore.Internal.Correction>
   9.000000E+99

> <Gold.Chemscore.Hbonds>
donor molecule, donor type, donor heavy atom, donor atom, acceptor molecule, acceptor atom, score
      L1  H     1    22       P1  7949  0.34
      L1  H    12    26       P1  7948  0.73
      L1  H    14    27       P1  7957  0.97
      L1  H    16    28       P1  7957  0.68
      P1  H  7997  8008       L1     3  0.75
      P1  H  8011  8017       L1    16  0.17
      P1  H 10752 10764       L1     1  0.83

> <Gold.Chemscore.Hbond.Weighted>
-16.6179

> <Gold.Chemscore.Metal.Weighted>
-0.0000

> <Gold.Chemscore.Lipo.Weighted>
-2.0783

> <Gold.Chemscore.Internal_Hbond.Weighted>
0.0000

> <Gold.Chemscore.DEClash.Weighted>
1.3502

> <Gold.Chemscore.DEInternal.Weighted>
0.2720

> <Gold.Chemscore.Rot.Weighted>
10.3431

> <Gold.Chemscore.Internal.Correction.Weighted>
   9.000000E+99

> <Gold.Protein.RotatedTorsions>
[ 6907 6896 6895 6894 ] final -106.24 input  -60.11 | X-H torsion
[ 7974 7965 7964 7962 ] final   64.92 input  175.53 | X-H torsion
[ 8008 7997 7996 7995 ] final  -16.92 input   59.86 | X-H torsion
[ 10167 10162 10161 10158 ] final  -83.97 input  -65.29 | X-H torsion
[ 10718 10713 10712 10709 ] final -153.12 input   66.30 | X-H torsion
[ 10763 10752 10751 10750 ] final  -99.74 input  -60.55 | X-H torsion
[ 11005 11000 10999 10996 ] final -108.42 input  -57.11 | X-H torsion

> <Gold.Protein.ActiveResidues>
 VAL166  LYS551  ARG553  GLY616  TRP617  ASP618  TYR619  PRO620  LYS621  CYS622 
 ASP623  PHE694  ASN695  SER759  ASP760  ASP761  ALA762  ILE779  LEU786  VAL792 
 PHE793  MET794  SER795  GLU796  ALA797  LYS798  CYS799  TRP800  GLU811  SER814 

> <Gold.Protein.RotatedAtoms>
  150.7379  134.0005  159.3636 H   0  0  0  0  0  0  0  0  0  0  0  0  # atno 6907 bound_to 6896
  151.7959  135.0720  160.0403 H   0  0  0  0  0  0  0  0  0  0  0  0  # atno 6908 bound_to 6896
  152.3175  133.5781  159.5758 H   0  0  0  0  0  0  0  0  0  0  0  0  # atno 6909 bound_to 6896
  145.8445  139.3216  143.0912 H   0  0  0  0  0  0  0  0  0  0  0  0  # atno 7974 bound_to 7965
  154.5017  140.2156  155.9333 H   0  0  0  0  0  0  0  0  0  0  0  0  # atno 8008 bound_to 7997
  156.1442  140.3174  155.8511 H   0  0  0  0  0  0  0  0  0  0  0  0  # atno 8009 bound_to 7997
  155.4062  140.0487  157.3025 H   0  0  0  0  0  0  0  0  0  0  0  0  # atno 8010 bound_to 7997
  140.4176  143.2597  151.8933 H   0  0  0  0  0  0  0  0  0  0  0  0  # atno 10167 bound_to 10162
  156.4816  130.8305  151.2532 H   0  0  0  0  0  0  0  0  0  0  0  0  # atno 10718 bound_to 10713
  154.7522  135.4961  153.9310 H   0  0  0  0  0  0  0  0  0  0  0  0  # atno 10763 bound_to 10752
  153.1156  135.6720  153.9431 H   0  0  0  0  0  0  0  0  0  0  0  0  # atno 10764 bound_to 10752
  153.9178  135.3091  155.3427 H   0  0  0  0  0  0  0  0  0  0  0  0  # atno 10765 bound_to 10752
  141.0902  133.9068  157.2092 H   0  0  0  0  0  0  0  0  0  0  0  0  # atno 11005 bound_to 11000
  145.9428  140.8967  143.0299 LP  0  0  0  0  0  0  0  0  0  0  0  0  # atno 17320 bound_to 7965
  144.6732  140.1572  143.7425 LP  0  0  0  0  0  0  0  0  0  0  0  0  # atno 17321 bound_to 7965
  139.4782  144.5471  151.8441 LP  0  0  0  0  0  0  0  0  0  0  0  0  # atno 17342 bound_to 10162
  140.4569  144.1777  150.5902 LP  0  0  0  0  0  0  0  0  0  0  0  0  # atno 17343 bound_to 10162
  157.7483  131.0043  150.3071 LP  0  0  0  0  0  0  0  0  0  0  0  0  # atno 17370 bound_to 10713
  156.3516  130.3832  149.7324 LP  0  0  0  0  0  0  0  0  0  0  0  0  # atno 17371 bound_to 10713
  139.9727  135.0123  156.9552 LP  0  0  0  0  0  0  0  0  0  0  0  0  # atno 17394 bound_to 11000
  140.5269  134.0852  155.7306 LP  0  0  0  0  0  0  0  0  0  0  0  0  # atno 17395 bound_to 11000

$$$$
