AV-unprocessed.smi:386|AV-procd|sdf|2473|dock8
  -GOLD-   2262022413D 1   1.00000     0.00000
 Structure written by MMmdl.
 27 28  0  0  0  0  0  0  0  0  1 V2000
  152.0940  137.1419  159.5383 N   0  0  0  0  0  0  0  0  0  0  0  0
  151.9588  138.2410  159.2016 C   0  0  0  0  0  0  0  0  0  0  0  0
  151.8076  139.5881  158.7611 C   0  0  0  0  0  0  0  0  0  0  0  0
  152.5155  140.5983  159.3067 C   0  0  0  0  0  0  0  0  0  0  0  0
  152.3876  141.9046  158.8874 N   0  0  0  0  0  0  0  0  0  0  0  0
  153.0297  142.9817  159.5873 C   0  0  0  0  0  0  0  0  0  0  0  0
  152.8097  143.1674  161.0761 C   0  0  0  0  0  0  0  0  0  0  0  0
  152.1878  144.1315  160.0956 C   0  0  0  0  0  0  0  0  0  0  0  0
  151.4321  142.2438  157.9047 C   0  0  0  0  0  0  0  0  0  0  0  0
  151.2327  143.4190  157.5870 O   0  0  0  0  0  0  0  0  0  0  0  0
  150.6984  141.1927  157.3028 N   0  0  0  0  0  0  0  0  0  0  0  0
  149.7057  141.5285  156.2581 C   0  0  0  0  0  0  0  0  0  0  0  0
  150.0367  140.9323  154.8808 C   0  0  0  0  0  0  0  0  0  0  0  0
  149.1803  141.2056  153.8941 N   0  0  0  0  0  0  0  0  0  0  0  0
  151.0377  140.2397  154.7020 O   0  0  0  0  0  0  0  0  0  0  0  0
  150.8438  139.8363  157.6914 C   0  0  0  0  0  0  0  0  0  0  0  0
  150.1801  138.9472  157.1550 O   0  0  0  0  0  0  0  0  0  0  0  0
  153.2145  140.3771  160.1006 H   0  0  0  0  0  0  0  0  0  0  0  0
  154.0198  143.2464  159.2204 H   0  0  0  0  0  0  0  0  0  0  0  0
  152.1395  142.4797  161.5886 H   0  0  0  0  0  0  0  0  0  0  0  0
  153.6526  143.5217  161.6659 H   0  0  0  0  0  0  0  0  0  0  0  0
  152.6139  145.1308  160.0348 H   0  0  0  0  0  0  0  0  0  0  0  0
  151.1092  144.0766  159.9605 H   0  0  0  0  0  0  0  0  0  0  0  0
  148.7078  141.1954  156.5477 H   0  0  0  0  0  0  0  0  0  0  0  0
  149.6016  142.6096  156.1529 H   0  0  0  0  0  0  0  0  0  0  0  0
  149.3441  140.8405  152.9671 H   0  0  0  0  0  0  0  0  0  0  0  0
  148.3688  141.7772  154.0798 H   0  0  0  0  0  0  0  0  0  0  0  0
  1  2  3  0  0  0  0
  2  3  1  0  0  0  0
  3 16  1  0  0  0  0
  3  4  2  0  0  0  0
  4  5  1  0  0  0  0
  4 18  1  0  0  0  0
  5  6  1  0  0  0  0
  5  9  1  0  0  0  0
  6  8  1  0  0  0  0
  6  7  1  0  0  0  0
  6 19  1  0  0  0  0
  7  8  1  0  0  0  0
  7 20  1  0  0  0  0
  7 21  1  0  0  0  0
  8 22  1  0  0  0  0
  8 23  1  0  0  0  0
  9 10  2  0  0  0  0
  9 11  1  0  0  0  0
 11 12  1  0  0  0  0
 11 16  1  0  0  0  0
 12 13  1  0  0  0  0
 12 24  1  0  0  0  0
 12 25  1  0  0  0  0
 13 14  1  0  0  0  0
 13 15  2  0  0  0  0
 14 26  1  0  0  0  0
 14 27  1  0  0  0  0
 16 17  2  0  0  0  0
M  END
> <s_m_source_file>
AV-unprocessed.smi

> <i_m_source_file_index>
386

> <i_lp_mmshare_version>
43012

> <i_f3d_flags>
0

> <s_epik_input>
TiNDYzFbY0hdbihbQ0hdMltDSDJdW0NIMl0yKWMoPU8pbihjMT1PKVtDSDJdQyg9TylbTkgyXQ==

> <s_epik_cmdline>
J2VwaWtfcHl0aG9uJywgJy1waCcsICc3LjAnLCAnLXRuJywgJzgnLCAnLW1hJywgJzIwMCcsICctbWV0YWxfYmluZGluZycsICctaW1hZScsICc8aW5maWxlLm1hZT4nLCAnLW9tYWUnLCAnPG91dGZpbGUubWFlPic=

> <r_lp_tautomer_probability>
1

> <r_epik_Ionization_Penalty>
3.46323e-08

> <r_epik_Ionization_Penalty_Charging>
7.2855e-11

> <r_epik_Ionization_Penalty_Neutral>
3.45594e-08

> <r_epik_State_Penalty>
-0

> <r_epik_Charging_Adjusted_Penalty>
7.2855e-11

> <i_epik_Tot_Q>
0

> <i_epik_Tot_abs_Q>
0

> <r_epik_Metal_State_Penalty>
-0

> <b_epik_Metal_Only>
0

> <s_lp_Force_Field>
OPLS_2005

> <r_lp_Energy>
26.3068

> <b_lp_Chiralities_Consistent>
1

> <s_lp_Variant>
AV-unprocessed.smi:386-1

> <Gold.Version>
5.8.1

> <Gold.Id.Protein>
6NUR|6NUR_protein|mol2

> <Gold.PLP.Fitness>
42.0157

> <Gold.PLP.PLP>
-33.1104

> <Gold.PLP.part.hbond>
-3.0000

> <Gold.PLP.part.metal>
0.0000

> <Gold.PLP.part.buried>
-5.5051

> <Gold.PLP.part.nonpolar>
-25.2194

> <Gold.PLP.part.repulsive>
0.4106

> <Gold.PLP.ligand.clash>
0.0000

> <Gold.PLP.ligand.torsion>
0.1519

> <Gold.PLP.Chemscore.Hbond>
3.0000

> <Gold.PLP.Chemscore.CHOScore>
0.0000

> <Gold.PLP.Chemscore.Metal>
0.0000

> <Gold.Chemscore.Hbonds>
donor molecule, donor type, donor heavy atom, donor atom, acceptor molecule, acceptor atom, score
      L1  H    14    26       P1  7957  1.00
      P1  H  6896  6908       L1     1  0.89
      P1  H  7989  7998       L1    15  0.88

> <Gold.PLP.Chemscore.Internal.Correction>
0.2091

> <Gold.Rescore>
     Score         DG    S(hbond)    S(metal)    S(lipo)     H(rot)  DE(clash)    DE(int)     intcor
     14.63     -15.90       2.86        0.00      51.85       2.03       0.00       1.27       ----

> <Gold.Chemscore.Fitness>
14.6270

> <Gold.Chemscore.DG>
-15.8958

> <Gold.Chemscore.ZeroCoef>
-5.4800

> <Gold.Chemscore.Hbond>
2.8590

> <Gold.Chemscore.Metal>
0.0000

> <Gold.Chemscore.Lipo>
51.8524

> <Gold.Chemscore.Internal_Hbond>
0.0000

> <Gold.Chemscore.DEClash>
0.0009

> <Gold.Chemscore.DEInternal>
1.2679

> <Gold.Chemscore.Rot>
2.0313

> <Gold.Chemscore.Internal.Correction>
   9.000000E+99

> <Gold.Chemscore.Hbonds>
donor molecule, donor type, donor heavy atom, donor atom, acceptor molecule, acceptor atom, score
      L1  H    14    26       P1  7957  0.97
      P1  H  6896  6908       L1     1  0.87
      P1  H  7989  7998       L1    15  0.30

> <Gold.Chemscore.Hbond.Weighted>
-9.5492

> <Gold.Chemscore.Metal.Weighted>
-0.0000

> <Gold.Chemscore.Lipo.Weighted>
-6.0667

> <Gold.Chemscore.Internal_Hbond.Weighted>
0.0000

> <Gold.Chemscore.DEClash.Weighted>
0.0009

> <Gold.Chemscore.DEInternal.Weighted>
1.2679

> <Gold.Chemscore.Rot.Weighted>
5.2001

> <Gold.Chemscore.Internal.Correction.Weighted>
   9.000000E+99

> <Gold.Protein.RotatedTorsions>
[ 6907 6896 6895 6894 ] final -112.15 input  -60.11 | X-H torsion
[ 7974 7965 7964 7962 ] final -142.53 input  175.53 | X-H torsion
[ 8008 7997 7996 7995 ] final -106.54 input   59.86 | X-H torsion
[ 10167 10162 10161 10158 ] final  124.88 input  -65.29 | X-H torsion
[ 10718 10713 10712 10709 ] final   39.61 input   66.30 | X-H torsion
[ 10763 10752 10751 10750 ] final   94.03 input  -60.55 | X-H torsion
[ 11005 11000 10999 10996 ] final -131.38 input  -57.11 | X-H torsion

> <Gold.Protein.ActiveResidues>
 VAL166  LYS551  ARG553  GLY616  TRP617  ASP618  TYR619  PRO620  LYS621  CYS622 
 ASP623  PHE694  ASN695  SER759  ASP760  ASP761  ALA762  ILE779  LEU786  VAL792 
 PHE793  MET794  SER795  GLU796  ALA797  LYS798  CYS799  TRP800  GLU811  SER814 

> <Gold.Protein.RotatedAtoms>
  150.7739  133.9131  159.3375 H   0  0  0  0  0  0  0  0  0  0  0  0  # atno 6907 bound_to 6896
  151.7011  135.0928  160.0260 H   0  0  0  0  0  0  0  0  0  0  0  0  # atno 6908 bound_to 6896
  152.3767  133.6452  159.6165 H   0  0  0  0  0  0  0  0  0  0  0  0  # atno 6909 bound_to 6896
  144.8437  140.5947  143.5435 H   0  0  0  0  0  0  0  0  0  0  0  0  # atno 7974 bound_to 7965
  154.9161  140.0408  157.1972 H   0  0  0  0  0  0  0  0  0  0  0  0  # atno 8008 bound_to 7997
  154.8300  140.2897  155.5707 H   0  0  0  0  0  0  0  0  0  0  0  0  # atno 8009 bound_to 7997
  156.2986  140.2502  156.3223 H   0  0  0  0  0  0  0  0  0  0  0  0  # atno 8010 bound_to 7997
  139.5717  144.6942  151.3762 H   0  0  0  0  0  0  0  0  0  0  0  0  # atno 10167 bound_to 10162
  157.3726  130.7709  149.7130 H   0  0  0  0  0  0  0  0  0  0  0  0  # atno 10718 bound_to 10713
  153.2370  135.4304  155.0657 H   0  0  0  0  0  0  0  0  0  0  0  0  # atno 10763 bound_to 10752
  154.8323  135.3393  154.6704 H   0  0  0  0  0  0  0  0  0  0  0  0  # atno 10764 bound_to 10752
  153.7129  135.7021  153.5089 H   0  0  0  0  0  0  0  0  0  0  0  0  # atno 10765 bound_to 10752
  140.9264  134.1377  157.4272 H   0  0  0  0  0  0  0  0  0  0  0  0  # atno 11005 bound_to 11000
  145.4641  139.1510  143.3850 LP  0  0  0  0  0  0  0  0  0  0  0  0  # atno 17320 bound_to 7965
  146.2725  140.4772  142.8808 LP  0  0  0  0  0  0  0  0  0  0  0  0  # atno 17321 bound_to 7965
  140.7001  143.7653  150.7389 LP  0  0  0  0  0  0  0  0  0  0  0  0  # atno 17342 bound_to 10162
  140.1161  143.4655  152.2341 LP  0  0  0  0  0  0  0  0  0  0  0  0  # atno 17343 bound_to 10162
  155.9758  130.4083  150.3820 LP  0  0  0  0  0  0  0  0  0  0  0  0  # atno 17370 bound_to 10713
  157.1913  131.0416  151.2699 LP  0  0  0  0  0  0  0  0  0  0  0  0  # atno 17371 bound_to 10713
  139.8786  134.9989  156.5928 LP  0  0  0  0  0  0  0  0  0  0  0  0  # atno 17394 bound_to 11000
  140.7921  133.8574  155.8654 LP  0  0  0  0  0  0  0  0  0  0  0  0  # atno 17395 bound_to 11000

$$$$
