AV-unprocessed.smi:227|AV-procd|sdf|1736|dock7
  -GOLD-   2262020233D 1   1.00000     0.00000
 Structure written by MMmdl.
 54 58  0  0  0  0  0  0  0  0  1 V2000
  149.9509  141.7890  156.6175 O   0  0  0  0  0  0  0  0  0  0  0  0
  151.3059  141.4104  156.7495 C   0  0  0  0  0  0  0  0  0  0  0  0
  151.7988  141.5320  158.2151 C   0  0  1  0  0  0  0  0  0  0  0  0
  152.8847  140.4795  158.5630 C   0  0  0  0  0  0  0  0  0  0  0  0
  152.4342  139.1061  158.4246 N   0  0  0  0  0  0  0  0  0  0  0  0
  152.1890  138.2185  159.4452 C   0  0  0  0  0  0  0  0  0  0  0  0
  151.7836  137.0382  159.0660 N   0  0  0  0  0  0  0  0  0  0  0  0
  151.7381  137.1132  157.6775 C   0  0  0  0  0  0  0  0  0  0  0  0
  151.3746  136.2112  156.6321 C   0  0  0  0  0  0  0  0  0  0  0  0
  150.9461  134.9302  156.8118 N   0  0  0  0  0  0  0  0  0  0  0  0
  149.6135  134.6239  157.3116 C   0  0  2  0  0  0  0  0  0  0  0  0
  149.6796  133.1000  157.5120 C   0  0  0  0  0  0  0  0  0  0  0  0
  150.5887  132.6818  156.3478 C   0  0  0  0  0  0  0  0  0  0  0  0
  150.8466  134.0377  155.6640 C   0  0  1  0  0  0  0  0  0  0  0  0
  149.5841  134.5544  154.9263 C   0  0  1  0  0  0  0  0  0  0  0  0
  148.9547  133.5969  153.8978 C   0  0  0  0  0  0  0  0  0  0  0  0
  147.7056  134.1004  153.4746 O   0  0  0  0  0  0  0  0  0  0  0  0
  148.6826  134.9272  156.1193 C   0  0  0  0  0  0  0  0  0  0  0  0
  151.4842  136.6666  155.3559 N   0  0  0  0  0  0  0  0  0  0  0  0
  151.8982  137.9117  155.1089 C   0  0  0  0  0  0  0  0  0  0  0  0
  152.2549  138.8583  155.9769 N   0  0  0  0  0  0  0  0  0  0  0  0
  152.1600  138.4098  157.2607 C   0  0  0  0  0  0  0  0  0  0  0  0
  152.3160  142.9641  158.5094 C   0  0  1  0  0  0  0  0  0  0  0  0
  151.4896  144.0866  157.8802 C   0  0  0  0  0  0  0  0  0  0  0  0
  151.4977  145.2139  158.9173 C   0  0  0  0  0  0  0  0  0  0  0  0
  152.3807  144.7789  159.9390 O   0  0  0  0  0  0  0  0  0  0  0  0
  152.3058  143.3657  159.9868 C   0  0  0  0  0  0  0  0  0  0  0  0
  149.7666  141.9307  155.7014 H   0  0  0  0  0  0  0  0  0  0  0  0
  151.4417  140.3941  156.3783 H   0  0  0  0  0  0  0  0  0  0  0  0
  151.8711  142.0606  156.0831 H   0  0  0  0  0  0  0  0  0  0  0  0
  150.9440  141.3612  158.8717 H   0  0  0  0  0  0  0  0  0  0  0  0
  153.7627  140.6229  157.9318 H   0  0  0  0  0  0  0  0  0  0  0  0
  153.2246  140.6028  159.5911 H   0  0  0  0  0  0  0  0  0  0  0  0
  152.3168  138.4780  160.4860 H   0  0  0  0  0  0  0  0  0  0  0  0
  149.3255  135.1299  158.2311 H   0  0  0  0  0  0  0  0  0  0  0  0
  150.1428  132.8503  158.4673 H   0  0  0  0  0  0  0  0  0  0  0  0
  148.6979  132.6262  157.4767 H   0  0  0  0  0  0  0  0  0  0  0  0
  151.5219  132.2673  156.7311 H   0  0  0  0  0  0  0  0  0  0  0  0
  150.1423  131.9316  155.6966 H   0  0  0  0  0  0  0  0  0  0  0  0
  151.7318  134.0121  155.0276 H   0  0  0  0  0  0  0  0  0  0  0  0
  149.8611  135.4706  154.4011 H   0  0  0  0  0  0  0  0  0  0  0  0
  149.6018  133.4973  153.0262 H   0  0  0  0  0  0  0  0  0  0  0  0
  148.8047  132.6000  154.3116 H   0  0  0  0  0  0  0  0  0  0  0  0
  147.8524  134.7119  152.7692 H   0  0  0  0  0  0  0  0  0  0  0  0
  147.7567  134.3522  156.1606 H   0  0  0  0  0  0  0  0  0  0  0  0
  148.4180  135.9847  156.0836 H   0  0  0  0  0  0  0  0  0  0  0  0
  151.9496  138.1892  154.0665 H   0  0  0  0  0  0  0  0  0  0  0  0
  153.3419  143.0548  158.1486 H   0  0  0  0  0  0  0  0  0  0  0  0
  151.9238  144.4098  156.9335 H   0  0  0  0  0  0  0  0  0  0  0  0
  150.4632  143.7733  157.6841 H   0  0  0  0  0  0  0  0  0  0  0  0
  151.8272  146.1652  158.4990 H   0  0  0  0  0  0  0  0  0  0  0  0
  150.5013  145.3543  159.3388 H   0  0  0  0  0  0  0  0  0  0  0  0
  151.3785  143.0636  160.4772 H   0  0  0  0  0  0  0  0  0  0  0  0
  153.1446  142.9504  160.5456 H   0  0  0  0  0  0  0  0  0  0  0  0
  1  2  1  0  0  0  0
  1 28  1  0  0  0  0
  2  3  1  0  0  0  0
  2 29  1  0  0  0  0
  2 30  1  0  0  0  0
  3  4  1  0  0  0  0
  3 23  1  0  0  0  0
  3 31  1  0  0  0  0
  4  5  1  0  0  0  0
  4 32  1  0  0  0  0
  4 33  1  0  0  0  0
  5 22  1  0  0  0  0
  5  6  1  0  0  0  0
  6  7  2  0  0  0  0
  6 34  1  0  0  0  0
  7  8  1  0  0  0  0
  8 22  2  0  0  0  0
  8  9  1  0  0  0  0
  9 10  1  0  0  0  0
  9 19  2  0  0  0  0
 10 14  1  0  0  0  0
 10 11  1  0  0  0  0
 11 18  1  0  0  0  0
 11 12  1  0  0  0  0
 11 35  1  0  0  0  0
 12 13  1  0  0  0  0
 12 36  1  0  0  0  0
 12 37  1  0  0  0  0
 13 14  1  0  0  0  0
 13 38  1  0  0  0  0
 13 39  1  0  0  0  0
 14 15  1  0  0  0  0
 14 40  1  0  0  0  0
 15 16  1  0  0  0  0
 15 18  1  0  0  0  0
 15 41  1  0  0  0  0
 16 17  1  0  0  0  0
 16 42  1  0  0  0  0
 16 43  1  0  0  0  0
 17 44  1  0  0  0  0
 18 45  1  0  0  0  0
 18 46  1  0  0  0  0
 19 20  1  0  0  0  0
 20 21  2  0  0  0  0
 20 47  1  0  0  0  0
 21 22  1  0  0  0  0
 23 27  1  0  0  0  0
 23 24  1  0  0  0  0
 23 48  1  0  0  0  0
 24 25  1  0  0  0  0
 24 49  1  0  0  0  0
 24 50  1  0  0  0  0
 25 26  1  0  0  0  0
 25 51  1  0  0  0  0
 25 52  1  0  0  0  0
 26 27  1  0  0  0  0
 27 53  1  0  0  0  0
 27 54  1  0  0  0  0
M  END
> <s_m_source_file>
AV-unprocessed.smi

> <i_m_source_file_index>
227

> <i_lp_mmshare_version>
43012

> <i_f3d_flags>
0

> <s_epik_input>
W0NIMl0xT1tDSDJdW0NIMl1bQ0BIXTFbQ0BIXShbQ0gyXVtPSF0pW0NIMl1uKFtjSF1uMiljKGMyMyluW2NIXW5jM04oW0NASF00NSlbQ0BASF0oW0NIMl1bQ0gyXTQpW0NASF0oW0NIMl01KVtDSDJdW09IXQ==

> <s_epik_cmdline>
J2VwaWtfcHl0aG9uJywgJy1waCcsICc3LjAnLCAnLXRuJywgJzgnLCAnLW1hJywgJzIwMCcsICctbWV0YWxfYmluZGluZycsICctaW1hZScsICc8aW5maWxlLm1hZT4nLCAnLW9tYWUnLCAnPG91dGZpbGUubWFlPic=

> <r_lp_tautomer_probability>
1

> <r_epik_Ionization_Penalty>
0.0055791

> <r_epik_Ionization_Penalty_Charging>
0

> <r_epik_Ionization_Penalty_Neutral>
0.0055791

> <r_epik_State_Penalty>
0.00401299

> <r_epik_Charging_Adjusted_Penalty>
0.00401299

> <i_epik_Tot_Q>
0

> <i_epik_Tot_abs_Q>
0

> <r_epik_Metal_State_Penalty>
-0

> <b_epik_Metal_Only>
0

> <s_lp_Force_Field>
OPLS_2005

> <r_lp_Energy>
88.8293

> <b_lp_Chiralities_Consistent>
1

> <s_lp_Variant>
AV-unprocessed.smi:227-10

> <Gold.Version>
5.8.1

> <Gold.Id.Protein>
6NUR|6NUR_protein|mol2

> <Gold.PLP.Fitness>
49.7422

> <Gold.PLP.PLP>
-42.5547

> <Gold.PLP.part.hbond>
-3.5145

> <Gold.PLP.part.metal>
0.0000

> <Gold.PLP.part.buried>
-6.0798

> <Gold.PLP.part.nonpolar>
-31.9775

> <Gold.PLP.part.repulsive>
0.1502

> <Gold.PLP.ligand.clash>
0.0000

> <Gold.PLP.ligand.torsion>
1.1321

> <Gold.PLP.Chemscore.Hbond>
3.0975

> <Gold.PLP.Chemscore.CHOScore>
0.0000

> <Gold.PLP.Chemscore.Metal>
0.0000

> <Gold.Chemscore.Hbonds>
donor molecule, donor type, donor heavy atom, donor atom, acceptor molecule, acceptor atom, score
      L1  H    17    44       P1  7948  0.96
      P1  H  6896  6907       L1     7  0.84
      P1  H 10752 10764       L1    19  1.00

> <Gold.PLP.Chemscore.Internal.Correction>
0.1593

> <Gold.Rescore>
     Score         DG    S(hbond)    S(metal)    S(lipo)     H(rot)  DE(clash)    DE(int)     intcor
     13.38     -17.48       2.67        0.00     105.36       3.61       0.49       3.61       ----

> <Gold.Chemscore.Fitness>
13.3762

> <Gold.Chemscore.DG>
-17.4828

> <Gold.Chemscore.ZeroCoef>
-5.4800

> <Gold.Chemscore.Hbond>
2.6675

> <Gold.Chemscore.Metal>
0.0000

> <Gold.Chemscore.Lipo>
105.3623

> <Gold.Chemscore.Internal_Hbond>
0.0000

> <Gold.Chemscore.DEClash>
0.4925

> <Gold.Chemscore.DEInternal>
3.6141

> <Gold.Chemscore.Rot>
3.6071

> <Gold.Chemscore.Internal.Correction>
   9.000000E+99

> <Gold.Chemscore.Hbonds>
donor molecule, donor type, donor heavy atom, donor atom, acceptor molecule, acceptor atom, score
      L1  H    17    44       P1  7948  0.74
      P1  H  6896  6907       L1     7  0.77
      P1  H 10752 10764       L1    19  0.17

> <Gold.Chemscore.Hbond.Weighted>
-8.9096

> <Gold.Chemscore.Metal.Weighted>
-0.0000

> <Gold.Chemscore.Lipo.Weighted>
-12.3274

> <Gold.Chemscore.Internal_Hbond.Weighted>
0.0000

> <Gold.Chemscore.DEClash.Weighted>
0.4925

> <Gold.Chemscore.DEInternal.Weighted>
3.6141

> <Gold.Chemscore.Rot.Weighted>
9.2342

> <Gold.Chemscore.Internal.Correction.Weighted>
   9.000000E+99

> <Gold.Protein.RotatedTorsions>
[ 6907 6896 6895 6894 ] final   -6.17 input  -60.11 | X-H torsion
[ 7974 7965 7964 7962 ] final   99.78 input  175.53 | X-H torsion
[ 8008 7997 7996 7995 ] final  -49.15 input   59.86 | X-H torsion
[ 10167 10162 10161 10158 ] final -120.26 input  -65.29 | X-H torsion
[ 10718 10713 10712 10709 ] final    1.72 input   66.30 | X-H torsion
[ 10763 10752 10751 10750 ] final  -62.63 input  -60.55 | X-H torsion
[ 11005 11000 10999 10996 ] final -113.79 input  -57.11 | X-H torsion

> <Gold.Protein.ActiveResidues>
 VAL166  LYS551  ARG553  GLY616  TRP617  ASP618  TYR619  PRO620  LYS621  CYS622 
 ASP623  PHE694  ASN695  SER759  ASP760  ASP761  ALA762  ILE779  LEU786  VAL792 
 PHE793  MET794  SER795  GLU796  ALA797  LYS798  CYS799  TRP800  GLU811  SER814 

> <Gold.Protein.RotatedAtoms>
  151.4698  135.1045  159.9748 H   0  0  0  0  0  0  0  0  0  0  0  0  # atno 6907 bound_to 6896
  152.4821  133.8275  159.7096 H   0  0  0  0  0  0  0  0  0  0  0  0  # atno 6908 bound_to 6896
  150.8900  133.7195  159.2934 H   0  0  0  0  0  0  0  0  0  0  0  0  # atno 6909 bound_to 6896
  145.3943  139.2358  143.3335 H   0  0  0  0  0  0  0  0  0  0  0  0  # atno 7974 bound_to 7965
  154.4039  140.1304  156.4456 H   0  0  0  0  0  0  0  0  0  0  0  0  # atno 8008 bound_to 7997
  155.7417  140.3489  155.5087 H   0  0  0  0  0  0  0  0  0  0  0  0  # atno 8009 bound_to 7997
  155.9033  140.1023  157.1324 H   0  0  0  0  0  0  0  0  0  0  0  0  # atno 8010 bound_to 7997
  140.0378  143.5184  152.2145 H   0  0  0  0  0  0  0  0  0  0  0  0  # atno 10167 bound_to 10162
  156.8523  130.5558  149.5669 H   0  0  0  0  0  0  0  0  0  0  0  0  # atno 10718 bound_to 10713
  154.3028  135.6231  153.5432 H   0  0  0  0  0  0  0  0  0  0  0  0  # atno 10763 bound_to 10752
  152.9838  135.5682  154.5265 H   0  0  0  0  0  0  0  0  0  0  0  0  # atno 10764 bound_to 10752
  154.4899  135.2867  155.1481 H   0  0  0  0  0  0  0  0  0  0  0  0  # atno 10765 bound_to 10752
  141.0592  133.9563  157.2698 H   0  0  0  0  0  0  0  0  0  0  0  0  # atno 11005 bound_to 11000
  146.2783  140.4630  142.8787 LP  0  0  0  0  0  0  0  0  0  0  0  0  # atno 17320 bound_to 7965
  144.8418  140.6869  143.6224 LP  0  0  0  0  0  0  0  0  0  0  0  0  # atno 17321 bound_to 7965
  139.6034  144.7589  151.3119 LP  0  0  0  0  0  0  0  0  0  0  0  0  # atno 17342 bound_to 10162
  140.7274  143.6965  150.7880 LP  0  0  0  0  0  0  0  0  0  0  0  0  # atno 17343 bound_to 10162
  156.0821  130.5829  150.9582 LP  0  0  0  0  0  0  0  0  0  0  0  0  # atno 17370 bound_to 10713
  157.6296  131.0922  150.8467 LP  0  0  0  0  0  0  0  0  0  0  0  0  # atno 17371 bound_to 10713
  139.9417  135.0190  156.8729 LP  0  0  0  0  0  0  0  0  0  0  0  0  # atno 17394 bound_to 11000
  140.5903  134.0268  155.7497 LP  0  0  0  0  0  0  0  0  0  0  0  0  # atno 17395 bound_to 11000

$$$$
