AV-unprocessed.smi:1702|AV-procd|sdf|6848|dock4
  -GOLD-   22720 8 23D 1   1.00000     0.00000
 Structure written by MMmdl.
 44 46  0  0  0  0  0  0  0  0  2 V2000
  143.6359  142.8893  155.1822 C   0  0  0  0  0  0  0  0  0  0  0  0
  144.9599  143.5680  155.5762 C   0  0  2  0  0  0  0  0  0  0  0  0
  145.9647  143.6379  154.4118 C   0  0  0  0  0  0  0  0  0  0  0  0
  146.5976  142.2688  154.1046 C   0  0  0  0  0  0  0  0  0  0  0  0
  147.2413  141.6910  155.3144 N   0  3  2  0  0  0  0  0  0  0  0  0
  147.9770  140.4286  155.0431 C   0  0  0  0  0  0  0  0  0  0  0  0
  149.4508  140.6720  154.6620 C   0  0  1  0  0  0  0  0  0  0  0  0
  149.5064  141.1116  153.3179 O   0  0  0  0  0  0  0  0  0  0  0  0
  150.1119  141.7238  155.5737 C   0  0  0  0  0  0  0  0  0  0  0  0
  151.0253  141.1311  156.5347 N   0  0  0  0  0  0  0  0  0  0  0  0
  151.5741  139.9024  156.4766 C   0  0  0  0  0  0  0  0  0  0  0  0
  152.3928  139.5530  157.4642 N   0  0  0  0  0  0  0  0  0  0  0  0
  152.3734  140.6866  158.2584 C   0  0  0  0  0  0  0  0  0  0  0  0
  153.0404  140.9675  159.4722 C   0  0  0  0  0  0  0  0  0  0  0  0
  152.8676  142.2129  160.1113 C   0  0  0  0  0  0  0  0  0  0  0  0
  153.5151  142.4658  161.2735 F   0  0  0  0  0  0  0  0  0  0  0  0
  152.0260  143.1946  159.5472 C   0  0  0  0  0  0  0  0  0  0  0  0
  151.8667  144.3883  160.1663 F   0  0  0  0  0  0  0  0  0  0  0  0
  151.3499  142.9372  158.3391 C   0  0  0  0  0  0  0  0  0  0  0  0
  151.5256  141.6933  157.7048 C   0  0  0  0  0  0  0  0  0  0  0  0
  146.2740  141.5500  156.4333 C   0  0  0  0  0  0  0  0  0  0  0  0
  145.6320  142.9025  156.7907 C   0  0  0  0  0  0  0  0  0  0  0  0
  143.7778  141.8524  154.8783 H   0  0  0  0  0  0  0  0  0  0  0  0
  143.1610  143.4133  154.3523 H   0  0  0  0  0  0  0  0  0  0  0  0
  142.9323  142.8938  156.0152 H   0  0  0  0  0  0  0  0  0  0  0  0
  144.7094  144.5915  155.8581 H   0  0  0  0  0  0  0  0  0  0  0  0
  145.4818  144.0372  153.5190 H   0  0  0  0  0  0  0  0  0  0  0  0
  146.7574  144.3430  154.6661 H   0  0  0  0  0  0  0  0  0  0  0  0
  145.8448  141.5775  153.7234 H   0  0  0  0  0  0  0  0  0  0  0  0
  147.3309  142.3956  153.3092 H   0  0  0  0  0  0  0  0  0  0  0  0
  147.9522  139.7870  155.9256 H   0  0  0  0  0  0  0  0  0  0  0  0
  147.4619  139.8769  154.2552 H   0  0  0  0  0  0  0  0  0  0  0  0
  150.0203  139.7462  154.7371 H   0  0  0  0  0  0  0  0  0  0  0  0
  149.4415  140.3597  152.7486 H   0  0  0  0  0  0  0  0  0  0  0  0
  150.6560  142.4607  154.9816 H   0  0  0  0  0  0  0  0  0  0  0  0
  149.3490  142.2731  156.1271 H   0  0  0  0  0  0  0  0  0  0  0  0
  151.3616  139.2268  155.6607 H   0  0  0  0  0  0  0  0  0  0  0  0
  153.6875  140.2240  159.9134 H   0  0  0  0  0  0  0  0  0  0  0  0
  150.7061  143.6881  157.9069 H   0  0  0  0  0  0  0  0  0  0  0  0
  145.5085  140.8198  156.1674 H   0  0  0  0  0  0  0  0  0  0  0  0
  146.7863  141.1607  157.3140 H   0  0  0  0  0  0  0  0  0  0  0  0
  146.4039  143.5678  157.1803 H   0  0  0  0  0  0  0  0  0  0  0  0
  144.9103  142.7733  157.5982 H   0  0  0  0  0  0  0  0  0  0  0  0
  147.9343  142.3572  155.6259 H   0  0  0  0  0  0  0  0  0  0  0  0
  1  2  1  0  0  0  0
  1 23  1  0  0  0  0
  1 24  1  0  0  0  0
  1 25  1  0  0  0  0
  2 22  1  0  0  0  0
  2  3  1  0  0  0  0
  2 26  1  0  0  0  0
  3  4  1  0  0  0  0
  3 27  1  0  0  0  0
  3 28  1  0  0  0  0
  4  5  1  0  0  0  0
  4 29  1  0  0  0  0
  4 30  1  0  0  0  0
  5  6  1  0  0  0  0
  5 21  1  0  0  0  0
  5 44  1  0  0  0  0
  6  7  1  0  0  0  0
  6 31  1  0  0  0  0
  6 32  1  0  0  0  0
  7  8  1  0  0  0  0
  7  9  1  0  0  0  0
  7 33  1  0  0  0  0
  8 34  1  0  0  0  0
  9 10  1  0  0  0  0
  9 35  1  0  0  0  0
  9 36  1  0  0  0  0
 10 20  1  0  0  0  0
 10 11  1  0  0  0  0
 11 12  2  0  0  0  0
 11 37  1  0  0  0  0
 12 13  1  0  0  0  0
 13 20  2  0  0  0  0
 13 14  1  0  0  0  0
 14 15  2  0  0  0  0
 14 38  1  0  0  0  0
 15 16  1  0  0  0  0
 15 17  1  0  0  0  0
 17 18  1  0  0  0  0
 17 19  2  0  0  0  0
 19 20  1  0  0  0  0
 19 39  1  0  0  0  0
 21 22  1  0  0  0  0
 21 40  1  0  0  0  0
 21 41  1  0  0  0  0
 22 42  1  0  0  0  0
 22 43  1  0  0  0  0
M  CHG  1   5   1
M  END
> <s_m_source_file>
AV-unprocessed.smi

> <i_m_source_file_index>
1702

> <i_lp_mmshare_version>
43012

> <i_f3d_flags>
0

> <s_epik_input>
W0NIM11bQ0hdMVtDSDJdW0NIMl1OKFtDSDJdW0NIMl0xKVtDSDJdW0NASF0oW09IXSlbQ0gyXW4oW2NIXW4yKWMoYzIzKVtjSF1jKEYpYyhGKVtjSF0z

> <s_epik_cmdline>
J2VwaWtfcHl0aG9uJywgJy1waCcsICc3LjAnLCAnLXRuJywgJzgnLCAnLW1hJywgJzIwMCcsICctbWV0YWxfYmluZGluZycsICctaW1hZScsICc8aW5maWxlLm1hZT4nLCAnLW9tYWUnLCAnPG91dGZpbGUubWFlPic=

> <r_epik_Ionization_Penalty>
0.0135195

> <r_epik_Ionization_Penalty_Charging>
0.00181365

> <r_epik_Ionization_Penalty_Neutral>
0.0117059

> <r_epik_State_Penalty>
0.00902283

> <r_epik_Charging_Adjusted_Penalty>
0.0108365

> <i_epik_Tot_Q>
1

> <i_epik_Tot_abs_Q>
1

> <r_epik_Metal_State_Penalty>
9.09181e-06

> <b_epik_Metal_Only>
0

> <s_lp_Force_Field>
OPLS_2005

> <r_lp_Energy>
23.8265

> <b_lp_Chiralities_Consistent>
1

> <s_lp_Variant>
AV-unprocessed.smi:1702-4

> <Gold.Version>
5.8.1

> <Gold.Id.Protein>
6NUR|6NUR_protein|mol2

> <Gold.PLP.Fitness>
51.4538

> <Gold.PLP.PLP>
-46.3386

> <Gold.PLP.part.hbond>
-3.6141

> <Gold.PLP.part.metal>
0.0000

> <Gold.PLP.part.buried>
-4.7859

> <Gold.PLP.part.nonpolar>
-37.6335

> <Gold.PLP.part.repulsive>
0.0139

> <Gold.PLP.ligand.clash>
0.0000

> <Gold.PLP.ligand.torsion>
1.4748

> <Gold.PLP.Chemscore.Hbond>
2.6757

> <Gold.PLP.Chemscore.CHOScore>
0.0000

> <Gold.PLP.Chemscore.Metal>
0.0000

> <Gold.Chemscore.Hbonds>
donor molecule, donor type, donor heavy atom, donor atom, acceptor molecule, acceptor atom, score
      L1  H     8    34       P1  7957  0.74
      P1  H  7989  7998       L1     8  0.03
      P1  H  7997  8008       L1    12  0.32
      P1  H  8011  8017       L1     8  1.00

> <Gold.PLP.Chemscore.Internal.Correction>
0.0376

> <Gold.Rescore>
     Score         DG    S(hbond)    S(metal)    S(lipo)     H(rot)  DE(clash)    DE(int)     intcor
     13.94     -15.31       1.37        0.00      94.42       2.26       0.12       1.26       ----

> <Gold.Chemscore.Fitness>
13.9373

> <Gold.Chemscore.DG>
-15.3136

> <Gold.Chemscore.ZeroCoef>
-5.4800

> <Gold.Chemscore.Hbond>
1.3703

> <Gold.Chemscore.Metal>
0.0000

> <Gold.Chemscore.Lipo>
94.4210

> <Gold.Chemscore.Internal_Hbond>
0.0000

> <Gold.Chemscore.DEClash>
0.1152

> <Gold.Chemscore.DEInternal>
1.2611

> <Gold.Chemscore.Rot>
2.2619

> <Gold.Chemscore.Internal.Correction>
   9.000000E+99

> <Gold.Chemscore.Hbonds>
donor molecule, donor type, donor heavy atom, donor atom, acceptor molecule, acceptor atom, score
      L1  H     5    44       P1  8028  0.01
      L1  H     8    34       P1  7957  0.73
      P1  H  7997  8008       L1    12  0.01
      P1  H  8011  8017       L1     8  0.54

> <Gold.Chemscore.Hbond.Weighted>
-4.5767

> <Gold.Chemscore.Metal.Weighted>
-0.0000

> <Gold.Chemscore.Lipo.Weighted>
-11.0473

> <Gold.Chemscore.Internal_Hbond.Weighted>
0.0000

> <Gold.Chemscore.DEClash.Weighted>
0.1152

> <Gold.Chemscore.DEInternal.Weighted>
1.2611

> <Gold.Chemscore.Rot.Weighted>
5.7904

> <Gold.Chemscore.Internal.Correction.Weighted>
   9.000000E+99

> <Gold.Protein.RotatedTorsions>
[ 6907 6896 6895 6894 ] final   38.96 input  -60.11 | X-H torsion
[ 7974 7965 7964 7962 ] final -129.07 input  175.53 | X-H torsion
[ 8008 7997 7996 7995 ] final  -58.49 input   59.86 | X-H torsion
[ 10167 10162 10161 10158 ] final    6.48 input  -65.29 | X-H torsion
[ 10718 10713 10712 10709 ] final   10.45 input   66.30 | X-H torsion
[ 10763 10752 10751 10750 ] final  146.66 input  -60.55 | X-H torsion
[ 11005 11000 10999 10996 ] final  -51.52 input  -57.11 | X-H torsion

> <Gold.Protein.ActiveResidues>
 VAL166  LYS551  ARG553  GLY616  TRP617  ASP618  TYR619  PRO620  LYS621  CYS622 
 ASP623  PHE694  ASN695  SER759  ASP760  ASP761  ALA762  ILE779  LEU786  VAL792 
 PHE793  MET794  SER795  GLU796  ALA797  LYS798  CYS799  TRP800  GLU811  SER814 

> <Gold.Protein.RotatedAtoms>
  152.1633  134.8894  160.0539 H   0  0  0  0  0  0  0  0  0  0  0  0  # atno 6907 bound_to 6896
  151.9882  133.3776  159.4142 H   0  0  0  0  0  0  0  0  0  0  0  0  # atno 6908 bound_to 6896
  150.6891  134.3888  159.5111 H   0  0  0  0  0  0  0  0  0  0  0  0  # atno 6909 bound_to 6896
  144.9608  140.7444  143.4730 H   0  0  0  0  0  0  0  0  0  0  0  0  # atno 7974 bound_to 7965
  154.4311  140.1083  156.5966 H   0  0  0  0  0  0  0  0  0  0  0  0  # atno 8008 bound_to 7997
  155.5956  140.3492  155.4560 H   0  0  0  0  0  0  0  0  0  0  0  0  # atno 8009 bound_to 7997
  156.0213  140.1240  157.0344 H   0  0  0  0  0  0  0  0  0  0  0  0  # atno 8010 bound_to 7997
  140.6425  143.7739  150.7450 H   0  0  0  0  0  0  0  0  0  0  0  0  # atno 10167 bound_to 10162
  156.9812  130.6006  149.5677 H   0  0  0  0  0  0  0  0  0  0  0  0  # atno 10718 bound_to 10713
  154.0255  135.2902  155.3375 H   0  0  0  0  0  0  0  0  0  0  0  0  # atno 10763 bound_to 10752
  154.7020  135.5184  153.8543 H   0  0  0  0  0  0  0  0  0  0  0  0  # atno 10764 bound_to 10752
  153.0662  135.6632  154.0473 H   0  0  0  0  0  0  0  0  0  0  0  0  # atno 10765 bound_to 10752
  141.0876  133.6639  156.3890 H   0  0  0  0  0  0  0  0  0  0  0  0  # atno 11005 bound_to 11000
  145.2703  139.1957  143.4845 LP  0  0  0  0  0  0  0  0  0  0  0  0  # atno 17320 bound_to 7965
  146.3352  140.2648  142.8603 LP  0  0  0  0  0  0  0  0  0  0  0  0  # atno 17321 bound_to 7965
  140.1374  143.4472  152.2216 LP  0  0  0  0  0  0  0  0  0  0  0  0  # atno 17342 bound_to 10162
  139.5635  144.7420  151.4088 LP  0  0  0  0  0  0  0  0  0  0  0  0  # atno 17343 bound_to 10162
  156.0244  130.5338  150.8365 LP  0  0  0  0  0  0  0  0  0  0  0  0  # atno 17370 bound_to 10713
  157.5525  131.0944  150.9675 LP  0  0  0  0  0  0  0  0  0  0  0  0  # atno 17371 bound_to 10713
  140.5328  134.6196  157.5355 LP  0  0  0  0  0  0  0  0  0  0  0  0  # atno 17394 bound_to 11000
  139.9696  134.7315  156.0068 LP  0  0  0  0  0  0  0  0  0  0  0  0  # atno 17395 bound_to 11000

$$$$
