AV-unprocessed.smi:2525|AV-procd|sdf|9932|dock8
  -GOLD-   2272013573D 1   1.00000     0.00000
 Structure written by MMmdl.
 44 45  0  0  0  0  0  0  0  0  1 V2000
  152.0032  144.4772  157.1500 C   0  0  0  0  0  0  0  0  0  0  0  0
  152.8962  144.0678  158.3365 C   0  0  0  0  0  0  0  0  0  0  0  0
  152.2495  143.1625  159.4236 C   0  0  0  0  0  0  0  0  0  0  0  0
  151.1860  143.9742  160.1947 C   0  0  0  0  0  0  0  0  0  0  0  0
  149.8224  144.0795  159.4923 C   0  0  0  0  0  0  0  0  0  0  0  0
  151.8126  141.7293  159.0094 C   0  0  1  0  0  0  0  0  0  0  0  0
  151.4904  141.5547  157.5986 N   0  0  0  0  0  0  0  0  0  0  0  0
  150.3938  140.9371  157.1346 C   0  0  0  0  0  0  0  0  0  0  0  0
  149.5171  140.4718  157.8619 O   0  0  0  0  0  0  0  0  0  0  0  0
  150.2581  140.8396  155.6140 C   0  0  0  0  0  0  0  0  0  0  0  0
  148.8673  140.7100  155.2147 N   0  0  0  0  0  0  0  0  0  0  0  0
  148.3551  140.2554  154.0167 C   0  0  0  0  0  0  0  0  0  0  0  0
  147.0045  140.3609  154.1880 C   0  0  0  0  0  0  0  0  0  0  0  0
  146.7538  140.8661  155.4625 N   0  0  0  0  0  0  0  0  0  0  0  0
  147.8800  141.0709  156.0701 N   0  0  0  0  0  0  0  0  0  0  0  0
  153.2154  141.2176  159.3493 C   0  0  2  0  0  0  0  0  0  0  0  0
  153.3933  139.7928  159.8594 C   0  0  0  0  0  0  0  0  0  0  0  0
  153.2974  142.4224  160.3045 C   0  0  2  0  0  0  0  0  0  0  0  0
  152.7934  142.1221  161.6021 O   0  0  0  0  0  0  0  0  0  0  0  0
  152.9349  143.1958  162.5163 C   0  0  0  0  0  0  0  0  0  0  0  0
  152.5934  144.9958  156.3944 H   0  0  0  0  0  0  0  0  0  0  0  0
  151.2109  145.1604  157.4542 H   0  0  0  0  0  0  0  0  0  0  0  0
  151.5388  143.6205  156.6658 H   0  0  0  0  0  0  0  0  0  0  0  0
  153.7779  143.5801  157.9218 H   0  0  0  0  0  0  0  0  0  0  0  0
  153.2852  144.9761  158.7974 H   0  0  0  0  0  0  0  0  0  0  0  0
  151.0498  143.5789  161.2005 H   0  0  0  0  0  0  0  0  0  0  0  0
  151.5489  144.9890  160.3607 H   0  0  0  0  0  0  0  0  0  0  0  0
  149.1496  144.7240  160.0583 H   0  0  0  0  0  0  0  0  0  0  0  0
  149.3371  143.1086  159.3984 H   0  0  0  0  0  0  0  0  0  0  0  0
  149.9203  144.5043  158.4932 H   0  0  0  0  0  0  0  0  0  0  0  0
  151.0682  141.3071  159.6894 H   0  0  0  0  0  0  0  0  0  0  0  0
  152.1568  141.9112  156.9288 H   0  0  0  0  0  0  0  0  0  0  0  0
  150.6755  141.7301  155.1423 H   0  0  0  0  0  0  0  0  0  0  0  0
  150.8279  139.9843  155.2467 H   0  0  0  0  0  0  0  0  0  0  0  0
  148.9661  139.9196  153.1917 H   0  0  0  0  0  0  0  0  0  0  0  0
  146.2006  140.1200  153.5080 H   0  0  0  0  0  0  0  0  0  0  0  0
  153.8903  141.3920  158.5093 H   0  0  0  0  0  0  0  0  0  0  0  0
  152.7354  139.5819  160.7028 H   0  0  0  0  0  0  0  0  0  0  0  0
  154.4185  139.6139  160.1834 H   0  0  0  0  0  0  0  0  0  0  0  0
  153.1645  139.0673  159.0784 H   0  0  0  0  0  0  0  0  0  0  0  0
  154.2691  142.9195  160.3202 H   0  0  0  0  0  0  0  0  0  0  0  0
  152.5691  142.8913  163.4968 H   0  0  0  0  0  0  0  0  0  0  0  0
  152.3526  144.0599  162.1945 H   0  0  0  0  0  0  0  0  0  0  0  0
  153.9765  143.4985  162.6244 H   0  0  0  0  0  0  0  0  0  0  0  0
  1  2  1  0  0  0  0
  1 21  1  0  0  0  0
  1 22  1  0  0  0  0
  1 23  1  0  0  0  0
  2  3  1  0  0  0  0
  2 24  1  0  0  0  0
  2 25  1  0  0  0  0
  3 18  1  0  0  0  0
  3  4  1  0  0  0  0
  3  6  1  0  0  0  0
  4  5  1  0  0  0  0
  4 26  1  0  0  0  0
  4 27  1  0  0  0  0
  5 28  1  0  0  0  0
  5 29  1  0  0  0  0
  5 30  1  0  0  0  0
  6  7  1  0  0  0  0
  6 16  1  0  0  0  0
  6 31  1  0  0  0  0
  7  8  1  0  0  0  0
  7 32  1  0  0  0  0
  8  9  2  0  0  0  0
  8 10  1  0  0  0  0
 10 11  1  0  0  0  0
 10 33  1  0  0  0  0
 10 34  1  0  0  0  0
 11 15  1  0  0  0  0
 11 12  1  0  0  0  0
 12 13  2  0  0  0  0
 12 35  1  0  0  0  0
 13 14  1  0  0  0  0
 13 36  1  0  0  0  0
 14 15  2  0  0  0  0
 16 17  1  0  0  0  0
 16 18  1  0  0  0  0
 16 37  1  0  0  0  0
 17 38  1  0  0  0  0
 17 39  1  0  0  0  0
 17 40  1  0  0  0  0
 18 19  1  0  0  0  0
 18 41  1  0  0  0  0
 19 20  1  0  0  0  0
 20 42  1  0  0  0  0
 20 43  1  0  0  0  0
 20 44  1  0  0  0  0
M  END
> <s_m_source_file>
AV-unprocessed.smi

> <i_m_source_file_index>
2525

> <i_lp_mmshare_version>
43012

> <i_f3d_flags>
0

> <s_epik_input>
W0NIM11PW0NAQEhdMVtDQEhdKFtDSDNdKVtDQEBIXShDMShbQ0gyXVtDSDNdKVtDSDJdW0NIM10pW05IXUMoPU8pW0NIMl1uMltjSF1bY0hdbm4y

> <s_epik_cmdline>
J2VwaWtfcHl0aG9uJywgJy1waCcsICc3LjAnLCAnLXRuJywgJzgnLCAnLW1hJywgJzIwMCcsICctbWV0YWxfYmluZGluZycsICctaW1hZScsICc8aW5maWxlLm1hZT4nLCAnLW9tYWUnLCAnPG91dGZpbGUubWFlPic=

> <r_lp_tautomer_probability>
1

> <r_epik_Ionization_Penalty>
1.18045e-06

> <r_epik_Ionization_Penalty_Charging>
0

> <r_epik_Ionization_Penalty_Neutral>
1.18045e-06

> <r_epik_State_Penalty>
-0

> <r_epik_Charging_Adjusted_Penalty>
0

> <i_epik_Tot_Q>
0

> <i_epik_Tot_abs_Q>
0

> <r_epik_Metal_State_Penalty>
-0

> <b_epik_Metal_Only>
0

> <s_lp_Force_Field>
OPLS_2005

> <r_lp_Energy>
28.9829

> <b_lp_Chiralities_Consistent>
1

> <s_lp_Variant>
AV-unprocessed.smi:2525-7

> <Gold.Version>
5.8.1

> <Gold.Id.Protein>
6NUR|6NUR_protein|mol2

> <Gold.PLP.Fitness>
46.9454

> <Gold.PLP.PLP>
-42.8082

> <Gold.PLP.part.hbond>
0.0000

> <Gold.PLP.part.metal>
0.0000

> <Gold.PLP.part.buried>
-7.0229

> <Gold.PLP.part.nonpolar>
-36.9114

> <Gold.PLP.part.repulsive>
1.0139

> <Gold.PLP.ligand.clash>
0.0036

> <Gold.PLP.ligand.torsion>
1.2558

> <Gold.PLP.Chemscore.Hbond>
0.0000

> <Gold.PLP.Chemscore.CHOScore>
1.9881

> <Gold.PLP.Chemscore.Metal>
0.0000

> <Gold.Chemscore.Hbonds>
donor molecule, donor type, donor heavy atom, donor atom, acceptor molecule, acceptor atom, score
      L1  C    12    35       P1  7957  1.00
      L1  C    13    36       P1 10175  0.47

> <Gold.PLP.Chemscore.Internal.Correction>
0.6879

> <Gold.Rescore>
     Score         DG    S(hbond)    S(metal)    S(lipo)     H(rot)  DE(clash)    DE(int)     intcor
     10.77     -15.44       0.00        0.00     128.51       1.98       1.49       3.19       ----

> <Gold.Chemscore.Fitness>
10.7688

> <Gold.Chemscore.DG>
-15.4431

> <Gold.Chemscore.ZeroCoef>
-5.4800

> <Gold.Chemscore.Hbond>
0.0002

> <Gold.Chemscore.Metal>
0.0000

> <Gold.Chemscore.Lipo>
128.5077

> <Gold.Chemscore.Internal_Hbond>
0.0000

> <Gold.Chemscore.DEClash>
1.4870

> <Gold.Chemscore.DEInternal>
3.1873

> <Gold.Chemscore.Rot>
1.9817

> <Gold.Chemscore.Internal.Correction>
   9.000000E+99

> <Gold.Chemscore.Hbond.Weighted>
-0.0008

> <Gold.Chemscore.Metal.Weighted>
-0.0000

> <Gold.Chemscore.Lipo.Weighted>
-15.0354

> <Gold.Chemscore.Internal_Hbond.Weighted>
0.0000

> <Gold.Chemscore.DEClash.Weighted>
1.4870

> <Gold.Chemscore.DEInternal.Weighted>
3.1873

> <Gold.Chemscore.Rot.Weighted>
5.0731

> <Gold.Chemscore.Internal.Correction.Weighted>
   9.000000E+99

> <Gold.Protein.RotatedTorsions>
[ 6907 6896 6895 6894 ] final  142.33 input  -60.11 | X-H torsion
[ 7974 7965 7964 7962 ] final   30.06 input  175.53 | X-H torsion
[ 8008 7997 7996 7995 ] final  -21.27 input   59.86 | X-H torsion
[ 10167 10162 10161 10158 ] final  -79.72 input  -65.29 | X-H torsion
[ 10718 10713 10712 10709 ] final  -22.22 input   66.30 | X-H torsion
[ 10763 10752 10751 10750 ] final   78.24 input  -60.55 | X-H torsion
[ 11005 11000 10999 10996 ] final   47.66 input  -57.11 | X-H torsion

> <Gold.Protein.ActiveResidues>
 VAL166  LYS551  ARG553  GLY616  TRP617  ASP618  TYR619  PRO620  LYS621  CYS622 
 ASP623  PHE694  ASN695  SER759  ASP760  ASP761  ALA762  ILE779  LEU786  VAL792 
 PHE793  MET794  SER795  GLU796  ALA797  LYS798  CYS799  TRP800  GLU811  SER814 

> <Gold.Protein.RotatedAtoms>
  152.2201  133.4977  159.5157 H   0  0  0  0  0  0  0  0  0  0  0  0  # atno 6907 bound_to 6896
  150.7010  134.1354  159.4094 H   0  0  0  0  0  0  0  0  0  0  0  0  # atno 6908 bound_to 6896
  151.9275  135.0271  160.0577 H   0  0  0  0  0  0  0  0  0  0  0  0  # atno 6909 bound_to 6896
  146.1634  139.6838  142.9018 H   0  0  0  0  0  0  0  0  0  0  0  0  # atno 7974 bound_to 7965
  154.4716  140.2039  155.9980 H   0  0  0  0  0  0  0  0  0  0  0  0  # atno 8008 bound_to 7997
  156.1020  140.3242  155.7926 H   0  0  0  0  0  0  0  0  0  0  0  0  # atno 8009 bound_to 7997
  155.4780  140.0536  157.2961 H   0  0  0  0  0  0  0  0  0  0  0  0  # atno 8010 bound_to 7997
  140.4568  143.2466  151.8408 H   0  0  0  0  0  0  0  0  0  0  0  0  # atno 10167 bound_to 10162
  156.5075  130.4602  149.6667 H   0  0  0  0  0  0  0  0  0  0  0  0  # atno 10718 bound_to 10713
  153.0859  135.4884  154.8596 H   0  0  0  0  0  0  0  0  0  0  0  0  # atno 10763 bound_to 10752
  154.7210  135.3039  154.9050 H   0  0  0  0  0  0  0  0  0  0  0  0  # atno 10764 bound_to 10752
  153.9714  135.6800  153.4800 H   0  0  0  0  0  0  0  0  0  0  0  0  # atno 10765 bound_to 10752
  140.1259  134.4769  155.8560 H   0  0  0  0  0  0  0  0  0  0  0  0  # atno 11005 bound_to 11000
  145.4529  141.0429  143.2794 LP  0  0  0  0  0  0  0  0  0  0  0  0  # atno 17320 bound_to 7965
  144.8059  139.6053  143.7051 LP  0  0  0  0  0  0  0  0  0  0  0  0  # atno 17321 bound_to 7965
  139.4802  144.5055  151.9003 LP  0  0  0  0  0  0  0  0  0  0  0  0  # atno 17342 bound_to 10162
  140.4142  144.2329  150.5888 LP  0  0  0  0  0  0  0  0  0  0  0  0  # atno 17343 bound_to 10162
  156.3273  130.7312  151.2236 LP  0  0  0  0  0  0  0  0  0  0  0  0  # atno 17370 bound_to 10713
  157.7455  131.0439  150.4768 LP  0  0  0  0  0  0  0  0  0  0  0  0  # atno 17371 bound_to 10713
  141.2161  133.6777  156.6977 LP  0  0  0  0  0  0  0  0  0  0  0  0  # atno 17394 bound_to 11000
  140.2905  134.8245  157.4012 LP  0  0  0  0  0  0  0  0  0  0  0  0  # atno 17395 bound_to 11000

$$$$
