AV-unprocessed.smi:2930|AV-procd|sdf|11240|dock1
  -GOLD-   2272016133D 1   1.00000     0.00000
 Structure written by MMmdl.
 40 41  0  0  0  0  0  0  0  0  1 V2000
  146.1997  132.5756  152.3153 C   0  0  0  0  0  0  0  0  0  0  0  0
  145.5595  131.2862  151.7828 C   0  0  2  0  0  0  0  0  0  0  0  0
  146.6135  130.3433  151.4167 N   0  0  0  0  0  0  0  0  0  0  0  0
  146.6876  129.0623  151.8058 C   0  0  0  0  0  0  0  0  0  0  0  0
  145.8610  128.5242  152.5419 O   0  0  0  0  0  0  0  0  0  0  0  0
  147.7800  128.4659  151.2994 N   0  0  0  0  0  0  0  0  0  0  0  0
  148.2002  127.1173  151.4502 C   0  0  0  0  0  0  0  0  0  0  0  0
  148.9578  126.3858  150.5045 C   0  0  0  0  0  0  0  0  0  0  0  0
  149.3341  125.1096  150.7332 N   0  0  0  0  0  0  0  0  0  0  0  0
  148.9702  124.5488  151.8940 C   0  0  0  0  0  0  0  0  0  0  0  0
  149.3628  123.2267  152.1214 N   0  0  0  0  0  0  0  0  0  0  0  0
  150.1759  122.5014  151.1496 C   0  0  0  0  0  0  0  0  0  0  0  0
  148.9635  122.5176  153.3337 C   0  0  0  0  0  0  0  0  0  0  0  0
  148.2636  125.1568  152.8562 N   0  0  0  0  0  0  0  0  0  0  0  0
  147.8828  126.4334  152.6405 C   0  0  0  0  0  0  0  0  0  0  0  0
  144.6497  131.5505  150.5814 C   0  0  0  0  0  0  0  0  0  0  0  0
  145.2387  132.1289  149.2854 C   0  0  0  0  0  0  0  0  0  0  0  0
  143.9250  132.8882  149.0806 C   0  0  0  0  0  0  0  0  0  0  0  0
  143.6861  132.7481  150.5861 C   0  0  0  0  0  0  0  0  0  0  0  0
  145.4397  133.2901  152.6325 H   0  0  0  0  0  0  0  0  0  0  0  0
  146.8127  133.0591  151.5538 H   0  0  0  0  0  0  0  0  0  0  0  0
  146.8363  132.3710  153.1766 H   0  0  0  0  0  0  0  0  0  0  0  0
  144.9663  130.8640  152.5959 H   0  0  0  0  0  0  0  0  0  0  0  0
  147.3426  130.6958  150.8142 H   0  0  0  0  0  0  0  0  0  0  0  0
  148.4045  129.0576  150.7713 H   0  0  0  0  0  0  0  0  0  0  0  0
  149.2911  126.8062  149.5688 H   0  0  0  0  0  0  0  0  0  0  0  0
  151.1294  123.0082  150.9981 H   0  0  0  0  0  0  0  0  0  0  0  0
  149.6604  122.4436  150.1905 H   0  0  0  0  0  0  0  0  0  0  0  0
  150.3888  121.4829  151.4740 H   0  0  0  0  0  0  0  0  0  0  0  0
  147.8768  122.4473  153.3906 H   0  0  0  0  0  0  0  0  0  0  0  0
  149.3211  123.0447  154.2187 H   0  0  0  0  0  0  0  0  0  0  0  0
  149.3651  121.5048  153.3658 H   0  0  0  0  0  0  0  0  0  0  0  0
  147.3168  126.9110  153.4271 H   0  0  0  0  0  0  0  0  0  0  0  0
  144.0815  130.6531  150.3261 H   0  0  0  0  0  0  0  0  0  0  0  0
  146.0853  132.7940  149.4642 H   0  0  0  0  0  0  0  0  0  0  0  0
  145.4644  131.3892  148.5167 H   0  0  0  0  0  0  0  0  0  0  0  0
  144.0389  133.9143  148.7302 H   0  0  0  0  0  0  0  0  0  0  0  0
  143.2016  132.3311  148.4833 H   0  0  0  0  0  0  0  0  0  0  0  0
  142.6608  132.5064  150.8677 H   0  0  0  0  0  0  0  0  0  0  0  0
  144.0684  133.5991  151.1524 H   0  0  0  0  0  0  0  0  0  0  0  0
  1  2  1  0  0  0  0
  1 20  1  0  0  0  0
  1 21  1  0  0  0  0
  1 22  1  0  0  0  0
  2  3  1  0  0  0  0
  2 16  1  0  0  0  0
  2 23  1  0  0  0  0
  3  4  1  0  0  0  0
  3 24  1  0  0  0  0
  4  5  2  0  0  0  0
  4  6  1  0  0  0  0
  6  7  1  0  0  0  0
  6 25  1  0  0  0  0
  7 15  1  0  0  0  0
  7  8  2  0  0  0  0
  8  9  1  0  0  0  0
  8 26  1  0  0  0  0
  9 10  2  0  0  0  0
 10 11  1  0  0  0  0
 10 14  1  0  0  0  0
 11 12  1  0  0  0  0
 11 13  1  0  0  0  0
 12 27  1  0  0  0  0
 12 28  1  0  0  0  0
 12 29  1  0  0  0  0
 13 30  1  0  0  0  0
 13 31  1  0  0  0  0
 13 32  1  0  0  0  0
 14 15  2  0  0  0  0
 15 33  1  0  0  0  0
 16 19  1  0  0  0  0
 16 17  1  0  0  0  0
 16 34  1  0  0  0  0
 17 18  1  0  0  0  0
 17 35  1  0  0  0  0
 17 36  1  0  0  0  0
 18 19  1  0  0  0  0
 18 37  1  0  0  0  0
 18 38  1  0  0  0  0
 19 39  1  0  0  0  0
 19 40  1  0  0  0  0
M  END
> <s_m_source_file>
AV-unprocessed.smi

> <i_m_source_file_index>
2930

> <i_lp_mmshare_version>
43012

> <i_f3d_flags>
0

> <s_epik_input>
W0NIMl0xW0NIMl1bQ0gyXVtDSF0xW0NASF0oW0NIM10pW05IXUMoPU8pW05IXWMyW2NIXW5jKE4oW0NIM10pW0NIM10pbltjSF0y

> <s_epik_cmdline>
J2VwaWtfcHl0aG9uJywgJy1waCcsICc3LjAnLCAnLXRuJywgJzgnLCAnLW1hJywgJzIwMCcsICctbWV0YWxfYmluZGluZycsICctaW1hZScsICc8aW5maWxlLm1hZT4nLCAnLW9tYWUnLCAnPG91dGZpbGUubWFlPic=

> <r_lp_tautomer_probability>
1

> <r_epik_Ionization_Penalty>
0.000323856

> <r_epik_Ionization_Penalty_Charging>
0

> <r_epik_Ionization_Penalty_Neutral>
0.000323856

> <r_epik_State_Penalty>
-0

> <r_epik_Charging_Adjusted_Penalty>
0

> <i_epik_Tot_Q>
0

> <i_epik_Tot_abs_Q>
0

> <r_epik_Metal_State_Penalty>
-0

> <b_epik_Metal_Only>
0

> <s_lp_Force_Field>
OPLS_2005

> <r_lp_Energy>
8.18879

> <b_lp_Chiralities_Consistent>
1

> <s_lp_Variant>
AV-unprocessed.smi:2930-1

> <Gold.Version>
5.8.1

> <Gold.Id.Protein>
6NUR|6NUR_protein|mol2

> <Gold.PLP.Fitness>
40.1743

> <Gold.PLP.PLP>
-35.4670

> <Gold.PLP.part.hbond>
-2.0452

> <Gold.PLP.part.metal>
0.0000

> <Gold.PLP.part.buried>
-6.4056

> <Gold.PLP.part.nonpolar>
-28.2931

> <Gold.PLP.part.repulsive>
0.3954

> <Gold.PLP.ligand.clash>
0.0000

> <Gold.PLP.ligand.torsion>
0.4334

> <Gold.PLP.Chemscore.Hbond>
1.5500

> <Gold.PLP.Chemscore.CHOScore>
0.2647

> <Gold.PLP.Chemscore.Metal>
0.0000

> <Gold.Chemscore.Hbonds>
donor molecule, donor type, donor heavy atom, donor atom, acceptor molecule, acceptor atom, score
      L1  H     3    24       P1 10747  1.00
      L1  H     6    25       P1 10747  0.55
      L1  C     8    26       P1 10769  0.25

> <Gold.PLP.Chemscore.Internal.Correction>
0.1300

> <Gold.Rescore>
     Score         DG    S(hbond)    S(metal)    S(lipo)     H(rot)  DE(clash)    DE(int)     intcor
     14.09     -15.93       1.06        0.00      85.11       1.19       0.10       1.73       ----

> <Gold.Chemscore.Fitness>
14.0937

> <Gold.Chemscore.DG>
-15.9254

> <Gold.Chemscore.ZeroCoef>
-5.4800

> <Gold.Chemscore.Hbond>
1.0620

> <Gold.Chemscore.Metal>
0.0000

> <Gold.Chemscore.Lipo>
85.1053

> <Gold.Chemscore.Internal_Hbond>
0.0000

> <Gold.Chemscore.DEClash>
0.0968

> <Gold.Chemscore.DEInternal>
1.7349

> <Gold.Chemscore.Rot>
1.1949

> <Gold.Chemscore.Internal.Correction>
   9.000000E+99

> <Gold.Chemscore.Hbonds>
donor molecule, donor type, donor heavy atom, donor atom, acceptor molecule, acceptor atom, score
      L1  H     3    24       P1 10747  0.98
      L1  H     6    25       P1 10747  0.03

> <Gold.Chemscore.Hbond.Weighted>
-3.5470

> <Gold.Chemscore.Metal.Weighted>
-0.0000

> <Gold.Chemscore.Lipo.Weighted>
-9.9573

> <Gold.Chemscore.Internal_Hbond.Weighted>
0.0000

> <Gold.Chemscore.DEClash.Weighted>
0.0968

> <Gold.Chemscore.DEInternal.Weighted>
1.7349

> <Gold.Chemscore.Rot.Weighted>
3.0590

> <Gold.Chemscore.Internal.Correction.Weighted>
   9.000000E+99

> <Gold.Protein.RotatedTorsions>
[ 6907 6896 6895 6894 ] final  119.30 input  -60.11 | X-H torsion
[ 7974 7965 7964 7962 ] final -151.19 input  175.53 | X-H torsion
[ 8008 7997 7996 7995 ] final  179.65 input   59.86 | X-H torsion
[ 10167 10162 10161 10158 ] final  137.59 input  -65.29 | X-H torsion
[ 10718 10713 10712 10709 ] final  -49.09 input   66.30 | X-H torsion
[ 10763 10752 10751 10750 ] final  163.95 input  -60.55 | X-H torsion
[ 11005 11000 10999 10996 ] final  -45.20 input  -57.11 | X-H torsion

> <Gold.Protein.ActiveResidues>
 VAL166  LYS551  ARG553  GLY616  TRP617  ASP618  TYR619  PRO620  LYS621  CYS622 
 ASP623  PHE694  ASN695  SER759  ASP760  ASP761  ALA762  ILE779  LEU786  VAL792 
 PHE793  MET794  SER795  GLU796  ALA797  LYS798  CYS799  TRP800  GLU811  SER814 

> <Gold.Protein.RotatedAtoms>
  152.4482  133.7576  159.6728 H   0  0  0  0  0  0  0  0  0  0  0  0  # atno 6907 bound_to 6896
  150.8386  133.7962  159.3076 H   0  0  0  0  0  0  0  0  0  0  0  0  # atno 6908 bound_to 6896
  151.5594  135.1068  160.0020 H   0  0  0  0  0  0  0  0  0  0  0  0  # atno 6909 bound_to 6896
  144.7864  140.4831  143.5803 H   0  0  0  0  0  0  0  0  0  0  0  0  # atno 7974 bound_to 7965
  156.0410  140.1303  157.0155 H   0  0  0  0  0  0  0  0  0  0  0  0  # atno 8008 bound_to 7997
  154.4391  140.1030  156.6308 H   0  0  0  0  0  0  0  0  0  0  0  0  # atno 8009 bound_to 7997
  155.5666  140.3466  155.4507 H   0  0  0  0  0  0  0  0  0  0  0  0  # atno 8010 bound_to 7997
  139.5139  144.6401  151.5591 H   0  0  0  0  0  0  0  0  0  0  0  0  # atno 10167 bound_to 10162
  156.1926  130.4153  149.9350 H   0  0  0  0  0  0  0  0  0  0  0  0  # atno 10718 bound_to 10713
  154.3015  135.2759  155.2609 H   0  0  0  0  0  0  0  0  0  0  0  0  # atno 10763 bound_to 10752
  154.5044  135.5799  153.6559 H   0  0  0  0  0  0  0  0  0  0  0  0  # atno 10764 bound_to 10752
  152.9900  135.6165  154.3186 H   0  0  0  0  0  0  0  0  0  0  0  0  # atno 10765 bound_to 10752
  141.0500  133.6746  156.2979 H   0  0  0  0  0  0  0  0  0  0  0  0  # atno 11005 bound_to 11000
  145.5910  139.1495  143.3182 LP  0  0  0  0  0  0  0  0  0  0  0  0  # atno 17320 bound_to 7965
  146.2098  140.6036  142.9065 LP  0  0  0  0  0  0  0  0  0  0  0  0  # atno 17321 bound_to 7965
  140.6165  143.9339  150.6492 LP  0  0  0  0  0  0  0  0  0  0  0  0  # atno 17342 bound_to 10162
  140.2599  143.3532  152.1332 LP  0  0  0  0  0  0  0  0  0  0  0  0  # atno 17343 bound_to 10162
  156.7085  130.8961  151.3607 LP  0  0  0  0  0  0  0  0  0  0  0  0  # atno 17370 bound_to 10713
  157.6938  130.9261  150.0588 LP  0  0  0  0  0  0  0  0  0  0  0  0  # atno 17371 bound_to 10713
  140.6074  134.5493  157.5528 LP  0  0  0  0  0  0  0  0  0  0  0  0  # atno 17394 bound_to 11000
  139.9342  134.7906  156.0847 LP  0  0  0  0  0  0  0  0  0  0  0  0  # atno 17395 bound_to 11000

$$$$
