AV-unprocessed.smi:2988|AV-procd|sdf|11389|dock2
  -GOLD-   2272016313D 1   1.00000     0.00000
 Structure written by MMmdl.
 37 38  0  0  0  0  0  0  0  0  1 V2000
  153.1878  141.7919  160.6397 C   0  0  0  0  0  0  0  0  0  0  0  0
  152.8654  143.1299  159.9519 C   0  0  2  0  0  0  0  0  0  0  0  0
  151.7480  143.8916  160.6944 C   0  0  0  0  0  0  0  0  0  0  0  0
  151.4769  145.2625  160.0543 C   0  0  0  0  0  0  0  0  0  0  0  0
  151.1481  145.1283  158.5600 C   0  0  0  0  0  0  0  0  0  0  0  0
  152.2557  144.3658  157.8111 C   0  0  0  0  0  0  0  0  0  0  0  0
  152.5425  142.9875  158.4406 C   0  0  2  0  0  0  0  0  0  0  0  0
  151.4079  142.0938  158.2018 N   0  0  0  0  0  0  0  0  0  0  0  0
  151.4756  140.8006  157.8503 C   0  0  0  0  0  0  0  0  0  0  0  0
  152.5340  140.2017  157.6566 O   0  0  0  0  0  0  0  0  0  0  0  0
  150.1341  140.0753  157.6850 C   0  0  0  0  0  0  0  0  0  0  0  0
  149.3156  140.6527  156.6096 N   0  0  0  0  0  0  0  0  0  0  0  0
  149.7724  140.3700  155.3343 N   0  0  0  0  0  0  0  0  0  0  0  0
  149.1179  140.8088  154.3149 C   0  0  0  0  0  0  0  0  0  0  0  0
  147.9141  141.5984  154.4535 C   0  0  0  0  0  0  0  0  0  0  0  0
  147.0770  142.1579  153.0486 Cl  0  0  0  0  0  0  0  0  0  0  0  0
  147.4804  141.8780  155.7083 C   0  0  0  0  0  0  0  0  0  0  0  0
  146.0497  142.8195  155.9552 Cl  0  0  0  0  0  0  0  0  0  0  0  0
  148.2016  141.3958  156.8942 C   0  0  0  0  0  0  0  0  0  0  0  0
  147.8435  141.6325  158.0489 O   0  0  0  0  0  0  0  0  0  0  0  0
  152.3131  141.1434  160.6949 H   0  0  0  0  0  0  0  0  0  0  0  0
  153.5389  141.9526  161.6591 H   0  0  0  0  0  0  0  0  0  0  0  0
  153.9700  141.2533  160.1039 H   0  0  0  0  0  0  0  0  0  0  0  0
  153.7689  143.7375  160.0243 H   0  0  0  0  0  0  0  0  0  0  0  0
  150.8314  143.3003  160.6965 H   0  0  0  0  0  0  0  0  0  0  0  0
  152.0240  144.0298  161.7404 H   0  0  0  0  0  0  0  0  0  0  0  0
  150.6553  145.7583  160.5721 H   0  0  0  0  0  0  0  0  0  0  0  0
  152.3514  145.9025  160.1790 H   0  0  0  0  0  0  0  0  0  0  0  0
  150.1957  144.6106  158.4405 H   0  0  0  0  0  0  0  0  0  0  0  0
  151.0159  146.1168  158.1195 H   0  0  0  0  0  0  0  0  0  0  0  0
  151.9859  144.2523  156.7605 H   0  0  0  0  0  0  0  0  0  0  0  0
  153.1688  144.9622  157.8249 H   0  0  0  0  0  0  0  0  0  0  0  0
  153.4232  142.5821  157.9393 H   0  0  0  0  0  0  0  0  0  0  0  0
  150.4900  142.4927  158.3358 H   0  0  0  0  0  0  0  0  0  0  0  0
  150.2980  139.0119  157.4987 H   0  0  0  0  0  0  0  0  0  0  0  0
  149.6037  140.1261  158.6375 H   0  0  0  0  0  0  0  0  0  0  0  0
  149.4370  140.6080  153.2921 H   0  0  0  0  0  0  0  0  0  0  0  0
  1  2  1  0  0  0  0
  1 21  1  0  0  0  0
  1 22  1  0  0  0  0
  1 23  1  0  0  0  0
  2  7  1  0  0  0  0
  2  3  1  0  0  0  0
  2 24  1  0  0  0  0
  3  4  1  0  0  0  0
  3 25  1  0  0  0  0
  3 26  1  0  0  0  0
  4  5  1  0  0  0  0
  4 27  1  0  0  0  0
  4 28  1  0  0  0  0
  5  6  1  0  0  0  0
  5 29  1  0  0  0  0
  5 30  1  0  0  0  0
  6  7  1  0  0  0  0
  6 31  1  0  0  0  0
  6 32  1  0  0  0  0
  7  8  1  0  0  0  0
  7 33  1  0  0  0  0
  8  9  1  0  0  0  0
  8 34  1  0  0  0  0
  9 10  2  0  0  0  0
  9 11  1  0  0  0  0
 11 12  1  0  0  0  0
 11 35  1  0  0  0  0
 11 36  1  0  0  0  0
 12 19  1  0  0  0  0
 12 13  1  0  0  0  0
 13 14  2  0  0  0  0
 14 15  1  0  0  0  0
 14 37  1  0  0  0  0
 15 16  1  0  0  0  0
 15 17  2  0  0  0  0
 17 18  1  0  0  0  0
 17 19  1  0  0  0  0
 19 20  2  0  0  0  0
M  END
> <s_m_source_file>
AV-unprocessed.smi

> <i_m_source_file_index>
2988

> <i_lp_mmshare_version>
43012

> <i_f3d_flags>
0

> <s_epik_input>
W0NIM11bQ0BASF0xW0NIMl1bQ0gyXVtDSDJdW0NIMl1bQ0BIXTFbTkhdQyg9TylbQ0gyXW4ybltjSF1jKENsKWMoQ2wpYzI9Tw==

> <s_epik_cmdline>
J2VwaWtfcHl0aG9uJywgJy1waCcsICc3LjAnLCAnLXRuJywgJzgnLCAnLW1hJywgJzIwMCcsICctbWV0YWxfYmluZGluZycsICctaW1hZScsICc8aW5maWxlLm1hZT4nLCAnLW9tYWUnLCAnPG91dGZpbGUubWFlPic=

> <r_lp_tautomer_probability>
1

> <r_epik_Ionization_Penalty>
1.90782e-08

> <r_epik_Ionization_Penalty_Charging>
3.13143e-11

> <r_epik_Ionization_Penalty_Neutral>
1.90469e-08

> <r_epik_State_Penalty>
-0

> <r_epik_Charging_Adjusted_Penalty>
3.13143e-11

> <i_epik_Tot_Q>
0

> <i_epik_Tot_abs_Q>
0

> <r_epik_Metal_State_Penalty>
-0

> <b_epik_Metal_Only>
0

> <s_lp_Force_Field>
OPLS_2005

> <r_lp_Energy>
23.4163

> <b_lp_Chiralities_Consistent>
1

> <s_lp_Variant>
AV-unprocessed.smi:2988-3

> <Gold.Version>
5.8.1

> <Gold.Id.Protein>
6NUR|6NUR_protein|mol2

> <Gold.PLP.Fitness>
49.0571

> <Gold.PLP.PLP>
-43.9306

> <Gold.PLP.part.hbond>
-2.0000

> <Gold.PLP.part.metal>
0.0000

> <Gold.PLP.part.buried>
-5.3768

> <Gold.PLP.part.nonpolar>
-36.1314

> <Gold.PLP.part.repulsive>
0.1991

> <Gold.PLP.ligand.clash>
0.0000

> <Gold.PLP.ligand.torsion>
0.4281

> <Gold.PLP.Chemscore.Hbond>
0.9920

> <Gold.PLP.Chemscore.CHOScore>
1.0000

> <Gold.PLP.Chemscore.Metal>
0.0000

> <Gold.Chemscore.Hbonds>
donor molecule, donor type, donor heavy atom, donor atom, acceptor molecule, acceptor atom, score
      P1  H  7997  8010       L1    10  0.84
      L1  C    14    37       P1  7957  1.00

> <Gold.PLP.Chemscore.Internal.Correction>
0.0067

> <Gold.Rescore>
     Score         DG    S(hbond)    S(metal)    S(lipo)     H(rot)  DE(clash)    DE(int)     intcor
     17.57     -17.79       0.95        0.00     110.80       1.50       0.07       0.16       ----

> <Gold.Chemscore.Fitness>
17.5655

> <Gold.Chemscore.DG>
-17.7943

> <Gold.Chemscore.ZeroCoef>
-5.4800

> <Gold.Chemscore.Hbond>
0.9535

> <Gold.Chemscore.Metal>
0.0000

> <Gold.Chemscore.Lipo>
110.8013

> <Gold.Chemscore.Internal_Hbond>
0.0000

> <Gold.Chemscore.DEClash>
0.0704

> <Gold.Chemscore.DEInternal>
0.1585

> <Gold.Chemscore.Rot>
1.4977

> <Gold.Chemscore.Internal.Correction>
   9.000000E+99

> <Gold.Chemscore.Hbonds>
donor molecule, donor type, donor heavy atom, donor atom, acceptor molecule, acceptor atom, score
      P1  H  7997  8010       L1    10  0.78

> <Gold.Chemscore.Hbond.Weighted>
-3.1847

> <Gold.Chemscore.Metal.Weighted>
-0.0000

> <Gold.Chemscore.Lipo.Weighted>
-12.9638

> <Gold.Chemscore.Internal_Hbond.Weighted>
0.0000

> <Gold.Chemscore.DEClash.Weighted>
0.0704

> <Gold.Chemscore.DEInternal.Weighted>
0.1585

> <Gold.Chemscore.Rot.Weighted>
3.8341

> <Gold.Chemscore.Internal.Correction.Weighted>
   9.000000E+99

> <Gold.Protein.RotatedTorsions>
[ 6907 6896 6895 6894 ] final   84.79 input  -60.11 | X-H torsion
[ 7974 7965 7964 7962 ] final  115.85 input  175.53 | X-H torsion
[ 8008 7997 7996 7995 ] final   56.77 input   59.86 | X-H torsion
[ 10167 10162 10161 10158 ] final   64.39 input  -65.29 | X-H torsion
[ 10718 10713 10712 10709 ] final   28.63 input   66.30 | X-H torsion
[ 10763 10752 10751 10750 ] final   99.34 input  -60.55 | X-H torsion
[ 11005 11000 10999 10996 ] final -136.85 input  -57.11 | X-H torsion

> <Gold.Protein.ActiveResidues>
 VAL166  LYS551  ARG553  GLY616  TRP617  ASP618  TYR619  PRO620  LYS621  CYS622 
 ASP623  PHE694  ASN695  SER759  ASP760  ASP761  ALA762  ILE779  LEU786  VAL792 
 PHE793  MET794  SER795  GLU796  ALA797  LYS798  CYS799  TRP800  GLU811  SER814 

> <Gold.Protein.RotatedAtoms>
  152.5360  134.2686  159.8962 H   0  0  0  0  0  0  0  0  0  0  0  0  # atno 6907 bound_to 6896
  151.2644  133.4279  159.2625 H   0  0  0  0  0  0  0  0  0  0  0  0  # atno 6908 bound_to 6896
  151.0424  134.9631  159.8225 H   0  0  0  0  0  0  0  0  0  0  0  0  # atno 6909 bound_to 6896
  145.1869  139.3020  143.4388 H   0  0  0  0  0  0  0  0  0  0  0  0  # atno 7974 bound_to 7965
  155.5230  140.3480  155.4410 H   0  0  0  0  0  0  0  0  0  0  0  0  # atno 8008 bound_to 7997
  156.0771  140.1377  156.9784 H   0  0  0  0  0  0  0  0  0  0  0  0  # atno 8009 bound_to 7997
  154.4559  140.0953  156.6732 H   0  0  0  0  0  0  0  0  0  0  0  0  # atno 8010 bound_to 7997
  140.1227  144.4716  150.6911 H   0  0  0  0  0  0  0  0  0  0  0  0  # atno 10167 bound_to 10162
  157.2360  130.7046  149.6336 H   0  0  0  0  0  0  0  0  0  0  0  0  # atno 10718 bound_to 10713
  153.3002  135.4117  155.1246 H   0  0  0  0  0  0  0  0  0  0  0  0  # atno 10763 bound_to 10752
  154.8547  135.3539  154.5862 H   0  0  0  0  0  0  0  0  0  0  0  0  # atno 10764 bound_to 10752
  153.6287  135.7061  153.5342 H   0  0  0  0  0  0  0  0  0  0  0  0  # atno 10765 bound_to 10752
  140.8766  134.1984  157.4617 H   0  0  0  0  0  0  0  0  0  0  0  0  # atno 11005 bound_to 11000
  146.3443  140.2068  142.8589 LP  0  0  0  0  0  0  0  0  0  0  0  0  # atno 17320 bound_to 7965
  145.0080  140.8689  143.5241 LP  0  0  0  0  0  0  0  0  0  0  0  0  # atno 17321 bound_to 7965
  140.6863  143.2351  151.5252 LP  0  0  0  0  0  0  0  0  0  0  0  0  # atno 17342 bound_to 10162
  139.5560  144.2274  152.1613 LP  0  0  0  0  0  0  0  0  0  0  0  0  # atno 17343 bound_to 10162
  155.9672  130.4473  150.5576 LP  0  0  0  0  0  0  0  0  0  0  0  0  # atno 17370 bound_to 10713
  157.3428  131.0720  151.1774 LP  0  0  0  0  0  0  0  0  0  0  0  0  # atno 17371 bound_to 10713
  139.8716  134.9798  156.5053 LP  0  0  0  0  0  0  0  0  0  0  0  0  # atno 17394 bound_to 11000
  140.8510  133.8132  155.9169 LP  0  0  0  0  0  0  0  0  0  0  0  0  # atno 17395 bound_to 11000

$$$$
