AV-unprocessed.smi:1340|AV-procd|sdf|5503|dock1
  -GOLD-   22720 5 83D 1   1.00000     0.00000
 Structure written by MMmdl.
 40 41  0  0  0  0  0  0  0  0  1 V2000
  152.2191  145.2634  159.2391 C   0  0  0  0  0  0  0  0  0  0  0  0
  152.1561  143.7454  159.0393 C   0  0  0  0  0  0  0  0  0  0  0  0
  153.0011  142.9751  160.0711 C   0  0  0  0  0  0  0  0  0  0  0  0
  152.8177  141.4455  160.0083 C   0  0  2  0  0  0  0  0  0  0  0  0
  153.8091  140.7123  160.9243 C   0  0  0  0  0  0  0  0  0  0  0  0
  152.9787  140.9879  158.6320 N   0  0  0  0  0  0  0  0  0  0  0  0
  152.0086  140.5067  157.8385 C   0  0  0  0  0  0  0  0  0  0  0  0
  150.8602  140.2862  158.2225 O   0  0  0  0  0  0  0  0  0  0  0  0
  152.3939  140.2565  156.3778 C   0  0  0  0  0  0  0  0  0  0  0  0
  151.2052  139.7375  155.6186 C   0  0  0  0  0  0  0  0  0  0  0  0
  150.9640  138.4360  155.2513 C   0  0  0  0  0  0  0  0  0  0  0  0
  149.4304  138.2588  154.4421 S   0  0  0  0  0  0  0  0  0  0  0  0
  149.1676  139.9945  154.6320 C   0  0  0  0  0  0  0  0  0  0  0  0
  148.0091  140.7272  154.2386 N   0  0  0  0  0  0  0  0  0  0  0  0
  148.0216  142.1831  154.1353 C   0  0  0  0  0  0  0  0  0  0  0  0
  146.5855  142.5357  153.7616 C   0  0  0  0  0  0  0  0  0  0  0  0
  145.9634  141.2347  153.6861 N   0  0  0  0  0  0  0  0  0  0  0  0
  146.7903  140.2235  153.9612 C   0  0  0  0  0  0  0  0  0  0  0  0
  146.4574  139.0400  153.9490 O   0  0  0  0  0  0  0  0  0  0  0  0
  150.1870  140.6164  155.2320 N   0  0  0  0  0  0  0  0  0  0  0  0
  151.6170  145.7781  158.4899 H   0  0  0  0  0  0  0  0  0  0  0  0
  153.2420  145.6303  159.1506 H   0  0  0  0  0  0  0  0  0  0  0  0
  151.8433  145.5478  160.2223 H   0  0  0  0  0  0  0  0  0  0  0  0
  151.1181  143.4164  159.0986 H   0  0  0  0  0  0  0  0  0  0  0  0
  152.4918  143.5153  158.0287 H   0  0  0  0  0  0  0  0  0  0  0  0
  154.0547  143.2211  159.9303 H   0  0  0  0  0  0  0  0  0  0  0  0
  152.7401  143.3248  161.0707 H   0  0  0  0  0  0  0  0  0  0  0  0
  151.8061  141.2163  160.3490 H   0  0  0  0  0  0  0  0  0  0  0  0
  153.6940  141.0312  161.9604 H   0  0  0  0  0  0  0  0  0  0  0  0
  154.8409  140.9056  160.6290 H   0  0  0  0  0  0  0  0  0  0  0  0
  153.6497  139.6337  160.8943 H   0  0  0  0  0  0  0  0  0  0  0  0
  153.8898  141.1252  158.2182 H   0  0  0  0  0  0  0  0  0  0  0  0
  152.7623  141.1844  155.9383 H   0  0  0  0  0  0  0  0  0  0  0  0
  153.2194  139.5446  156.3365 H   0  0  0  0  0  0  0  0  0  0  0  0
  151.5853  137.5697  155.4247 H   0  0  0  0  0  0  0  0  0  0  0  0
  148.3099  142.6382  155.0839 H   0  0  0  0  0  0  0  0  0  0  0  0
  148.7244  142.5068  153.3661 H   0  0  0  0  0  0  0  0  0  0  0  0
  146.1023  143.1477  154.5244 H   0  0  0  0  0  0  0  0  0  0  0  0
  146.5250  143.0486  152.8010 H   0  0  0  0  0  0  0  0  0  0  0  0
  144.9903  141.1139  153.4446 H   0  0  0  0  0  0  0  0  0  0  0  0
  1  2  1  0  0  0  0
  1 21  1  0  0  0  0
  1 22  1  0  0  0  0
  1 23  1  0  0  0  0
  2  3  1  0  0  0  0
  2 24  1  0  0  0  0
  2 25  1  0  0  0  0
  3  4  1  0  0  0  0
  3 26  1  0  0  0  0
  3 27  1  0  0  0  0
  4  5  1  0  0  0  0
  4  6  1  0  0  0  0
  4 28  1  0  0  0  0
  5 29  1  0  0  0  0
  5 30  1  0  0  0  0
  5 31  1  0  0  0  0
  6  7  1  0  0  0  0
  6 32  1  0  0  0  0
  7  8  2  0  0  0  0
  7  9  1  0  0  0  0
  9 10  1  0  0  0  0
  9 33  1  0  0  0  0
  9 34  1  0  0  0  0
 10 20  1  0  0  0  0
 10 11  2  0  0  0  0
 11 12  1  0  0  0  0
 11 35  1  0  0  0  0
 12 13  1  0  0  0  0
 13 14  1  0  0  0  0
 13 20  2  0  0  0  0
 14 18  1  0  0  0  0
 14 15  1  0  0  0  0
 15 16  1  0  0  0  0
 15 36  1  0  0  0  0
 15 37  1  0  0  0  0
 16 17  1  0  0  0  0
 16 38  1  0  0  0  0
 16 39  1  0  0  0  0
 17 18  1  0  0  0  0
 17 40  1  0  0  0  0
 18 19  2  0  0  0  0
M  END
> <s_m_source_file>
AV-unprocessed.smi

> <i_m_source_file_index>
1340

> <i_lp_mmshare_version>
43012

> <i_f3d_flags>
0

> <s_epik_input>
W0NIM11bQ0gyXVtDSDJdW0NASF0oW0NIM10pW05IXUMoPU8pW0NIMl1jMVtjSF1zYyhuMSlOMltDSDJdW0NIMl1bTkhdQzI9Tw==

> <s_epik_cmdline>
J2VwaWtfcHl0aG9uJywgJy1waCcsICc3LjAnLCAnLXRuJywgJzgnLCAnLW1hJywgJzIwMCcsICctbWV0YWxfYmluZGluZycsICctaW1hZScsICc8aW5maWxlLm1hZT4nLCAnLW9tYWUnLCAnPG91dGZpbGUubWFlPic=

> <r_lp_tautomer_probability>
1

> <r_epik_Ionization_Penalty>
0.00012151

> <r_epik_Ionization_Penalty_Charging>
0

> <r_epik_Ionization_Penalty_Neutral>
0.00012151

> <r_epik_State_Penalty>
-0

> <r_epik_Charging_Adjusted_Penalty>
0

> <i_epik_Tot_Q>
0

> <i_epik_Tot_abs_Q>
0

> <r_epik_Metal_State_Penalty>
-0

> <b_epik_Metal_Only>
0

> <s_lp_Force_Field>
OPLS_2005

> <r_lp_Energy>
29.8855

> <b_lp_Chiralities_Consistent>
1

> <s_lp_Variant>
AV-unprocessed.smi:1340-1

> <Gold.Version>
5.8.1

> <Gold.Id.Protein>
6NUR|6NUR_protein|mol2

> <Gold.PLP.Fitness>
39.6572

> <Gold.PLP.PLP>
-37.5062

> <Gold.PLP.part.hbond>
-1.4273

> <Gold.PLP.part.metal>
0.0000

> <Gold.PLP.part.buried>
-0.9400

> <Gold.PLP.part.nonpolar>
-35.1720

> <Gold.PLP.part.repulsive>
0.3174

> <Gold.PLP.ligand.clash>
0.0000

> <Gold.PLP.ligand.torsion>
0.4687

> <Gold.PLP.Chemscore.Hbond>
1.0000

> <Gold.PLP.Chemscore.CHOScore>
0.0000

> <Gold.PLP.Chemscore.Metal>
0.0000

> <Gold.Chemscore.Hbonds>
donor molecule, donor type, donor heavy atom, donor atom, acceptor molecule, acceptor atom, score
      L1  H    17    40       P1 10175  1.00

> <Gold.PLP.Chemscore.Internal.Correction>
0.0884

> <Gold.Rescore>
     Score         DG    S(hbond)    S(metal)    S(lipo)     H(rot)  DE(clash)    DE(int)     intcor
     14.15     -14.85       0.93        0.00      95.51       1.92       0.22       0.48       ----

> <Gold.Chemscore.Fitness>
14.1464

> <Gold.Chemscore.DG>
-14.8472

> <Gold.Chemscore.ZeroCoef>
-5.4800

> <Gold.Chemscore.Hbond>
0.9285

> <Gold.Chemscore.Metal>
0.0000

> <Gold.Chemscore.Lipo>
95.5137

> <Gold.Chemscore.Internal_Hbond>
0.0000

> <Gold.Chemscore.DEClash>
0.2232

> <Gold.Chemscore.DEInternal>
0.4777

> <Gold.Chemscore.Rot>
1.9176

> <Gold.Chemscore.Internal.Correction>
   9.000000E+99

> <Gold.Chemscore.Hbonds>
donor molecule, donor type, donor heavy atom, donor atom, acceptor molecule, acceptor atom, score
      L1  H    17    40       P1 10175  0.44

> <Gold.Chemscore.Hbond.Weighted>
-3.1012

> <Gold.Chemscore.Metal.Weighted>
-0.0000

> <Gold.Chemscore.Lipo.Weighted>
-11.1751

> <Gold.Chemscore.Internal_Hbond.Weighted>
0.0000

> <Gold.Chemscore.DEClash.Weighted>
0.2232

> <Gold.Chemscore.DEInternal.Weighted>
0.4777

> <Gold.Chemscore.Rot.Weighted>
4.9091

> <Gold.Chemscore.Internal.Correction.Weighted>
   9.000000E+99

> <Gold.Protein.RotatedTorsions>
[ 6907 6896 6895 6894 ] final   -3.99 input  -60.11 | X-H torsion
[ 7974 7965 7964 7962 ] final   47.31 input  175.53 | X-H torsion
[ 8008 7997 7996 7995 ] final  -44.04 input   59.86 | X-H torsion
[ 10167 10162 10161 10158 ] final  -94.18 input  -65.29 | X-H torsion
[ 10718 10713 10712 10709 ] final   95.03 input   66.30 | X-H torsion
[ 10763 10752 10751 10750 ] final -135.31 input  -60.55 | X-H torsion
[ 11005 11000 10999 10996 ] final  -50.56 input  -57.11 | X-H torsion

> <Gold.Protein.ActiveResidues>
 VAL166  LYS551  ARG553  GLY616  TRP617  ASP618  TYR619  PRO620  LYS621  CYS622 
 ASP623  PHE694  ASN695  SER759  ASP760  ASP761  ALA762  ILE779  LEU786  VAL792 
 PHE793  MET794  SER795  GLU796  ALA797  LYS798  CYS799  TRP800  GLU811  SER814 

> <Gold.Protein.RotatedAtoms>
  151.5048  135.1063  159.9838 H   0  0  0  0  0  0  0  0  0  0  0  0  # atno 6907 bound_to 6896
  152.4686  133.7975  159.6946 H   0  0  0  0  0  0  0  0  0  0  0  0  # atno 6908 bound_to 6896
  150.8683  133.7478  159.2995 H   0  0  0  0  0  0  0  0  0  0  0  0  # atno 6909 bound_to 6896
  146.0309  139.4762  142.9838 H   0  0  0  0  0  0  0  0  0  0  0  0  # atno 7974 bound_to 7965
  154.3997  140.1432  156.3617 H   0  0  0  0  0  0  0  0  0  0  0  0  # atno 8008 bound_to 7997
  155.8174  140.3470  155.5473 H   0  0  0  0  0  0  0  0  0  0  0  0  # atno 8009 bound_to 7997
  155.8323  140.0914  157.1775 H   0  0  0  0  0  0  0  0  0  0  0  0  # atno 8010 bound_to 7997
  140.3170  143.3071  152.0087 H   0  0  0  0  0  0  0  0  0  0  0  0  # atno 10167 bound_to 10162
  157.6943  131.0532  150.4276 H   0  0  0  0  0  0  0  0  0  0  0  0  # atno 10718 bound_to 10713
  154.8705  135.3707  154.4877 H   0  0  0  0  0  0  0  0  0  0  0  0  # atno 10763 bound_to 10752
  153.5526  135.7024  153.5589 H   0  0  0  0  0  0  0  0  0  0  0  0  # atno 10764 bound_to 10752
  153.3701  135.4023  155.1746 H   0  0  0  0  0  0  0  0  0  0  0  0  # atno 10765 bound_to 10752
  141.0823  133.6650  156.3749 H   0  0  0  0  0  0  0  0  0  0  0  0  # atno 11005 bound_to 11000
  145.7042  141.0126  143.1488 LP  0  0  0  0  0  0  0  0  0  0  0  0  # atno 17320 bound_to 7965
  144.7030  139.8680  143.7438 LP  0  0  0  0  0  0  0  0  0  0  0  0  # atno 17321 bound_to 7965
  139.4882  144.6340  151.7012 LP  0  0  0  0  0  0  0  0  0  0  0  0  # atno 17342 bound_to 10162
  140.5517  144.0414  150.6130 LP  0  0  0  0  0  0  0  0  0  0  0  0  # atno 17343 bound_to 10162
  156.4645  130.4039  149.6555 LP  0  0  0  0  0  0  0  0  0  0  0  0  # atno 17370 bound_to 10713
  156.3658  130.7505  151.2483 LP  0  0  0  0  0  0  0  0  0  0  0  0  # atno 17371 bound_to 10713
  140.5441  134.6091  157.5389 LP  0  0  0  0  0  0  0  0  0  0  0  0  # atno 17394 bound_to 11000
  139.9638  134.7408  156.0182 LP  0  0  0  0  0  0  0  0  0  0  0  0  # atno 17395 bound_to 11000

$$$$
