#       Name:                AV-unprocessed.smi:86
#       Creating user name   scv26
#       Creation time:       Thu Mar 26 17:21:50 2020


#       File generated by GOLD software.
#

@<TRIPOS>MOLECULE
AV-unprocessed.smi:86
    60    64     1
SMALL
NO_CHARGES


@<TRIPOS>ATOM
      1 ****        -1.9096   1.0282   5.1008 O.3            1 S1                 0.0000
      2 ****        -2.8705   0.6014   4.1562 C.3            1 S1                 0.0000
      3 ****        -2.9318  -0.9341   4.0692 C.3            1 S1                 0.0000
      4 ****        -1.5678  -1.5192   3.6458 C.3            1 S1                 0.0000
      5 ****        -0.9911  -0.9008   2.4613 N.pl3          1 S1                 0.0000
      6 ****         0.0071   0.0455   2.4362 C.2            1 S1                 0.0000
      7 ****         0.3564   0.4521   1.2474 N.2            1 S1                 0.0000
      8 ****        -0.4495  -0.2772   0.3791 C.ar           1 S1                 0.0000
      9 ****        -0.5949  -0.3420  -1.0399 C.ar           1 S1                 0.0000
     10 ****         0.1159   0.4022  -1.9272 N.pl3          1 S1                 0.0000
     11 ****         0.1720   0.0751  -3.3501 C.3            1 S1                 0.0000
     12 ****         1.5032   0.6513  -3.8567 C.3            1 S1                 0.0000
     13 ****         2.6161  -0.4201  -3.8407 C.3            1 S1                 0.0000
     14 ****         4.0162   0.1950  -3.9628 C.3            1 S1                 0.0000
     15 ****         4.2609   1.1965  -2.8241 C.3            1 S1                 0.0000
     16 ****         5.5531   1.7503  -2.9535 O.3            1 S1                 0.0000
     17 ****         3.2159   2.3240  -2.8539 C.3            1 S1                 0.0000
     18 ****         1.7675   1.7970  -2.8651 C.3            1 S1                 0.0000
     19 ****         1.2402   1.2404  -1.5413 C.3            1 S1                 0.0000
     20 ****        -1.5247  -1.2049  -1.5281 N.ar           1 S1                 0.0000
     21 ****        -2.2541  -1.9593  -0.7023 C.ar           1 S1                 0.0000
     22 ****        -2.2219  -2.0063   0.6294 N.ar           1 S1                 0.0000
     23 ****        -1.3002  -1.1380   1.1330 C.ar           1 S1                 0.0000
     24 ****        -3.6055  -1.6190   5.2665 C.3            1 S1                 0.0000
     25 ****        -4.8485  -1.7736   4.5503 O.3            1 S1                 0.0000
     26 ****        -4.1580  -1.4745   3.3192 C.3            1 S1                 0.0000
     27 ****        -1.9343   1.9719   5.1478 H              1 S1                 0.0000
     28 ****        -3.8368   1.0056   4.4599 H              1 S1                 0.0000
     29 ****        -2.6489   1.0525   3.1888 H              1 S1                 0.0000
     30 ****        -0.8483  -1.4276   4.4603 H              1 S1                 0.0000
     31 ****        -1.6522  -2.5896   3.4543 H              1 S1                 0.0000
     32 ****         0.4657   0.4335   3.3341 H              1 S1                 0.0000
     33 ****         0.1049  -0.9972  -3.5387 H              1 S1                 0.0000
     34 ****        -0.6694   0.5570  -3.8490 H              1 S1                 0.0000
     35 ****         1.4008   1.0393  -4.8709 H              1 S1                 0.0000
     36 ****         2.5670  -0.9948  -2.9147 H              1 S1                 0.0000
     37 ****         2.4523  -1.1343  -4.6482 H              1 S1                 0.0000
     38 ****         4.7673  -0.5954  -3.9342 H              1 S1                 0.0000
     39 ****         4.1186   0.6893  -4.9300 H              1 S1                 0.0000
     40 ****         4.2166   0.6780  -1.8659 H              1 S1                 0.0000
     41 ****         5.6104   2.1871  -3.7895 H              1 S1                 0.0000
     42 ****         3.3604   2.9994  -2.0098 H              1 S1                 0.0000
     43 ****         3.3689   2.9239  -3.7523 H              1 S1                 0.0000
     44 ****         1.1163   2.6289  -3.1388 H              1 S1                 0.0000
     45 ****         0.9329   2.0433  -0.8708 H              1 S1                 0.0000
     46 ****         1.9916   0.6324  -1.0367 H              1 S1                 0.0000
     47 ****        -2.9658  -2.6187  -1.1767 H              1 S1                 0.0000
     48 ****        -3.1671  -2.5831   5.5296 H              1 S1                 0.0000
     49 ****        -3.7039  -0.9836   6.1474 H              1 S1                 0.0000
     50 ****        -4.6751  -0.7280   2.7153 H              1 S1                 0.0000
     51 ****        -3.9677  -2.3793   2.7407 H              1 S1                 0.0000
     52 ****        -0.9994   0.7283   4.8152 LP             1 S1                 0.0000
     53 ****        -2.1224   0.6400   5.9975 LP             1 S1                 0.0000
     54 ****         1.0483   1.1349   1.0126 LP             1 S1                 0.0000
     55 ****         6.2379   1.0232  -2.9054 LP             1 S1                 0.0000
     56 ****         5.7132   2.4082  -2.2177 LP             1 S1                 0.0000
     57 ****        -1.6640  -1.2755  -2.5158 LP             1 S1                 0.0000
     58 ****        -2.7998  -2.6021   1.1872 LP             1 S1                 0.0000
     59 ****        -5.5513  -1.1071   4.7991 LP             1 S1                 0.0000
     60 ****        -5.2339  -2.6954   4.5912 LP             1 S1                 0.0000
@<TRIPOS>BOND
    1    1    2 1     
    2    1   27 1     
    3    2    3 1     
    4    2   28 1     
    5    2   29 1     
    6    3   26 1     
    7    3    4 1     
    8    3   24 1     
    9    4    5 1     
   10    4   30 1     
   11    4   31 1     
   12    5   23 1     
   13    5    6 1     
   14    6    7 2     
   15    6   32 1     
   16    7    8 1     
   17    8   23 ar    
   18    8    9 ar    
   19    9   10 1     
   20    9   20 ar    
   21   10   19 1     
   22   10   11 1     
   23   11   12 1     
   24   11   33 1     
   25   11   34 1     
   26   12   18 1     
   27   12   13 1     
   28   12   35 1     
   29   13   14 1     
   30   13   36 1     
   31   13   37 1     
   32   14   15 1     
   33   14   38 1     
   34   14   39 1     
   35   15   16 1     
   36   15   17 1     
   37   15   40 1     
   38   16   41 1     
   39   17   18 1     
   40   17   42 1     
   41   17   43 1     
   42   18   19 1     
   43   18   44 1     
   44   19   45 1     
   45   19   46 1     
   46   20   21 ar    
   47   21   22 ar    
   48   21   47 1     
   49   22   23 ar    
   50   24   25 1     
   51   24   48 1     
   52   24   49 1     
   53   25   26 1     
   54   26   50 1     
   55   26   51 1     
   56    1   52 1     
   57    1   53 1     
   58    7   54 1     
   59   16   55 1     
   60   16   56 1     
   61   20   57 1     
   62   22   58 1     
   63   25   59 1     
   64   25   60 1     
@<TRIPOS>SUBSTRUCTURE
      1 S1             1
@<TRIPOS>SET
LONE_PAIRS      STATIC     ATOMS    <user>   **** ""
9 52 53 54 55 56 57 58 59 60
DONOR_HYDROGENS      STATIC     ATOMS    <user>   **** ""
2 27 41
ATOM$BLUE        STATIC     ATOMS    COLORGROUP SYSTEM
9 52 53 54 55 56 57 58 59 60
ATOM$RED        STATIC     ATOMS    COLORGROUP SYSTEM
2 27 41
