AV-unprocessed.smi:2865|AV-procd|sdf|11016|dock2
  -GOLD-   2272015473D 1   1.00000     0.00000
 Structure written by MMmdl.
 38 41  0  0  0  0  0  0  0  0  1 V2000
  145.8712  137.8464  154.3432 O   0  0  0  0  0  0  0  0  0  0  0  0
  146.7544  137.3887  153.6220 C   0  0  0  0  0  0  0  0  0  0  0  0
  148.0280  137.8267  153.5940 N   0  0  0  0  0  0  0  0  0  0  0  0
  148.6474  138.8164  154.4029 C   0  0  0  0  0  0  0  0  0  0  0  0
  148.1941  139.2331  155.6790 C   0  0  0  0  0  0  0  0  0  0  0  0
  148.8564  140.1662  156.3968 N   0  0  0  0  0  0  0  0  0  0  0  0
  149.9574  140.6861  155.8475 C   0  0  0  0  0  0  0  0  0  0  0  0
  150.7095  141.6885  156.6670 C   0  0  0  0  0  0  0  0  0  0  0  0
  151.3634  141.2903  157.9744 C   0  0  0  0  0  0  0  0  0  0  0  0
  150.1542  142.1835  157.9869 C   0  0  0  0  0  0  0  0  0  0  0  0
  150.4884  140.3579  154.6666 N   0  0  0  0  0  0  0  0  0  0  0  0
  149.8335  139.4256  153.9423 C   0  0  0  0  0  0  0  0  0  0  0  0
  146.4973  136.3928  152.7563 N   0  0  0  0  0  0  0  0  0  0  0  0
  145.2272  135.6969  152.5354 C   0  0  1  0  0  0  0  0  0  0  0  0
  144.8081  135.7301  151.0627 C   0  0  0  0  0  0  0  0  0  0  0  0
  144.6886  134.2368  150.7297 C   0  0  1  0  0  0  0  0  0  0  0  0
  146.0624  133.5594  150.6309 C   0  0  0  0  0  0  0  0  0  0  0  0
  146.4786  133.4818  152.0988 C   0  0  0  0  0  0  0  0  0  0  0  0
  145.2969  134.1767  152.7958 C   0  0  2  0  0  0  0  0  0  0  0  0
  144.2332  133.7304  151.9725 O   0  0  0  0  0  0  0  0  0  0  0  0
  148.6220  137.4091  152.8926 H   0  0  0  0  0  0  0  0  0  0  0  0
  147.3194  138.8189  156.1548 H   0  0  0  0  0  0  0  0  0  0  0  0
  151.2328  142.4034  156.0350 H   0  0  0  0  0  0  0  0  0  0  0  0
  151.2325  140.2658  158.3175 H   0  0  0  0  0  0  0  0  0  0  0  0
  152.3243  141.7422  158.2111 H   0  0  0  0  0  0  0  0  0  0  0  0
  150.3057  143.2326  158.2328 H   0  0  0  0  0  0  0  0  0  0  0  0
  149.2184  141.7529  158.3381 H   0  0  0  0  0  0  0  0  0  0  0  0
  150.2639  139.1621  152.9871 H   0  0  0  0  0  0  0  0  0  0  0  0
  147.2690  136.0870  152.1814 H   0  0  0  0  0  0  0  0  0  0  0  0
  144.4355  136.1470  153.1373 H   0  0  0  0  0  0  0  0  0  0  0  0
  143.8431  136.2267  150.9556 H   0  0  0  0  0  0  0  0  0  0  0  0
  145.5212  136.2388  150.4121 H   0  0  0  0  0  0  0  0  0  0  0  0
  144.0287  134.0241  149.8883 H   0  0  0  0  0  0  0  0  0  0  0  0
  145.9749  132.5593  150.2052 H   0  0  0  0  0  0  0  0  0  0  0  0
  146.7633  134.1315  150.0218 H   0  0  0  0  0  0  0  0  0  0  0  0
  146.5474  132.4407  152.4163 H   0  0  0  0  0  0  0  0  0  0  0  0
  147.4404  133.9548  152.2972 H   0  0  0  0  0  0  0  0  0  0  0  0
  145.1865  133.9043  153.8457 H   0  0  0  0  0  0  0  0  0  0  0  0
  1  2  2  0  0  0  0
  2  3  1  0  0  0  0
  2 13  1  0  0  0  0
  3  4  1  0  0  0  0
  3 21  1  0  0  0  0
  4 12  1  0  0  0  0
  4  5  2  0  0  0  0
  5  6  1  0  0  0  0
  5 22  1  0  0  0  0
  6  7  2  0  0  0  0
  7  8  1  0  0  0  0
  7 11  1  0  0  0  0
  8 10  1  0  0  0  0
  8  9  1  0  0  0  0
  8 23  1  0  0  0  0
  9 10  1  0  0  0  0
  9 24  1  0  0  0  0
  9 25  1  0  0  0  0
 10 26  1  0  0  0  0
 10 27  1  0  0  0  0
 11 12  2  0  0  0  0
 12 28  1  0  0  0  0
 13 14  1  0  0  0  0
 13 29  1  0  0  0  0
 14 19  1  0  0  0  0
 14 15  1  0  0  0  0
 14 30  1  0  0  0  0
 15 16  1  0  0  0  0
 15 31  1  0  0  0  0
 15 32  1  0  0  0  0
 16 20  1  0  0  0  0
 16 17  1  0  0  0  0
 16 33  1  0  0  0  0
 17 18  1  0  0  0  0
 17 34  1  0  0  0  0
 17 35  1  0  0  0  0
 18 19  1  0  0  0  0
 18 36  1  0  0  0  0
 18 37  1  0  0  0  0
 19 20  1  0  0  0  0
 19 38  1  0  0  0  0
M  END
> <s_m_source_file>
AV-unprocessed.smi

> <i_m_source_file_index>
2865

> <i_lp_mmshare_version>
43012

> <i_f3d_flags>
0

> <s_epik_input>
W0NIMl0xW0NIMl1bQ0BIXShPMilbQ0BASF0oW0NIMl1bQ0BASF0xMilbTkhdQyg9TylbTkhdYzNbY0hdbmMobltjSF0zKVtDSF00W0NIMl1bQ0gyXTQ=

> <s_epik_cmdline>
J2VwaWtfcHl0aG9uJywgJy1waCcsICc3LjAnLCAnLXRuJywgJzgnLCAnLW1hJywgJzIwMCcsICctbWV0YWxfYmluZGluZycsICctaW1hZScsICc8aW5maWxlLm1hZT4nLCAnLW9tYWUnLCAnPG91dGZpbGUubWFlPic=

> <r_lp_tautomer_probability>
1

> <r_epik_Ionization_Penalty>
2.43104e-05

> <r_epik_Ionization_Penalty_Charging>
0

> <r_epik_Ionization_Penalty_Neutral>
2.43104e-05

> <r_epik_State_Penalty>
-0

> <r_epik_Charging_Adjusted_Penalty>
0

> <i_epik_Tot_Q>
0

> <i_epik_Tot_abs_Q>
0

> <r_epik_Metal_State_Penalty>
-0

> <b_epik_Metal_Only>
0

> <s_lp_Force_Field>
OPLS_2005

> <r_lp_Energy>
44.6294

> <b_lp_Chiralities_Consistent>
1

> <s_lp_Variant>
AV-unprocessed.smi:2865-2

> <Gold.Version>
5.8.1

> <Gold.Id.Protein>
6NUR|6NUR_protein|mol2

> <Gold.PLP.Fitness>
36.8598

> <Gold.PLP.PLP>
-25.5169

> <Gold.PLP.part.hbond>
-3.0000

> <Gold.PLP.part.metal>
0.0000

> <Gold.PLP.part.buried>
-1.5733

> <Gold.PLP.part.nonpolar>
-21.6773

> <Gold.PLP.part.repulsive>
0.3524

> <Gold.PLP.ligand.clash>
0.0000

> <Gold.PLP.ligand.torsion>
0.1749

> <Gold.PLP.Chemscore.Hbond>
2.9600

> <Gold.PLP.Chemscore.CHOScore>
0.8903

> <Gold.PLP.Chemscore.Metal>
0.0000

> <Gold.Chemscore.Hbonds>
donor molecule, donor type, donor heavy atom, donor atom, acceptor molecule, acceptor atom, score
      L1  H     3    21       P1  7948  1.00
      L1  H    13    29       P1  7948  0.94
      P1  H  7989  7998       L1    11  0.95
      L1  C    12    28       P1  7957  0.87

> <Gold.PLP.Chemscore.Internal.Correction>
0.1416

> <Gold.Rescore>
     Score         DG    S(hbond)    S(metal)    S(lipo)     H(rot)  DE(clash)    DE(int)     intcor
     15.95     -18.51       2.59        0.00      63.76       1.20       1.38       1.18       ----

> <Gold.Chemscore.Fitness>
15.9507

> <Gold.Chemscore.DG>
-18.5093

> <Gold.Chemscore.ZeroCoef>
-5.4800

> <Gold.Chemscore.Hbond>
2.5881

> <Gold.Chemscore.Metal>
0.0000

> <Gold.Chemscore.Lipo>
63.7635

> <Gold.Chemscore.Internal_Hbond>
0.0000

> <Gold.Chemscore.DEClash>
1.3797

> <Gold.Chemscore.DEInternal>
1.1789

> <Gold.Chemscore.Rot>
1.2012

> <Gold.Chemscore.Internal.Correction>
   9.000000E+99

> <Gold.Chemscore.Hbonds>
donor molecule, donor type, donor heavy atom, donor atom, acceptor molecule, acceptor atom, score
      L1  H     3    21       P1  7948  0.94
      L1  H    13    29       P1  7948  0.91
      P1  H  7989  7998       L1    11  0.21

> <Gold.Chemscore.Hbond.Weighted>
-8.6441

> <Gold.Chemscore.Metal.Weighted>
-0.0000

> <Gold.Chemscore.Lipo.Weighted>
-7.4603

> <Gold.Chemscore.Internal_Hbond.Weighted>
0.0000

> <Gold.Chemscore.DEClash.Weighted>
1.3797

> <Gold.Chemscore.DEInternal.Weighted>
1.1789

> <Gold.Chemscore.Rot.Weighted>
3.0752

> <Gold.Chemscore.Internal.Correction.Weighted>
   9.000000E+99

> <Gold.Protein.RotatedTorsions>
[ 6907 6896 6895 6894 ] final   42.96 input  -60.11 | X-H torsion
[ 7974 7965 7964 7962 ] final  108.99 input  175.53 | X-H torsion
[ 8008 7997 7996 7995 ] final  138.06 input   59.86 | X-H torsion
[ 10167 10162 10161 10158 ] final    1.58 input  -65.29 | X-H torsion
[ 10718 10713 10712 10709 ] final  109.18 input   66.30 | X-H torsion
[ 10763 10752 10751 10750 ] final  110.10 input  -60.55 | X-H torsion
[ 11005 11000 10999 10996 ] final  -90.68 input  -57.11 | X-H torsion

> <Gold.Protein.ActiveResidues>
 VAL166  LYS551  ARG553  GLY616  TRP617  ASP618  TYR619  PRO620  LYS621  CYS622 
 ASP623  PHE694  ASN695  SER759  ASP760  ASP761  ALA762  ILE779  LEU786  VAL792 
 PHE793  MET794  SER795  GLU796  ALA797  LYS798  CYS799  TRP800  GLU811  SER814 

> <Gold.Protein.RotatedAtoms>
  152.2143  134.8472  160.0493 H   0  0  0  0  0  0  0  0  0  0  0  0  # atno 6907 bound_to 6896
  151.9279  133.3598  159.3928 H   0  0  0  0  0  0  0  0  0  0  0  0  # atno 6908 bound_to 6896
  150.6984  134.4492  159.5372 H   0  0  0  0  0  0  0  0  0  0  0  0  # atno 6909 bound_to 6896
  145.2735  139.2658  143.3953 H   0  0  0  0  0  0  0  0  0  0  0  0  # atno 7974 bound_to 7965
  156.2999  140.2403  156.4012 H   0  0  0  0  0  0  0  0  0  0  0  0  # atno 8008 bound_to 7997
  154.8526  140.0423  157.1633 H   0  0  0  0  0  0  0  0  0  0  0  0  # atno 8009 bound_to 7997
  154.8983  140.2973  155.5336 H   0  0  0  0  0  0  0  0  0  0  0  0  # atno 8010 bound_to 7997
  140.6676  143.7137  150.7858 H   0  0  0  0  0  0  0  0  0  0  0  0  # atno 10167 bound_to 10162
  157.6553  131.0908  150.6416 H   0  0  0  0  0  0  0  0  0  0  0  0  # atno 10718 bound_to 10713
  153.4442  135.3759  155.2246 H   0  0  0  0  0  0  0  0  0  0  0  0  # atno 10763 bound_to 10752
  154.8755  135.3870  154.4116 H   0  0  0  0  0  0  0  0  0  0  0  0  # atno 10764 bound_to 10752
  153.4666  135.7087  153.6082 H   0  0  0  0  0  0  0  0  0  0  0  0  # atno 10765 bound_to 10752
  141.1560  133.7708  156.9773 H   0  0  0  0  0  0  0  0  0  0  0  0  # atno 11005 bound_to 11000
  146.3239  140.3184  142.8631 LP  0  0  0  0  0  0  0  0  0  0  0  0  # atno 17320 bound_to 7965
  144.9314  140.7979  143.5687 LP  0  0  0  0  0  0  0  0  0  0  0  0  # atno 17321 bound_to 7965
  140.0817  143.4962  152.2526 LP  0  0  0  0  0  0  0  0  0  0  0  0  # atno 17342 bound_to 10162
  139.5931  144.7557  151.3353 LP  0  0  0  0  0  0  0  0  0  0  0  0  # atno 17343 bound_to 10162
  156.6723  130.4543  149.5653 LP  0  0  0  0  0  0  0  0  0  0  0  0  # atno 17370 bound_to 10713
  156.1989  130.6607  151.1145 LP  0  0  0  0  0  0  0  0  0  0  0  0  # atno 17371 bound_to 10713
  140.1089  134.9489  157.2036 LP  0  0  0  0  0  0  0  0  0  0  0  0  # atno 17394 bound_to 11000
  140.3219  134.2907  155.7244 LP  0  0  0  0  0  0  0  0  0  0  0  0  # atno 17395 bound_to 11000

$$$$
