#       Name:                AV-unprocessed.smi:3324
#       Creating user name   scv26
#       Creation time:       Fri Mar 27 19:12:40 2020


#       File generated by GOLD software.
#

@<TRIPOS>MOLECULE
AV-unprocessed.smi:3324
    34    34     1
SMALL
NO_CHARGES


@<TRIPOS>ATOM
      1 ****        -0.8629   2.8067   0.0661 O.2            1 S1                 0.0000
      2 ****        -1.6027   1.8617   0.3424 C.2            1 S1                 0.0000
      3 ****        -1.0523   0.4366   0.4291 C.3            1 S1                 0.0000
      4 ****         0.3772   0.3629   0.0623 N.4            1 S1                 1.0000
      5 ****         0.9431  -0.9984   0.1150 C.3            1 S1                 0.0000
      6 ****         2.4281  -0.9931  -0.2758 C.3            1 S1                 0.0000
      7 ****         2.9949  -2.3276  -0.2524 N.pl3          1 S1                 0.0000
      8 ****         3.8499  -2.8825   0.6766 C.2            1 S1                 0.0000
      9 ****         4.1112  -4.1610   0.2743 C.2            1 S1                 0.0000
     10 ****         3.3629  -4.2972  -0.9283 C.2            1 S1                 0.0000
     11 ****         2.6957  -3.1976  -1.2408 N.2            1 S1                 0.0000
     12 ****        -2.9148   2.0003   0.5837 N.am           1 S1                 0.0000
     13 ****        -3.6511   3.2601   0.5340 C.3            1 S1                 0.0000
     14 ****        -4.1921   3.5556  -0.8753 C.3            1 S1                 0.0000
     15 ****        -4.9021   4.6824  -0.8434 F              1 S1                 0.0000
     16 ****        -3.1941   3.7055  -1.7463 F              1 S1                 0.0000
     17 ****        -4.9833   2.5625  -1.2817 F              1 S1                 0.0000
     18 ****        -1.1858   0.0654   1.4461 H              1 S1                 0.0000
     19 ****        -1.6297  -0.2085  -0.2348 H              1 S1                 0.0000
     20 ****         0.4826   0.7202  -0.8768 H              1 S1                 0.0000
     21 ****         0.8239  -1.4000   1.1222 H              1 S1                 0.0000
     22 ****         0.3783  -1.6437  -0.5593 H              1 S1                 0.0000
     23 ****         2.5599  -0.5793  -1.2769 H              1 S1                 0.0000
     24 ****         2.9990  -0.3613   0.4063 H              1 S1                 0.0000
     25 ****         4.1975  -2.3292   1.5368 H              1 S1                 0.0000
     26 ****         4.7421  -4.8885   0.7634 H              1 S1                 0.0000
     27 ****         3.2850  -5.1559  -1.5789 H              1 S1                 0.0000
     28 ****        -3.4504   1.1724   0.8023 H              1 S1                 0.0000
     29 ****        -4.4820   3.1880   1.2365 H              1 S1                 0.0000
     30 ****        -3.0272   4.0848   0.8829 H              1 S1                 0.0000
     31 ****         0.8983   0.9578   0.6907 H              1 S1                 0.0000
     32 ****         0.1095   2.6472  -0.1046 LP             1 S1                 0.0000
     33 ****        -1.2345   3.7336   0.0124 LP             1 S1                 0.0000
     34 ****         2.1029  -3.0452  -2.0316 LP             1 S1                 0.0000
@<TRIPOS>BOND
    1    1    2 2     
    2    2    3 1     
    3    2   12 am    
    4    3    4 1     
    5    3   18 1     
    6    3   19 1     
    7    4    5 1     
    8    4   20 1     
    9    4   31 1     
   10    5    6 1     
   11    5   21 1     
   12    5   22 1     
   13    6    7 1     
   14    6   23 1     
   15    6   24 1     
   16    7   11 1     
   17    7    8 1     
   18    8    9 2     
   19    8   25 1     
   20    9   10 1     
   21    9   26 1     
   22   10   11 2     
   23   10   27 1     
   24   12   13 1     
   25   12   28 1     
   26   13   14 1     
   27   13   29 1     
   28   13   30 1     
   29   14   15 1     
   30   14   16 1     
   31   14   17 1     
   32    1   32 1     
   33    1   33 1     
   34   11   34 1     
@<TRIPOS>SUBSTRUCTURE
      1 S1             1
@<TRIPOS>SET
LONE_PAIRS      STATIC     ATOMS    <user>   **** ""
3 32 33 34
DONOR_HYDROGENS      STATIC     ATOMS    <user>   **** ""
3 20 31 28
ATOM$BLUE        STATIC     ATOMS    COLORGROUP SYSTEM
3 32 33 34
ATOM$RED        STATIC     ATOMS    COLORGROUP SYSTEM
3 20 31 28
