AV-unprocessed.smi:2403|AV-procd|sdf|9510|dock3
  -GOLD-   2272013133D 1   1.00000     0.00000
 Structure written by MMmdl.
 48 50  0  0  0  0  0  0  0  0  2 V2000
  147.3998  132.6540  151.3520 C   0  0  0  0  0  0  0  0  0  0  0  0
  145.9687  133.0217  150.9994 C   0  0  0  0  0  0  0  0  0  0  0  0
  145.1614  132.0939  150.3042 C   0  0  0  0  0  0  0  0  0  0  0  0
  143.8352  132.4381  149.9782 C   0  0  0  0  0  0  0  0  0  0  0  0
  143.3519  133.6484  150.3272 N   0  3  0  0  0  0  0  0  0  0  0  0
  144.0848  134.5666  150.9923 C   0  0  0  0  0  0  0  0  0  0  0  0
  145.4224  134.2792  151.3632 C   0  0  0  0  0  0  0  0  0  0  0  0
  146.2459  135.2169  152.0473 N   0  0  0  0  0  0  0  0  0  0  0  0
  145.8961  136.0601  153.0333 C   0  0  0  0  0  0  0  0  0  0  0  0
  144.7676  136.1530  153.5156 O   0  0  0  0  0  0  0  0  0  0  0  0
  146.9524  136.7744  153.4603 N   0  0  0  0  0  0  0  0  0  0  0  0
  146.9902  137.7711  154.5472 C   0  0  0  0  0  0  0  0  0  0  0  0
  148.3567  138.5089  154.6475 C   0  0  0  0  0  0  0  0  0  0  0  0
  148.4833  139.4702  155.4073 O   0  0  0  0  0  0  0  0  0  0  0  0
  149.3671  138.0767  153.8750 N   0  0  0  0  0  0  0  0  0  0  0  0
  150.7062  138.6438  153.8510 C   0  0  0  0  0  0  0  0  0  0  0  0
  151.5132  138.3468  155.0973 C   0  0  0  0  0  0  0  0  0  0  0  0
  152.1956  139.4601  155.8568 C   0  0  0  0  0  0  0  0  0  0  0  0
  153.0201  138.4527  155.0914 C   0  0  0  0  0  0  0  0  0  0  0  0
  145.8820  138.8185  154.2814 C   0  0  0  0  0  0  0  0  0  0  0  0
  145.3217  139.2081  155.6475 C   0  0  0  0  0  0  0  0  0  0  0  0
  145.3584  137.9089  156.4406 C   0  0  0  0  0  0  0  0  0  0  0  0
  146.5730  137.1355  155.9113 C   0  0  0  0  0  0  0  0  0  0  0  0
  147.6382  131.6371  151.0390 H   0  0  0  0  0  0  0  0  0  0  0  0
  147.5557  132.7186  152.4294 H   0  0  0  0  0  0  0  0  0  0  0  0
  148.0988  133.3310  150.8602 H   0  0  0  0  0  0  0  0  0  0  0  0
  145.5515  131.1272  150.0205 H   0  0  0  0  0  0  0  0  0  0  0  0
  143.1533  131.7890  149.4480 H   0  0  0  0  0  0  0  0  0  0  0  0
  143.5740  135.4974  151.1886 H   0  0  0  0  0  0  0  0  0  0  0  0
  147.2285  135.1832  151.8175 H   0  0  0  0  0  0  0  0  0  0  0  0
  147.8332  136.6111  152.9948 H   0  0  0  0  0  0  0  0  0  0  0  0
  149.1948  137.2876  153.2697 H   0  0  0  0  0  0  0  0  0  0  0  0
  151.2388  138.2704  152.9750 H   0  0  0  0  0  0  0  0  0  0  0  0
  150.6355  139.7271  153.7422 H   0  0  0  0  0  0  0  0  0  0  0  0
  151.0901  137.5545  155.7123 H   0  0  0  0  0  0  0  0  0  0  0  0
  152.1309  140.4673  155.4500 H   0  0  0  0  0  0  0  0  0  0  0  0
  152.2043  139.3951  156.9431 H   0  0  0  0  0  0  0  0  0  0  0  0
  153.5765  137.7155  155.6666 H   0  0  0  0  0  0  0  0  0  0  0  0
  153.5023  138.7906  154.1761 H   0  0  0  0  0  0  0  0  0  0  0  0
  146.2329  139.6917  153.7288 H   0  0  0  0  0  0  0  0  0  0  0  0
  145.0774  138.3796  153.6884 H   0  0  0  0  0  0  0  0  0  0  0  0
  145.9683  139.9495  156.1184 H   0  0  0  0  0  0  0  0  0  0  0  0
  144.3194  139.6328  155.5851 H   0  0  0  0  0  0  0  0  0  0  0  0
  145.4090  138.0807  157.5162 H   0  0  0  0  0  0  0  0  0  0  0  0
  144.4500  137.3387  156.2415 H   0  0  0  0  0  0  0  0  0  0  0  0
  146.3092  136.0810  155.8239 H   0  0  0  0  0  0  0  0  0  0  0  0
  147.3817  137.1742  156.6426 H   0  0  0  0  0  0  0  0  0  0  0  0
  142.3914  133.8826  150.0749 H   0  0  0  0  0  0  0  0  0  0  0  0
  1  2  1  0  0  0  0
  1 24  1  0  0  0  0
  1 25  1  0  0  0  0
  1 26  1  0  0  0  0
  2  7  1  0  0  0  0
  2  3  2  0  0  0  0
  3  4  1  0  0  0  0
  3 27  1  0  0  0  0
  4  5  2  0  0  0  0
  4 28  1  0  0  0  0
  5  6  1  0  0  0  0
  5 48  1  0  0  0  0
  6  7  2  0  0  0  0
  6 29  1  0  0  0  0
  7  8  1  0  0  0  0
  8  9  1  0  0  0  0
  8 30  1  0  0  0  0
  9 10  2  0  0  0  0
  9 11  1  0  0  0  0
 11 12  1  0  0  0  0
 11 31  1  0  0  0  0
 12 23  1  0  0  0  0
 12 13  1  0  0  0  0
 12 20  1  0  0  0  0
 13 14  2  0  0  0  0
 13 15  1  0  0  0  0
 15 16  1  0  0  0  0
 15 32  1  0  0  0  0
 16 17  1  0  0  0  0
 16 33  1  0  0  0  0
 16 34  1  0  0  0  0
 17 19  1  0  0  0  0
 17 18  1  0  0  0  0
 17 35  1  0  0  0  0
 18 19  1  0  0  0  0
 18 36  1  0  0  0  0
 18 37  1  0  0  0  0
 19 38  1  0  0  0  0
 19 39  1  0  0  0  0
 20 21  1  0  0  0  0
 20 40  1  0  0  0  0
 20 41  1  0  0  0  0
 21 22  1  0  0  0  0
 21 42  1  0  0  0  0
 21 43  1  0  0  0  0
 22 23  1  0  0  0  0
 22 44  1  0  0  0  0
 22 45  1  0  0  0  0
 23 46  1  0  0  0  0
 23 47  1  0  0  0  0
M  CHG  1   5   1
M  END
> <s_m_source_file>
AV-unprocessed.smi

> <i_m_source_file_index>
2403

> <i_lp_mmshare_version>
43012

> <i_f3d_flags>
0

> <s_epik_input>
W0NIM11jMVtjSF1bY0hdbltjSF1jMVtOSF1DKD1PKVtOSF1DMihbQ0gyXVtDSDJdW0NIMl1bQ0gyXTIpQyg9TylbTkhdW0NIMl1bQ0hdM1tDSDJdW0NIMl0z

> <s_epik_cmdline>
J2VwaWtfcHl0aG9uJywgJy1waCcsICc3LjAnLCAnLXRuJywgJzgnLCAnLW1hJywgJzIwMCcsICctbWV0YWxfYmluZGluZycsICctaW1hZScsICc8aW5maWxlLm1hZT4nLCAnLW9tYWUnLCAnPG91dGZpbGUubWFlPic=

> <r_epik_Ionization_Penalty>
2.03963

> <r_epik_Ionization_Penalty_Charging>
2.03961

> <r_epik_Ionization_Penalty_Neutral>
1.99712e-05

> <r_epik_State_Penalty>
2.17125

> <r_epik_Charging_Adjusted_Penalty>
4.21085

> <i_epik_Tot_Q>
1

> <i_epik_Tot_abs_Q>
1

> <r_epik_Metal_State_Penalty>
2.19001

> <b_epik_Metal_Only>
0

> <s_lp_Force_Field>
OPLS_2005

> <r_lp_Energy>
38.2062

> <b_lp_Chiralities_Consistent>
1

> <s_lp_Variant>
AV-unprocessed.smi:2403-2

> <Gold.Version>
5.8.1

> <Gold.Id.Protein>
6NUR|6NUR_protein|mol2

> <Gold.PLP.Fitness>
44.1244

> <Gold.PLP.PLP>
-30.6090

> <Gold.PLP.part.hbond>
-4.1051

> <Gold.PLP.part.metal>
0.0000

> <Gold.PLP.part.buried>
-0.4517

> <Gold.PLP.part.nonpolar>
-25.8653

> <Gold.PLP.part.repulsive>
0.1869

> <Gold.PLP.ligand.clash>
0.0000

> <Gold.PLP.ligand.torsion>
0.9625

> <Gold.PLP.Chemscore.Hbond>
4.9280

> <Gold.PLP.Chemscore.CHOScore>
0.0000

> <Gold.PLP.Chemscore.Metal>
0.0000

> <Gold.Chemscore.Hbonds>
donor molecule, donor type, donor heavy atom, donor atom, acceptor molecule, acceptor atom, score
      L1  H     5    48       P1 10186  2.00
      L1  H     8    30       P1  7948  0.91
      L1  H    11    31       P1  7948  1.00
      L1  H    15    32       P1  7948  1.00

> <Gold.PLP.Chemscore.Internal.Correction>
0.6565

> <Gold.Rescore>
     Score         DG    S(hbond)    S(metal)    S(lipo)     H(rot)  DE(clash)    DE(int)     intcor
     19.87     -24.20       3.91        0.00      84.10       1.63       1.75       2.57       ----

> <Gold.Chemscore.Fitness>
19.8693

> <Gold.Chemscore.DG>
-24.1962

> <Gold.Chemscore.ZeroCoef>
-5.4800

> <Gold.Chemscore.Hbond>
3.9059

> <Gold.Chemscore.Metal>
0.0000

> <Gold.Chemscore.Lipo>
84.1010

> <Gold.Chemscore.Internal_Hbond>
0.0000

> <Gold.Chemscore.DEClash>
1.7538

> <Gold.Chemscore.DEInternal>
2.5731

> <Gold.Chemscore.Rot>
1.6286

> <Gold.Chemscore.Internal.Correction>
   9.000000E+99

> <Gold.Chemscore.Hbonds>
donor molecule, donor type, donor heavy atom, donor atom, acceptor molecule, acceptor atom, score
      L1  H     5    48       P1 10186  0.97
      L1  H     8    30       P1  7948  0.85
      L1  H    11    31       P1  7948  0.99
      L1  H    15    32       P1  7948  0.99

> <Gold.Chemscore.Hbond.Weighted>
-13.0456

> <Gold.Chemscore.Metal.Weighted>
-0.0000

> <Gold.Chemscore.Lipo.Weighted>
-9.8398

> <Gold.Chemscore.Internal_Hbond.Weighted>
0.0000

> <Gold.Chemscore.DEClash.Weighted>
1.7538

> <Gold.Chemscore.DEInternal.Weighted>
2.5731

> <Gold.Chemscore.Rot.Weighted>
4.1692

> <Gold.Chemscore.Internal.Correction.Weighted>
   9.000000E+99

> <Gold.Protein.RotatedTorsions>
[ 6907 6896 6895 6894 ] final  145.37 input  -60.11 | X-H torsion
[ 7974 7965 7964 7962 ] final -123.61 input  175.53 | X-H torsion
[ 8008 7997 7996 7995 ] final  -73.49 input   59.86 | X-H torsion
[ 10167 10162 10161 10158 ] final -162.64 input  -65.29 | X-H torsion
[ 10718 10713 10712 10709 ] final  -24.59 input   66.30 | X-H torsion
[ 10763 10752 10751 10750 ] final  105.30 input  -60.55 | X-H torsion
[ 11005 11000 10999 10996 ] final  -39.59 input  -57.11 | X-H torsion

> <Gold.Protein.ActiveResidues>
 VAL166  LYS551  ARG553  GLY616  TRP617  ASP618  TYR619  PRO620  LYS621  CYS622 
 ASP623  PHE694  ASN695  SER759  ASP760  ASP761  ALA762  ILE779  LEU786  VAL792 
 PHE793  MET794  SER795  GLU796  ALA797  LYS798  CYS799  TRP800  GLU811  SER814 

> <Gold.Protein.RotatedAtoms>
  152.1818  133.4712  159.4961 H   0  0  0  0  0  0  0  0  0  0  0  0  # atno 6907 bound_to 6896
  150.6936  134.1824  159.4262 H   0  0  0  0  0  0  0  0  0  0  0  0  # atno 6908 bound_to 6896
  151.9735  135.0064  160.0604 H   0  0  0  0  0  0  0  0  0  0  0  0  # atno 6909 bound_to 6896
  145.0168  140.7954  143.4405 H   0  0  0  0  0  0  0  0  0  0  0  0  # atno 7974 bound_to 7965
  154.5252  140.0778  156.8245 H   0  0  0  0  0  0  0  0  0  0  0  0  # atno 8008 bound_to 7997
  155.3492  140.3411  155.4221 H   0  0  0  0  0  0  0  0  0  0  0  0  # atno 8009 bound_to 7997
  156.1723  140.1624  156.8411 H   0  0  0  0  0  0  0  0  0  0  0  0  # atno 8010 bound_to 7997
  139.6377  144.0318  152.2067 H   0  0  0  0  0  0  0  0  0  0  0  0  # atno 10167 bound_to 10162
  156.4756  130.4534  149.6842 H   0  0  0  0  0  0  0  0  0  0  0  0  # atno 10718 bound_to 10713
  153.3775  135.3914  155.1833 H   0  0  0  0  0  0  0  0  0  0  0  0  # atno 10763 bound_to 10752
  154.8703  135.3717  154.4899 H   0  0  0  0  0  0  0  0  0  0  0  0  # atno 10764 bound_to 10752
  153.5373  135.7085  153.5715 H   0  0  0  0  0  0  0  0  0  0  0  0  # atno 10765 bound_to 10752
  141.0113  133.6907  156.2207 H   0  0  0  0  0  0  0  0  0  0  0  0  # atno 11005 bound_to 11000
  145.1949  139.2282  143.5223 LP  0  0  0  0  0  0  0  0  0  0  0  0  # atno 17320 bound_to 7965
  146.3479  140.1753  142.8589 LP  0  0  0  0  0  0  0  0  0  0  0  0  # atno 17321 bound_to 7965
  140.0000  144.6300  150.7738 LP  0  0  0  0  0  0  0  0  0  0  0  0  # atno 17342 bound_to 10162
  140.7474  143.2906  151.3341 LP  0  0  0  0  0  0  0  0  0  0  0  0  # atno 17343 bound_to 10162
  156.3573  130.7463  151.2431 LP  0  0  0  0  0  0  0  0  0  0  0  0  # atno 17370 bound_to 10713
  157.7488  131.0360  150.4389 LP  0  0  0  0  0  0  0  0  0  0  0  0  # atno 17371 bound_to 10713
  140.6729  134.4848  157.5587 LP  0  0  0  0  0  0  0  0  0  0  0  0  # atno 17394 bound_to 11000
  139.9091  134.8383  156.1594 LP  0  0  0  0  0  0  0  0  0  0  0  0  # atno 17395 bound_to 11000

$$$$
