AV-unprocessed.smi:2986|AV-procd|sdf|11384|dock3
  -GOLD-   2272016303D 1   1.00000     0.00000
 Structure written by MMmdl.
 42 44  0  0  0  0  0  0  0  0  3 V2000
  153.2048  138.6908  154.4302 C   0  0  0  0  0  0  0  0  0  0  0  0
  152.8419  139.3810  155.6128 O   0  0  0  0  0  0  0  0  0  0  0  0
  151.6135  138.9232  156.1548 C   0  0  0  0  0  0  0  0  0  0  0  0
  151.3778  139.5620  157.5309 C   0  0  0  0  0  0  0  0  0  0  0  0
  151.1047  141.0036  157.4362 N   0  0  0  0  0  0  0  0  0  0  0  0
  150.2354  141.6818  156.6363 C   0  0  0  0  0  0  0  0  0  0  0  0
  149.1515  140.9755  155.4384 S   0  0  0  0  0  0  0  0  0  0  0  0
  147.4816  141.4529  155.9614 C   0  0  0  0  0  0  0  0  0  0  0  0
  146.6701  142.0703  154.8219 C   0  0  0  0  0  0  0  0  0  0  0  0
  147.1389  142.0630  153.6827 O   0  0  0  0  0  0  0  0  0  0  0  0
  145.4840  142.5642  155.2527 N   0  5  0  0  0  0  0  0  0  0  0  0
  144.9542  143.6405  154.6530 C   0  0  0  0  0  0  0  0  0  0  0  0
  143.9826  144.5153  155.2119 C   0  0  0  0  0  0  0  0  0  0  0  0
  143.7726  145.4258  154.2154 C   0  0  0  0  0  0  0  0  0  0  0  0
  142.8962  146.6260  154.1063 C   0  0  0  0  0  0  0  0  0  0  0  0
  144.5421  145.1282  153.1341 O   0  0  0  0  0  0  0  0  0  0  0  0
  145.2907  143.9801  153.4198 N   0  0  0  0  0  0  0  0  0  0  0  0
  150.3576  143.0072  156.9228 N   0  3  0  0  0  0  0  0  0  0  0  0
  151.3236  143.1827  157.9145 C   0  0  0  0  0  0  0  0  0  0  0  0
  151.7985  144.3378  158.5280 C   0  0  0  0  0  0  0  0  0  0  0  0
  152.8018  144.1690  159.5048 C   0  0  0  0  0  0  0  0  0  0  0  0
  153.2940  142.8906  159.8384 C   0  0  0  0  0  0  0  0  0  0  0  0
  152.8033  141.7262  159.2118 C   0  0  0  0  0  0  0  0  0  0  0  0
  151.8104  141.9006  158.2476 C   0  0  0  0  0  0  0  0  0  0  0  0
  154.1535  139.0769  154.0577 H   0  0  0  0  0  0  0  0  0  0  0  0
  152.4559  138.8274  153.6489 H   0  0  0  0  0  0  0  0  0  0  0  0
  153.3257  137.6230  154.6173 H   0  0  0  0  0  0  0  0  0  0  0  0
  150.7915  139.1773  155.4834 H   0  0  0  0  0  0  0  0  0  0  0  0
  151.6311  137.8366  156.2513 H   0  0  0  0  0  0  0  0  0  0  0  0
  150.5211  139.0942  158.0166 H   0  0  0  0  0  0  0  0  0  0  0  0
  152.2295  139.3986  158.1908 H   0  0  0  0  0  0  0  0  0  0  0  0
  146.9792  140.5812  156.3850 H   0  0  0  0  0  0  0  0  0  0  0  0
  147.5646  142.1858  156.7642 H   0  0  0  0  0  0  0  0  0  0  0  0
  143.5200  144.4823  156.1869 H   0  0  0  0  0  0  0  0  0  0  0  0
  142.1236  146.6139  154.8755 H   0  0  0  0  0  0  0  0  0  0  0  0
  142.4042  146.6603  153.1343 H   0  0  0  0  0  0  0  0  0  0  0  0
  143.4783  147.5398  154.2249 H   0  0  0  0  0  0  0  0  0  0  0  0
  151.4242  145.3183  158.2720 H   0  0  0  0  0  0  0  0  0  0  0  0
  153.2033  145.0373  160.0070 H   0  0  0  0  0  0  0  0  0  0  0  0
  154.0655  142.8001  160.5895 H   0  0  0  0  0  0  0  0  0  0  0  0
  153.1927  140.7527  159.4713 H   0  0  0  0  0  0  0  0  0  0  0  0
  149.8194  143.7340  156.4690 H   0  0  0  0  0  0  0  0  0  0  0  0
  1  2  1  0  0  0  0
  1 25  1  0  0  0  0
  1 26  1  0  0  0  0
  1 27  1  0  0  0  0
  2  3  1  0  0  0  0
  3  4  1  0  0  0  0
  3 28  1  0  0  0  0
  3 29  1  0  0  0  0
  4  5  1  0  0  0  0
  4 30  1  0  0  0  0
  4 31  1  0  0  0  0
  5 24  1  0  0  0  0
  5  6  1  0  0  0  0
  6  7  1  0  0  0  0
  6 18  2  0  0  0  0
  7  8  1  0  0  0  0
  8  9  1  0  0  0  0
  8 32  1  0  0  0  0
  8 33  1  0  0  0  0
  9 10  2  0  0  0  0
  9 11  1  0  0  0  0
 11 12  1  0  0  0  0
 12 17  2  0  0  0  0
 12 13  1  0  0  0  0
 13 14  2  0  0  0  0
 13 34  1  0  0  0  0
 14 15  1  0  0  0  0
 14 16  1  0  0  0  0
 15 35  1  0  0  0  0
 15 36  1  0  0  0  0
 15 37  1  0  0  0  0
 16 17  1  0  0  0  0
 18 19  1  0  0  0  0
 18 42  1  0  0  0  0
 19 24  2  0  0  0  0
 19 20  1  0  0  0  0
 20 21  2  0  0  0  0
 20 38  1  0  0  0  0
 21 22  1  0  0  0  0
 21 39  1  0  0  0  0
 22 23  2  0  0  0  0
 22 40  1  0  0  0  0
 23 24  1  0  0  0  0
 23 41  1  0  0  0  0
M  CHG  1  11  -1
M  CHG  1  18   1
M  END
> <s_m_source_file>
AV-unprocessed.smi

> <i_m_source_file_index>
2986

> <i_lp_mmshare_version>
43012

> <i_f3d_flags>
0

> <s_epik_input>
W2NIXTFbY0hdW2NIXVtjSF1jKGMxMiluKFtDSDJdW0NIMl1PW0NIM10pYyhuMilTW0NIMl1DKD1PKVtOSF1jM1tjSF1jKFtDSDNdKW9uMw==

> <s_epik_cmdline>
J2VwaWtfcHl0aG9uJywgJy1waCcsICc3LjAnLCAnLXRuJywgJzgnLCAnLW1hJywgJzIwMCcsICctbWV0YWxfYmluZGluZycsICctaW1hZScsICc8aW5maWxlLm1hZT4nLCAnLW9tYWUnLCAnPG91dGZpbGUubWFlPic=

> <r_epik_Ionization_Penalty>
5.85337

> <r_epik_Ionization_Penalty_Charging>
5.85335

> <r_epik_Ionization_Penalty_Neutral>
1.96301e-05

> <r_epik_State_Penalty>
6.06575

> <r_epik_Charging_Adjusted_Penalty>
11.9191

> <i_epik_Tot_Q>
0

> <i_epik_Tot_abs_Q>
2

> <r_epik_Metal_State_Penalty>
2.64129

> <b_epik_Metal_Only>
1

> <s_lp_Force_Field>
OPLS_2005

> <r_lp_Energy>
5.16942

> <b_lp_Chiralities_Consistent>
1

> <s_lp_Variant>
AV-unprocessed.smi:2986-4

> <Gold.Version>
5.8.1

> <Gold.Id.Protein>
6NUR|6NUR_protein|mol2

> <Gold.PLP.Fitness>
55.0909

> <Gold.PLP.PLP>
-47.5224

> <Gold.PLP.part.hbond>
-2.4316

> <Gold.PLP.part.metal>
0.0000

> <Gold.PLP.part.buried>
-7.5941

> <Gold.PLP.part.nonpolar>
-37.9511

> <Gold.PLP.part.repulsive>
0.7134

> <Gold.PLP.ligand.clash>
0.0000

> <Gold.PLP.ligand.torsion>
0.8615

> <Gold.PLP.Chemscore.Hbond>
3.0000

> <Gold.PLP.Chemscore.CHOScore>
0.0000

> <Gold.PLP.Chemscore.Metal>
0.0000

> <Gold.Chemscore.Hbonds>
donor molecule, donor type, donor heavy atom, donor atom, acceptor molecule, acceptor atom, score
      L1  H    18    42       P1  8028  2.00
      P1  H  7997  8009       L1     2  1.00

> <Gold.PLP.Chemscore.Internal.Correction>
0.2915

> <Gold.Rescore>
     Score         DG    S(hbond)    S(metal)    S(lipo)     H(rot)  DE(clash)    DE(int)     intcor
     16.67     -19.18       1.78        0.00     116.12       2.27       0.06       2.45       ----

> <Gold.Chemscore.Fitness>
16.6736

> <Gold.Chemscore.DG>
-19.1825

> <Gold.Chemscore.ZeroCoef>
-5.4800

> <Gold.Chemscore.Hbond>
1.7777

> <Gold.Chemscore.Metal>
0.0000

> <Gold.Chemscore.Lipo>
116.1182

> <Gold.Chemscore.Internal_Hbond>
0.0000

> <Gold.Chemscore.DEClash>
0.0558

> <Gold.Chemscore.DEInternal>
2.4531

> <Gold.Chemscore.Rot>
2.2738

> <Gold.Chemscore.Internal.Correction>
   9.000000E+99

> <Gold.Chemscore.Hbonds>
donor molecule, donor type, donor heavy atom, donor atom, acceptor molecule, acceptor atom, score
      L1  H    18    42       P1  8028  0.97
      P1  H  7997  8009       L1     2  0.35

> <Gold.Chemscore.Hbond.Weighted>
-5.9376

> <Gold.Chemscore.Metal.Weighted>
-0.0000

> <Gold.Chemscore.Lipo.Weighted>
-13.5858

> <Gold.Chemscore.Internal_Hbond.Weighted>
0.0000

> <Gold.Chemscore.DEClash.Weighted>
0.0558

> <Gold.Chemscore.DEInternal.Weighted>
2.4531

> <Gold.Chemscore.Rot.Weighted>
5.8209

> <Gold.Chemscore.Internal.Correction.Weighted>
   9.000000E+99

> <Gold.Protein.RotatedTorsions>
[ 6907 6896 6895 6894 ] final  -39.49 input  -60.11 | X-H torsion
[ 7974 7965 7964 7962 ] final  -38.08 input  175.53 | X-H torsion
[ 8008 7997 7996 7995 ] final -146.87 input   59.86 | X-H torsion
[ 10167 10162 10161 10158 ] final  153.33 input  -65.29 | X-H torsion
[ 10718 10713 10712 10709 ] final -152.77 input   66.30 | X-H torsion
[ 10763 10752 10751 10750 ] final   -6.65 input  -60.55 | X-H torsion
[ 11005 11000 10999 10996 ] final   90.15 input  -57.11 | X-H torsion

> <Gold.Protein.ActiveResidues>
 VAL166  LYS551  ARG553  GLY616  TRP617  ASP618  TYR619  PRO620  LYS621  CYS622 
 ASP623  PHE694  ASN695  SER759  ASP760  ASP761  ALA762  ILE779  LEU786  VAL792 
 PHE793  MET794  SER795  GLU796  ALA797  LYS798  CYS799  TRP800  GLU811  SER814 

> <Gold.Protein.RotatedAtoms>
  150.9898  134.9235  159.7892 H   0  0  0  0  0  0  0  0  0  0  0  0  # atno 6907 bound_to 6896
  152.5247  134.3298  159.9188 H   0  0  0  0  0  0  0  0  0  0  0  0  # atno 6908 bound_to 6896
  151.3304  133.3962  159.2696 H   0  0  0  0  0  0  0  0  0  0  0  0  # atno 6909 bound_to 6896
  146.0518  140.6470  142.9038 H   0  0  0  0  0  0  0  0  0  0  0  0  # atno 7974 bound_to 7965
  155.5663  140.0630  157.2817 H   0  0  0  0  0  0  0  0  0  0  0  0  # atno 8008 bound_to 7997
  154.4374  140.1877  156.0880 H   0  0  0  0  0  0  0  0  0  0  0  0  # atno 8009 bound_to 7997
  156.0409  140.3295  155.7247 H   0  0  0  0  0  0  0  0  0  0  0  0  # atno 8010 bound_to 7997
  139.4828  144.5282  151.7766 H   0  0  0  0  0  0  0  0  0  0  0  0  # atno 10167 bound_to 10162
  156.4769  130.8285  151.2513 H   0  0  0  0  0  0  0  0  0  0  0  0  # atno 10718 bound_to 10713
  153.4153  135.7008  153.6331 H   0  0  0  0  0  0  0  0  0  0  0  0  # atno 10763 bound_to 10752
  153.4808  135.3694  155.2441 H   0  0  0  0  0  0  0  0  0  0  0  0  # atno 10764 bound_to 10752
  154.8719  135.4065  154.3512 H   0  0  0  0  0  0  0  0  0  0  0  0  # atno 10765 bound_to 10752
  139.8861  134.8596  156.3244 H   0  0  0  0  0  0  0  0  0  0  0  0  # atno 11005 bound_to 11000
  144.7127  140.4097  143.7068 LP  0  0  0  0  0  0  0  0  0  0  0  0  # atno 17320 bound_to 7965
  145.6711  139.1599  143.2754 LP  0  0  0  0  0  0  0  0  0  0  0  0  # atno 17321 bound_to 7965
  140.4805  144.1457  150.5932 LP  0  0  0  0  0  0  0  0  0  0  0  0  # atno 17342 bound_to 10162
  140.4283  143.2580  151.9628 LP  0  0  0  0  0  0  0  0  0  0  0  0  # atno 17343 bound_to 10162
  157.7486  131.0058  150.3126 LP  0  0  0  0  0  0  0  0  0  0  0  0  # atno 17370 bound_to 10713
  156.3561  130.3839  149.7289 LP  0  0  0  0  0  0  0  0  0  0  0  0  # atno 17371 bound_to 10713
  140.9765  133.7294  156.0610 LP  0  0  0  0  0  0  0  0  0  0  0  0  # atno 17394 bound_to 11000
  140.7804  134.3732  157.5488 LP  0  0  0  0  0  0  0  0  0  0  0  0  # atno 17395 bound_to 11000

$$$$
