AV-unprocessed.smi:618|AV-procd|sdf|3080|dock3
  -GOLD-   22720 0 03D 1   1.00000     0.00000
 Structure written by MMmdl.
 41 43  0  0  0  0  0  0  0  0  2 V2000
  145.1053  138.1301  152.9981 O   0  0  0  0  0  0  0  0  0  0  0  0
  146.1997  137.8235  152.5257 C   0  0  0  0  0  0  0  0  0  0  0  0
  146.3687  136.8183  151.6552 N   0  0  0  0  0  0  0  0  0  0  0  0
  145.2983  135.9611  151.1566 C   0  0  0  0  0  0  0  0  0  0  0  0
  145.3846  134.5335  151.7423 C   0  0  2  0  0  0  0  0  0  0  0  0
  146.1864  134.4700  153.0652 C   0  0  0  0  0  0  0  0  0  0  0  0
  147.6266  134.5724  152.7656 N   0  3  1  0  0  0  0  0  0  0  0  0
  148.5746  134.5330  153.8928 C   0  0  0  0  0  0  0  0  0  0  0  0
  149.8989  134.0348  153.2807 C   0  0  0  0  0  0  0  0  0  0  0  0
  149.5727  133.6686  151.8219 C   0  0  0  0  0  0  0  0  0  0  0  0
  148.0541  133.5266  151.8342 C   0  0  2  0  0  0  0  0  0  0  0  0
  147.3032  133.6993  150.5092 C   0  0  0  0  0  0  0  0  0  0  0  0
  145.9025  133.5991  150.7816 O   0  0  0  0  0  0  0  0  0  0  0  0
  147.3613  138.4478  152.7837 N   0  0  0  0  0  0  0  0  0  0  0  0
  147.5977  139.5423  153.6590 C   0  0  0  0  0  0  0  0  0  0  0  0
  148.8611  139.8573  154.2158 C   0  0  0  0  0  0  0  0  0  0  0  0
  148.9724  140.9816  155.0563 C   0  0  0  0  0  0  0  0  0  0  0  0
  147.8204  141.7530  155.3038 C   0  0  0  0  0  0  0  0  0  0  0  0
  146.6133  141.4729  154.7688 N   0  0  0  0  0  0  0  0  0  0  0  0
  146.5145  140.3943  153.9629 C   0  0  0  0  0  0  0  0  0  0  0  0
  147.3006  136.6351  151.3125 H   0  0  0  0  0  0  0  0  0  0  0  0
  144.3441  136.4287  151.3969 H   0  0  0  0  0  0  0  0  0  0  0  0
  145.3438  135.9216  150.0669 H   0  0  0  0  0  0  0  0  0  0  0  0
  144.3687  134.2089  151.9692 H   0  0  0  0  0  0  0  0  0  0  0  0
  145.8855  135.2698  153.7430 H   0  0  0  0  0  0  0  0  0  0  0  0
  145.9892  133.5262  153.5759 H   0  0  0  0  0  0  0  0  0  0  0  0
  148.6705  135.5153  154.3559 H   0  0  0  0  0  0  0  0  0  0  0  0
  148.2250  133.8314  154.6519 H   0  0  0  0  0  0  0  0  0  0  0  0
  150.6783  134.7961  153.3277 H   0  0  0  0  0  0  0  0  0  0  0  0
  150.2587  133.1622  153.8271 H   0  0  0  0  0  0  0  0  0  0  0  0
  149.8701  134.4837  151.1603 H   0  0  0  0  0  0  0  0  0  0  0  0
  150.0787  132.7619  151.4888 H   0  0  0  0  0  0  0  0  0  0  0  0
  147.8033  132.5531  152.2620 H   0  0  0  0  0  0  0  0  0  0  0  0
  147.5418  134.6512  150.0340 H   0  0  0  0  0  0  0  0  0  0  0  0
  147.5847  132.9142  149.8074 H   0  0  0  0  0  0  0  0  0  0  0  0
  148.1618  138.1396  152.2512 H   0  0  0  0  0  0  0  0  0  0  0  0
  149.7433  139.2727  154.0059 H   0  0  0  0  0  0  0  0  0  0  0  0
  149.9208  141.2488  155.4979 H   0  0  0  0  0  0  0  0  0  0  0  0
  147.8717  142.6217  155.9432 H   0  0  0  0  0  0  0  0  0  0  0  0
  145.5343  140.2028  153.5508 H   0  0  0  0  0  0  0  0  0  0  0  0
  147.7774  135.4536  152.2955 H   0  0  0  0  0  0  0  0  0  0  0  0
  1  2  2  0  0  0  0
  2  3  1  0  0  0  0
  2 14  1  0  0  0  0
  3  4  1  0  0  0  0
  3 21  1  0  0  0  0
  4  5  1  0  0  0  0
  4 22  1  0  0  0  0
  4 23  1  0  0  0  0
  5 13  1  0  0  0  0
  5  6  1  0  0  0  0
  5 24  1  0  0  0  0
  6  7  1  0  0  0  0
  6 25  1  0  0  0  0
  6 26  1  0  0  0  0
  7 11  1  0  0  0  0
  7  8  1  0  0  0  0
  7 41  1  0  0  0  0
  8  9  1  0  0  0  0
  8 27  1  0  0  0  0
  8 28  1  0  0  0  0
  9 10  1  0  0  0  0
  9 29  1  0  0  0  0
  9 30  1  0  0  0  0
 10 11  1  0  0  0  0
 10 31  1  0  0  0  0
 10 32  1  0  0  0  0
 11 12  1  0  0  0  0
 11 33  1  0  0  0  0
 12 13  1  0  0  0  0
 12 34  1  0  0  0  0
 12 35  1  0  0  0  0
 14 15  1  0  0  0  0
 14 36  1  0  0  0  0
 15 20  1  0  0  0  0
 15 16  2  0  0  0  0
 16 17  1  0  0  0  0
 16 37  1  0  0  0  0
 17 18  2  0  0  0  0
 17 38  1  0  0  0  0
 18 19  1  0  0  0  0
 18 39  1  0  0  0  0
 19 20  2  0  0  0  0
 20 40  1  0  0  0  0
M  CHG  1   7   1
M  END
> <s_m_source_file>
AV-unprocessed.smi

> <i_m_source_file_index>
618

> <i_lp_mmshare_version>
43012

> <i_f3d_flags>
0

> <s_epik_input>
W2NIXTFuW2NIXVtjSF1bY0hdYzFbTkhdQyg9TylbTkhdW0NIMl1bQ0BIXShbQ0gyXTIpT1tDSDJdW0NAQEhdKE4yMylbQ0gyXVtDSDJdW0NIMl0z

> <s_epik_cmdline>
J2VwaWtfcHl0aG9uJywgJy1waCcsICc3LjAnLCAnLXRuJywgJzgnLCAnLW1hJywgJzIwMCcsICctbWV0YWxfYmluZGluZycsICctaW1hZScsICc8aW5maWxlLm1hZT4nLCAnLW9tYWUnLCAnPG91dGZpbGUubWFlPic=

> <r_epik_Ionization_Penalty>
0.111044

> <r_epik_Ionization_Penalty_Charging>
0.10673

> <r_epik_Ionization_Penalty_Neutral>
0.00431361

> <r_epik_State_Penalty>
0.0978747

> <r_epik_Charging_Adjusted_Penalty>
0.204605

> <i_epik_Tot_Q>
1

> <i_epik_Tot_abs_Q>
1

> <r_epik_Metal_State_Penalty>
0.0947591

> <b_epik_Metal_Only>
0

> <s_lp_Force_Field>
OPLS_2005

> <r_lp_Energy>
41.554

> <b_lp_Chiralities_Consistent>
1

> <s_lp_Variant>
AV-unprocessed.smi:618-7

> <Gold.Version>
5.8.1

> <Gold.Id.Protein>
6NUR|6NUR_protein|mol2

> <Gold.PLP.Fitness>
45.3622

> <Gold.PLP.PLP>
-29.0807

> <Gold.PLP.part.hbond>
-3.7633

> <Gold.PLP.part.metal>
0.0000

> <Gold.PLP.part.buried>
0.6130

> <Gold.PLP.part.nonpolar>
-30.2040

> <Gold.PLP.part.repulsive>
3.6619

> <Gold.PLP.ligand.clash>
0.1761

> <Gold.PLP.ligand.torsion>
0.7522

> <Gold.PLP.Chemscore.Hbond>
3.9840

> <Gold.PLP.Chemscore.CHOScore>
2.0000

> <Gold.PLP.Chemscore.Metal>
0.0000

> <Gold.Chemscore.Hbonds>
donor molecule, donor type, donor heavy atom, donor atom, acceptor molecule, acceptor atom, score
      L1  H     3    21       P1  7948  0.88
      L1  H     7    41       P1  7948  1.12
      L1  H    14    36       P1  7948  0.60
      L1  C    18    39       P1  8028  1.00
      L1  C    20    40       P1 10175  1.00

> <Gold.PLP.Chemscore.Internal.Correction>
0.0101

> <Gold.Rescore>
     Score         DG    S(hbond)    S(metal)    S(lipo)     H(rot)  DE(clash)    DE(int)     intcor
     14.75     -19.81       2.79        0.00      70.57       1.27       1.49       3.58       ----

> <Gold.Chemscore.Fitness>
14.7466

> <Gold.Chemscore.DG>
-19.8127

> <Gold.Chemscore.ZeroCoef>
-5.4800

> <Gold.Chemscore.Hbond>
2.7891

> <Gold.Chemscore.Metal>
0.0000

> <Gold.Chemscore.Lipo>
70.5719

> <Gold.Chemscore.Internal_Hbond>
0.0000

> <Gold.Chemscore.DEClash>
1.4882

> <Gold.Chemscore.DEInternal>
3.5779

> <Gold.Chemscore.Rot>
1.2656

> <Gold.Chemscore.Internal.Correction>
   9.000000E+99

> <Gold.Chemscore.Hbonds>
donor molecule, donor type, donor heavy atom, donor atom, acceptor molecule, acceptor atom, score
      L1  H     3    21       P1  7948  0.87
      L1  H     7    41       P1  7948  0.55
      L1  H    14    36       P1  7948  0.59

> <Gold.Chemscore.Hbond.Weighted>
-9.3156

> <Gold.Chemscore.Metal.Weighted>
-0.0000

> <Gold.Chemscore.Lipo.Weighted>
-8.2569

> <Gold.Chemscore.Internal_Hbond.Weighted>
0.0000

> <Gold.Chemscore.DEClash.Weighted>
1.4882

> <Gold.Chemscore.DEInternal.Weighted>
3.5779

> <Gold.Chemscore.Rot.Weighted>
3.2399

> <Gold.Chemscore.Internal.Correction.Weighted>
   9.000000E+99

> <Gold.Protein.RotatedTorsions>
[ 6907 6896 6895 6894 ] final  150.27 input  -60.11 | X-H torsion
[ 7974 7965 7964 7962 ] final  -30.76 input  175.53 | X-H torsion
[ 8008 7997 7996 7995 ] final   78.00 input   59.86 | X-H torsion
[ 10167 10162 10161 10158 ] final  119.82 input  -65.29 | X-H torsion
[ 10718 10713 10712 10709 ] final  173.02 input   66.30 | X-H torsion
[ 10763 10752 10751 10750 ] final  -97.28 input  -60.55 | X-H torsion
[ 11005 11000 10999 10996 ] final  134.66 input  -57.11 | X-H torsion

> <Gold.Protein.ActiveResidues>
 VAL166  LYS551  ARG553  GLY616  TRP617  ASP618  TYR619  PRO620  LYS621  CYS622 
 ASP623  PHE694  ASN695  SER759  ASP760  ASP761  ALA762  ILE779  LEU786  VAL792 
 PHE793  MET794  SER795  GLU796  ALA797  LYS798  CYS799  TRP800  GLU811  SER814 

> <Gold.Protein.RotatedAtoms>
  152.1167  133.4330  159.4656 H   0  0  0  0  0  0  0  0  0  0  0  0  # atno 6907 bound_to 6896
  150.6870  134.2583  159.4548 H   0  0  0  0  0  0  0  0  0  0  0  0  # atno 6908 bound_to 6896
  152.0457  134.9684  160.0625 H   0  0  0  0  0  0  0  0  0  0  0  0  # atno 6909 bound_to 6896
  146.1119  140.5581  142.8774 H   0  0  0  0  0  0  0  0  0  0  0  0  # atno 7974 bound_to 7965
  155.8496  140.3458  155.5685 H   0  0  0  0  0  0  0  0  0  0  0  0  # atno 8008 bound_to 7997
  155.8052  140.0891  157.1954 H   0  0  0  0  0  0  0  0  0  0  0  0  # atno 8009 bound_to 7997
  154.4007  140.1458  156.3309 H   0  0  0  0  0  0  0  0  0  0  0  0  # atno 8010 bound_to 7997
  139.6021  144.7060  151.3038 H   0  0  0  0  0  0  0  0  0  0  0  0  # atno 10167 bound_to 10162
  156.9704  131.0088  151.2906 H   0  0  0  0  0  0  0  0  0  0  0  0  # atno 10718 bound_to 10713
  154.7314  135.5052  153.8970 H   0  0  0  0  0  0  0  0  0  0  0  0  # atno 10763 bound_to 10752
  153.0953  135.6670  153.9783 H   0  0  0  0  0  0  0  0  0  0  0  0  # atno 10764 bound_to 10752
  153.9584  135.3050  155.3414 H   0  0  0  0  0  0  0  0  0  0  0  0  # atno 10765 bound_to 10752
  139.9929  134.9508  156.9898 H   0  0  0  0  0  0  0  0  0  0  0  0  # atno 11005 bound_to 11000
  144.7519  140.5211  143.6796 LP  0  0  0  0  0  0  0  0  0  0  0  0  # atno 17320 bound_to 7965
  145.5647  139.1481  143.3322 LP  0  0  0  0  0  0  0  0  0  0  0  0  # atno 17321 bound_to 7965
  140.7258  143.7009  150.7846 LP  0  0  0  0  0  0  0  0  0  0  0  0  # atno 17342 bound_to 10162
  140.0587  143.5176  152.2638 LP  0  0  0  0  0  0  0  0  0  0  0  0  # atno 17343 bound_to 10162
  157.5596  130.8237  149.8249 LP  0  0  0  0  0  0  0  0  0  0  0  0  # atno 17370 bound_to 10713
  156.0285  130.3772  150.1755 LP  0  0  0  0  0  0  0  0  0  0  0  0  # atno 17371 bound_to 10713
  140.4874  134.1228  155.7227 LP  0  0  0  0  0  0  0  0  0  0  0  0  # atno 17394 bound_to 11000
  141.1581  133.8845  157.1924 LP  0  0  0  0  0  0  0  0  0  0  0  0  # atno 17395 bound_to 11000

$$$$
