AV-unprocessed.smi:3172|AV-procd|sdf|12116|dock4
  -GOLD-   2272017553D 1   1.00000     0.00000
 Structure written by MMmdl.
 43 44  0  0  0  0  0  0  0  0  2 V2000
  153.0544  142.8999  162.3948 C   0  0  0  0  0  0  0  0  0  0  0  0
  152.5026  143.4751  161.1273 C   0  0  0  0  0  0  0  0  0  0  0  0
  151.8819  144.7215  161.1081 N   0  0  0  0  0  0  0  0  0  0  0  0
  151.5366  144.8836  159.8390 C   0  0  0  0  0  0  0  0  0  0  0  0
  151.8657  143.8609  159.0373 N   0  0  0  0  0  0  0  0  0  0  0  0
  151.6070  143.7636  157.6101 C   0  0  0  0  0  0  0  0  0  0  0  0
  151.0530  142.3872  157.1884 C   0  0  1  0  0  0  0  0  0  0  0  0
  150.2073  141.7182  158.2855 C   0  0  0  0  0  0  0  0  0  0  0  0
  150.2501  142.5375  155.9537 N   0  3  0  0  0  0  0  0  0  0  0  0
  149.4278  141.3684  155.5676 C   0  0  0  0  0  0  0  0  0  0  0  0
  150.3460  140.1889  155.1947 C   0  0  0  0  0  0  0  0  0  0  0  0
  149.5366  138.9555  154.7634 C   0  0  0  0  0  0  0  0  0  0  0  0
  148.5889  139.2920  153.6020 C   0  0  0  0  0  0  0  0  0  0  0  0
  147.6669  140.4668  153.9633 C   0  0  0  0  0  0  0  0  0  0  0  0
  148.4765  141.6999  154.3971 C   0  0  0  0  0  0  0  0  0  0  0  0
  152.5065  142.9347  159.8586 C   0  0  0  0  0  0  0  0  0  0  0  0
  153.0577  141.6329  159.3715 C   0  0  0  0  0  0  0  0  0  0  0  0
  154.1353  142.7740  162.3297 H   0  0  0  0  0  0  0  0  0  0  0  0
  152.6186  141.9227  162.6045 H   0  0  0  0  0  0  0  0  0  0  0  0
  152.8488  143.5428  163.2515 H   0  0  0  0  0  0  0  0  0  0  0  0
  151.0249  145.7667  159.4849 H   0  0  0  0  0  0  0  0  0  0  0  0
  150.9044  144.5516  157.3341 H   0  0  0  0  0  0  0  0  0  0  0  0
  152.5336  143.9800  157.0772 H   0  0  0  0  0  0  0  0  0  0  0  0
  151.9032  141.7365  156.9827 H   0  0  0  0  0  0  0  0  0  0  0  0
  150.7985  141.5158  159.1790 H   0  0  0  0  0  0  0  0  0  0  0  0
  149.8027  140.7640  157.9472 H   0  0  0  0  0  0  0  0  0  0  0  0
  149.3671  142.3487  158.5780 H   0  0  0  0  0  0  0  0  0  0  0  0
  149.6524  143.3466  156.0445 H   0  0  0  0  0  0  0  0  0  0  0  0
  148.8367  141.0696  156.4351 H   0  0  0  0  0  0  0  0  0  0  0  0
  151.0159  140.4819  154.3848 H   0  0  0  0  0  0  0  0  0  0  0  0
  150.9818  139.9284  156.0418 H   0  0  0  0  0  0  0  0  0  0  0  0
  150.2119  138.1511  154.4708 H   0  0  0  0  0  0  0  0  0  0  0  0
  148.9593  138.5814  155.6100 H   0  0  0  0  0  0  0  0  0  0  0  0
  149.1716  139.5433  152.7148 H   0  0  0  0  0  0  0  0  0  0  0  0
  147.9925  138.4167  153.3430 H   0  0  0  0  0  0  0  0  0  0  0  0
  147.0343  140.7179  153.1114 H   0  0  0  0  0  0  0  0  0  0  0  0
  146.9949  140.1690  154.7693 H   0  0  0  0  0  0  0  0  0  0  0  0
  147.7863  142.4961  154.6765 H   0  0  0  0  0  0  0  0  0  0  0  0
  149.0507  142.0731  153.5477 H   0  0  0  0  0  0  0  0  0  0  0  0
  153.6722  141.1579  160.1363 H   0  0  0  0  0  0  0  0  0  0  0  0
  153.6819  141.7755  158.4892 H   0  0  0  0  0  0  0  0  0  0  0  0
  152.2552  140.9416  159.1148 H   0  0  0  0  0  0  0  0  0  0  0  0
  150.8979  142.7080  155.1978 H   0  0  0  0  0  0  0  0  0  0  0  0
  1  2  1  0  0  0  0
  1 18  1  0  0  0  0
  1 19  1  0  0  0  0
  1 20  1  0  0  0  0
  2 16  2  0  0  0  0
  2  3  1  0  0  0  0
  3  4  2  0  0  0  0
  4  5  1  0  0  0  0
  4 21  1  0  0  0  0
  5  6  1  0  0  0  0
  5 16  1  0  0  0  0
  6  7  1  0  0  0  0
  6 22  1  0  0  0  0
  6 23  1  0  0  0  0
  7  8  1  0  0  0  0
  7  9  1  0  0  0  0
  7 24  1  0  0  0  0
  8 25  1  0  0  0  0
  8 26  1  0  0  0  0
  8 27  1  0  0  0  0
  9 10  1  0  0  0  0
  9 28  1  0  0  0  0
  9 43  1  0  0  0  0
 10 15  1  0  0  0  0
 10 11  1  0  0  0  0
 10 29  1  0  0  0  0
 11 12  1  0  0  0  0
 11 30  1  0  0  0  0
 11 31  1  0  0  0  0
 12 13  1  0  0  0  0
 12 32  1  0  0  0  0
 12 33  1  0  0  0  0
 13 14  1  0  0  0  0
 13 34  1  0  0  0  0
 13 35  1  0  0  0  0
 14 15  1  0  0  0  0
 14 36  1  0  0  0  0
 14 37  1  0  0  0  0
 15 38  1  0  0  0  0
 15 39  1  0  0  0  0
 16 17  1  0  0  0  0
 17 40  1  0  0  0  0
 17 41  1  0  0  0  0
 17 42  1  0  0  0  0
M  CHG  1   9   1
M  END
> <s_m_source_file>
AV-unprocessed.smi

> <i_m_source_file_index>
3172

> <i_lp_mmshare_version>
43012

> <i_f3d_flags>
0

> <s_epik_input>
W0NIM11jMW5bY0hdbihjMVtDSDNdKVtDSDJdW0NASF0oW0NIM10pW05IXVtDSF0yW0NIMl1bQ0gyXVtDSDJdW0NIMl1bQ0gyXTI=

> <s_epik_cmdline>
J2VwaWtfcHl0aG9uJywgJy1waCcsICc3LjAnLCAnLXRuJywgJzgnLCAnLW1hJywgJzIwMCcsICctbWV0YWxfYmluZGluZycsICctaW1hZScsICc8aW5maWxlLm1hZT4nLCAnLW9tYWUnLCAnPG91dGZpbGUubWFlPic=

> <r_lp_tautomer_probability>
1

> <r_epik_Ionization_Penalty>
0.328572

> <r_epik_Ionization_Penalty_Charging>
0.328572

> <r_epik_Ionization_Penalty_Neutral>
3.58496e-13

> <r_epik_State_Penalty>
0.596179

> <r_epik_Charging_Adjusted_Penalty>
0.924751

> <i_epik_Tot_Q>
1

> <i_epik_Tot_abs_Q>
1

> <r_epik_Metal_State_Penalty>
0.00102252

> <b_epik_Metal_Only>
0

> <s_lp_Force_Field>
OPLS_2005

> <r_lp_Energy>
17.121

> <b_lp_Chiralities_Consistent>
1

> <s_lp_Variant>
AV-unprocessed.smi:3172-4

> <Gold.Version>
5.8.1

> <Gold.Id.Protein>
6NUR|6NUR_protein|mol2

> <Gold.PLP.Fitness>
49.2797

> <Gold.PLP.PLP>
-44.5193

> <Gold.PLP.part.hbond>
-1.0000

> <Gold.PLP.part.metal>
0.0000

> <Gold.PLP.part.buried>
-1.7405

> <Gold.PLP.part.nonpolar>
-41.5641

> <Gold.PLP.part.repulsive>
0.4266

> <Gold.PLP.ligand.clash>
0.0000

> <Gold.PLP.ligand.torsion>
0.6366

> <Gold.PLP.Chemscore.Hbond>
2.0000

> <Gold.PLP.Chemscore.CHOScore>
0.0000

> <Gold.PLP.Chemscore.Metal>
0.0000

> <Gold.Chemscore.Hbonds>
donor molecule, donor type, donor heavy atom, donor atom, acceptor molecule, acceptor atom, score
      L1  H     9    28       P1  8028  2.00

> <Gold.PLP.Chemscore.Internal.Correction>
0.0335

> <Gold.Rescore>
     Score         DG    S(hbond)    S(metal)    S(lipo)     H(rot)  DE(clash)    DE(int)     intcor
     16.72     -17.38       1.00        0.00     105.99       1.50       0.10       0.56       ----

> <Gold.Chemscore.Fitness>
16.7229

> <Gold.Chemscore.DG>
-17.3812

> <Gold.Chemscore.ZeroCoef>
-5.4800

> <Gold.Chemscore.Hbond>
0.9999

> <Gold.Chemscore.Metal>
0.0000

> <Gold.Chemscore.Lipo>
105.9924

> <Gold.Chemscore.Internal_Hbond>
0.0000

> <Gold.Chemscore.DEClash>
0.0969

> <Gold.Chemscore.DEInternal>
0.5615

> <Gold.Chemscore.Rot>
1.4999

> <Gold.Chemscore.Internal.Correction>
   9.000000E+99

> <Gold.Chemscore.Hbonds>
donor molecule, donor type, donor heavy atom, donor atom, acceptor molecule, acceptor atom, score
      L1  H     9    28       P1  8028  0.99

> <Gold.Chemscore.Hbond.Weighted>
-3.3398

> <Gold.Chemscore.Metal.Weighted>
-0.0000

> <Gold.Chemscore.Lipo.Weighted>
-12.4011

> <Gold.Chemscore.Internal_Hbond.Weighted>
0.0000

> <Gold.Chemscore.DEClash.Weighted>
0.0969

> <Gold.Chemscore.DEInternal.Weighted>
0.5615

> <Gold.Chemscore.Rot.Weighted>
3.8397

> <Gold.Chemscore.Internal.Correction.Weighted>
   9.000000E+99

> <Gold.Protein.RotatedTorsions>
[ 6907 6896 6895 6894 ] final -122.62 input  -60.11 | X-H torsion
[ 7974 7965 7964 7962 ] final -157.25 input  175.53 | X-H torsion
[ 8008 7997 7996 7995 ] final  122.30 input   59.86 | X-H torsion
[ 10167 10162 10161 10158 ] final  -50.87 input  -65.29 | X-H torsion
[ 10718 10713 10712 10709 ] final   96.54 input   66.30 | X-H torsion
[ 10763 10752 10751 10750 ] final   36.77 input  -60.55 | X-H torsion
[ 11005 11000 10999 10996 ] final  -77.03 input  -57.11 | X-H torsion

> <Gold.Protein.ActiveResidues>
 VAL166  LYS551  ARG553  GLY616  TRP617  ASP618  TYR619  PRO620  LYS621  CYS622 
 ASP623  PHE694  ASN695  SER759  ASP760  ASP761  ALA762  ILE779  LEU786  VAL792 
 PHE793  MET794  SER795  GLU796  ALA797  LYS798  CYS799  TRP800  GLU811  SER814 

> <Gold.Protein.RotatedAtoms>
  150.8593  133.7668  159.2997 H   0  0  0  0  0  0  0  0  0  0  0  0  # atno 6907 bound_to 6896
  151.5316  135.1067  159.9913 H   0  0  0  0  0  0  0  0  0  0  0  0  # atno 6908 bound_to 6896
  152.4614  133.7786  159.6894 H   0  0  0  0  0  0  0  0  0  0  0  0  # atno 6909 bound_to 6896
  144.7557  140.3996  143.6014 H   0  0  0  0  0  0  0  0  0  0  0  0  # atno 7974 bound_to 7965
  156.2722  140.2789  156.1446 H   0  0  0  0  0  0  0  0  0  0  0  0  # atno 8008 bound_to 7997
  155.0917  140.0388  157.2688 H   0  0  0  0  0  0  0  0  0  0  0  0  # atno 8009 bound_to 7997
  154.6884  140.2624  155.6843 H   0  0  0  0  0  0  0  0  0  0  0  0  # atno 8010 bound_to 7997
  140.6616  143.2641  151.4422 H   0  0  0  0  0  0  0  0  0  0  0  0  # atno 10167 bound_to 10162
  157.6925  131.0581  150.4507 H   0  0  0  0  0  0  0  0  0  0  0  0  # atno 10718 bound_to 10713
  153.0064  135.6296  154.2038 H   0  0  0  0  0  0  0  0  0  0  0  0  # atno 10763 bound_to 10752
  154.1781  135.2815  155.3062 H   0  0  0  0  0  0  0  0  0  0  0  0  # atno 10764 bound_to 10752
  154.5856  135.5634  153.7287 H   0  0  0  0  0  0  0  0  0  0  0  0  # atno 10765 bound_to 10752
  141.1658  133.7006  156.7758 H   0  0  0  0  0  0  0  0  0  0  0  0  # atno 11005 bound_to 11000
  145.6789  139.1614  143.2712 LP  0  0  0  0  0  0  0  0  0  0  0  0  # atno 17320 bound_to 7965
  146.1563  140.6853  142.9298 LP  0  0  0  0  0  0  0  0  0  0  0  0  # atno 17321 bound_to 7965
  139.5852  144.1620  152.2019 LP  0  0  0  0  0  0  0  0  0  0  0  0  # atno 17342 bound_to 10162
  140.0958  144.5582  150.7023 LP  0  0  0  0  0  0  0  0  0  0  0  0  # atno 17343 bound_to 10162
  156.4859  130.4084  149.6435 LP  0  0  0  0  0  0  0  0  0  0  0  0  # atno 17370 bound_to 10713
  156.3463  130.7408  151.2361 LP  0  0  0  0  0  0  0  0  0  0  0  0  # atno 17371 bound_to 10713
  140.2430  134.8599  157.3592 LP  0  0  0  0  0  0  0  0  0  0  0  0  # atno 17394 bound_to 11000
  140.1777  134.4529  155.7791 LP  0  0  0  0  0  0  0  0  0  0  0  0  # atno 17395 bound_to 11000

$$$$
