AV-unprocessed.smi:512|AV-procd|sdf|2768|dock9
  -GOLD-   2262023233D 1   1.00000     0.00000
 Structure written by MMmdl.
 49 51  0  0  0  0  0  0  0  0  2 V2000
  147.1804  141.8501  154.2324 C   0  0  0  0  0  0  0  0  0  0  0  0
  147.6632  140.4581  153.8187 C   0  0  0  0  0  0  0  0  0  0  0  0
  146.6287  139.5273  154.0803 O   0  0  0  0  0  0  0  0  0  0  0  0
  146.8866  138.2408  153.5415 C   0  0  0  0  0  0  0  0  0  0  0  0
  145.9591  137.2203  154.2154 C   0  0  0  0  0  0  0  0  0  0  0  0
  146.4921  135.8630  154.1173 N   0  0  0  0  0  0  0  0  0  0  0  0
  146.0263  134.8170  153.3833 C   0  0  0  0  0  0  0  0  0  0  0  0
  144.9240  134.9428  152.5391 N   0  0  0  0  0  0  0  0  0  0  0  0
  144.9230  135.6458  151.2586 C   0  0  0  0  0  0  0  0  0  0  0  0
  144.9280  134.6586  150.0765 C   0  0  0  0  0  0  0  0  0  0  0  0
  143.7859  133.7175  150.1638 N   0  3  0  0  0  0  0  0  0  0  0  0
  143.7491  132.7599  149.0382 C   0  0  0  0  0  0  0  0  0  0  0  0
  143.7235  133.0486  151.4847 C   0  0  0  0  0  0  0  0  0  0  0  0
  143.7442  134.0876  152.6185 C   0  0  0  0  0  0  0  0  0  0  0  0
  146.6823  133.6681  153.5669 N   0  0  0  0  0  0  0  0  0  0  0  0
  147.6662  134.0145  154.4810 C   0  0  0  0  0  0  0  0  0  0  0  0
  147.5654  135.3233  154.8266 C   0  0  0  0  0  0  0  0  0  0  0  0
  148.4614  135.9510  155.8064 C   0  0  0  0  0  0  0  0  0  0  0  0
  148.3725  137.1277  156.1497 O   0  0  0  0  0  0  0  0  0  0  0  0
  149.3944  135.0984  156.2955 N   0  0  0  0  0  0  0  0  0  0  0  0
  149.5582  133.7765  155.9833 C   0  0  0  0  0  0  0  0  0  0  0  0
  150.4632  133.1281  156.5081 O   0  0  0  0  0  0  0  0  0  0  0  0
  148.6872  133.2225  155.0798 N   0  0  0  0  0  0  0  0  0  0  0  0
  148.8114  131.8107  154.7132 C   0  0  0  0  0  0  0  0  0  0  0  0
  150.0417  135.4819  156.9688 H   0  0  0  0  0  0  0  0  0  0  0  0
  147.9495  142.6006  154.0489 H   0  0  0  0  0  0  0  0  0  0  0  0
  146.9315  141.8777  155.2934 H   0  0  0  0  0  0  0  0  0  0  0  0
  146.2907  142.1377  153.6720 H   0  0  0  0  0  0  0  0  0  0  0  0
  147.9191  140.4495  152.7583 H   0  0  0  0  0  0  0  0  0  0  0  0
  148.5603  140.1925  154.3798 H   0  0  0  0  0  0  0  0  0  0  0  0
  146.7168  138.2449  152.4640 H   0  0  0  0  0  0  0  0  0  0  0  0
  147.9293  137.9660  153.7082 H   0  0  0  0  0  0  0  0  0  0  0  0
  145.8184  137.4946  155.2577 H   0  0  0  0  0  0  0  0  0  0  0  0
  144.9649  137.2510  153.7719 H   0  0  0  0  0  0  0  0  0  0  0  0
  144.0528  136.3017  151.2072 H   0  0  0  0  0  0  0  0  0  0  0  0
  145.8040  136.2829  151.1842 H   0  0  0  0  0  0  0  0  0  0  0  0
  144.8810  135.2071  149.1349 H   0  0  0  0  0  0  0  0  0  0  0  0
  145.8626  134.0948  150.0711 H   0  0  0  0  0  0  0  0  0  0  0  0
  144.6264  132.1118  149.0465 H   0  0  0  0  0  0  0  0  0  0  0  0
  143.7225  133.2888  148.0850 H   0  0  0  0  0  0  0  0  0  0  0  0
  142.8592  132.1323  149.0961 H   0  0  0  0  0  0  0  0  0  0  0  0
  142.8160  132.4474  151.5494 H   0  0  0  0  0  0  0  0  0  0  0  0
  144.5685  132.3658  151.5899 H   0  0  0  0  0  0  0  0  0  0  0  0
  143.7241  133.5842  153.5858 H   0  0  0  0  0  0  0  0  0  0  0  0
  142.8499  134.7111  152.5785 H   0  0  0  0  0  0  0  0  0  0  0  0
  149.7347  131.6444  154.1569 H   0  0  0  0  0  0  0  0  0  0  0  0
  147.9854  131.4651  154.0917 H   0  0  0  0  0  0  0  0  0  0  0  0
  148.8302  131.1785  155.6021 H   0  0  0  0  0  0  0  0  0  0  0  0
  142.9497  134.2797  150.0926 H   0  0  0  0  0  0  0  0  0  0  0  0
  1  2  1  0  0  0  0
  1 26  1  0  0  0  0
  1 27  1  0  0  0  0
  1 28  1  0  0  0  0
  2  3  1  0  0  0  0
  2 29  1  0  0  0  0
  2 30  1  0  0  0  0
  3  4  1  0  0  0  0
  4  5  1  0  0  0  0
  4 31  1  0  0  0  0
  4 32  1  0  0  0  0
  5  6  1  0  0  0  0
  5 33  1  0  0  0  0
  5 34  1  0  0  0  0
  6 17  1  0  0  0  0
  6  7  1  0  0  0  0
  7  8  1  0  0  0  0
  7 15  2  0  0  0  0
  8 14  1  0  0  0  0
  8  9  1  0  0  0  0
  9 10  1  0  0  0  0
  9 35  1  0  0  0  0
  9 36  1  0  0  0  0
 10 11  1  0  0  0  0
 10 37  1  0  0  0  0
 10 38  1  0  0  0  0
 11 12  1  0  0  0  0
 11 13  1  0  0  0  0
 11 49  1  0  0  0  0
 12 39  1  0  0  0  0
 12 40  1  0  0  0  0
 12 41  1  0  0  0  0
 13 14  1  0  0  0  0
 13 42  1  0  0  0  0
 13 43  1  0  0  0  0
 14 44  1  0  0  0  0
 14 45  1  0  0  0  0
 15 16  1  0  0  0  0
 16 23  1  0  0  0  0
 16 17  2  0  0  0  0
 17 18  1  0  0  0  0
 18 19  2  0  0  0  0
 18 20  1  0  0  0  0
 20 25  1  0  0  0  0
 20 21  1  0  0  0  0
 21 22  2  0  0  0  0
 21 23  1  0  0  0  0
 23 24  1  0  0  0  0
 24 46  1  0  0  0  0
 24 47  1  0  0  0  0
 24 48  1  0  0  0  0
M  CHG  1  11   1
M  END
> <s_m_source_file>
AV-unprocessed.smi

> <i_m_source_file_index>
512

> <i_lp_mmshare_version>
43012

> <i_f3d_flags>
0

> <s_epik_input>
W0NIM11uMWMoPU8pW25IXWMoPU8pYyhjMTIpbihbQ0gyXVtDSDJdT1tDSDJdW0NIM10pYyhuMilOM1tDSDJdW0NIMl1OKFtDSDNdKVtDSDJdW0NIMl0z

> <s_epik_cmdline>
J2VwaWtfcHl0aG9uJywgJy1waCcsICc3LjAnLCAnLXRuJywgJzgnLCAnLW1hJywgJzIwMCcsICctbWV0YWxfYmluZGluZycsICctaW1hZScsICc8aW5maWxlLm1hZT4nLCAnLW9tYWUnLCAnPG91dGZpbGUubWFlPic=

> <r_epik_Ionization_Penalty>
0.06478

> <r_epik_Ionization_Penalty_Charging>
0.0647782

> <r_epik_Ionization_Penalty_Neutral>
1.82007e-06

> <r_epik_State_Penalty>
0.0564218

> <r_epik_Charging_Adjusted_Penalty>
0.1212

> <i_epik_Tot_Q>
1

> <i_epik_Tot_abs_Q>
1

> <r_epik_Metal_State_Penalty>
0.0827594

> <b_epik_Metal_Only>
0

> <s_lp_Force_Field>
OPLS_2005

> <r_lp_Energy>
46.3907

> <b_lp_Chiralities_Consistent>
1

> <s_lp_Variant>
AV-unprocessed.smi:512-1

> <Gold.Version>
5.8.1

> <Gold.Id.Protein>
6NUR|6NUR_protein|mol2

> <Gold.PLP.Fitness>
34.4354

> <Gold.PLP.PLP>
-30.8015

> <Gold.PLP.part.hbond>
-1.0000

> <Gold.PLP.part.metal>
0.0000

> <Gold.PLP.part.buried>
1.9039

> <Gold.PLP.part.nonpolar>
-31.6963

> <Gold.PLP.part.repulsive>
0.3882

> <Gold.PLP.ligand.clash>
0.0000

> <Gold.PLP.ligand.torsion>
1.5018

> <Gold.PLP.Chemscore.Hbond>
2.0000

> <Gold.PLP.Chemscore.CHOScore>
0.0000

> <Gold.PLP.Chemscore.Metal>
0.0000

> <Gold.Chemscore.Hbonds>
donor molecule, donor type, donor heavy atom, donor atom, acceptor molecule, acceptor atom, score
      L1  H    11    49       P1 10186  1.98

> <Gold.PLP.Chemscore.Internal.Correction>
0.6375

> <Gold.Rescore>
     Score         DG    S(hbond)    S(metal)    S(lipo)     H(rot)  DE(clash)    DE(int)     intcor
      9.37     -12.69       0.97        0.00      70.32       1.66       1.69       1.63       ----

> <Gold.Chemscore.Fitness>
9.3744

> <Gold.Chemscore.DG>
-12.6899

> <Gold.Chemscore.ZeroCoef>
-5.4800

> <Gold.Chemscore.Hbond>
0.9661

> <Gold.Chemscore.Metal>
0.0000

> <Gold.Chemscore.Lipo>
70.3205

> <Gold.Chemscore.Internal_Hbond>
0.0000

> <Gold.Chemscore.DEClash>
1.6895

> <Gold.Chemscore.DEInternal>
1.6260

> <Gold.Chemscore.Rot>
1.6579

> <Gold.Chemscore.Internal.Correction>
   9.000000E+99

> <Gold.Chemscore.Hbonds>
donor molecule, donor type, donor heavy atom, donor atom, acceptor molecule, acceptor atom, score
      L1  H    11    49       P1 10186  0.83

> <Gold.Chemscore.Hbond.Weighted>
-3.2266

> <Gold.Chemscore.Metal.Weighted>
-0.0000

> <Gold.Chemscore.Lipo.Weighted>
-8.2275

> <Gold.Chemscore.Internal_Hbond.Weighted>
0.0000

> <Gold.Chemscore.DEClash.Weighted>
1.6895

> <Gold.Chemscore.DEInternal.Weighted>
1.6260

> <Gold.Chemscore.Rot.Weighted>
4.2442

> <Gold.Chemscore.Internal.Correction.Weighted>
   9.000000E+99

> <Gold.Protein.RotatedTorsions>
[ 6907 6896 6895 6894 ] final    5.52 input  -60.11 | X-H torsion
[ 7974 7965 7964 7962 ] final   37.37 input  175.53 | X-H torsion
[ 8008 7997 7996 7995 ] final  175.65 input   59.86 | X-H torsion
[ 10167 10162 10161 10158 ] final  144.05 input  -65.29 | X-H torsion
[ 10718 10713 10712 10709 ] final  119.97 input   66.30 | X-H torsion
[ 10763 10752 10751 10750 ] final  -82.74 input  -60.55 | X-H torsion
[ 11005 11000 10999 10996 ] final  128.90 input  -57.11 | X-H torsion

> <Gold.Protein.ActiveResidues>
 VAL166  LYS551  ARG553  GLY616  TRP617  ASP618  TYR619  PRO620  LYS621  CYS622 
 ASP623  PHE694  ASN695  SER759  ASP760  ASP761  ALA762  ILE779  LEU786  VAL792 
 PHE793  MET794  SER795  GLU796  ALA797  LYS798  CYS799  TRP800  GLU811  SER814 

> <Gold.Protein.RotatedAtoms>
  151.6589  135.0992  160.0175 H   0  0  0  0  0  0  0  0  0  0  0  0  # atno 6907 bound_to 6896
  152.3958  133.6741  159.6283 H   0  0  0  0  0  0  0  0  0  0  0  0  # atno 6908 bound_to 6896
  150.7865  133.8793  159.3322 H   0  0  0  0  0  0  0  0  0  0  0  0  # atno 6909 bound_to 6896
  146.1142  139.5902  142.9332 H   0  0  0  0  0  0  0  0  0  0  0  0  # atno 7974 bound_to 7965
  156.0848  140.1403  156.9667 H   0  0  0  0  0  0  0  0  0  0  0  0  # atno 8008 bound_to 7997
  154.4606  140.0944  156.6930 H   0  0  0  0  0  0  0  0  0  0  0  0  # atno 8009 bound_to 7997
  155.5017  140.3451  155.4374 H   0  0  0  0  0  0  0  0  0  0  0  0  # atno 8010 bound_to 7997
  139.4956  144.5999  151.6503 H   0  0  0  0  0  0  0  0  0  0  0  0  # atno 10167 bound_to 10162
  157.5924  131.1062  150.7970 H   0  0  0  0  0  0  0  0  0  0  0  0  # atno 10718 bound_to 10713
  154.5794  135.5580  153.7171 H   0  0  0  0  0  0  0  0  0  0  0  0  # atno 10763 bound_to 10752
  153.0076  135.6316  154.2003 H   0  0  0  0  0  0  0  0  0  0  0  0  # atno 10764 bound_to 10752
  154.1944  135.2881  155.2991 H   0  0  0  0  0  0  0  0  0  0  0  0  # atno 10765 bound_to 10752
  139.9586  134.9607  156.9070 H   0  0  0  0  0  0  0  0  0  0  0  0  # atno 11005 bound_to 11000
  145.5600  141.0405  143.2231 LP  0  0  0  0  0  0  0  0  0  0  0  0  # atno 17320 bound_to 7965
  144.7538  139.7125  143.7262 LP  0  0  0  0  0  0  0  0  0  0  0  0  # atno 17321 bound_to 7965
  140.5646  144.0211  150.6186 LP  0  0  0  0  0  0  0  0  0  0  0  0  # atno 17342 bound_to 10162
  140.3309  143.3078  152.0688 LP  0  0  0  0  0  0  0  0  0  0  0  0  # atno 17343 bound_to 10162
  156.8389  130.5041  149.5323 LP  0  0  0  0  0  0  0  0  0  0  0  0  # atno 17370 bound_to 10713
  156.0981  130.5948  150.9848 LP  0  0  0  0  0  0  0  0  0  0  0  0  # atno 17371 bound_to 10713
  140.5552  134.0588  155.7381 LP  0  0  0  0  0  0  0  0  0  0  0  0  # atno 17394 bound_to 11000
  141.1260  133.9381  157.2633 LP  0  0  0  0  0  0  0  0  0  0  0  0  # atno 17395 bound_to 11000

$$$$
