AV-unprocessed.smi:338|AV-procd|sdf|2377|dock6
  -GOLD-   2262022303D 1   1.00000     0.00000
 Structure written by MMmdl.
 42 44  0  0  0  0  0  0  0  0  2 V2000
  147.5530  134.5637  162.6004 C   0  0  0  0  0  0  0  0  0  0  0  0
  147.7606  135.7982  161.7247 C   0  0  0  0  0  0  0  0  0  0  0  0
  147.6685  136.9108  162.2426 O   0  0  0  0  0  0  0  0  0  0  0  0
  148.0688  135.5842  160.2814 C   0  0  0  0  0  0  0  0  0  0  0  0
  148.0478  134.2943  159.7017 C   0  0  0  0  0  0  0  0  0  0  0  0
  148.3408  134.1245  158.3363 C   0  0  0  0  0  0  0  0  0  0  0  0
  148.6571  135.2384  157.5381 C   0  0  0  0  0  0  0  0  0  0  0  0
  148.6846  136.5336  158.0907 C   0  0  0  0  0  0  0  0  0  0  0  0
  149.0040  137.5680  157.2374 O   0  0  0  0  0  0  0  0  0  0  0  0
  149.5236  138.7680  157.7950 C   0  0  0  0  0  0  0  0  0  0  0  0
  151.0552  138.6707  157.8353 C   0  0  1  0  0  0  0  0  0  0  0  0
  151.5494  138.7254  156.5116 O   0  0  0  0  0  0  0  0  0  0  0  0
  151.6947  139.7958  158.6734 C   0  0  0  0  0  0  0  0  0  0  0  0
  151.3078  141.1356  158.2144 N   0  0  0  0  0  0  0  0  0  0  0  0
  150.6030  141.5153  157.1142 C   0  0  0  0  0  0  0  0  0  0  0  0
  150.5132  142.8744  157.1332 N   0  3  0  0  0  0  0  0  0  0  0  0
  151.1705  143.3696  158.2619 C   0  0  0  0  0  0  0  0  0  0  0  0
  151.3527  144.6731  158.7138 C   0  0  0  0  0  0  0  0  0  0  0  0
  152.0786  144.8315  159.9128 C   0  0  0  0  0  0  0  0  0  0  0  0
  152.5917  143.7207  160.6141 C   0  0  0  0  0  0  0  0  0  0  0  0
  152.4010  142.4034  160.1471 C   0  0  0  0  0  0  0  0  0  0  0  0
  151.6825  142.2565  158.9613 C   0  0  0  0  0  0  0  0  0  0  0  0
  148.3869  136.6969  159.4675 C   0  0  0  0  0  0  0  0  0  0  0  0
  146.6985  133.9852  162.2490 H   0  0  0  0  0  0  0  0  0  0  0  0
  147.3643  134.8562  163.6337 H   0  0  0  0  0  0  0  0  0  0  0  0
  148.4391  133.9291  162.5833 H   0  0  0  0  0  0  0  0  0  0  0  0
  147.8082  133.4182  160.2853 H   0  0  0  0  0  0  0  0  0  0  0  0
  148.3228  133.1367  157.8999 H   0  0  0  0  0  0  0  0  0  0  0  0
  148.8814  135.0973  156.4909 H   0  0  0  0  0  0  0  0  0  0  0  0
  149.2269  139.6136  157.1720 H   0  0  0  0  0  0  0  0  0  0  0  0
  149.1312  138.9316  158.8003 H   0  0  0  0  0  0  0  0  0  0  0  0
  151.3346  137.7003  158.2468 H   0  0  0  0  0  0  0  0  0  0  0  0
  151.0100  138.1721  155.9671 H   0  0  0  0  0  0  0  0  0  0  0  0
  151.3955  139.7077  159.7187 H   0  0  0  0  0  0  0  0  0  0  0  0
  152.7834  139.7293  158.6563 H   0  0  0  0  0  0  0  0  0  0  0  0
  150.1932  140.8576  156.3612 H   0  0  0  0  0  0  0  0  0  0  0  0
  150.9615  145.5259  158.1787 H   0  0  0  0  0  0  0  0  0  0  0  0
  152.2457  145.8254  160.3022 H   0  0  0  0  0  0  0  0  0  0  0  0
  153.1433  143.8818  161.5290 H   0  0  0  0  0  0  0  0  0  0  0  0
  152.7979  141.5578  160.6893 H   0  0  0  0  0  0  0  0  0  0  0  0
  148.3996  137.6788  159.9155 H   0  0  0  0  0  0  0  0  0  0  0  0
  150.0390  143.4208  156.4257 H   0  0  0  0  0  0  0  0  0  0  0  0
  1  2  1  0  0  0  0
  1 24  1  0  0  0  0
  1 25  1  0  0  0  0
  1 26  1  0  0  0  0
  2  3  2  0  0  0  0
  2  4  1  0  0  0  0
  4 23  1  0  0  0  0
  4  5  2  0  0  0  0
  5  6  1  0  0  0  0
  5 27  1  0  0  0  0
  6  7  2  0  0  0  0
  6 28  1  0  0  0  0
  7  8  1  0  0  0  0
  7 29  1  0  0  0  0
  8  9  1  0  0  0  0
  8 23  2  0  0  0  0
  9 10  1  0  0  0  0
 10 11  1  0  0  0  0
 10 30  1  0  0  0  0
 10 31  1  0  0  0  0
 11 12  1  0  0  0  0
 11 13  1  0  0  0  0
 11 32  1  0  0  0  0
 12 33  1  0  0  0  0
 13 14  1  0  0  0  0
 13 34  1  0  0  0  0
 13 35  1  0  0  0  0
 14 22  1  0  0  0  0
 14 15  1  0  0  0  0
 15 16  2  0  0  0  0
 15 36  1  0  0  0  0
 16 17  1  0  0  0  0
 16 42  1  0  0  0  0
 17 22  2  0  0  0  0
 17 18  1  0  0  0  0
 18 19  2  0  0  0  0
 18 37  1  0  0  0  0
 19 20  1  0  0  0  0
 19 38  1  0  0  0  0
 20 21  2  0  0  0  0
 20 39  1  0  0  0  0
 21 22  1  0  0  0  0
 21 40  1  0  0  0  0
 23 41  1  0  0  0  0
M  CHG  1  16   1
M  END
> <s_m_source_file>
AV-unprocessed.smi

> <i_m_source_file_index>
338

> <i_lp_mmshare_version>
43012

> <i_f3d_flags>
0

> <s_epik_input>
W0NIM11DKD1PKWMxW2NIXVtjSF1bY0hdYyhbY0hdMSlPW0NIMl1bQ0BIXShbT0hdKVtDSDJdbihbY0hdbjIpYyhjMjMpW2NIXVtjSF1bY0hdW2NIXTM=

> <s_epik_cmdline>
J2VwaWtfcHl0aG9uJywgJy1waCcsICc3LjAnLCAnLXRuJywgJzgnLCAnLW1hJywgJzIwMCcsICctbWV0YWxfYmluZGluZycsICctaW1hZScsICc8aW5maWxlLm1hZT4nLCAnLW9tYWUnLCAnPG91dGZpbGUubWFlPic=

> <r_lp_tautomer_probability>
0.99995

> <r_epik_Ionization_Penalty>
1.35015

> <r_epik_Ionization_Penalty_Charging>
1.35015

> <r_epik_Ionization_Penalty_Neutral>
2.3993e-06

> <r_epik_State_Penalty>
1.42814

> <r_epik_Charging_Adjusted_Penalty>
2.77829

> <i_epik_Tot_Q>
1

> <i_epik_Tot_abs_Q>
1

> <r_epik_Metal_State_Penalty>
5.46522

> <b_epik_Metal_Only>
0

> <s_lp_Force_Field>
OPLS_2005

> <r_lp_Energy>
25.8652

> <b_lp_Chiralities_Consistent>
1

> <s_lp_Variant>
AV-unprocessed.smi:338-4

> <Gold.Version>
5.8.1

> <Gold.Id.Protein>
6NUR|6NUR_protein|mol2

> <Gold.PLP.Fitness>
55.1174

> <Gold.PLP.PLP>
-47.1364

> <Gold.PLP.part.hbond>
-3.0000

> <Gold.PLP.part.metal>
0.0000

> <Gold.PLP.part.buried>
-7.2487

> <Gold.PLP.part.nonpolar>
-36.8222

> <Gold.PLP.part.repulsive>
0.0264

> <Gold.PLP.ligand.clash>
0.0000

> <Gold.PLP.ligand.torsion>
0.6598

> <Gold.PLP.Chemscore.Hbond>
3.0642

> <Gold.PLP.Chemscore.CHOScore>
0.0000

> <Gold.PLP.Chemscore.Metal>
0.0000

> <Gold.Chemscore.Hbonds>
donor molecule, donor type, donor heavy atom, donor atom, acceptor molecule, acceptor atom, score
      L1  H    16    42       P1  8028  2.00
      P1  H  6931  6943       L1     3  1.00

> <Gold.PLP.Chemscore.Internal.Correction>
0.1079

> <Gold.Rescore>
     Score         DG    S(hbond)    S(metal)    S(lipo)     H(rot)  DE(clash)    DE(int)     intcor
     18.41     -20.28       2.63        0.00     105.61       2.48       0.02       1.84       ----

> <Gold.Chemscore.Fitness>
18.4139

> <Gold.Chemscore.DG>
-20.2776

> <Gold.Chemscore.ZeroCoef>
-5.4800

> <Gold.Chemscore.Hbond>
2.6348

> <Gold.Chemscore.Metal>
0.0000

> <Gold.Chemscore.Lipo>
105.6132

> <Gold.Chemscore.Internal_Hbond>
0.0000

> <Gold.Chemscore.DEClash>
0.0217

> <Gold.Chemscore.DEInternal>
1.8420

> <Gold.Chemscore.Rot>
2.4842

> <Gold.Chemscore.Internal.Correction>
   9.000000E+99

> <Gold.Chemscore.Hbonds>
donor molecule, donor type, donor heavy atom, donor atom, acceptor molecule, acceptor atom, score
      L1  H    16    42       P1  8028  0.99
      P1  H  6931  6943       L1     3  0.95

> <Gold.Chemscore.Hbond.Weighted>
-8.8003

> <Gold.Chemscore.Metal.Weighted>
-0.0000

> <Gold.Chemscore.Lipo.Weighted>
-12.3567

> <Gold.Chemscore.Internal_Hbond.Weighted>
0.0000

> <Gold.Chemscore.DEClash.Weighted>
0.0217

> <Gold.Chemscore.DEInternal.Weighted>
1.8420

> <Gold.Chemscore.Rot.Weighted>
6.3594

> <Gold.Chemscore.Internal.Correction.Weighted>
   9.000000E+99

> <Gold.Protein.RotatedTorsions>
[ 6907 6896 6895 6894 ] final -144.67 input  -60.11 | X-H torsion
[ 7974 7965 7964 7962 ] final   49.23 input  175.53 | X-H torsion
[ 8008 7997 7996 7995 ] final    5.92 input   59.86 | X-H torsion
[ 10167 10162 10161 10158 ] final   67.06 input  -65.29 | X-H torsion
[ 10718 10713 10712 10709 ] final   -6.14 input   66.30 | X-H torsion
[ 10763 10752 10751 10750 ] final -161.07 input  -60.55 | X-H torsion
[ 11005 11000 10999 10996 ] final   52.04 input  -57.11 | X-H torsion

> <Gold.Protein.ActiveResidues>
 VAL166  LYS551  ARG553  GLY616  TRP617  ASP618  TYR619  PRO620  LYS621  CYS622 
 ASP623  PHE694  ASN695  SER759  ASP760  ASP761  ALA762  ILE779  LEU786  VAL792 
 PHE793  MET794  SER795  GLU796  ALA797  LYS798  CYS799  TRP800  GLU811  SER814 

> <Gold.Protein.RotatedAtoms>
  151.1172  133.5130  159.2603 H   0  0  0  0  0  0  0  0  0  0  0  0  # atno 6907 bound_to 6896
  151.1902  135.0398  159.8839 H   0  0  0  0  0  0  0  0  0  0  0  0  # atno 6908 bound_to 6896
  152.5454  134.1013  159.8372 H   0  0  0  0  0  0  0  0  0  0  0  0  # atno 6909 bound_to 6896
  146.0128  139.4563  142.9945 H   0  0  0  0  0  0  0  0  0  0  0  0  # atno 7974 bound_to 7965
  154.7344  140.2737  155.6427 H   0  0  0  0  0  0  0  0  0  0  0  0  # atno 8008 bound_to 7997
  156.2858  140.2709  156.1979 H   0  0  0  0  0  0  0  0  0  0  0  0  # atno 8009 bound_to 7997
  155.0339  140.0371  157.2474 H   0  0  0  0  0  0  0  0  0  0  0  0  # atno 8010 bound_to 7997
  140.0936  144.4966  150.7082 H   0  0  0  0  0  0  0  0  0  0  0  0  # atno 10167 bound_to 10162
  156.7362  130.5195  149.5834 H   0  0  0  0  0  0  0  0  0  0  0  0  # atno 10718 bound_to 10713
  154.7335  135.3052  154.8850 H   0  0  0  0  0  0  0  0  0  0  0  0  # atno 10763 bound_to 10752
  153.9686  135.6744  153.4750 H   0  0  0  0  0  0  0  0  0  0  0  0  # atno 10764 bound_to 10752
  153.0941  135.4945  154.8667 H   0  0  0  0  0  0  0  0  0  0  0  0  # atno 10765 bound_to 10752
  140.0882  134.5245  155.8878 H   0  0  0  0  0  0  0  0  0  0  0  0  # atno 11005 bound_to 11000
  145.7315  141.0040  143.1349 LP  0  0  0  0  0  0  0  0  0  0  0  0  # atno 17320 bound_to 7965
  144.6959  139.8990  143.7457 LP  0  0  0  0  0  0  0  0  0  0  0  0  # atno 17321 bound_to 7965
  140.7015  143.2438  151.4850 LP  0  0  0  0  0  0  0  0  0  0  0  0  # atno 17342 bound_to 10162
  139.5710  144.1927  152.1837 LP  0  0  0  0  0  0  0  0  0  0  0  0  # atno 17343 bound_to 10162
  156.1495  130.6300  151.0576 LP  0  0  0  0  0  0  0  0  0  0  0  0  # atno 17370 bound_to 10713
  157.6838  131.0831  150.7299 LP  0  0  0  0  0  0  0  0  0  0  0  0  # atno 17371 bound_to 10713
  141.2069  133.6660  156.6274 LP  0  0  0  0  0  0  0  0  0  0  0  0  # atno 17394 bound_to 11000
  140.3389  134.7865  157.4383 LP  0  0  0  0  0  0  0  0  0  0  0  0  # atno 17395 bound_to 11000

$$$$
