#       Name:                AV-unprocessed.smi:16
#       Creating user name   scv26
#       Creation time:       Thu Mar 26 15:24:19 2020


#       File generated by GOLD software.
#

@<TRIPOS>MOLECULE
AV-unprocessed.smi:16
    70    74     1
SMALL
NO_CHARGES


@<TRIPOS>ATOM
      1 ****        -0.4650  -0.9226   3.2034 C.3            1 S1                 0.0000
      2 ****        -1.9755  -1.0678   3.4508 C.3            1 S1                 0.0000
      3 ****        -2.7609  -0.6925   2.2762 N.3            1 S1                 0.0000
      4 ****        -4.1246  -1.2061   2.4207 C.3            1 S1                 0.0000
      5 ****        -4.9293  -0.9348   1.1395 C.3            1 S1                 0.0000
      6 ****        -4.9862   0.5757   0.8479 C.3            1 S1                 0.0000
      7 ****        -5.6951   0.8903  -0.3534 O.3            1 S1                 0.0000
      8 ****        -5.0163   0.5388  -1.5571 C.3            1 S1                 0.0000
      9 ****        -3.6365   1.2101  -1.5955 C.3            1 S1                 0.0000
     10 ****        -2.8744   0.8466  -0.4087 N.3            1 S1                 0.0000
     11 ****        -1.5801   1.2241  -0.4823 C.ar           1 S1                 0.0000
     12 ****        -1.2492   2.5417  -0.4548 N.ar           1 S1                 0.0000
     13 ****         0.0375   2.9027  -0.4871 C.ar           1 S1                 0.0000
     14 ****         1.1223   2.1261  -0.5449 N.ar           1 S1                 0.0000
     15 ****         0.7867   0.8038  -0.5805 C.ar           1 S1                 0.0000
     16 ****        -0.5316   0.2720  -0.5527 C.ar           1 S1                 0.0000
     17 ****        -0.4910  -1.1154  -0.5845 N.2            1 S1                 0.0000
     18 ****         0.7843  -1.3907  -0.6203 C.2            1 S1                 0.0000
     19 ****         1.6219  -0.2977  -0.6485 N.pl3          1 S1                 0.0000
     20 ****         3.0546  -0.3172  -0.6436 C.3            1 S1                 0.0000
     21 ****         3.8643   0.6594  -1.4992 C.3            1 S1                 0.0000
     22 ****         4.9609  -0.4155  -1.6734 C.3            1 S1                 0.0000
     23 ****         5.5628  -0.5243  -3.0837 C.3            1 S1                 0.0000
     24 ****         6.2066  -1.7683  -3.2705 O.3            1 S1                 0.0000
     25 ****         6.1020  -0.3652  -0.6375 C.3            1 S1                 0.0000
     26 ****         6.8584   0.8224  -0.7589 O.3            1 S1                 0.0000
     27 ****         3.8336  -1.4236  -1.3590 C.3            1 S1                 0.0000
     28 ****        -3.5680   1.1853   0.8377 C.3            1 S1                 0.0000
     29 ****        -2.7951   0.7665   2.1157 C.3            1 S1                 0.0000
     30 ****        -5.5456   1.0413   1.6602 H              1 S1                 0.0000
     31 ****        -3.6732   2.2713   0.8536 H              1 S1                 0.0000
     32 ****         0.0967  -1.2965   4.0594 H              1 S1                 0.0000
     33 ****        -0.1631   0.1128   3.0500 H              1 S1                 0.0000
     34 ****        -0.1523  -1.4972   2.3313 H              1 S1                 0.0000
     35 ****        -2.1687  -2.1147   3.6885 H              1 S1                 0.0000
     36 ****        -2.2859  -0.4878   4.3213 H              1 S1                 0.0000
     37 ****        -4.0949  -2.2819   2.5981 H              1 S1                 0.0000
     38 ****        -4.6117  -0.7519   3.2851 H              1 S1                 0.0000
     39 ****        -4.4660  -1.4787   0.3167 H              1 S1                 0.0000
     40 ****        -5.9396  -1.3310   1.2436 H              1 S1                 0.0000
     41 ****        -4.9248  -0.5432  -1.6493 H              1 S1                 0.0000
     42 ****        -5.6152   0.8709  -2.4051 H              1 S1                 0.0000
     43 ****        -3.0991   0.9044  -2.4943 H              1 S1                 0.0000
     44 ****        -3.7525   2.2941  -1.6405 H              1 S1                 0.0000
     45 ****         0.2253   3.9659  -0.4599 H              1 S1                 0.0000
     46 ****         1.1499  -2.4072  -0.6306 H              1 S1                 0.0000
     47 ****         3.3518  -0.2494   0.4042 H              1 S1                 0.0000
     48 ****         3.3588   0.9111  -2.4336 H              1 S1                 0.0000
     49 ****         4.1783   1.5617  -0.9733 H              1 S1                 0.0000
     50 ****         4.7860  -0.4357  -3.8438 H              1 S1                 0.0000
     51 ****         6.2745   0.2777  -3.2806 H              1 S1                 0.0000
     52 ****         6.5539  -1.7971  -4.1490 H              1 S1                 0.0000
     53 ****         5.7129  -0.4078   0.3798 H              1 S1                 0.0000
     54 ****         6.7712  -1.2198  -0.7394 H              1 S1                 0.0000
     55 ****         7.5366   0.8142  -0.1009 H              1 S1                 0.0000
     56 ****         4.1281  -2.2561  -0.7191 H              1 S1                 0.0000
     57 ****         3.3231  -1.7818  -2.2552 H              1 S1                 0.0000
     58 ****        -3.2812   1.2064   2.9879 H              1 S1                 0.0000
     59 ****        -1.7888   1.1812   2.0968 H              1 S1                 0.0000
     60 ****        -2.3332  -1.0884   1.4637 LP             1 S1                 0.0000
     61 ****        -5.8624   1.8761  -0.3669 LP             1 S1                 0.0000
     62 ****        -6.5688   0.4042  -0.3355 LP             1 S1                 0.0000
     63 ****        -2.8248  -0.1518  -0.3835 LP             1 S1                 0.0000
     64 ****        -1.9652   3.2384  -0.4105 LP             1 S1                 0.0000
     65 ****         2.0612   2.4698  -0.5601 LP             1 S1                 0.0000
     66 ****        -1.2598  -1.7548  -0.5808 LP             1 S1                 0.0000
     67 ****         5.5491  -2.5109  -3.1431 LP             1 S1                 0.0000
     68 ****         6.9511  -1.8654  -2.6100 LP             1 S1                 0.0000
     69 ****         6.2651   1.6157  -0.6221 LP             1 S1                 0.0000
     70 ****         7.2713   0.8679  -1.6685 LP             1 S1                 0.0000
@<TRIPOS>BOND
    1    1    2 1     
    2    1   32 1     
    3    1   33 1     
    4    1   34 1     
    5    2    3 1     
    6    2   35 1     
    7    2   36 1     
    8    3   29 1     
    9    3    4 1     
   10    4    5 1     
   11    4   37 1     
   12    4   38 1     
   13    5    6 1     
   14    5   39 1     
   15    5   40 1     
   16    6   30 1     
   17    6   28 1     
   18    6    7 1     
   19    7    8 1     
   20    8    9 1     
   21    8   41 1     
   22    8   42 1     
   23    9   10 1     
   24    9   43 1     
   25    9   44 1     
   26   10   11 1     
   27   10   28 1     
   28   11   16 ar    
   29   11   12 ar    
   30   12   13 ar    
   31   13   14 ar    
   32   13   45 1     
   33   14   15 ar    
   34   15   19 1     
   35   15   16 ar    
   36   16   17 1     
   37   17   18 2     
   38   18   19 1     
   39   18   46 1     
   40   19   20 1     
   41   20   27 1     
   42   20   21 1     
   43   20   47 1     
   44   21   22 1     
   45   21   48 1     
   46   21   49 1     
   47   22   23 1     
   48   22   25 1     
   49   22   27 1     
   50   23   24 1     
   51   23   50 1     
   52   23   51 1     
   53   24   52 1     
   54   25   26 1     
   55   25   53 1     
   56   25   54 1     
   57   26   55 1     
   58   27   56 1     
   59   27   57 1     
   60   28   31 1     
   61   28   29 1     
   62   29   58 1     
   63   29   59 1     
   64    3   60 1     
   65    7   61 1     
   66    7   62 1     
   67   10   63 1     
   68   12   64 1     
   69   14   65 1     
   70   17   66 1     
   71   24   67 1     
   72   24   68 1     
   73   26   69 1     
   74   26   70 1     
@<TRIPOS>SUBSTRUCTURE
      1 S1             1
@<TRIPOS>SET
LONE_PAIRS      STATIC     ATOMS    <user>   **** ""
11 60 61 62 63 64 65 66 67 68 69 70
DONOR_HYDROGENS      STATIC     ATOMS    <user>   **** ""
2 52 55
ATOM$BLUE        STATIC     ATOMS    COLORGROUP SYSTEM
11 60 61 62 63 64 65 66 67 68 69 70
ATOM$RED        STATIC     ATOMS    COLORGROUP SYSTEM
2 52 55
