AV-unprocessed.smi:2788|AV-procd|sdf|10760|dock3
  -GOLD-   2272015193D 1   1.00000     0.00000
 Structure written by MMmdl.
 47 48  0  0  0  0  0  0  0  0  1 V2000
  146.8467  140.3153  157.3854 C   0  0  0  0  0  0  0  0  0  0  0  0
  148.0342  139.6064  156.7991 C   0  0  0  0  0  0  0  0  0  0  0  0
  148.0222  138.2872  156.7137 N   0  0  0  0  0  0  0  0  0  0  0  0
  149.2374  137.9299  156.1219 O   0  0  0  0  0  0  0  0  0  0  0  0
  149.9411  139.0623  155.8687 C   0  0  0  0  0  0  0  0  0  0  0  0
  151.2732  138.8909  155.2210 C   0  0  0  0  0  0  0  0  0  0  0  0
  149.2366  140.1627  156.2731 C   0  0  0  0  0  0  0  0  0  0  0  0
  149.6312  141.6149  156.1759 C   0  0  0  0  0  0  0  0  0  0  0  0
  150.3095  142.0571  157.4725 C   0  0  0  0  0  0  0  0  0  0  0  0
  150.1381  141.4029  158.4996 O   0  0  0  0  0  0  0  0  0  0  0  0
  151.0609  143.1706  157.3876 N   0  0  0  0  0  0  0  0  0  0  0  0
  151.8625  143.8812  158.3979 C   0  0  1  0  0  0  0  0  0  0  0  0
  153.2227  144.3660  157.8257 C   0  0  0  0  0  0  0  0  0  0  0  0
  151.0381  145.1611  158.7125 C   0  0  0  0  0  0  0  0  0  0  0  0
  149.6902  144.8844  159.0378 O   0  0  0  0  0  0  0  0  0  0  0  0
  152.0488  142.9879  159.6792 C   0  0  0  0  0  0  0  0  0  0  0  0
  152.5568  143.7489  160.9325 C   0  0  0  0  0  0  0  0  0  0  0  0
  152.6258  142.8431  162.1720 C   0  0  0  0  0  0  0  0  0  0  0  0
  153.5220  141.6251  161.9176 C   0  0  0  0  0  0  0  0  0  0  0  0
  153.0403  140.8463  160.6873 C   0  0  0  0  0  0  0  0  0  0  0  0
  152.9579  141.7506  159.4466 C   0  0  0  0  0  0  0  0  0  0  0  0
  147.1326  141.2675  157.8318 H   0  0  0  0  0  0  0  0  0  0  0  0
  146.3703  139.7185  158.1640 H   0  0  0  0  0  0  0  0  0  0  0  0
  146.0997  140.5193  156.6180 H   0  0  0  0  0  0  0  0  0  0  0  0
  151.1937  139.0153  154.1411 H   0  0  0  0  0  0  0  0  0  0  0  0
  151.6806  137.8995  155.4197 H   0  0  0  0  0  0  0  0  0  0  0  0
  151.9851  139.6271  155.5943 H   0  0  0  0  0  0  0  0  0  0  0  0
  150.3114  141.7934  155.3429 H   0  0  0  0  0  0  0  0  0  0  0  0
  148.7631  142.2490  155.9931 H   0  0  0  0  0  0  0  0  0  0  0  0
  151.0914  143.5913  156.4704 H   0  0  0  0  0  0  0  0  0  0  0  0
  153.7697  144.9579  158.5599 H   0  0  0  0  0  0  0  0  0  0  0  0
  153.0794  144.9953  156.9465 H   0  0  0  0  0  0  0  0  0  0  0  0
  153.8878  143.5581  157.5293 H   0  0  0  0  0  0  0  0  0  0  0  0
  151.4827  145.7018  159.5494 H   0  0  0  0  0  0  0  0  0  0  0  0
  151.0492  145.8604  157.8765 H   0  0  0  0  0  0  0  0  0  0  0  0
  149.1328  145.3898  158.4659 H   0  0  0  0  0  0  0  0  0  0  0  0
  151.0615  142.6079  159.9448 H   0  0  0  0  0  0  0  0  0  0  0  0
  153.5497  144.1584  160.7514 H   0  0  0  0  0  0  0  0  0  0  0  0
  151.9096  144.5921  161.1673 H   0  0  0  0  0  0  0  0  0  0  0  0
  153.0036  143.4090  163.0241 H   0  0  0  0  0  0  0  0  0  0  0  0
  151.6222  142.5117  162.4414 H   0  0  0  0  0  0  0  0  0  0  0  0
  154.5518  141.9517  161.7663 H   0  0  0  0  0  0  0  0  0  0  0  0
  153.5269  140.9751  162.7930 H   0  0  0  0  0  0  0  0  0  0  0  0
  153.7114  140.0094  160.4926 H   0  0  0  0  0  0  0  0  0  0  0  0
  152.0594  140.4142  160.8893 H   0  0  0  0  0  0  0  0  0  0  0  0
  152.5879  141.1443  158.6214 H   0  0  0  0  0  0  0  0  0  0  0  0
  153.9628  142.0701  159.1686 H   0  0  0  0  0  0  0  0  0  0  0  0
  1  2  1  0  0  0  0
  1 22  1  0  0  0  0
  1 23  1  0  0  0  0
  1 24  1  0  0  0  0
  2  7  1  0  0  0  0
  2  3  2  0  0  0  0
  3  4  1  0  0  0  0
  4  5  1  0  0  0  0
  5  6  1  0  0  0  0
  5  7  2  0  0  0  0
  6 25  1  0  0  0  0
  6 26  1  0  0  0  0
  6 27  1  0  0  0  0
  7  8  1  0  0  0  0
  8  9  1  0  0  0  0
  8 28  1  0  0  0  0
  8 29  1  0  0  0  0
  9 10  2  0  0  0  0
  9 11  1  0  0  0  0
 11 12  1  0  0  0  0
 11 30  1  0  0  0  0
 12 13  1  0  0  0  0
 12 14  1  0  0  0  0
 12 16  1  0  0  0  0
 13 31  1  0  0  0  0
 13 32  1  0  0  0  0
 13 33  1  0  0  0  0
 14 15  1  0  0  0  0
 14 34  1  0  0  0  0
 14 35  1  0  0  0  0
 15 36  1  0  0  0  0
 16 21  1  0  0  0  0
 16 17  1  0  0  0  0
 16 37  1  0  0  0  0
 17 18  1  0  0  0  0
 17 38  1  0  0  0  0
 17 39  1  0  0  0  0
 18 19  1  0  0  0  0
 18 40  1  0  0  0  0
 18 41  1  0  0  0  0
 19 20  1  0  0  0  0
 19 42  1  0  0  0  0
 19 43  1  0  0  0  0
 20 21  1  0  0  0  0
 20 44  1  0  0  0  0
 20 45  1  0  0  0  0
 21 46  1  0  0  0  0
 21 47  1  0  0  0  0
M  END
> <s_m_source_file>
AV-unprocessed.smi

> <i_m_source_file_index>
2788

> <i_lp_mmshare_version>
43012

> <i_f3d_flags>
0

> <s_epik_input>
W0NIM11jMW5vYyhbQ0gzXSljMVtDSDJdQyg9TylbTkhdW0NAQF0oW0NIM10pKFtDSDJdW09IXSlbQ0hdMltDSDJdW0NIMl1bQ0gyXVtDSDJdW0NIMl0y

> <s_epik_cmdline>
J2VwaWtfcHl0aG9uJywgJy1waCcsICc3LjAnLCAnLXRuJywgJzgnLCAnLW1hJywgJzIwMCcsICctbWV0YWxfYmluZGluZycsICctaW1hZScsICc8aW5maWxlLm1hZT4nLCAnLW9tYWUnLCAnPG91dGZpbGUubWFlPic=

> <r_lp_tautomer_probability>
1

> <r_epik_Ionization_Penalty>
1.3408e-07

> <r_epik_Ionization_Penalty_Charging>
0

> <r_epik_Ionization_Penalty_Neutral>
1.3408e-07

> <r_epik_State_Penalty>
-0

> <r_epik_Charging_Adjusted_Penalty>
0

> <i_epik_Tot_Q>
0

> <i_epik_Tot_abs_Q>
0

> <r_epik_Metal_State_Penalty>
-0

> <b_epik_Metal_Only>
0

> <s_lp_Force_Field>
OPLS_2005

> <r_lp_Energy>
15.0378

> <b_lp_Chiralities_Consistent>
1

> <s_lp_Variant>
AV-unprocessed.smi:2788-1

> <Gold.Version>
5.8.1

> <Gold.Id.Protein>
6NUR|6NUR_protein|mol2

> <Gold.PLP.Fitness>
45.2195

> <Gold.PLP.PLP>
-44.3957

> <Gold.PLP.part.hbond>
-1.5360

> <Gold.PLP.part.metal>
0.0000

> <Gold.PLP.part.buried>
-5.1234

> <Gold.PLP.part.nonpolar>
-38.3182

> <Gold.PLP.part.repulsive>
0.0405

> <Gold.PLP.ligand.clash>
0.0540

> <Gold.PLP.ligand.torsion>
1.1035

> <Gold.PLP.Chemscore.Hbond>
1.0000

> <Gold.PLP.Chemscore.CHOScore>
0.0000

> <Gold.PLP.Chemscore.Metal>
0.0000

> <Gold.Chemscore.Hbonds>
donor molecule, donor type, donor heavy atom, donor atom, acceptor molecule, acceptor atom, score
      L1  H    15    36       P1  8029  1.00

> <Gold.PLP.Chemscore.Internal.Correction>
0.0848

> <Gold.Rescore>
     Score         DG    S(hbond)    S(metal)    S(lipo)     H(rot)  DE(clash)    DE(int)     intcor
     15.66     -18.38       0.98        0.00     131.21       2.24       0.02       2.71       ----

> <Gold.Chemscore.Fitness>
15.6562

> <Gold.Chemscore.DG>
-18.3807

> <Gold.Chemscore.ZeroCoef>
-5.4800

> <Gold.Chemscore.Hbond>
0.9798

> <Gold.Chemscore.Metal>
0.0000

> <Gold.Chemscore.Lipo>
131.2111

> <Gold.Chemscore.Internal_Hbond>
0.0000

> <Gold.Chemscore.DEClash>
0.0153

> <Gold.Chemscore.DEInternal>
2.7092

> <Gold.Chemscore.Rot>
2.2357

> <Gold.Chemscore.Internal.Correction>
   9.000000E+99

> <Gold.Chemscore.Hbonds>
donor molecule, donor type, donor heavy atom, donor atom, acceptor molecule, acceptor atom, score
      L1  H    15    36       P1  8029  0.94

> <Gold.Chemscore.Hbond.Weighted>
-3.2725

> <Gold.Chemscore.Metal.Weighted>
-0.0000

> <Gold.Chemscore.Lipo.Weighted>
-15.3517

> <Gold.Chemscore.Internal_Hbond.Weighted>
0.0000

> <Gold.Chemscore.DEClash.Weighted>
0.0153

> <Gold.Chemscore.DEInternal.Weighted>
2.7092

> <Gold.Chemscore.Rot.Weighted>
5.7235

> <Gold.Chemscore.Internal.Correction.Weighted>
   9.000000E+99

> <Gold.Protein.RotatedTorsions>
[ 6907 6896 6895 6894 ] final   22.90 input  -60.11 | X-H torsion
[ 7974 7965 7964 7962 ] final -117.08 input  175.53 | X-H torsion
[ 8008 7997 7996 7995 ] final   30.91 input   59.86 | X-H torsion
[ 10167 10162 10161 10158 ] final  -83.66 input  -65.29 | X-H torsion
[ 10718 10713 10712 10709 ] final -133.38 input   66.30 | X-H torsion
[ 10763 10752 10751 10750 ] final   88.18 input  -60.55 | X-H torsion
[ 11005 11000 10999 10996 ] final  171.09 input  -57.11 | X-H torsion

> <Gold.Protein.ActiveResidues>
 VAL166  LYS551  ARG553  GLY616  TRP617  ASP618  TYR619  PRO620  LYS621  CYS622 
 ASP623  PHE694  ASN695  SER759  ASP760  ASP761  ALA762  ILE779  LEU786  VAL792 
 PHE793  MET794  SER795  GLU796  ALA797  LYS798  CYS799  TRP800  GLU811  SER814 

> <Gold.Protein.RotatedAtoms>
  151.9342  135.0242  160.0531 H   0  0  0  0  0  0  0  0  0  0  0  0  # atno 6907 bound_to 6896
  152.2092  133.4894  159.5109 H   0  0  0  0  0  0  0  0  0  0  0  0  # atno 6908 bound_to 6896
  150.6972  134.1406  159.4146 H   0  0  0  0  0  0  0  0  0  0  0  0  # atno 6909 bound_to 6896
  145.0894  140.8479  143.3991 H   0  0  0  0  0  0  0  0  0  0  0  0  # atno 7974 bound_to 7965
  155.0979  140.3226  155.4555 H   0  0  0  0  0  0  0  0  0  0  0  0  # atno 8008 bound_to 7997
  156.2725  140.2066  156.6052 H   0  0  0  0  0  0  0  0  0  0  0  0  # atno 8009 bound_to 7997
  154.6852  140.0522  157.0294 H   0  0  0  0  0  0  0  0  0  0  0  0  # atno 8010 bound_to 7997
  140.4205  143.2586  151.8896 H   0  0  0  0  0  0  0  0  0  0  0  0  # atno 10167 bound_to 10162
  156.2443  130.7115  151.0988 H   0  0  0  0  0  0  0  0  0  0  0  0  # atno 10718 bound_to 10713
  153.1742  135.4516  154.9943 H   0  0  0  0  0  0  0  0  0  0  0  0  # atno 10763 bound_to 10752
  154.7987  135.3247  154.7607 H   0  0  0  0  0  0  0  0  0  0  0  0  # atno 10764 bound_to 10752
  153.8079  135.6957  153.4900 H   0  0  0  0  0  0  0  0  0  0  0  0  # atno 10765 bound_to 10752
  140.3153  134.7483  157.4022 H   0  0  0  0  0  0  0  0  0  0  0  0  # atno 11005 bound_to 11000
  145.1084  139.2774  143.5650 LP  0  0  0  0  0  0  0  0  0  0  0  0  # atno 17320 bound_to 7965
  146.3531  140.0672  142.8625 LP  0  0  0  0  0  0  0  0  0  0  0  0  # atno 17321 bound_to 7965
  139.4782  144.5442  151.8483 LP  0  0  0  0  0  0  0  0  0  0  0  0  # atno 17342 bound_to 10162
  140.4538  144.1817  150.5900 LP  0  0  0  0  0  0  0  0  0  0  0  0  # atno 17343 bound_to 10162
  157.7188  131.0694  150.6219 LP  0  0  0  0  0  0  0  0  0  0  0  0  # atno 17370 bound_to 10713
  156.6294  130.4428  149.5792 LP  0  0  0  0  0  0  0  0  0  0  0  0  # atno 17371 bound_to 10713
  140.0989  134.5499  155.8372 LP  0  0  0  0  0  0  0  0  0  0  0  0  # atno 17394 bound_to 11000
  141.2099  133.6689  156.6471 LP  0  0  0  0  0  0  0  0  0  0  0  0  # atno 17395 bound_to 11000

$$$$
