#       Name:                AV-unprocessed.smi:40
#       Creating user name   scv26
#       Creation time:       Thu Mar 26 16:23:04 2020


#       File generated by GOLD software.
#

@<TRIPOS>MOLECULE
AV-unprocessed.smi:40
    58    59     1
SMALL
NO_CHARGES


@<TRIPOS>ATOM
      1 ****        -7.2727   2.3572   1.1868 C.3            1 S1                 0.0000
      2 ****        -5.7426   2.3121   1.1181 C.3            1 S1                 0.0000
      3 ****        -5.1649   1.0137   1.6995 C.3            1 S1                 0.0000
      4 ****        -3.6319   0.9793   1.6514 C.3            1 S1                 0.0000
      5 ****        -3.0595  -0.3236   2.2301 C.3            1 S1                 0.0000
      6 ****        -1.6404  -0.3239   2.1545 O.3            1 S1                 0.0000
      7 ****        -0.8959   0.2419   3.1309 C.2            1 S1                 0.0000
      8 ****        -1.3576   0.7343   4.1601 O.2            1 S1                 0.0000
      9 ****         0.5164   0.1592   2.8198 N.am           1 S1                 0.0000
     10 ****         1.5382   0.6217   3.5721 C.2            1 S1                 0.0000
     11 ****         2.4118   1.4179   2.9861 N.2            1 S1                 0.0000
     12 ****         3.4938   1.9605   3.6257 C.2            1 S1                 0.0000
     13 ****         4.2378   2.7427   3.0361 O.2            1 S1                 0.0000
     14 ****         3.7103   1.5982   4.9789 N.am           1 S1                 0.0000
     15 ****         4.8853   2.2197   5.7184 C.3            1 S1                 0.0000
     16 ****         4.9414   1.7129   7.0239 O.3            1 S1                 0.0000
     17 ****         5.9991   0.7686   7.1654 C.3            1 S1                 0.0000
     18 ****         5.5028  -0.6596   6.8646 C.3            1 S1                 0.0000
     19 ****         7.0613   1.3103   6.2066 C.3            1 S1                 0.0000
     20 ****         7.9597   0.3106   5.7654 O.3            1 S1                 0.0000
     21 ****         6.2443   1.8824   5.0546 C.3            1 S1                 0.0000
     22 ****         6.8868   3.0375   4.5530 O.3            1 S1                 0.0000
     23 ****         2.7779   0.7891   5.6181 C.2            1 S1                 0.0000
     24 ****         1.7102   0.2751   4.9711 C.2            1 S1                 0.0000
     25 ****         0.8543  -0.5387   5.6141 F              1 S1                 0.0000
     26 ****         4.6545   3.2860   5.7494 H              1 S1                 0.0000
     27 ****         6.3649   0.7965   8.1923 H              1 S1                 0.0000
     28 ****         7.6171   2.1023   6.7115 H              1 S1                 0.0000
     29 ****         6.1083   1.1375   4.2687 H              1 S1                 0.0000
     30 ****        -7.6526   3.2895   0.7683 H              1 S1                 0.0000
     31 ****        -7.6224   2.2891   2.2174 H              1 S1                 0.0000
     32 ****        -7.7170   1.5345   0.6260 H              1 S1                 0.0000
     33 ****        -5.4255   2.4214   0.0804 H              1 S1                 0.0000
     34 ****        -5.3350   3.1679   1.6574 H              1 S1                 0.0000
     35 ****        -5.4962   0.9001   2.7325 H              1 S1                 0.0000
     36 ****        -5.5652   0.1600   1.1512 H              1 S1                 0.0000
     37 ****        -3.2949   1.0940   0.6204 H              1 S1                 0.0000
     38 ****        -3.2350   1.8325   2.2029 H              1 S1                 0.0000
     39 ****        -3.3955  -0.4752   3.2571 H              1 S1                 0.0000
     40 ****        -3.4291  -1.1720   1.6538 H              1 S1                 0.0000
     41 ****         0.7308  -0.2510   1.9227 H              1 S1                 0.0000
     42 ****         6.2928  -1.3923   7.0298 H              1 S1                 0.0000
     43 ****         5.1658  -0.7669   5.8338 H              1 S1                 0.0000
     44 ****         4.6736  -0.9279   7.5191 H              1 S1                 0.0000
     45 ****         8.5640   0.7030   5.1538 H              1 S1                 0.0000
     46 ****         6.3534   3.3952   3.8589 H              1 S1                 0.0000
     47 ****         2.8825   0.5385   6.6625 H              1 S1                 0.0000
     48 ****        -2.3454   0.7323   4.3159 LP             1 S1                 0.0000
     49 ****        -0.7450   1.1365   4.8405 LP             1 S1                 0.0000
     50 ****         2.2760   1.6375   2.0200 LP             1 S1                 0.0000
     51 ****         4.0541   2.9859   2.0837 LP             1 S1                 0.0000
     52 ****         5.0264   3.1354   3.5092 LP             1 S1                 0.0000
     53 ****         4.0734   1.2646   7.2373 LP             1 S1                 0.0000
     54 ****         5.0917   2.4688   7.6610 LP             1 S1                 0.0000
     55 ****         7.4528  -0.4246   5.3153 LP             1 S1                 0.0000
     56 ****         8.4623  -0.0606   6.5462 LP             1 S1                 0.0000
     57 ****         7.7888   2.7949   4.1958 LP             1 S1                 0.0000
     58 ****         6.9883   3.7125   5.2838 LP             1 S1                 0.0000
@<TRIPOS>BOND
    1    1    2 1     
    2    1   30 1     
    3    1   31 1     
    4    1   32 1     
    5    2    3 1     
    6    2   33 1     
    7    2   34 1     
    8    3    4 1     
    9    3   35 1     
   10    3   36 1     
   11    4    5 1     
   12    4   37 1     
   13    4   38 1     
   14    5    6 1     
   15    5   39 1     
   16    5   40 1     
   17    6    7 1     
   18    7    8 2     
   19    7    9 am    
   20    9   10 1     
   21    9   41 1     
   22   10   24 1     
   23   10   11 2     
   24   11   12 1     
   25   12   13 2     
   26   12   14 am    
   27   14   15 1     
   28   14   23 1     
   29   15   26 1     
   30   15   21 1     
   31   15   16 1     
   32   16   17 1     
   33   17   27 1     
   34   17   18 1     
   35   17   19 1     
   36   18   42 1     
   37   18   43 1     
   38   18   44 1     
   39   19   28 1     
   40   19   20 1     
   41   19   21 1     
   42   20   45 1     
   43   21   29 1     
   44   21   22 1     
   45   22   46 1     
   46   23   24 2     
   47   23   47 1     
   48   24   25 1     
   49    8   48 1     
   50    8   49 1     
   51   11   50 1     
   52   13   51 1     
   53   13   52 1     
   54   16   53 1     
   55   16   54 1     
   56   20   55 1     
   57   20   56 1     
   58   22   57 1     
   59   22   58 1     
@<TRIPOS>SUBSTRUCTURE
      1 S1             1
@<TRIPOS>SET
LONE_PAIRS      STATIC     ATOMS    <user>   **** ""
11 48 49 50 51 52 53 54 55 56 57 58
DONOR_HYDROGENS      STATIC     ATOMS    <user>   **** ""
3 41 45 46
ATOM$BLUE        STATIC     ATOMS    COLORGROUP SYSTEM
11 48 49 50 51 52 53 54 55 56 57 58
ATOM$RED        STATIC     ATOMS    COLORGROUP SYSTEM
3 41 45 46
