#       Name:                AV-unprocessed.smi:3331
#       Creating user name   scv26
#       Creation time:       Fri Mar 27 19:19:27 2020


#       File generated by GOLD software.
#

@<TRIPOS>MOLECULE
AV-unprocessed.smi:3331
    50    51     1
SMALL
NO_CHARGES


@<TRIPOS>ATOM
      1 ****        -2.7610   1.4557  -0.4399 C.3            1 S1                 0.0000
      2 ****        -1.8019   1.5770  -1.6375 C.3            1 S1                 0.0000
      3 ****        -2.4914   1.2302  -2.9762 C.3            1 S1                 0.0000
      4 ****        -2.6714  -0.2904  -3.1850 C.3            1 S1                 0.0000
      5 ****        -3.2329  -0.6026  -4.5792 C.3            1 S1                 0.0000
      6 ****        -1.3392  -1.0261  -2.9322 C.3            1 S1                 0.0000
      7 ****        -0.8565  -0.7013  -1.5825 N.am           1 S1                 0.0000
      8 ****        -0.8142  -1.6198  -0.5831 C.2            1 S1                 0.0000
      9 ****        -1.1208  -2.7982  -0.7703 O.2            1 S1                 0.0000
     10 ****        -0.3505  -1.1988   0.8261 C.3            1 S1                 0.0000
     11 ****        -0.8174  -2.1932   1.9099 C.3            1 S1                 0.0000
     12 ****         1.1228  -1.0582   0.8404 N.4            1 S1                 1.0000
     13 ****         1.6675  -0.2490   1.9492 C.3            1 S1                 0.0000
     14 ****         3.1885  -0.0908   1.8151 C.3            1 S1                 0.0000
     15 ****         3.7440   0.6956   2.8991 N.pl3          1 S1                 0.0000
     16 ****         4.5244   0.2730   3.9548 C.2            1 S1                 0.0000
     17 ****         4.8067   1.3715   4.7151 C.2            1 S1                 0.0000
     18 ****         4.1496   2.4337   4.0331 C.2            1 S1                 0.0000
     19 ****         3.5158   2.0259   2.9452 N.2            1 S1                 0.0000
     20 ****        -0.5239   0.7270  -1.4673 C.3            1 S1                 0.0000
     21 ****        -3.1241   0.4368  -0.3072 H              1 S1                 0.0000
     22 ****        -3.6308   2.1002  -0.5699 H              1 S1                 0.0000
     23 ****        -2.2693   1.7554   0.4858 H              1 S1                 0.0000
     24 ****        -1.4989   2.6236  -1.6874 H              1 S1                 0.0000
     25 ****        -3.4528   1.7398  -3.0509 H              1 S1                 0.0000
     26 ****        -1.8801   1.6239  -3.7894 H              1 S1                 0.0000
     27 ****        -3.3979  -0.6514  -2.4556 H              1 S1                 0.0000
     28 ****        -2.5553  -0.2660  -5.3646 H              1 S1                 0.0000
     29 ****        -4.1935  -0.1105  -4.7341 H              1 S1                 0.0000
     30 ****        -3.3876  -1.6740  -4.7098 H              1 S1                 0.0000
     31 ****        -1.4751  -2.0974  -3.0856 H              1 S1                 0.0000
     32 ****        -0.5922  -0.7191  -3.6660 H              1 S1                 0.0000
     33 ****        -0.8111  -0.2398   1.0617 H              1 S1                 0.0000
     34 ****        -1.8957  -2.3520   1.8614 H              1 S1                 0.0000
     35 ****        -0.5991  -1.8247   2.9119 H              1 S1                 0.0000
     36 ****        -0.3326  -3.1646   1.8033 H              1 S1                 0.0000
     37 ****         1.5378  -1.9790   0.8579 H              1 S1                 0.0000
     38 ****         1.1885   0.7312   1.9440 H              1 S1                 0.0000
     39 ****         1.4303  -0.7203   2.9032 H              1 S1                 0.0000
     40 ****         3.6732  -1.0681   1.8121 H              1 S1                 0.0000
     41 ****         3.4433   0.3930   0.8708 H              1 S1                 0.0000
     42 ****         4.8102  -0.7615   4.0772 H              1 S1                 0.0000
     43 ****         5.3950   1.4111   5.6200 H              1 S1                 0.0000
     44 ****         4.1148   3.4812   4.2941 H              1 S1                 0.0000
     45 ****         0.1868   0.9806  -2.2555 H              1 S1                 0.0000
     46 ****        -0.0154   0.9944  -0.5433 H              1 S1                 0.0000
     47 ****         1.3913  -0.6044  -0.0211 H              1 S1                 0.0000
     48 ****        -1.4107  -3.1013  -1.6780 LP             1 S1                 0.0000
     49 ****        -1.0797  -3.4517  -0.0144 LP             1 S1                 0.0000
     50 ****         2.9866   2.5788   2.3017 LP             1 S1                 0.0000
@<TRIPOS>BOND
    1    1    2 1     
    2    1   21 1     
    3    1   22 1     
    4    1   23 1     
    5    2   20 1     
    6    2    3 1     
    7    2   24 1     
    8    3    4 1     
    9    3   25 1     
   10    3   26 1     
   11    4    5 1     
   12    4    6 1     
   13    4   27 1     
   14    5   28 1     
   15    5   29 1     
   16    5   30 1     
   17    6    7 1     
   18    6   31 1     
   19    6   32 1     
   20    7    8 am    
   21    7   20 1     
   22    8    9 2     
   23    8   10 1     
   24   10   11 1     
   25   10   12 1     
   26   10   33 1     
   27   11   34 1     
   28   11   35 1     
   29   11   36 1     
   30   12   13 1     
   31   12   37 1     
   32   12   47 1     
   33   13   14 1     
   34   13   38 1     
   35   13   39 1     
   36   14   15 1     
   37   14   40 1     
   38   14   41 1     
   39   15   19 1     
   40   15   16 1     
   41   16   17 2     
   42   16   42 1     
   43   17   18 1     
   44   17   43 1     
   45   18   19 2     
   46   18   44 1     
   47   20   45 1     
   48   20   46 1     
   49    9   48 1     
   50    9   49 1     
   51   19   50 1     
@<TRIPOS>SUBSTRUCTURE
      1 S1             1
@<TRIPOS>SET
LONE_PAIRS      STATIC     ATOMS    <user>   **** ""
3 48 49 50
DONOR_HYDROGENS      STATIC     ATOMS    <user>   **** ""
2 37 47
ATOM$BLUE        STATIC     ATOMS    COLORGROUP SYSTEM
3 48 49 50
ATOM$RED        STATIC     ATOMS    COLORGROUP SYSTEM
2 37 47
