AV-unprocessed.smi:1205|AV-procd|sdf|5045|dock2
  -GOLD-   22720 4 73D 1   1.00000     0.00000
 Structure written by MMmdl.
 49 50  0  0  0  0  0  0  0  0  2 V2000
  151.3416  142.1453  156.9098 C   0  0  0  0  0  0  0  0  0  0  0  0
  151.3084  140.8351  156.1793 C   0  0  0  0  0  0  0  0  0  0  0  0
  150.2051  139.9474  156.0181 C   0  0  0  0  0  0  0  0  0  0  0  0
  150.7420  138.9317  155.2752 C   0  0  0  0  0  0  0  0  0  0  0  0
  150.1429  137.8027  154.8116 N   0  0  0  0  0  0  0  0  0  0  0  0
  149.2458  137.0141  155.4285 C   0  0  0  0  0  0  0  0  0  0  0  0
  148.7983  137.1881  156.5624 O   0  0  0  0  0  0  0  0  0  0  0  0
  148.8903  135.9825  154.6496 N   0  0  0  0  0  0  0  0  0  0  0  0
  147.9404  134.9409  155.0278 C   0  0  0  0  0  0  0  0  0  0  0  0
  147.9572  133.7381  154.0494 C   0  0  2  0  0  0  0  0  0  0  0  0
  149.3854  133.2726  153.7067 C   0  0  0  0  0  0  0  0  0  0  0  0
  147.1696  133.9813  152.8054 N   0  3  2  0  0  0  0  0  0  0  0  0
  145.9332  134.7912  152.9807 C   0  0  0  0  0  0  0  0  0  0  0  0
  145.3424  135.1809  151.6168 C   0  0  0  0  0  0  0  0  0  0  0  0
  145.0635  133.9349  150.7658 C   0  0  0  0  0  0  0  0  0  0  0  0
  146.3391  133.0861  150.6245 C   0  0  2  0  0  0  0  0  0  0  0  0
  146.0809  131.8190  149.7976 C   0  0  0  0  0  0  0  0  0  0  0  0
  146.9123  132.7470  152.0157 C   0  0  0  0  0  0  0  0  0  0  0  0
  152.0659  139.2161  155.0232 N   0  0  0  0  0  0  0  0  0  0  0  0
  153.0477  138.4534  154.2769 C   0  0  0  0  0  0  0  0  0  0  0  0
  152.4117  140.3945  155.5850 N   0  0  0  0  0  0  0  0  0  0  0  0
  150.3744  142.3703  157.3596 H   0  0  0  0  0  0  0  0  0  0  0  0
  151.5922  142.9642  156.2352 H   0  0  0  0  0  0  0  0  0  0  0  0
  152.0832  142.1311  157.7087 H   0  0  0  0  0  0  0  0  0  0  0  0
  149.1979  140.0591  156.3903 H   0  0  0  0  0  0  0  0  0  0  0  0
  150.4237  137.5183  153.8847 H   0  0  0  0  0  0  0  0  0  0  0  0
  149.3029  135.9139  153.7305 H   0  0  0  0  0  0  0  0  0  0  0  0
  148.1504  134.6198  156.0490 H   0  0  0  0  0  0  0  0  0  0  0  0
  146.9542  135.4041  155.0467 H   0  0  0  0  0  0  0  0  0  0  0  0
  147.4868  132.8908  154.5503 H   0  0  0  0  0  0  0  0  0  0  0  0
  149.9106  132.9208  154.5950 H   0  0  0  0  0  0  0  0  0  0  0  0
  149.9839  134.0736  153.2733 H   0  0  0  0  0  0  0  0  0  0  0  0
  149.3683  132.4455  152.9963 H   0  0  0  0  0  0  0  0  0  0  0  0
  145.1922  134.2271  153.5485 H   0  0  0  0  0  0  0  0  0  0  0  0
  146.1467  135.6973  153.5465 H   0  0  0  0  0  0  0  0  0  0  0  0
  144.4223  135.7486  151.7578 H   0  0  0  0  0  0  0  0  0  0  0  0
  146.0352  135.8387  151.0902 H   0  0  0  0  0  0  0  0  0  0  0  0
  144.2729  133.3441  151.2308 H   0  0  0  0  0  0  0  0  0  0  0  0
  144.6942  134.2315  149.7835 H   0  0  0  0  0  0  0  0  0  0  0  0
  147.0821  133.6800  150.0899 H   0  0  0  0  0  0  0  0  0  0  0  0
  145.3383  131.1782  150.2743 H   0  0  0  0  0  0  0  0  0  0  0  0
  146.9943  131.2361  149.6756 H   0  0  0  0  0  0  0  0  0  0  0  0
  145.7148  132.0688  148.8013 H   0  0  0  0  0  0  0  0  0  0  0  0
  147.8416  132.1892  151.8926 H   0  0  0  0  0  0  0  0  0  0  0  0
  146.2229  132.0976  152.5569 H   0  0  0  0  0  0  0  0  0  0  0  0
  153.0136  137.4077  154.5833 H   0  0  0  0  0  0  0  0  0  0  0  0
  154.0516  138.8395  154.4592 H   0  0  0  0  0  0  0  0  0  0  0  0
  152.8294  138.5213  153.2109 H   0  0  0  0  0  0  0  0  0  0  0  0
  147.7782  134.5374  152.2219 H   0  0  0  0  0  0  0  0  0  0  0  0
  1  2  1  0  0  0  0
  1 22  1  0  0  0  0
  1 23  1  0  0  0  0
  1 24  1  0  0  0  0
  2 21  2  0  0  0  0
  2  3  1  0  0  0  0
  3  4  2  0  0  0  0
  3 25  1  0  0  0  0
  4  5  1  0  0  0  0
  4 19  1  0  0  0  0
  5  6  1  0  0  0  0
  5 26  1  0  0  0  0
  6  7  2  0  0  0  0
  6  8  1  0  0  0  0
  8  9  1  0  0  0  0
  8 27  1  0  0  0  0
  9 10  1  0  0  0  0
  9 28  1  0  0  0  0
  9 29  1  0  0  0  0
 10 11  1  0  0  0  0
 10 12  1  0  0  0  0
 10 30  1  0  0  0  0
 11 31  1  0  0  0  0
 11 32  1  0  0  0  0
 11 33  1  0  0  0  0
 12 18  1  0  0  0  0
 12 13  1  0  0  0  0
 12 49  1  0  0  0  0
 13 14  1  0  0  0  0
 13 34  1  0  0  0  0
 13 35  1  0  0  0  0
 14 15  1  0  0  0  0
 14 36  1  0  0  0  0
 14 37  1  0  0  0  0
 15 16  1  0  0  0  0
 15 38  1  0  0  0  0
 15 39  1  0  0  0  0
 16 17  1  0  0  0  0
 16 18  1  0  0  0  0
 16 40  1  0  0  0  0
 17 41  1  0  0  0  0
 17 42  1  0  0  0  0
 17 43  1  0  0  0  0
 18 44  1  0  0  0  0
 18 45  1  0  0  0  0
 19 20  1  0  0  0  0
 19 21  1  0  0  0  0
 20 46  1  0  0  0  0
 20 47  1  0  0  0  0
 20 48  1  0  0  0  0
M  CHG  1  12   1
M  END
> <s_m_source_file>
AV-unprocessed.smi

> <i_m_source_file_index>
1205

> <i_lp_mmshare_version>
43012

> <i_f3d_flags>
0

> <s_epik_input>
W0NIM11jMVtjSF1jKG4objEpW0NIM10pW05IXUMoPU8pW05IXVtDSDJdW0NASF0oW0NIM10pTjJbQ0gyXVtDSDJdW0NIMl1bQ0BASF0oW0NIM10pW0NIMl0y

> <s_epik_cmdline>
J2VwaWtfcHl0aG9uJywgJy1waCcsICc3LjAnLCAnLXRuJywgJzgnLCAnLW1hJywgJzIwMCcsICctbWV0YWxfYmluZGluZycsICctaW1hZScsICc8aW5maWxlLm1hZT4nLCAnLW9tYWUnLCAnPG91dGZpbGUubWFlPic=

> <r_lp_tautomer_probability>
1

> <r_epik_Ionization_Penalty>
0.0020309

> <r_epik_Ionization_Penalty_Charging>
0.00195276

> <r_epik_Ionization_Penalty_Neutral>
7.81448e-05

> <r_epik_State_Penalty>
0.00133177

> <r_epik_Charging_Adjusted_Penalty>
0.00328452

> <i_epik_Tot_Q>
1

> <i_epik_Tot_abs_Q>
1

> <r_epik_Metal_State_Penalty>
-0

> <b_epik_Metal_Only>
0

> <s_lp_Force_Field>
OPLS_2005

> <r_lp_Energy>
21.6269

> <b_lp_Chiralities_Consistent>
1

> <s_lp_Variant>
AV-unprocessed.smi:1205-7

> <Gold.Version>
5.8.1

> <Gold.Id.Protein>
6NUR|6NUR_protein|mol2

> <Gold.PLP.Fitness>
45.9397

> <Gold.PLP.PLP>
-35.8545

> <Gold.PLP.part.hbond>
-4.0000

> <Gold.PLP.part.metal>
0.0000

> <Gold.PLP.part.buried>
-1.2565

> <Gold.PLP.part.nonpolar>
-30.1693

> <Gold.PLP.part.repulsive>
0.0407

> <Gold.PLP.ligand.clash>
0.0000

> <Gold.PLP.ligand.torsion>
0.7648

> <Gold.PLP.Chemscore.Hbond>
3.8215

> <Gold.PLP.Chemscore.CHOScore>
0.0000

> <Gold.PLP.Chemscore.Metal>
0.0000

> <Gold.Chemscore.Hbonds>
donor molecule, donor type, donor heavy atom, donor atom, acceptor molecule, acceptor atom, score
      L1  H     8    27       P1  7948  0.90
      L1  H    12    49       P1  7948  1.92
      P1  H  7997  8008       L1    21  0.99

> <Gold.PLP.Chemscore.Internal.Correction>
0.1503

> <Gold.Rescore>
     Score         DG    S(hbond)    S(metal)    S(lipo)     H(rot)  DE(clash)    DE(int)     intcor
     18.64     -20.45       2.89        0.00      77.41       1.47       0.97       0.83       ----

> <Gold.Chemscore.Fitness>
18.6440

> <Gold.Chemscore.DG>
-20.4470

> <Gold.Chemscore.ZeroCoef>
-5.4800

> <Gold.Chemscore.Hbond>
2.8930

> <Gold.Chemscore.Metal>
0.0000

> <Gold.Chemscore.Lipo>
77.4085

> <Gold.Chemscore.Internal_Hbond>
0.0000

> <Gold.Chemscore.DEClash>
0.9735

> <Gold.Chemscore.DEInternal>
0.8295

> <Gold.Chemscore.Rot>
1.4658

> <Gold.Chemscore.Internal.Correction>
   9.000000E+99

> <Gold.Chemscore.Hbonds>
donor molecule, donor type, donor heavy atom, donor atom, acceptor molecule, acceptor atom, score
      L1  H     8    27       P1  7948  0.60
      L1  H    12    49       P1  7948  0.44
      P1  H  7997  8008       L1    21  0.49

> <Gold.Chemscore.Hbond.Weighted>
-9.6628

> <Gold.Chemscore.Metal.Weighted>
-0.0000

> <Gold.Chemscore.Lipo.Weighted>
-9.0568

> <Gold.Chemscore.Internal_Hbond.Weighted>
0.0000

> <Gold.Chemscore.DEClash.Weighted>
0.9735

> <Gold.Chemscore.DEInternal.Weighted>
0.8295

> <Gold.Chemscore.Rot.Weighted>
3.7526

> <Gold.Chemscore.Internal.Correction.Weighted>
   9.000000E+99

> <Gold.Protein.RotatedTorsions>
[ 6907 6896 6895 6894 ] final   28.98 input  -60.11 | X-H torsion
[ 7974 7965 7964 7962 ] final  -10.43 input  175.53 | X-H torsion
[ 8008 7997 7996 7995 ] final  -34.13 input   59.86 | X-H torsion
[ 10167 10162 10161 10158 ] final  -95.87 input  -65.29 | X-H torsion
[ 10718 10713 10712 10709 ] final   21.89 input   66.30 | X-H torsion
[ 10763 10752 10751 10750 ] final   11.00 input  -60.55 | X-H torsion
[ 11005 11000 10999 10996 ] final  135.66 input  -57.11 | X-H torsion

> <Gold.Protein.ActiveResidues>
 VAL166  LYS551  ARG553  GLY616  TRP617  ASP618  TYR619  PRO620  LYS621  CYS622 
 ASP623  PHE694  ASN695  SER759  ASP760  ASP761  ALA762  ILE779  LEU786  VAL792 
 PHE793  MET794  SER795  GLU796  ALA797  LYS798  CYS799  TRP800  GLU811  SER814 

> <Gold.Protein.RotatedAtoms>
  152.0249  134.9801  160.0571 H   0  0  0  0  0  0  0  0  0  0  0  0  # atno 6907 bound_to 6896
  152.1301  133.4398  159.4725 H   0  0  0  0  0  0  0  0  0  0  0  0  # atno 6908 bound_to 6896
  150.6855  134.2349  159.4492 H   0  0  0  0  0  0  0  0  0  0  0  0  # atno 6909 bound_to 6896
  146.2221  140.2763  142.8359 H   0  0  0  0  0  0  0  0  0  0  0  0  # atno 7974 bound_to 7965
  154.4129  140.1692  156.2000 H   0  0  0  0  0  0  0  0  0  0  0  0  # atno 8008 bound_to 7997
  155.9532  140.3399  155.6402 H   0  0  0  0  0  0  0  0  0  0  0  0  # atno 8009 bound_to 7997
  155.6844  140.0726  157.2463 H   0  0  0  0  0  0  0  0  0  0  0  0  # atno 8010 bound_to 7997
  140.2997  143.3170  152.0261 H   0  0  0  0  0  0  0  0  0  0  0  0  # atno 10167 bound_to 10162
  157.1447  130.6648  149.5992 H   0  0  0  0  0  0  0  0  0  0  0  0  # atno 10718 bound_to 10713
  153.1973  135.6851  153.8276 H   0  0  0  0  0  0  0  0  0  0  0  0  # atno 10763 bound_to 10752
  153.7555  135.3217  155.3329 H   0  0  0  0  0  0  0  0  0  0  0  0  # atno 10764 bound_to 10752
  154.8151  135.4691  154.0723 H   0  0  0  0  0  0  0  0  0  0  0  0  # atno 10765 bound_to 10752
  139.9994  134.9484  157.0038 H   0  0  0  0  0  0  0  0  0  0  0  0  # atno 11005 bound_to 11000
  144.9230  140.7890  143.5736 LP  0  0  0  0  0  0  0  0  0  0  0  0  # atno 17320 bound_to 7965
  145.2701  139.1958  143.4846 LP  0  0  0  0  0  0  0  0  0  0  0  0  # atno 17321 bound_to 7965
  139.4918  144.6465  151.6767 LP  0  0  0  0  0  0  0  0  0  0  0  0  # atno 17342 bound_to 10162
  140.5662  144.0186  150.6193 LP  0  0  0  0  0  0  0  0  0  0  0  0  # atno 17343 bound_to 10162
  155.9782  130.4765  150.6639 LP  0  0  0  0  0  0  0  0  0  0  0  0  # atno 17370 bound_to 10713
  157.4275  131.0845  151.1071 LP  0  0  0  0  0  0  0  0  0  0  0  0  # atno 17371 bound_to 10713
  140.4756  134.1342  155.7209 LP  0  0  0  0  0  0  0  0  0  0  0  0  # atno 17394 bound_to 11000
  141.1630  133.8757  157.1794 LP  0  0  0  0  0  0  0  0  0  0  0  0  # atno 17395 bound_to 11000

$$$$
