AV-unprocessed.smi:284|AV-procd|sdf|2159|dock6
  -GOLD-   2262021513D 1   1.00000     0.00000
 Structure written by MMmdl.
 60 62  0  0  0  0  0  0  0  0  1 V2000
  154.0379  135.5475  164.3218 C   0  0  0  0  0  0  0  0  0  0  0  0
  154.7785  136.8545  164.0842 C   0  0  0  0  0  0  0  0  0  0  0  0
  154.9014  137.7971  165.0467 C   0  0  0  0  0  0  0  0  0  0  0  0
  155.5578  138.9990  164.8632 N   0  0  0  0  0  0  0  0  0  0  0  0
  155.6588  139.9736  166.0172 C   0  0  2  0  0  0  0  0  0  0  0  0
  154.9258  139.5053  167.2826 C   0  0  0  0  0  0  0  0  0  0  0  0
  154.5087  140.8307  167.8873 C   0  0  2  0  0  0  0  0  0  0  0  0
  153.3667  140.6767  168.7049 O   0  0  0  0  0  0  0  0  0  0  0  0
  154.2226  141.6707  166.6351 C   0  0  1  0  0  0  0  0  0  0  0  0
  154.3297  143.1989  166.7824 C   0  0  0  0  0  0  0  0  0  0  0  0
  155.6352  143.6044  167.1400 O   0  0  0  0  0  0  0  0  0  0  0  0
  155.1106  141.1975  165.6253 O   0  0  0  0  0  0  0  0  0  0  0  0
  156.1858  139.2675  163.6265 C   0  0  0  0  0  0  0  0  0  0  0  0
  156.8135  140.3123  163.4437 O   0  0  0  0  0  0  0  0  0  0  0  0
  156.0754  138.3030  162.5993 N   0  0  0  0  0  0  0  0  0  0  0  0
  156.6882  138.5915  161.2827 C   0  0  0  0  0  0  0  0  0  0  0  0
  155.9410  139.6707  160.4823 C   0  0  0  0  0  0  0  0  0  0  0  0
  156.3751  140.0561  159.3957 O   0  0  0  0  0  0  0  0  0  0  0  0
  154.7992  140.1101  161.0424 N   0  0  0  0  0  0  0  0  0  0  0  0
  153.9059  141.1054  160.5618 C   0  0  0  0  0  0  0  0  0  0  0  0
  153.3022  141.9521  161.5116 C   0  0  0  0  0  0  0  0  0  0  0  0
  152.4175  142.9703  161.1075 C   0  0  0  0  0  0  0  0  0  0  0  0
  152.1225  143.1740  159.7368 C   0  0  0  0  0  0  0  0  0  0  0  0
  151.1559  144.2726  159.2539 C   0  0  0  0  0  0  0  0  0  0  0  0
  150.7513  145.1666  160.4445 C   0  0  0  0  0  0  0  0  0  0  0  0
  149.8601  143.7053  158.6316 C   0  0  0  0  0  0  0  0  0  0  0  0
  151.8497  145.1377  158.1807 C   0  0  0  0  0  0  0  0  0  0  0  0
  152.7508  142.3327  158.7886 C   0  0  0  0  0  0  0  0  0  0  0  0
  153.6356  141.3142  159.1901 C   0  0  0  0  0  0  0  0  0  0  0  0
  155.3741  137.0835  162.7661 C   0  0  0  0  0  0  0  0  0  0  0  0
  155.2826  136.2795  161.8363 O   0  0  0  0  0  0  0  0  0  0  0  0
  153.6243  135.4928  165.3292 H   0  0  0  0  0  0  0  0  0  0  0  0
  154.7101  134.6989  164.1901 H   0  0  0  0  0  0  0  0  0  0  0  0
  153.2116  135.4430  163.6175 H   0  0  0  0  0  0  0  0  0  0  0  0
  154.4530  137.5984  166.0097 H   0  0  0  0  0  0  0  0  0  0  0  0
  156.7224  140.1269  166.2023 H   0  0  0  0  0  0  0  0  0  0  0  0
  154.0570  138.8967  167.0338 H   0  0  0  0  0  0  0  0  0  0  0  0
  155.5858  138.9202  167.9234 H   0  0  0  0  0  0  0  0  0  0  0  0
  155.3350  141.2403  168.4691 H   0  0  0  0  0  0  0  0  0  0  0  0
  152.9502  141.5199  168.8004 H   0  0  0  0  0  0  0  0  0  0  0  0
  153.2203  141.4326  166.2756 H   0  0  0  0  0  0  0  0  0  0  0  0
  154.0333  143.6953  165.8581 H   0  0  0  0  0  0  0  0  0  0  0  0
  153.6483  143.5408  167.5617 H   0  0  0  0  0  0  0  0  0  0  0  0
  156.0440  144.0007  166.3857 H   0  0  0  0  0  0  0  0  0  0  0  0
  157.7287  138.9023  161.3878 H   0  0  0  0  0  0  0  0  0  0  0  0
  156.7467  137.6849  160.6779 H   0  0  0  0  0  0  0  0  0  0  0  0
  154.5056  139.6321  161.8818 H   0  0  0  0  0  0  0  0  0  0  0  0
  153.5103  141.8192  162.5635 H   0  0  0  0  0  0  0  0  0  0  0  0
  151.9774  143.5829  161.8786 H   0  0  0  0  0  0  0  0  0  0  0  0
  150.0512  145.9440  160.1365 H   0  0  0  0  0  0  0  0  0  0  0  0
  151.6090  145.6696  160.8915 H   0  0  0  0  0  0  0  0  0  0  0  0
  150.2678  144.5832  161.2290 H   0  0  0  0  0  0  0  0  0  0  0  0
  149.2960  143.1075  159.3486 H   0  0  0  0  0  0  0  0  0  0  0  0
  150.0692  143.0830  157.7607 H   0  0  0  0  0  0  0  0  0  0  0  0
  149.1992  144.5062  158.2978 H   0  0  0  0  0  0  0  0  0  0  0  0
  151.1819  145.9128  157.8028 H   0  0  0  0  0  0  0  0  0  0  0  0
  152.1633  144.5326  157.3291 H   0  0  0  0  0  0  0  0  0  0  0  0
  152.7348  145.6419  158.5684 H   0  0  0  0  0  0  0  0  0  0  0  0
  152.5619  142.4633  157.7337 H   0  0  0  0  0  0  0  0  0  0  0  0
  154.1052  140.7139  158.4261 H   0  0  0  0  0  0  0  0  0  0  0  0
  1  2  1  0  0  0  0
  1 32  1  0  0  0  0
  1 33  1  0  0  0  0
  1 34  1  0  0  0  0
  2 30  1  0  0  0  0
  2  3  2  0  0  0  0
  3  4  1  0  0  0  0
  3 35  1  0  0  0  0
  4  5  1  0  0  0  0
  4 13  1  0  0  0  0
  5 12  1  0  0  0  0
  5  6  1  0  0  0  0
  5 36  1  0  0  0  0
  6  7  1  0  0  0  0
  6 37  1  0  0  0  0
  6 38  1  0  0  0  0
  7  8  1  0  0  0  0
  7  9  1  0  0  0  0
  7 39  1  0  0  0  0
  8 40  1  0  0  0  0
  9 10  1  0  0  0  0
  9 12  1  0  0  0  0
  9 41  1  0  0  0  0
 10 11  1  0  0  0  0
 10 42  1  0  0  0  0
 10 43  1  0  0  0  0
 11 44  1  0  0  0  0
 13 14  2  0  0  0  0
 13 15  1  0  0  0  0
 15 16  1  0  0  0  0
 15 30  1  0  0  0  0
 16 17  1  0  0  0  0
 16 45  1  0  0  0  0
 16 46  1  0  0  0  0
 17 18  2  0  0  0  0
 17 19  1  0  0  0  0
 19 20  1  0  0  0  0
 19 47  1  0  0  0  0
 20 29  1  0  0  0  0
 20 21  2  0  0  0  0
 21 22  1  0  0  0  0
 21 48  1  0  0  0  0
 22 23  2  0  0  0  0
 22 49  1  0  0  0  0
 23 24  1  0  0  0  0
 23 28  1  0  0  0  0
 24 25  1  0  0  0  0
 24 26  1  0  0  0  0
 24 27  1  0  0  0  0
 25 50  1  0  0  0  0
 25 51  1  0  0  0  0
 25 52  1  0  0  0  0
 26 53  1  0  0  0  0
 26 54  1  0  0  0  0
 26 55  1  0  0  0  0
 27 56  1  0  0  0  0
 27 57  1  0  0  0  0
 27 58  1  0  0  0  0
 28 29  2  0  0  0  0
 28 59  1  0  0  0  0
 29 60  1  0  0  0  0
 30 31  2  0  0  0  0
M  END
> <s_m_source_file>
AV-unprocessed.smi

> <i_m_source_file_index>
284

> <i_lp_mmshare_version>
43012

> <i_f3d_flags>
0

> <s_epik_input>
W09IXVtDSDJdW0NAQEhdKE8xKVtDQEhdKFtPSF0pW0NIMl1bQ0BIXTFuKFtjSF1jMltDSDNdKWMoPU8pbihjMj1PKVtDSDJdQyg9TylbTkhdYzNbY0hdW2NIXWMoQyhbQ0gzXSkoW0NIM10pW0NIM10pW2NIXVtjSF0z

> <s_epik_cmdline>
J2VwaWtfcHl0aG9uJywgJy1waCcsICc3LjAnLCAnLXRuJywgJzgnLCAnLW1hJywgJzIwMCcsICctbWV0YWxfYmluZGluZycsICctaW1hZScsICc8aW5maWxlLm1hZT4nLCAnLW9tYWUnLCAnPG91dGZpbGUubWFlPic=

> <r_lp_tautomer_probability>
1

> <r_epik_Ionization_Penalty>
4.92358e-06

> <r_epik_Ionization_Penalty_Charging>
1.29777e-07

> <r_epik_Ionization_Penalty_Neutral>
4.79381e-06

> <r_epik_State_Penalty>
-0

> <r_epik_Charging_Adjusted_Penalty>
1.29777e-07

> <i_epik_Tot_Q>
0

> <i_epik_Tot_abs_Q>
0

> <r_epik_Metal_State_Penalty>
-0

> <b_epik_Metal_Only>
0

> <s_epik_Chemistry_Notes>
This compound contains an acetal/aminal-like group ( X-CH(R)-Y where X, Y are N, S, or O) that may be acid/base labile, releasing an aldehyde.

> <s_lp_Force_Field>
OPLS_2005

> <r_lp_Energy>
37.3901

> <b_lp_Chiralities_Consistent>
1

> <s_lp_Variant>
AV-unprocessed.smi:284-3

> <Gold.Version>
5.8.1

> <Gold.Id.Protein>
6NUR|6NUR_protein|mol2

> <Gold.PLP.Fitness>
63.7622

> <Gold.PLP.PLP>
-61.8907

> <Gold.PLP.part.hbond>
-4.8539

> <Gold.PLP.part.metal>
0.0000

> <Gold.PLP.part.buried>
-5.6132

> <Gold.PLP.part.nonpolar>
-50.5287

> <Gold.PLP.part.repulsive>
0.0391

> <Gold.PLP.ligand.clash>
0.0000

> <Gold.PLP.ligand.torsion>
0.5819

> <Gold.PLP.Chemscore.Hbond>
1.0000

> <Gold.PLP.Chemscore.CHOScore>
0.0000

> <Gold.PLP.Chemscore.Metal>
0.0000

> <Gold.Chemscore.Hbonds>
donor molecule, donor type, donor heavy atom, donor atom, acceptor molecule, acceptor atom, score
      P1  H  7997  8010       L1    18  0.60

> <Gold.PLP.Chemscore.Internal.Correction>
0.0353

> <Gold.Rescore>
     Score         DG    S(hbond)    S(metal)    S(lipo)     H(rot)  DE(clash)    DE(int)     intcor
     14.02     -19.02       1.00        0.00     158.83       3.27       3.22       1.78       ----

> <Gold.Chemscore.Fitness>
14.0223

> <Gold.Chemscore.DG>
-19.0175

> <Gold.Chemscore.ZeroCoef>
-5.4800

> <Gold.Chemscore.Hbond>
0.9983

> <Gold.Chemscore.Metal>
0.0000

> <Gold.Chemscore.Lipo>
158.8316

> <Gold.Chemscore.Internal_Hbond>
0.0000

> <Gold.Chemscore.DEClash>
3.2195

> <Gold.Chemscore.DEInternal>
1.7757

> <Gold.Chemscore.Rot>
3.2735

> <Gold.Chemscore.Internal.Correction>
   9.000000E+99

> <Gold.Chemscore.Hbonds>
donor molecule, donor type, donor heavy atom, donor atom, acceptor molecule, acceptor atom, score
      P1  H  7997  8010       L1    18  0.59

> <Gold.Chemscore.Hbond.Weighted>
-3.3343

> <Gold.Chemscore.Metal.Weighted>
-0.0000

> <Gold.Chemscore.Lipo.Weighted>
-18.5833

> <Gold.Chemscore.Internal_Hbond.Weighted>
0.0000

> <Gold.Chemscore.DEClash.Weighted>
3.2195

> <Gold.Chemscore.DEInternal.Weighted>
1.7757

> <Gold.Chemscore.Rot.Weighted>
8.3801

> <Gold.Chemscore.Internal.Correction.Weighted>
   9.000000E+99

> <Gold.Protein.RotatedTorsions>
[ 6907 6896 6895 6894 ] final   54.35 input  -60.11 | X-H torsion
[ 7974 7965 7964 7962 ] final -162.80 input  175.53 | X-H torsion
[ 8008 7997 7996 7995 ] final  -30.04 input   59.86 | X-H torsion
[ 10167 10162 10161 10158 ] final   89.39 input  -65.29 | X-H torsion
[ 10718 10713 10712 10709 ] final  133.78 input   66.30 | X-H torsion
[ 10763 10752 10751 10750 ] final  -34.45 input  -60.55 | X-H torsion
[ 11005 11000 10999 10996 ] final -170.12 input  -57.11 | X-H torsion

> <Gold.Protein.ActiveResidues>
 VAL166  LYS551  ARG553  GLY616  TRP617  ASP618  TYR619  PRO620  LYS621  CYS622 
 ASP623  PHE694  ASN695  SER759  ASP760  ASP761  ALA762  ILE779  LEU786  VAL792 
 PHE793  MET794  SER795  GLU796  ALA797  LYS798  CYS799  TRP800  GLU811  SER814 

> <Gold.Protein.RotatedAtoms>
  152.3429  134.7110  160.0258 H   0  0  0  0  0  0  0  0  0  0  0  0  # atno 6907 bound_to 6896
  151.7489  133.3321  159.3394 H   0  0  0  0  0  0  0  0  0  0  0  0  # atno 6908 bound_to 6896
  150.7491  134.6143  159.6147 H   0  0  0  0  0  0  0  0  0  0  0  0  # atno 6909 bound_to 6896
  144.7346  140.3201  143.6172 H   0  0  0  0  0  0  0  0  0  0  0  0  # atno 7974 bound_to 7965
  154.4266  140.1802  156.1344 H   0  0  0  0  0  0  0  0  0  0  0  0  # atno 8008 bound_to 7997
  156.0042  140.3357  155.6850 H   0  0  0  0  0  0  0  0  0  0  0  0  # atno 8009 bound_to 7997
  155.6201  140.0659  157.2671 H   0  0  0  0  0  0  0  0  0  0  0  0  # atno 8010 bound_to 7997
  139.8578  144.6560  150.9094 H   0  0  0  0  0  0  0  0  0  0  0  0  # atno 10167 bound_to 10162
  157.4739  131.1082  150.9768 H   0  0  0  0  0  0  0  0  0  0  0  0  # atno 10718 bound_to 10713
  153.8469  135.6852  153.4796 H   0  0  0  0  0  0  0  0  0  0  0  0  # atno 10763 bound_to 10752
  153.1420  135.4653  154.9508 H   0  0  0  0  0  0  0  0  0  0  0  0  # atno 10764 bound_to 10752
  154.7820  135.3272  154.7916 H   0  0  0  0  0  0  0  0  0  0  0  0  # atno 10765 bound_to 10752
  140.5231  134.5690  157.5053 H   0  0  0  0  0  0  0  0  0  0  0  0  # atno 11005 bound_to 11000
  145.7578  139.1814  143.2285 LP  0  0  0  0  0  0  0  0  0  0  0  0  # atno 17320 bound_to 7965
  146.1010  140.7543  142.9549 LP  0  0  0  0  0  0  0  0  0  0  0  0  # atno 17321 bound_to 7965
  140.7779  143.3771  151.1544 LP  0  0  0  0  0  0  0  0  0  0  0  0  # atno 17342 bound_to 10162
  139.7403  143.8935  152.3048 LP  0  0  0  0  0  0  0  0  0  0  0  0  # atno 17343 bound_to 10162
  157.0523  130.5792  149.5372 LP  0  0  0  0  0  0  0  0  0  0  0  0  # atno 17370 bound_to 10713
  156.0087  130.5176  150.7917 LP  0  0  0  0  0  0  0  0  0  0  0  0  # atno 17371 bound_to 10713
  139.9595  134.7477  156.0268 LP  0  0  0  0  0  0  0  0  0  0  0  0  # atno 17394 bound_to 11000
  141.1323  133.6583  156.3499 LP  0  0  0  0  0  0  0  0  0  0  0  0  # atno 17395 bound_to 11000

$$$$
