AV-unprocessed.smi:1100|AV-procd|sdf|4760|dock8
  -GOLD-   22720 3293D 1   1.00000     0.00000
 Structure written by MMmdl.
 43 44  0  0  0  0  0  0  0  0  1 V2000
  151.7663  135.1123  156.5862 C   0  0  0  0  0  0  0  0  0  0  0  0
  150.8466  135.6657  155.4678 C   0  0  1  0  0  0  0  0  0  0  0  0
  149.5114  134.8642  155.4687 C   0  0  0  0  0  0  0  0  0  0  0  0
  148.7845  134.9417  154.2040 N   0  0  0  0  0  0  0  0  0  0  0  0
  147.8049  134.1089  153.8241 C   0  0  0  0  0  0  0  0  0  0  0  0
  147.4324  133.1538  154.5047 O   0  0  0  0  0  0  0  0  0  0  0  0
  147.2964  134.4794  152.6348 N   0  0  0  0  0  0  0  0  0  0  0  0
  146.2670  133.8873  151.8895 C   0  0  0  0  0  0  0  0  0  0  0  0
  144.8450  133.9902  152.1845 C   0  0  0  0  0  0  0  0  0  0  0  0
  143.9317  133.3817  151.4021 C   0  0  0  0  0  0  0  0  0  0  0  0
  144.3225  132.5952  150.2295 C   0  0  0  0  0  0  0  0  0  0  0  0
  143.4965  132.0378  149.5062 O   0  0  0  0  0  0  0  0  0  0  0  0
  145.6637  132.5180  149.9930 N   0  0  0  0  0  0  0  0  0  0  0  0
  146.1585  131.7512  148.8471 C   0  0  0  0  0  0  0  0  0  0  0  0
  146.6125  133.1531  150.8160 C   0  0  0  0  0  0  0  0  0  0  0  0
  150.6506  137.1314  155.5611 N   0  0  0  0  0  0  0  0  0  0  0  0
  151.9141  137.8560  155.7433 C   0  0  0  0  0  0  0  0  0  0  0  0
  151.7272  139.3815  155.8085 C   0  0  0  0  0  0  0  0  0  0  0  0
  151.0722  139.8340  154.6321 O   0  0  0  0  0  0  0  0  0  0  0  0
  149.8045  139.2165  154.4583 C   0  0  0  0  0  0  0  0  0  0  0  0
  149.9762  137.6891  154.3827 C   0  0  0  0  0  0  0  0  0  0  0  0
  151.8717  134.0292  156.5417 H   0  0  0  0  0  0  0  0  0  0  0  0
  151.3809  135.3635  157.5749 H   0  0  0  0  0  0  0  0  0  0  0  0
  152.7828  135.4962  156.5124 H   0  0  0  0  0  0  0  0  0  0  0  0
  151.3443  135.4580  154.5193 H   0  0  0  0  0  0  0  0  0  0  0  0
  149.7109  133.8132  155.6799 H   0  0  0  0  0  0  0  0  0  0  0  0
  148.8282  135.2098  156.2435 H   0  0  0  0  0  0  0  0  0  0  0  0
  149.0298  135.7011  153.5858 H   0  0  0  0  0  0  0  0  0  0  0  0
  147.6950  135.3082  152.2187 H   0  0  0  0  0  0  0  0  0  0  0  0
  144.4809  134.5390  153.0374 H   0  0  0  0  0  0  0  0  0  0  0  0
  142.8837  133.4702  151.6479 H   0  0  0  0  0  0  0  0  0  0  0  0
  147.2399  131.8228  148.7267 H   0  0  0  0  0  0  0  0  0  0  0  0
  145.7071  132.1081  147.9201 H   0  0  0  0  0  0  0  0  0  0  0  0
  145.9105  130.6949  148.9609 H   0  0  0  0  0  0  0  0  0  0  0  0
  147.6405  133.0104  150.5148 H   0  0  0  0  0  0  0  0  0  0  0  0
  152.3985  137.5559  156.6708 H   0  0  0  0  0  0  0  0  0  0  0  0
  152.6011  137.6105  154.9321 H   0  0  0  0  0  0  0  0  0  0  0  0
  151.1483  139.6636  156.6894 H   0  0  0  0  0  0  0  0  0  0  0  0
  152.6946  139.8775  155.8893 H   0  0  0  0  0  0  0  0  0  0  0  0
  149.1414  139.4909  155.2802 H   0  0  0  0  0  0  0  0  0  0  0  0
  149.3496  139.5916  153.5414 H   0  0  0  0  0  0  0  0  0  0  0  0
  150.5330  137.4315  153.4805 H   0  0  0  0  0  0  0  0  0  0  0  0
  148.9798  137.2663  154.2725 H   0  0  0  0  0  0  0  0  0  0  0  0
  1  2  1  0  0  0  0
  1 22  1  0  0  0  0
  1 23  1  0  0  0  0
  1 24  1  0  0  0  0
  2  3  1  0  0  0  0
  2 16  1  0  0  0  0
  2 25  1  0  0  0  0
  3  4  1  0  0  0  0
  3 26  1  0  0  0  0
  3 27  1  0  0  0  0
  4  5  1  0  0  0  0
  4 28  1  0  0  0  0
  5  6  2  0  0  0  0
  5  7  1  0  0  0  0
  7  8  1  0  0  0  0
  7 29  1  0  0  0  0
  8 15  2  0  0  0  0
  8  9  1  0  0  0  0
  9 10  2  0  0  0  0
  9 30  1  0  0  0  0
 10 11  1  0  0  0  0
 10 31  1  0  0  0  0
 11 12  2  0  0  0  0
 11 13  1  0  0  0  0
 13 14  1  0  0  0  0
 13 15  1  0  0  0  0
 14 32  1  0  0  0  0
 14 33  1  0  0  0  0
 14 34  1  0  0  0  0
 15 35  1  0  0  0  0
 16 21  1  0  0  0  0
 16 17  1  0  0  0  0
 17 18  1  0  0  0  0
 17 36  1  0  0  0  0
 17 37  1  0  0  0  0
 18 19  1  0  0  0  0
 18 38  1  0  0  0  0
 18 39  1  0  0  0  0
 19 20  1  0  0  0  0
 20 21  1  0  0  0  0
 20 40  1  0  0  0  0
 20 41  1  0  0  0  0
 21 42  1  0  0  0  0
 21 43  1  0  0  0  0
M  END
> <s_m_source_file>
AV-unprocessed.smi

> <i_m_source_file_index>
1100

> <i_lp_mmshare_version>
43012

> <i_f3d_flags>
0

> <s_epik_input>
W0NIMl0xW0NIMl1PW0NIMl1bQ0gyXU4xW0NASF0oW0NIM10pW0NIMl1bTkhdQyg9TylbTkhdYzJbY0hdW2NIXWMoPU8pbihbQ0gzXSlbY0hdMg==

> <s_epik_cmdline>
J2VwaWtfcHl0aG9uJywgJy1waCcsICc3LjAnLCAnLXRuJywgJzgnLCAnLW1hJywgJzIwMCcsICctbWV0YWxfYmluZGluZycsICctaW1hZScsICc8aW5maWxlLm1hZT4nLCAnLW9tYWUnLCAnPG91dGZpbGUubWFlPic=

> <r_lp_tautomer_probability>
1

> <r_epik_Ionization_Penalty>
0.266016

> <r_epik_Ionization_Penalty_Charging>
5.79683e-06

> <r_epik_Ionization_Penalty_Neutral>
0.26601

> <r_epik_State_Penalty>
0.257924

> <r_epik_Charging_Adjusted_Penalty>
0.25793

> <i_epik_Tot_Q>
0

> <i_epik_Tot_abs_Q>
0

> <r_epik_Metal_State_Penalty>
0.260326

> <b_epik_Metal_Only>
0

> <s_lp_Force_Field>
OPLS_2005

> <r_lp_Energy>
41.8839

> <b_lp_Chiralities_Consistent>
1

> <s_lp_Variant>
AV-unprocessed.smi:1100-2

> <Gold.Version>
5.8.1

> <Gold.Id.Protein>
6NUR|6NUR_protein|mol2

> <Gold.PLP.Fitness>
46.2112

> <Gold.PLP.PLP>
-33.7353

> <Gold.PLP.part.hbond>
-3.9427

> <Gold.PLP.part.metal>
0.0000

> <Gold.PLP.part.buried>
-2.8638

> <Gold.PLP.part.nonpolar>
-28.8733

> <Gold.PLP.part.repulsive>
0.4448

> <Gold.PLP.ligand.clash>
0.0000

> <Gold.PLP.ligand.torsion>
1.0618

> <Gold.PLP.Chemscore.Hbond>
3.8553

> <Gold.PLP.Chemscore.CHOScore>
1.0000

> <Gold.PLP.Chemscore.Metal>
0.0000

> <Gold.Chemscore.Hbonds>
donor molecule, donor type, donor heavy atom, donor atom, acceptor molecule, acceptor atom, score
      L1  H     4    28       P1  7948  0.85
      L1  H     7    29       P1  7948  1.00
      P1  H  7989  7998       L1    19  1.00
      P1  H 10785 10796       L1    12  0.91
      L1  C    15    35       P1 10747  1.00

> <Gold.PLP.Chemscore.Internal.Correction>
0.0338

> <Gold.Rescore>
     Score         DG    S(hbond)    S(metal)    S(lipo)     H(rot)  DE(clash)    DE(int)     intcor
     20.89     -22.90       3.65        0.00      77.28       1.49       0.22       1.80       ----

> <Gold.Chemscore.Fitness>
20.8868

> <Gold.Chemscore.DG>
-22.9044

> <Gold.Chemscore.ZeroCoef>
-5.4800

> <Gold.Chemscore.Hbond>
3.6546

> <Gold.Chemscore.Metal>
0.0000

> <Gold.Chemscore.Lipo>
77.2830

> <Gold.Chemscore.Internal_Hbond>
0.0000

> <Gold.Chemscore.DEClash>
0.2197

> <Gold.Chemscore.DEInternal>
1.7978

> <Gold.Chemscore.Rot>
1.4938

> <Gold.Chemscore.Internal.Correction>
   9.000000E+99

> <Gold.Chemscore.Hbonds>
donor molecule, donor type, donor heavy atom, donor atom, acceptor molecule, acceptor atom, score
      L1  H     4    28       P1  7948  0.68
      L1  H     7    29       P1  7948  0.92
      P1  H  7989  7998       L1    19  0.97
      P1  H 10785 10796       L1    12  0.83

> <Gold.Chemscore.Hbond.Weighted>
-12.2064

> <Gold.Chemscore.Metal.Weighted>
-0.0000

> <Gold.Chemscore.Lipo.Weighted>
-9.0421

> <Gold.Chemscore.Internal_Hbond.Weighted>
0.0000

> <Gold.Chemscore.DEClash.Weighted>
0.2197

> <Gold.Chemscore.DEInternal.Weighted>
1.7978

> <Gold.Chemscore.Rot.Weighted>
3.8242

> <Gold.Chemscore.Internal.Correction.Weighted>
   9.000000E+99

> <Gold.Protein.RotatedTorsions>
[ 6907 6896 6895 6894 ] final  -44.88 input  -60.11 | X-H torsion
[ 7974 7965 7964 7962 ] final -161.71 input  175.53 | X-H torsion
[ 8008 7997 7996 7995 ] final   50.29 input   59.86 | X-H torsion
[ 10167 10162 10161 10158 ] final  145.19 input  -65.29 | X-H torsion
[ 10718 10713 10712 10709 ] final   62.95 input   66.30 | X-H torsion
[ 10763 10752 10751 10750 ] final  -35.32 input  -60.55 | X-H torsion
[ 11005 11000 10999 10996 ] final -157.82 input  -57.11 | X-H torsion

> <Gold.Protein.ActiveResidues>
 VAL166  LYS551  ARG553  GLY616  TRP617  ASP618  TYR619  PRO620  LYS621  CYS622 
 ASP623  PHE694  ASN695  SER759  ASP760  ASP761  ALA762  ILE779  LEU786  VAL792 
 PHE793  MET794  SER795  GLU796  ALA797  LYS798  CYS799  TRP800  GLU811  SER814 

> <Gold.Protein.RotatedAtoms>
  150.9280  134.8696  159.7532 H   0  0  0  0  0  0  0  0  0  0  0  0  # atno 6907 bound_to 6896
  152.5024  134.4120  159.9462 H   0  0  0  0  0  0  0  0  0  0  0  0  # atno 6908 bound_to 6896
  151.4149  133.3676  159.2784 H   0  0  0  0  0  0  0  0  0  0  0  0  # atno 6909 bound_to 6896
  144.7382  140.3358  143.6144 H   0  0  0  0  0  0  0  0  0  0  0  0  # atno 7974 bound_to 7965
  155.4162  140.3444  155.4267 H   0  0  0  0  0  0  0  0  0  0  0  0  # atno 8008 bound_to 7997
  156.1419  140.1545  156.8938 H   0  0  0  0  0  0  0  0  0  0  0  0  # atno 8009 bound_to 7997
  154.4978  140.0823  156.7715 H   0  0  0  0  0  0  0  0  0  0  0  0  # atno 8010 bound_to 7997
  139.4931  144.5919  151.6663 H   0  0  0  0  0  0  0  0  0  0  0  0  # atno 10167 bound_to 10162
  157.5937  130.9078  149.9653 H   0  0  0  0  0  0  0  0  0  0  0  0  # atno 10718 bound_to 10713
  153.8612  135.6840  153.4782 H   0  0  0  0  0  0  0  0  0  0  0  0  # atno 10763 bound_to 10752
  153.1341  135.4685  154.9392 H   0  0  0  0  0  0  0  0  0  0  0  0  # atno 10764 bound_to 10752
  154.7758  135.3253  154.8045 H   0  0  0  0  0  0  0  0  0  0  0  0  # atno 10765 bound_to 10752
  140.6604  134.4355  157.5234 H   0  0  0  0  0  0  0  0  0  0  0  0  # atno 11005 bound_to 11000
  145.7425  139.1768  143.2368 LP  0  0  0  0  0  0  0  0  0  0  0  0  # atno 17320 bound_to 7965
  146.1123  140.7412  142.9497 LP  0  0  0  0  0  0  0  0  0  0  0  0  # atno 17321 bound_to 7965
  140.5548  144.0366  150.6142 LP  0  0  0  0  0  0  0  0  0  0  0  0  # atno 17342 bound_to 10162
  140.3432  143.3007  152.0565 LP  0  0  0  0  0  0  0  0  0  0  0  0  # atno 17343 bound_to 10162
  156.0995  130.3657  150.0243 LP  0  0  0  0  0  0  0  0  0  0  0  0  # atno 17370 bound_to 10713
  156.8361  130.9409  151.3634 LP  0  0  0  0  0  0  0  0  0  0  0  0  # atno 17371 bound_to 10713
  139.9015  134.8545  156.1877 LP  0  0  0  0  0  0  0  0  0  0  0  0  # atno 17394 bound_to 11000
  141.0469  133.6908  156.1700 LP  0  0  0  0  0  0  0  0  0  0  0  0  # atno 17395 bound_to 11000

$$$$
