AV-unprocessed.smi:1682|AV-procd|sdf|6744|dock2
  -GOLD-   22720 7493D 1   1.00000     0.00000
 Structure written by MMmdl.
 38 39  0  0  0  0  0  0  0  0  1 V2000
  150.3749  140.6037  154.4753 O   0  0  0  0  0  0  0  0  0  0  0  0
  150.5010  139.6398  155.2315 C   0  0  0  0  0  0  0  0  0  0  0  0
  151.0281  139.7346  156.4618 N   0  0  0  0  0  0  0  0  0  0  0  0
  151.5174  140.9668  157.0688 C   0  0  0  0  0  0  0  0  0  0  0  0
  150.3641  141.9208  157.4227 C   0  0  0  0  0  0  0  0  0  0  0  0
  150.8314  143.1050  158.2474 C   0  0  0  0  0  0  0  0  0  0  0  0
  151.9209  143.8945  157.8215 C   0  0  0  0  0  0  0  0  0  0  0  0
  152.3112  144.9866  158.6208 C   0  0  0  0  0  0  0  0  0  0  0  0
  151.5997  145.2463  159.8080 C   0  0  0  0  0  0  0  0  0  0  0  0
  150.5256  144.3984  160.1449 C   0  0  0  0  0  0  0  0  0  0  0  0
  150.1438  143.3484  159.3861 N   0  0  0  0  0  0  0  0  0  0  0  0
  150.0516  138.2404  154.7832 C   0  0  1  0  0  0  0  0  0  0  0  0
  151.2324  137.2498  154.7537 C   0  0  0  0  0  0  0  0  0  0  0  0
  150.9197  136.2699  155.8717 C   0  0  0  0  0  0  0  0  0  0  0  0
  151.7068  135.3943  156.2282 O   0  0  0  0  0  0  0  0  0  0  0  0
  149.7131  136.5076  156.3965 N   0  0  0  0  0  0  0  0  0  0  0  0
  149.0965  135.7930  157.5133 C   0  0  0  0  0  0  0  0  0  0  0  0
  148.8626  136.6988  158.7359 C   0  0  0  0  0  0  0  0  0  0  0  0
  147.8561  137.5466  158.5248 F   0  0  0  0  0  0  0  0  0  0  0  0
  148.5597  135.9377  159.7866 F   0  0  0  0  0  0  0  0  0  0  0  0
  149.9665  137.3909  159.0179 F   0  0  0  0  0  0  0  0  0  0  0  0
  149.0246  137.6146  155.7522 C   0  0  0  0  0  0  0  0  0  0  0  0
  151.0955  138.8939  157.0172 H   0  0  0  0  0  0  0  0  0  0  0  0
  152.1101  140.7378  157.9563 H   0  0  0  0  0  0  0  0  0  0  0  0
  152.1931  141.4459  156.3598 H   0  0  0  0  0  0  0  0  0  0  0  0
  149.8900  142.2895  156.5120 H   0  0  0  0  0  0  0  0  0  0  0  0
  149.5898  141.3875  157.9758 H   0  0  0  0  0  0  0  0  0  0  0  0
  152.4454  143.6715  156.9038 H   0  0  0  0  0  0  0  0  0  0  0  0
  153.1406  145.6133  158.3280 H   0  0  0  0  0  0  0  0  0  0  0  0
  151.8696  146.0754  160.4451 H   0  0  0  0  0  0  0  0  0  0  0  0
  149.9576  144.5684  161.0475 H   0  0  0  0  0  0  0  0  0  0  0  0
  149.6105  138.3114  153.7872 H   0  0  0  0  0  0  0  0  0  0  0  0
  151.2736  136.7157  153.8038 H   0  0  0  0  0  0  0  0  0  0  0  0
  152.2042  137.7186  154.9184 H   0  0  0  0  0  0  0  0  0  0  0  0
  148.1517  135.3547  157.1876 H   0  0  0  0  0  0  0  0  0  0  0  0
  149.7351  134.9554  157.7965 H   0  0  0  0  0  0  0  0  0  0  0  0
  148.6549  138.3224  156.4965 H   0  0  0  0  0  0  0  0  0  0  0  0
  148.1609  137.2343  155.2057 H   0  0  0  0  0  0  0  0  0  0  0  0
  1  2  2  0  0  0  0
  2  3  1  0  0  0  0
  2 12  1  0  0  0  0
  3  4  1  0  0  0  0
  3 23  1  0  0  0  0
  4  5  1  0  0  0  0
  4 24  1  0  0  0  0
  4 25  1  0  0  0  0
  5  6  1  0  0  0  0
  5 26  1  0  0  0  0
  5 27  1  0  0  0  0
  6 11  1  0  0  0  0
  6  7  2  0  0  0  0
  7  8  1  0  0  0  0
  7 28  1  0  0  0  0
  8  9  2  0  0  0  0
  8 29  1  0  0  0  0
  9 10  1  0  0  0  0
  9 30  1  0  0  0  0
 10 11  2  0  0  0  0
 10 31  1  0  0  0  0
 12 22  1  0  0  0  0
 12 13  1  0  0  0  0
 12 32  1  0  0  0  0
 13 14  1  0  0  0  0
 13 33  1  0  0  0  0
 13 34  1  0  0  0  0
 14 15  2  0  0  0  0
 14 16  1  0  0  0  0
 16 17  1  0  0  0  0
 16 22  1  0  0  0  0
 17 18  1  0  0  0  0
 17 35  1  0  0  0  0
 17 36  1  0  0  0  0
 18 19  1  0  0  0  0
 18 20  1  0  0  0  0
 18 21  1  0  0  0  0
 22 37  1  0  0  0  0
 22 38  1  0  0  0  0
M  END
> <s_m_source_file>
AV-unprocessed.smi

> <i_m_source_file_index>
1682

> <i_lp_mmshare_version>
43012

> <i_f3d_flags>
0

> <s_epik_input>
RkMoRikoRilbQ0gyXU4oW0NIMl0xKUMoPU8pW0NIMl1bQ0BIXTFDKD1PKVtOSF1bQ0gyXVtDSDJdYzJbY0hdW2NIXVtjSF1bY0hdbjI=

> <s_epik_cmdline>
J2VwaWtfcHl0aG9uJywgJy1waCcsICc3LjAnLCAnLXRuJywgJzgnLCAnLW1hJywgJzIwMCcsICctbWV0YWxfYmluZGluZycsICctaW1hZScsICc8aW5maWxlLm1hZT4nLCAnLW9tYWUnLCAnPG91dGZpbGUubWFlPic=

> <r_epik_Ionization_Penalty>
0.0252359

> <r_epik_Ionization_Penalty_Charging>
0

> <r_epik_Ionization_Penalty_Neutral>
0.0252359

> <r_epik_State_Penalty>
0.020532

> <r_epik_Charging_Adjusted_Penalty>
0.020532

> <i_epik_Tot_Q>
0

> <i_epik_Tot_abs_Q>
0

> <r_epik_Metal_State_Penalty>
0.0196899

> <b_epik_Metal_Only>
0

> <s_lp_Force_Field>
OPLS_2005

> <r_lp_Energy>
9.99714

> <b_lp_Chiralities_Consistent>
1

> <s_lp_Variant>
AV-unprocessed.smi:1682-2

> <Gold.Version>
5.8.1

> <Gold.Id.Protein>
6NUR|6NUR_protein|mol2

> <Gold.PLP.Fitness>
45.5347

> <Gold.PLP.PLP>
-40.2191

> <Gold.PLP.part.hbond>
-2.5817

> <Gold.PLP.part.metal>
0.0000

> <Gold.PLP.part.buried>
-6.6557

> <Gold.PLP.part.nonpolar>
-32.0617

> <Gold.PLP.part.repulsive>
0.3049

> <Gold.PLP.ligand.clash>
0.0000

> <Gold.PLP.ligand.torsion>
0.2851

> <Gold.PLP.Chemscore.Hbond>
1.8960

> <Gold.PLP.Chemscore.CHOScore>
0.0000

> <Gold.PLP.Chemscore.Metal>
0.0000

> <Gold.Chemscore.Hbonds>
donor molecule, donor type, donor heavy atom, donor atom, acceptor molecule, acceptor atom, score
      P1  H  7989  7998       L1     1  0.90
      P1  H 10752 10765       L1    15  1.00

> <Gold.PLP.Chemscore.Internal.Correction>
0.1977

> <Gold.Rescore>
     Score         DG    S(hbond)    S(metal)    S(lipo)     H(rot)  DE(clash)    DE(int)     intcor
     15.69     -16.28       1.62        0.00      91.85       2.09       0.11       0.48       ----

> <Gold.Chemscore.Fitness>
15.6908

> <Gold.Chemscore.DG>
-16.2833

> <Gold.Chemscore.ZeroCoef>
-5.4800

> <Gold.Chemscore.Hbond>
1.6179

> <Gold.Chemscore.Metal>
0.0000

> <Gold.Chemscore.Lipo>
91.8452

> <Gold.Chemscore.Internal_Hbond>
0.0000

> <Gold.Chemscore.DEClash>
0.1107

> <Gold.Chemscore.DEInternal>
0.4818

> <Gold.Chemscore.Rot>
2.0884

> <Gold.Chemscore.Internal.Correction>
   9.000000E+99

> <Gold.Chemscore.Hbonds>
donor molecule, donor type, donor heavy atom, donor atom, acceptor molecule, acceptor atom, score
      P1  H  7989  7998       L1     1  0.81
      P1  H 10752 10765       L1    15  0.60

> <Gold.Chemscore.Hbond.Weighted>
-5.4038

> <Gold.Chemscore.Metal.Weighted>
-0.0000

> <Gold.Chemscore.Lipo.Weighted>
-10.7459

> <Gold.Chemscore.Internal_Hbond.Weighted>
0.0000

> <Gold.Chemscore.DEClash.Weighted>
0.1107

> <Gold.Chemscore.DEInternal.Weighted>
0.4818

> <Gold.Chemscore.Rot.Weighted>
5.3464

> <Gold.Chemscore.Internal.Correction.Weighted>
   9.000000E+99

> <Gold.Protein.RotatedTorsions>
[ 6907 6896 6895 6894 ] final  -39.14 input  -60.11 | X-H torsion
[ 7974 7965 7964 7962 ] final  119.97 input  175.53 | X-H torsion
[ 8008 7997 7996 7995 ] final -128.26 input   59.86 | X-H torsion
[ 10167 10162 10161 10158 ] final   85.07 input  -65.29 | X-H torsion
[ 10718 10713 10712 10709 ] final   36.51 input   66.30 | X-H torsion
[ 10763 10752 10751 10750 ] final -150.61 input  -60.55 | X-H torsion
[ 11005 11000 10999 10996 ] final  -61.62 input  -57.11 | X-H torsion

> <Gold.Protein.ActiveResidues>
 VAL166  LYS551  ARG553  GLY616  TRP617  ASP618  TYR619  PRO620  LYS621  CYS622 
 ASP623  PHE694  ASN695  SER759  ASP760  ASP761  ALA762  ILE779  LEU786  VAL792 
 PHE793  MET794  SER795  GLU796  ALA797  LYS798  CYS799  TRP800  GLU811  SER814 

> <Gold.Protein.RotatedAtoms>
  150.9940  134.9268  159.7915 H   0  0  0  0  0  0  0  0  0  0  0  0  # atno 6907 bound_to 6896
  152.5259  134.3244  159.9170 H   0  0  0  0  0  0  0  0  0  0  0  0  # atno 6908 bound_to 6896
  151.3249  133.3983  159.2692 H   0  0  0  0  0  0  0  0  0  0  0  0  # atno 6909 bound_to 6896
  145.1368  139.3293  143.4637 H   0  0  0  0  0  0  0  0  0  0  0  0  # atno 7974 bound_to 7965
  155.2598  140.0435  157.2996 H   0  0  0  0  0  0  0  0  0  0  0  0  # atno 8008 bound_to 7997
  154.5718  140.2376  155.8150 H   0  0  0  0  0  0  0  0  0  0  0  0  # atno 8009 bound_to 7997
  156.2128  140.2994  155.9779 H   0  0  0  0  0  0  0  0  0  0  0  0  # atno 8010 bound_to 7997
  139.9016  144.6326  150.8631 H   0  0  0  0  0  0  0  0  0  0  0  0  # atno 10167 bound_to 10162
  157.3357  130.7521  149.6877 H   0  0  0  0  0  0  0  0  0  0  0  0  # atno 10718 bound_to 10713
  154.8108  135.3280  154.7309 H   0  0  0  0  0  0  0  0  0  0  0  0  # atno 10763 bound_to 10752
  153.7958  135.6907  153.4868 H   0  0  0  0  0  0  0  0  0  0  0  0  # atno 10764 bound_to 10752
  153.1886  135.4559  155.0067 H   0  0  0  0  0  0  0  0  0  0  0  0  # atno 10765 bound_to 10752
  141.1331  133.6632  156.5402 H   0  0  0  0  0  0  0  0  0  0  0  0  # atno 11005 bound_to 11000
  146.3509  140.1388  142.8595 LP  0  0  0  0  0  0  0  0  0  0  0  0  # atno 17320 bound_to 7965
  145.0576  140.9064  143.4958 LP  0  0  0  0  0  0  0  0  0  0  0  0  # atno 17321 bound_to 7965
  140.7705  143.3433  151.2163 LP  0  0  0  0  0  0  0  0  0  0  0  0  # atno 17342 bound_to 10162
  139.7021  143.9516  152.2910 LP  0  0  0  0  0  0  0  0  0  0  0  0  # atno 17343 bound_to 10162
  155.9701  130.4182  150.4316 LP  0  0  0  0  0  0  0  0  0  0  0  0  # atno 17370 bound_to 10713
  157.2356  131.0514  151.2467 LP  0  0  0  0  0  0  0  0  0  0  0  0  # atno 17371 bound_to 10713
  140.4145  134.7242  157.4855 LP  0  0  0  0  0  0  0  0  0  0  0  0  # atno 17394 bound_to 11000
  140.0403  134.6277  155.8989 LP  0  0  0  0  0  0  0  0  0  0  0  0  # atno 17395 bound_to 11000

$$$$
