AV-unprocessed.smi:2189|AV-procd|sdf|8884|dock3
  -GOLD-   2272012 83D 1   1.00000     0.00000
 Structure written by MMmdl.
 39 41  0  0  0  0  0  0  0  0  1 V2000
  154.1441  141.3489  161.2785 O   0  0  0  0  0  0  0  0  0  0  0  0
  153.4276  142.3459  161.3833 C   0  0  0  0  0  0  0  0  0  0  0  0
  153.3636  143.0485  162.5310 N   0  0  0  0  0  0  0  0  0  0  0  0
  154.0751  142.7392  163.7691 C   0  0  0  0  0  0  0  0  0  0  0  0
  154.6279  144.0020  164.4575 C   0  0  0  0  0  0  0  0  0  0  0  0
  155.0201  143.7841  165.9091 C   0  0  0  0  0  0  0  0  0  0  0  0
  155.3755  144.8735  166.7338 C   0  0  0  0  0  0  0  0  0  0  0  0
  155.7057  144.6165  168.0784 C   0  0  0  0  0  0  0  0  0  0  0  0
  155.6722  143.2877  168.5433 C   0  0  0  0  0  0  0  0  0  0  0  0
  155.3072  142.2704  167.6390 C   0  0  0  0  0  0  0  0  0  0  0  0
  154.9881  142.5057  166.3481 N   0  0  0  0  0  0  0  0  0  0  0  0
  152.5680  142.8849  160.3141 C   0  0  0  0  0  0  0  0  0  0  0  0
  152.2770  144.2131  160.3077 C   0  0  0  0  0  0  0  0  0  0  0  0
  151.4579  144.8061  159.2798 C   0  0  0  0  0  0  0  0  0  0  0  0
  150.9498  144.0026  158.3394 C   0  0  0  0  0  0  0  0  0  0  0  0
  151.1726  142.6270  158.3088 N   0  0  0  0  0  0  0  0  0  0  0  0
  150.4595  141.8640  157.2900 C   0  0  0  0  0  0  0  0  0  0  0  0
  151.3628  140.7975  156.6985 C   0  0  0  0  0  0  0  0  0  0  0  0
  151.7615  139.6608  158.0741 S   0  0  0  0  0  0  0  0  0  0  0  0
  150.5006  139.0923  158.5760 O   0  0  0  0  0  0  0  0  0  0  0  0
  152.8322  138.7583  157.6247 O   0  0  0  0  0  0  0  0  0  0  0  0
  152.3643  140.7446  159.2002 N   0  0  0  0  0  0  0  0  0  0  0  0
  152.0309  142.0030  159.2574 C   0  0  0  0  0  0  0  0  0  0  0  0
  152.7633  143.8600  162.5479 H   0  0  0  0  0  0  0  0  0  0  0  0
  153.4386  142.1792  164.4562 H   0  0  0  0  0  0  0  0  0  0  0  0
  154.9026  142.0761  163.5167 H   0  0  0  0  0  0  0  0  0  0  0  0
  155.5014  144.3599  163.9108 H   0  0  0  0  0  0  0  0  0  0  0  0
  153.8912  144.8045  164.4022 H   0  0  0  0  0  0  0  0  0  0  0  0
  155.3839  145.8831  166.3499 H   0  0  0  0  0  0  0  0  0  0  0  0
  155.9779  145.4242  168.7415 H   0  0  0  0  0  0  0  0  0  0  0  0
  155.9189  143.0529  169.5680 H   0  0  0  0  0  0  0  0  0  0  0  0
  155.2712  141.2401  167.9608 H   0  0  0  0  0  0  0  0  0  0  0  0
  152.6447  144.8718  161.0817 H   0  0  0  0  0  0  0  0  0  0  0  0
  151.2629  145.8684  159.2681 H   0  0  0  0  0  0  0  0  0  0  0  0
  150.3298  144.3882  157.5429 H   0  0  0  0  0  0  0  0  0  0  0  0
  149.5674  141.4185  157.7315 H   0  0  0  0  0  0  0  0  0  0  0  0
  150.1166  142.5177  156.4875 H   0  0  0  0  0  0  0  0  0  0  0  0
  150.8627  140.2334  155.9115 H   0  0  0  0  0  0  0  0  0  0  0  0
  152.2849  141.2165  156.2940 H   0  0  0  0  0  0  0  0  0  0  0  0
  1  2  2  0  0  0  0
  2  3  1  0  0  0  0
  2 12  1  0  0  0  0
  3  4  1  0  0  0  0
  3 24  1  0  0  0  0
  4  5  1  0  0  0  0
  4 25  1  0  0  0  0
  4 26  1  0  0  0  0
  5  6  1  0  0  0  0
  5 27  1  0  0  0  0
  5 28  1  0  0  0  0
  6 11  1  0  0  0  0
  6  7  2  0  0  0  0
  7  8  1  0  0  0  0
  7 29  1  0  0  0  0
  8  9  2  0  0  0  0
  8 30  1  0  0  0  0
  9 10  1  0  0  0  0
  9 31  1  0  0  0  0
 10 11  2  0  0  0  0
 10 32  1  0  0  0  0
 12 23  1  0  0  0  0
 12 13  2  0  0  0  0
 13 14  1  0  0  0  0
 13 33  1  0  0  0  0
 14 15  2  0  0  0  0
 14 34  1  0  0  0  0
 15 16  1  0  0  0  0
 15 35  1  0  0  0  0
 16 23  1  0  0  0  0
 16 17  1  0  0  0  0
 17 18  1  0  0  0  0
 17 36  1  0  0  0  0
 17 37  1  0  0  0  0
 18 19  1  0  0  0  0
 18 38  1  0  0  0  0
 18 39  1  0  0  0  0
 19 20  2  0  0  0  0
 19 21  2  0  0  0  0
 19 22  1  0  0  0  0
 22 23  2  0  0  0  0
M  END
> <s_m_source_file>
AV-unprocessed.smi

> <i_m_source_file_index>
2189

> <i_lp_mmshare_version>
43012

> <i_f3d_flags>
0

> <s_epik_input>
W0NIMl0xW0NIMl1TKD1PKSg9TylOPUMoTjEyKUMoPVtDSF1bQ0hdPVtDSF0yKUMoPU8pW05IXVtDSDJdW0NIMl1jM1tjSF1bY0hdW2NIXVtjSF1uMw==

> <s_epik_cmdline>
J2VwaWtfcHl0aG9uJywgJy1waCcsICc3LjAnLCAnLXRuJywgJzgnLCAnLW1hJywgJzIwMCcsICctbWV0YWxfYmluZGluZycsICctaW1hZScsICc8aW5maWxlLm1hZT4nLCAnLW9tYWUnLCAnPG91dGZpbGUubWFlPic=

> <r_epik_Ionization_Penalty>
0.0177355

> <r_epik_Ionization_Penalty_Charging>
8.06468e-09

> <r_epik_Ionization_Penalty_Neutral>
0.0177355

> <r_epik_State_Penalty>
0.0140338

> <r_epik_Charging_Adjusted_Penalty>
0.0140338

> <i_epik_Tot_Q>
0

> <i_epik_Tot_abs_Q>
0

> <r_epik_Metal_State_Penalty>
0.0535636

> <b_epik_Metal_Only>
0

> <s_lp_Force_Field>
OPLS_2005

> <r_lp_Energy>
27.3768

> <b_lp_Chiralities_Consistent>
1

> <s_lp_Variant>
AV-unprocessed.smi:2189-1

> <Gold.Version>
5.8.1

> <Gold.Id.Protein>
6NUR|6NUR_protein|mol2

> <Gold.PLP.Fitness>
57.4719

> <Gold.PLP.PLP>
-52.9764

> <Gold.PLP.part.hbond>
-1.7103

> <Gold.PLP.part.metal>
0.0000

> <Gold.PLP.part.buried>
-6.3867

> <Gold.PLP.part.nonpolar>
-43.0591

> <Gold.PLP.part.repulsive>
0.0931

> <Gold.PLP.ligand.clash>
0.5456

> <Gold.PLP.ligand.torsion>
0.5788

> <Gold.PLP.Chemscore.Hbond>
1.0000

> <Gold.PLP.Chemscore.CHOScore>
1.0061

> <Gold.PLP.Chemscore.Metal>
0.0000

> <Gold.Chemscore.Hbonds>
donor molecule, donor type, donor heavy atom, donor atom, acceptor molecule, acceptor atom, score
      P1  H  7997  8009       L1    21  0.52
      L1  C    15    35       P1  8028  1.00

> <Gold.PLP.Chemscore.Internal.Correction>
0.1803

> <Gold.Rescore>
     Score         DG    S(hbond)    S(metal)    S(lipo)     H(rot)  DE(clash)    DE(int)     intcor
     15.54     -17.74       0.98        0.00     109.02       1.47       0.20       1.99       ----

> <Gold.Chemscore.Fitness>
15.5429

> <Gold.Chemscore.DG>
-17.7351

> <Gold.Chemscore.ZeroCoef>
-5.4800

> <Gold.Chemscore.Hbond>
0.9752

> <Gold.Chemscore.Metal>
0.0000

> <Gold.Chemscore.Lipo>
109.0229

> <Gold.Chemscore.Internal_Hbond>
0.0000

> <Gold.Chemscore.DEClash>
0.2043

> <Gold.Chemscore.DEInternal>
1.9879

> <Gold.Chemscore.Rot>
1.4679

> <Gold.Chemscore.Internal.Correction>
   9.000000E+99

> <Gold.Chemscore.Hbonds>
donor molecule, donor type, donor heavy atom, donor atom, acceptor molecule, acceptor atom, score
      P1  H  7997  8009       L1    21  0.31

> <Gold.Chemscore.Hbond.Weighted>
-3.2572

> <Gold.Chemscore.Metal.Weighted>
-0.0000

> <Gold.Chemscore.Lipo.Weighted>
-12.7557

> <Gold.Chemscore.Internal_Hbond.Weighted>
0.0000

> <Gold.Chemscore.DEClash.Weighted>
0.2043

> <Gold.Chemscore.DEInternal.Weighted>
1.9879

> <Gold.Chemscore.Rot.Weighted>
3.7578

> <Gold.Chemscore.Internal.Correction.Weighted>
   9.000000E+99

> <Gold.Protein.RotatedTorsions>
[ 6907 6896 6895 6894 ] final  168.08 input  -60.11 | X-H torsion
[ 7974 7965 7964 7962 ] final  106.38 input  175.53 | X-H torsion
[ 8008 7997 7996 7995 ] final  172.15 input   59.86 | X-H torsion
[ 10167 10162 10161 10158 ] final  131.52 input  -65.29 | X-H torsion
[ 10718 10713 10712 10709 ] final -136.05 input   66.30 | X-H torsion
[ 10763 10752 10751 10750 ] final  113.66 input  -60.55 | X-H torsion
[ 11005 11000 10999 10996 ] final  100.72 input  -57.11 | X-H torsion

> <Gold.Protein.ActiveResidues>
 VAL166  LYS551  ARG553  GLY616  TRP617  ASP618  TYR619  PRO620  LYS621  CYS622 
 ASP623  PHE694  ASN695  SER759  ASP760  ASP761  ALA762  ILE779  LEU786  VAL792 
 PHE793  MET794  SER795  GLU796  ALA797  LYS798  CYS799  TRP800  GLU811  SER814 

> <Gold.Protein.RotatedAtoms>
  151.8532  133.3443  159.3679 H   0  0  0  0  0  0  0  0  0  0  0  0  # atno 6907 bound_to 6896
  150.7200  134.5278  159.5695 H   0  0  0  0  0  0  0  0  0  0  0  0  # atno 6908 bound_to 6896
  152.2776  134.7864  160.0453 H   0  0  0  0  0  0  0  0  0  0  0  0  # atno 6909 bound_to 6896
  145.3074  139.2551  143.3781 H   0  0  0  0  0  0  0  0  0  0  0  0  # atno 7974 bound_to 7965
  156.1203  140.1493  156.9214 H   0  0  0  0  0  0  0  0  0  0  0  0  # atno 8008 bound_to 7997
  154.4831  140.0873  156.7464 H   0  0  0  0  0  0  0  0  0  0  0  0  # atno 8009 bound_to 7997
  155.4440  140.3432  155.4295 H   0  0  0  0  0  0  0  0  0  0  0  0  # atno 8010 bound_to 7997
  139.5380  144.6702  151.4719 H   0  0  0  0  0  0  0  0  0  0  0  0  # atno 10167 bound_to 10162
  156.2728  130.7275  151.1248 H   0  0  0  0  0  0  0  0  0  0  0  0  # atno 10718 bound_to 10713
  153.4958  135.3649  155.2515 H   0  0  0  0  0  0  0  0  0  0  0  0  # atno 10763 bound_to 10752
  154.8750  135.3988  154.3536 H   0  0  0  0  0  0  0  0  0  0  0  0  # atno 10764 bound_to 10752
  153.4163  135.7079  153.6390 H   0  0  0  0  0  0  0  0  0  0  0  0  # atno 10765 bound_to 10752
  139.8771  134.9152  156.4799 H   0  0  0  0  0  0  0  0  0  0  0  0  # atno 11005 bound_to 11000
  146.3130  140.3602  142.8664 LP  0  0  0  0  0  0  0  0  0  0  0  0  # atno 17320 bound_to 7965
  144.9044  140.7682  143.5847 LP  0  0  0  0  0  0  0  0  0  0  0  0  # atno 17321 bound_to 7965
  140.6597  143.8525  150.6874 LP  0  0  0  0  0  0  0  0  0  0  0  0  # atno 17342 bound_to 10162
  140.1916  143.4032  152.1859 LP  0  0  0  0  0  0  0  0  0  0  0  0  # atno 17343 bound_to 10162
  157.7289  131.0628  150.5797 LP  0  0  0  0  0  0  0  0  0  0  0  0  # atno 17370 bound_to 10713
  156.5895  130.4325  149.5943 LP  0  0  0  0  0  0  0  0  0  0  0  0  # atno 17371 bound_to 10713
  140.8735  133.7971  155.9389 LP  0  0  0  0  0  0  0  0  0  0  0  0  # atno 17394 bound_to 11000
  140.8928  134.2474  157.5085 LP  0  0  0  0  0  0  0  0  0  0  0  0  # atno 17395 bound_to 11000

$$$$
