AV-unprocessed.smi:287|AV-procd|sdf|2186|dock5
  -GOLD-   2262021573D 1   1.00000     0.00000
 Structure written by MMmdl.
 55 58  0  0  0  0  0  0  0  0  1 V2000
  156.3969  131.8244  155.1555 C   0  0  0  0  0  0  0  0  0  0  0  0
  155.4691  130.6913  155.4314 C   0  0  0  0  0  0  0  0  0  0  0  0
  154.1224  130.5192  155.2971 C   0  0  0  0  0  0  0  0  0  0  0  0
  153.8178  129.1905  155.7191 C   0  0  0  0  0  0  0  0  0  0  0  0
  152.4345  128.5530  155.7316 C   0  0  2  0  0  0  0  0  0  0  0  0
  152.0477  128.1719  157.1702 C   0  0  0  0  0  0  0  0  0  0  0  0
  152.3782  127.3462  154.9960 O   0  0  0  0  0  0  0  0  0  0  0  0
  151.3581  129.4763  155.1164 C   0  0  0  0  0  0  0  0  0  0  0  0
  150.8051  130.4195  156.0829 N   0  0  0  0  0  0  0  0  0  0  0  0
  150.0729  131.4724  155.6648 C   0  0  0  0  0  0  0  0  0  0  0  0
  150.3647  132.7353  156.0715 N   0  0  0  0  0  0  0  0  0  0  0  0
  149.6282  133.7622  155.6369 C   0  0  0  0  0  0  0  0  0  0  0  0
  148.5804  133.7463  154.8099 N   0  0  0  0  0  0  0  0  0  0  0  0
  148.2816  132.4791  154.4017 C   0  0  0  0  0  0  0  0  0  0  0  0
  148.9756  131.2974  154.7834 C   0  0  0  0  0  0  0  0  0  0  0  0
  148.3958  130.1925  154.1744 N   0  0  0  0  0  0  0  0  0  0  0  0
  147.4178  130.6972  153.4714 C   0  0  0  0  0  0  0  0  0  0  0  0
  147.2765  132.0649  153.5517 N   0  0  0  0  0  0  0  0  0  0  0  0
  146.2657  132.9187  152.8593 C   0  0  2  0  0  0  0  0  0  0  0  0
  145.3216  132.0799  152.2740 O   0  0  0  0  0  0  0  0  0  0  0  0
  144.8675  132.6820  151.0723 C   0  0  2  0  0  0  0  0  0  0  0  0
  144.1365  131.6607  150.1828 C   0  0  0  0  0  0  0  0  0  0  0  0
  143.4508  132.3222  149.1409 O   0  0  0  0  0  0  0  0  0  0  0  0
  146.1319  133.3387  150.4961 C   0  0  2  0  0  0  0  0  0  0  0  0
  146.8896  132.4263  149.7243 O   0  0  0  0  0  0  0  0  0  0  0  0
  146.9115  133.7596  151.7416 C   0  0  1  0  0  0  0  0  0  0  0  0
  146.7175  135.1410  151.9712 O   0  0  0  0  0  0  0  0  0  0  0  0
  155.0266  128.6578  156.0985 C   0  0  0  0  0  0  0  0  0  0  0  0
  155.4530  127.3347  156.6436 C   0  0  0  0  0  0  0  0  0  0  0  0
  156.0325  129.5601  155.9242 O   0  0  0  0  0  0  0  0  0  0  0  0
  145.8067  133.5155  153.6493 H   0  0  0  0  0  0  0  0  0  0  0  0
  144.1664  133.4679  151.3608 H   0  0  0  0  0  0  0  0  0  0  0  0
  145.8813  134.1820  149.8512 H   0  0  0  0  0  0  0  0  0  0  0  0
  147.9803  133.5562  151.6551 H   0  0  0  0  0  0  0  0  0  0  0  0
  155.8791  132.6348  154.6421 H   0  0  0  0  0  0  0  0  0  0  0  0
  157.2256  131.5013  154.5254 H   0  0  0  0  0  0  0  0  0  0  0  0
  156.8099  132.2204  156.0832 H   0  0  0  0  0  0  0  0  0  0  0  0
  153.4303  131.2611  154.9272 H   0  0  0  0  0  0  0  0  0  0  0  0
  152.0283  129.0475  157.8200 H   0  0  0  0  0  0  0  0  0  0  0  0
  152.7581  127.4629  157.5977 H   0  0  0  0  0  0  0  0  0  0  0  0
  151.0585  127.7137  157.2106 H   0  0  0  0  0  0  0  0  0  0  0  0
  152.6376  127.5262  154.1054 H   0  0  0  0  0  0  0  0  0  0  0  0
  151.7475  130.0071  154.2462 H   0  0  0  0  0  0  0  0  0  0  0  0
  150.5329  128.8573  154.7605 H   0  0  0  0  0  0  0  0  0  0  0  0
  150.9345  130.1819  157.0563 H   0  0  0  0  0  0  0  0  0  0  0  0
  149.9202  134.7352  156.0033 H   0  0  0  0  0  0  0  0  0  0  0  0
  146.7677  130.0790  152.8697 H   0  0  0  0  0  0  0  0  0  0  0  0
  144.8225  130.9229  149.7664 H   0  0  0  0  0  0  0  0  0  0  0  0
  143.4054  131.1106  150.7755 H   0  0  0  0  0  0  0  0  0  0  0  0
  142.6173  131.8961  149.0116 H   0  0  0  0  0  0  0  0  0  0  0  0
  147.5551  132.0469  150.2793 H   0  0  0  0  0  0  0  0  0  0  0  0
  147.5620  135.5647  151.9815 H   0  0  0  0  0  0  0  0  0  0  0  0
  154.8968  127.0927  157.5493 H   0  0  0  0  0  0  0  0  0  0  0  0
  156.5146  127.3329  156.8922 H   0  0  0  0  0  0  0  0  0  0  0  0
  155.2776  126.5432  155.9152 H   0  0  0  0  0  0  0  0  0  0  0  0
  1  2  1  0  0  0  0
  1 35  1  0  0  0  0
  1 36  1  0  0  0  0
  1 37  1  0  0  0  0
  2 30  1  0  0  0  0
  2  3  2  0  0  0  0
  3  4  1  0  0  0  0
  3 38  1  0  0  0  0
  4  5  1  0  0  0  0
  4 28  2  0  0  0  0
  5  6  1  0  0  0  0
  5  7  1  0  0  0  0
  5  8  1  0  0  0  0
  6 39  1  0  0  0  0
  6 40  1  0  0  0  0
  6 41  1  0  0  0  0
  7 42  1  0  0  0  0
  8  9  1  0  0  0  0
  8 43  1  0  0  0  0
  8 44  1  0  0  0  0
  9 10  1  0  0  0  0
  9 45  1  0  0  0  0
 10 15  1  0  0  0  0
 10 11  2  0  0  0  0
 11 12  1  0  0  0  0
 12 13  2  0  0  0  0
 12 46  1  0  0  0  0
 13 14  1  0  0  0  0
 14 18  1  0  0  0  0
 14 15  2  0  0  0  0
 15 16  1  0  0  0  0
 16 17  2  0  0  0  0
 17 18  1  0  0  0  0
 17 47  1  0  0  0  0
 18 19  1  0  0  0  0
 19 31  1  0  0  0  0
 19 26  1  0  0  0  0
 19 20  1  0  0  0  0
 20 21  1  0  0  0  0
 21 32  1  0  0  0  0
 21 22  1  0  0  0  0
 21 24  1  0  0  0  0
 22 23  1  0  0  0  0
 22 48  1  0  0  0  0
 22 49  1  0  0  0  0
 23 50  1  0  0  0  0
 24 33  1  0  0  0  0
 24 25  1  0  0  0  0
 24 26  1  0  0  0  0
 25 51  1  0  0  0  0
 26 34  1  0  0  0  0
 26 27  1  0  0  0  0
 27 52  1  0  0  0  0
 28 29  1  0  0  0  0
 28 30  1  0  0  0  0
 29 53  1  0  0  0  0
 29 54  1  0  0  0  0
 29 55  1  0  0  0  0
M  END
> <s_m_source_file>
AV-unprocessed.smi

> <i_m_source_file_index>
287

> <i_lp_mmshare_version>
43012

> <i_f3d_flags>
0

> <s_epik_input>
W0NIM11jMVtjSF1jKGMobzEpW0NIM10pW0NAQF0oW0NIM10pKFtPSF0pW0NIMl1bTkhdYyhuW2NIXW4yKWMoYzIzKW5bY0hdbjNbQ0BASF00T1tDQEhdKFtDSDJdW09IXSlbQ0BASF0oW09IXSlbQ0BIXTRbT0hd

> <s_epik_cmdline>
J2VwaWtfcHl0aG9uJywgJy1waCcsICc3LjAnLCAnLXRuJywgJzgnLCAnLW1hJywgJzIwMCcsICctbWV0YWxfYmluZGluZycsICctaW1hZScsICc8aW5maWxlLm1hZT4nLCAnLW9tYWUnLCAnPG91dGZpbGUubWFlPic=

> <r_lp_tautomer_probability>
1

> <r_epik_Ionization_Penalty>
0.000992612

> <r_epik_Ionization_Penalty_Charging>
0

> <r_epik_Ionization_Penalty_Neutral>
0.000992612

> <r_epik_State_Penalty>
-0

> <r_epik_Charging_Adjusted_Penalty>
0

> <i_epik_Tot_Q>
0

> <i_epik_Tot_abs_Q>
0

> <r_epik_Metal_State_Penalty>
-0

> <b_epik_Metal_Only>
0

> <s_epik_Chemistry_Notes>
This compound contains an acetal/aminal-like group ( X-CH(R)-Y where X, Y are N, S, or O) that may be acid/base labile, releasing an aldehyde.

> <s_lp_Force_Field>
OPLS_2005

> <r_lp_Energy>
38.0531

> <b_lp_Chiralities_Consistent>
1

> <s_lp_Variant>
AV-unprocessed.smi:287-10

> <Gold.Version>
5.8.1

> <Gold.Id.Protein>
6NUR|6NUR_protein|mol2

> <Gold.PLP.Fitness>
55.3961

> <Gold.PLP.PLP>
-45.8931

> <Gold.PLP.part.hbond>
-5.3185

> <Gold.PLP.part.metal>
0.0000

> <Gold.PLP.part.buried>
-6.1606

> <Gold.PLP.part.nonpolar>
-35.3590

> <Gold.PLP.part.repulsive>
0.3435

> <Gold.PLP.ligand.clash>
0.0000

> <Gold.PLP.ligand.torsion>
1.3081

> <Gold.PLP.Chemscore.Hbond>
4.0000

> <Gold.PLP.Chemscore.CHOScore>
0.0000

> <Gold.PLP.Chemscore.Metal>
0.0000

> <Gold.Chemscore.Hbonds>
donor molecule, donor type, donor heavy atom, donor atom, acceptor molecule, acceptor atom, score
      L1  H    25    51       P1 10747  0.83
      L1  H    27    52       P1  7948  0.96

> <Gold.PLP.Chemscore.Internal.Correction>
0.1192

> <Gold.Rescore>
     Score         DG    S(hbond)    S(metal)    S(lipo)     H(rot)  DE(clash)    DE(int)     intcor
     13.02     -14.32       3.83        0.00      81.42       5.27       0.13       1.17       ----

> <Gold.Chemscore.Fitness>
13.0246

> <Gold.Chemscore.DG>
-14.3240

> <Gold.Chemscore.ZeroCoef>
-5.4800

> <Gold.Chemscore.Hbond>
3.8329

> <Gold.Chemscore.Metal>
0.0000

> <Gold.Chemscore.Lipo>
81.4181

> <Gold.Chemscore.Internal_Hbond>
0.0000

> <Gold.Chemscore.DEClash>
0.1268

> <Gold.Chemscore.DEInternal>
1.1726

> <Gold.Chemscore.Rot>
5.2672

> <Gold.Chemscore.Internal.Correction>
   9.000000E+99

> <Gold.Chemscore.Hbonds>
donor molecule, donor type, donor heavy atom, donor atom, acceptor molecule, acceptor atom, score
      L1  H     7    42       P1 10737  0.07
      L1  H    23    50       P1 10952  0.07
      L1  H    25    51       P1 10747  0.83
      L1  H    27    52       P1  7948  0.91

> <Gold.Chemscore.Hbond.Weighted>
-12.8020

> <Gold.Chemscore.Metal.Weighted>
-0.0000

> <Gold.Chemscore.Lipo.Weighted>
-9.5259

> <Gold.Chemscore.Internal_Hbond.Weighted>
0.0000

> <Gold.Chemscore.DEClash.Weighted>
0.1268

> <Gold.Chemscore.DEInternal.Weighted>
1.1726

> <Gold.Chemscore.Rot.Weighted>
13.4839

> <Gold.Chemscore.Internal.Correction.Weighted>
   9.000000E+99

> <Gold.Protein.RotatedTorsions>
[ 6907 6896 6895 6894 ] final -158.98 input  -60.11 | X-H torsion
[ 7974 7965 7964 7962 ] final  -71.26 input  175.53 | X-H torsion
[ 8008 7997 7996 7995 ] final -135.37 input   59.86 | X-H torsion
[ 10167 10162 10161 10158 ] final -113.60 input  -65.29 | X-H torsion
[ 10718 10713 10712 10709 ] final -108.60 input   66.30 | X-H torsion
[ 10763 10752 10751 10750 ] final   48.92 input  -60.55 | X-H torsion
[ 11005 11000 10999 10996 ] final   63.42 input  -57.11 | X-H torsion

> <Gold.Protein.ActiveResidues>
 VAL166  LYS551  ARG553  GLY616  TRP617  ASP618  TYR619  PRO620  LYS621  CYS622 
 ASP623  PHE694  ASN695  SER759  ASP760  ASP761  ALA762  ILE779  LEU786  VAL792 
 PHE793  MET794  SER795  GLU796  ALA797  LYS798  CYS799  TRP800  GLU811  SER814 

> <Gold.Protein.RotatedAtoms>
  151.3265  133.4018  159.2658 H   0  0  0  0  0  0  0  0  0  0  0  0  # atno 6907 bound_to 6896
  150.9991  134.9308  159.7954 H   0  0  0  0  0  0  0  0  0  0  0  0  # atno 6908 bound_to 6896
  152.5270  134.3230  159.9207 H   0  0  0  0  0  0  0  0  0  0  0  0  # atno 6909 bound_to 6896
  145.6804  140.9190  143.0835 H   0  0  0  0  0  0  0  0  0  0  0  0  # atno 7974 bound_to 7965
  155.3776  140.0492  157.3044 H   0  0  0  0  0  0  0  0  0  0  0  0  # atno 8008 bound_to 7997
  154.5099  140.2188  155.9140 H   0  0  0  0  0  0  0  0  0  0  0  0  # atno 8009 bound_to 7997
  156.1570  140.3124  155.8748 H   0  0  0  0  0  0  0  0  0  0  0  0  # atno 8010 bound_to 7997
  140.1100  143.4536  152.1758 H   0  0  0  0  0  0  0  0  0  0  0  0  # atno 10167 bound_to 10162
  156.0494  130.5721  150.7983 H   0  0  0  0  0  0  0  0  0  0  0  0  # atno 10718 bound_to 10713
  152.9789  135.5928  154.4004 H   0  0  0  0  0  0  0  0  0  0  0  0  # atno 10763 bound_to 10752
  154.3650  135.2767  155.2300 H   0  0  0  0  0  0  0  0  0  0  0  0  # atno 10764 bound_to 10752
  154.4281  135.6043  153.6106 H   0  0  0  0  0  0  0  0  0  0  0  0  # atno 10765 bound_to 10752
  140.0025  134.6419  155.9907 H   0  0  0  0  0  0  0  0  0  0  0  0  # atno 11005 bound_to 11000
  144.7028  139.8689  143.7439 LP  0  0  0  0  0  0  0  0  0  0  0  0  # atno 17320 bound_to 7965
  146.0969  139.3962  143.0371 LP  0  0  0  0  0  0  0  0  0  0  0  0  # atno 17321 bound_to 7965
  139.5624  144.7414  151.4117 LP  0  0  0  0  0  0  0  0  0  0  0  0  # atno 17342 bound_to 10162
  140.6931  143.7815  150.7284 LP  0  0  0  0  0  0  0  0  0  0  0  0  # atno 17343 bound_to 10162
  157.5404  131.0940  150.9835 LP  0  0  0  0  0  0  0  0  0  0  0  0  # atno 17370 bound_to 10713
  157.0119  130.5640  149.5322 LP  0  0  0  0  0  0  0  0  0  0  0  0  # atno 17371 bound_to 10713
  141.1653  133.6537  156.4457 LP  0  0  0  0  0  0  0  0  0  0  0  0  # atno 17394 bound_to 11000
  140.4701  134.6761  157.5125 LP  0  0  0  0  0  0  0  0  0  0  0  0  # atno 17395 bound_to 11000

$$$$
