AV-unprocessed.smi:1331|AV-procd|sdf|5487|dock2
  -GOLD-   22720 5 63D 1   1.00000     0.00000
 Structure written by MMmdl.
 38 39  0  0  0  0  0  0  0  0  1 V2000
  152.6186  138.8167  154.8462 C   0  0  0  0  0  0  0  0  0  0  0  0
  151.4666  138.5760  155.8332 C   0  0  2  0  0  0  0  0  0  0  0  0
  150.1437  138.2754  155.1028 C   0  0  0  0  0  0  0  0  0  0  0  0
  149.4360  139.4873  154.7273 N   0  0  0  0  0  0  0  0  0  0  0  0
  148.1155  139.6262  154.3553 C   0  0  0  0  0  0  0  0  0  0  0  0
  147.9009  140.9516  154.1067 C   0  0  0  0  0  0  0  0  0  0  0  0
  149.1662  141.5519  154.3579 C   0  0  0  0  0  0  0  0  0  0  0  0
  150.0834  140.6731  154.7281 N   0  0  0  0  0  0  0  0  0  0  0  0
  151.3055  139.7413  156.6997 N   0  0  0  0  0  0  0  0  0  0  0  0
  152.1666  140.1319  157.6512 C   0  0  0  0  0  0  0  0  0  0  0  0
  153.2348  139.5608  157.8734 O   0  0  0  0  0  0  0  0  0  0  0  0
  151.7519  141.3521  158.4834 C   0  0  0  0  0  0  0  0  0  0  0  0
  151.3076  142.5197  157.5765 C   0  0  0  0  0  0  0  0  0  0  0  0
  150.9079  143.7507  158.4062 C   0  0  0  0  0  0  0  0  0  0  0  0
  152.0496  144.1890  159.3368 C   0  0  0  0  0  0  0  0  0  0  0  0
  152.5052  143.0323  160.2405 C   0  0  0  0  0  0  0  0  0  0  0  0
  152.9015  141.7996  159.4114 C   0  0  0  0  0  0  0  0  0  0  0  0
  152.7667  137.9523  154.1989 H   0  0  0  0  0  0  0  0  0  0  0  0
  153.5572  138.9965  155.3719 H   0  0  0  0  0  0  0  0  0  0  0  0
  152.4222  139.6800  154.2095 H   0  0  0  0  0  0  0  0  0  0  0  0
  151.7182  137.7035  156.4393 H   0  0  0  0  0  0  0  0  0  0  0  0
  150.3227  137.6720  154.2112 H   0  0  0  0  0  0  0  0  0  0  0  0
  149.4848  137.6909  155.7461 H   0  0  0  0  0  0  0  0  0  0  0  0
  147.4461  138.7802  154.3026 H   0  0  0  0  0  0  0  0  0  0  0  0
  146.9800  141.4210  153.7945 H   0  0  0  0  0  0  0  0  0  0  0  0
  149.4434  142.5931  154.2827 H   0  0  0  0  0  0  0  0  0  0  0  0
  150.4516  140.2699  156.5925 H   0  0  0  0  0  0  0  0  0  0  0  0
  150.9029  141.0681  159.1084 H   0  0  0  0  0  0  0  0  0  0  0  0
  152.1131  142.7953  156.8937 H   0  0  0  0  0  0  0  0  0  0  0  0
  150.4669  142.2121  156.9533 H   0  0  0  0  0  0  0  0  0  0  0  0
  150.6322  144.5719  157.7439 H   0  0  0  0  0  0  0  0  0  0  0  0
  150.0212  143.5205  158.9984 H   0  0  0  0  0  0  0  0  0  0  0  0
  152.8924  144.5394  158.7399 H   0  0  0  0  0  0  0  0  0  0  0  0
  151.7294  145.0343  159.9465 H   0  0  0  0  0  0  0  0  0  0  0  0
  153.3463  143.3513  160.8566 H   0  0  0  0  0  0  0  0  0  0  0  0
  151.7013  142.7667  160.9281 H   0  0  0  0  0  0  0  0  0  0  0  0
  153.1813  140.9850  160.0812 H   0  0  0  0  0  0  0  0  0  0  0  0
  153.7905  142.0344  158.8236 H   0  0  0  0  0  0  0  0  0  0  0  0
  1  2  1  0  0  0  0
  1 18  1  0  0  0  0
  1 19  1  0  0  0  0
  1 20  1  0  0  0  0
  2  3  1  0  0  0  0
  2  9  1  0  0  0  0
  2 21  1  0  0  0  0
  3  4  1  0  0  0  0
  3 22  1  0  0  0  0
  3 23  1  0  0  0  0
  4  8  1  0  0  0  0
  4  5  1  0  0  0  0
  5  6  2  0  0  0  0
  5 24  1  0  0  0  0
  6  7  1  0  0  0  0
  6 25  1  0  0  0  0
  7  8  2  0  0  0  0
  7 26  1  0  0  0  0
  9 10  1  0  0  0  0
  9 27  1  0  0  0  0
 10 11  2  0  0  0  0
 10 12  1  0  0  0  0
 12 17  1  0  0  0  0
 12 13  1  0  0  0  0
 12 28  1  0  0  0  0
 13 14  1  0  0  0  0
 13 29  1  0  0  0  0
 13 30  1  0  0  0  0
 14 15  1  0  0  0  0
 14 31  1  0  0  0  0
 14 32  1  0  0  0  0
 15 16  1  0  0  0  0
 15 33  1  0  0  0  0
 15 34  1  0  0  0  0
 16 17  1  0  0  0  0
 16 35  1  0  0  0  0
 16 36  1  0  0  0  0
 17 37  1  0  0  0  0
 17 38  1  0  0  0  0
M  END
> <s_m_source_file>
AV-unprocessed.smi

> <i_m_source_file_index>
1331

> <i_lp_mmshare_version>
43012

> <i_f3d_flags>
0

> <s_epik_input>
bjFbY0hdW2NIXVtjSF1uMVtDSDJdW0NAQEhdKFtDSDNdKVtOSF1DKD1PKVtDSF0yW0NIMl1bQ0gyXVtDSDJdW0NIMl1bQ0gyXTI=

> <s_epik_cmdline>
J2VwaWtfcHl0aG9uJywgJy1waCcsICc3LjAnLCAnLXRuJywgJzgnLCAnLW1hJywgJzIwMCcsICctbWV0YWxfYmluZGluZycsICctaW1hZScsICc8aW5maWxlLm1hZT4nLCAnLW9tYWUnLCAnPG91dGZpbGUubWFlPic=

> <r_lp_tautomer_probability>
1

> <r_epik_Ionization_Penalty>
0.000326658

> <r_epik_Ionization_Penalty_Charging>
0

> <r_epik_Ionization_Penalty_Neutral>
0.000326658

> <r_epik_State_Penalty>
-0

> <r_epik_Charging_Adjusted_Penalty>
0

> <i_epik_Tot_Q>
0

> <i_epik_Tot_abs_Q>
0

> <r_epik_Metal_State_Penalty>
-0

> <b_epik_Metal_Only>
0

> <s_lp_Force_Field>
OPLS_2005

> <r_lp_Energy>
10.6365

> <b_lp_Chiralities_Consistent>
1

> <s_lp_Variant>
AV-unprocessed.smi:1331-1

> <Gold.Version>
5.8.1

> <Gold.Id.Protein>
6NUR|6NUR_protein|mol2

> <Gold.PLP.Fitness>
44.3750

> <Gold.PLP.PLP>
-37.4755

> <Gold.PLP.part.hbond>
-2.0000

> <Gold.PLP.part.metal>
0.0000

> <Gold.PLP.part.buried>
-1.0701

> <Gold.PLP.part.nonpolar>
-33.4878

> <Gold.PLP.part.repulsive>
0.2087

> <Gold.PLP.ligand.clash>
0.0076

> <Gold.PLP.ligand.torsion>
0.7417

> <Gold.PLP.Chemscore.Hbond>
1.7840

> <Gold.PLP.Chemscore.CHOScore>
1.0000

> <Gold.PLP.Chemscore.Metal>
0.0000

> <Gold.Chemscore.Hbonds>
donor molecule, donor type, donor heavy atom, donor atom, acceptor molecule, acceptor atom, score
      P1  H  7989  7998       L1     8  0.83
      P1  H  7997  8009       L1    11  0.99
      L1  C     7    26       P1  8028  0.89

> <Gold.PLP.Chemscore.Internal.Correction>
0.0386

> <Gold.Rescore>
     Score         DG    S(hbond)    S(metal)    S(lipo)     H(rot)  DE(clash)    DE(int)     intcor
     17.97     -18.79       1.57        0.00     101.53       1.49       0.03       0.79       ----

> <Gold.Chemscore.Fitness>
17.9748

> <Gold.Chemscore.DG>
-18.7906

> <Gold.Chemscore.ZeroCoef>
-5.4800

> <Gold.Chemscore.Hbond>
1.5706

> <Gold.Chemscore.Metal>
0.0000

> <Gold.Chemscore.Lipo>
101.5346

> <Gold.Chemscore.Internal_Hbond>
0.0000

> <Gold.Chemscore.DEClash>
0.0283

> <Gold.Chemscore.DEInternal>
0.7875

> <Gold.Chemscore.Rot>
1.4902

> <Gold.Chemscore.Internal.Correction>
   9.000000E+99

> <Gold.Chemscore.Hbonds>
donor molecule, donor type, donor heavy atom, donor atom, acceptor molecule, acceptor atom, score
      P1  H  7989  7998       L1     8  0.47
      P1  H  7997  8009       L1    11  0.61

> <Gold.Chemscore.Hbond.Weighted>
-5.2460

> <Gold.Chemscore.Metal.Weighted>
-0.0000

> <Gold.Chemscore.Lipo.Weighted>
-11.8795

> <Gold.Chemscore.Internal_Hbond.Weighted>
0.0000

> <Gold.Chemscore.DEClash.Weighted>
0.0283

> <Gold.Chemscore.DEInternal.Weighted>
0.7875

> <Gold.Chemscore.Rot.Weighted>
3.8149

> <Gold.Chemscore.Internal.Correction.Weighted>
   9.000000E+99

> <Gold.Protein.RotatedTorsions>
[ 6907 6896 6895 6894 ] final -103.06 input  -60.11 | X-H torsion
[ 7974 7965 7964 7962 ] final  -46.39 input  175.53 | X-H torsion
[ 8008 7997 7996 7995 ] final  179.36 input   59.86 | X-H torsion
[ 10167 10162 10161 10158 ] final   17.37 input  -65.29 | X-H torsion
[ 10718 10713 10712 10709 ] final    5.49 input   66.30 | X-H torsion
[ 10763 10752 10751 10750 ] final   83.61 input  -60.55 | X-H torsion
[ 11005 11000 10999 10996 ] final -127.18 input  -57.11 | X-H torsion

> <Gold.Protein.ActiveResidues>
 VAL166  LYS551  ARG553  GLY616  TRP617  ASP618  TYR619  PRO620  LYS621  CYS622 
 ASP623  PHE694  ASN695  SER759  ASP760  ASP761  ALA762  ILE779  LEU786  VAL792 
 PHE793  MET794  SER795  GLU796  ALA797  LYS798  CYS799  TRP800  GLU811  SER814 

> <Gold.Protein.RotatedAtoms>
  150.7223  134.0486  159.3790 H   0  0  0  0  0  0  0  0  0  0  0  0  # atno 6907 bound_to 6896
  151.8462  135.0571  160.0463 H   0  0  0  0  0  0  0  0  0  0  0  0  # atno 6908 bound_to 6896
  152.2825  133.5448  159.5543 H   0  0  0  0  0  0  0  0  0  0  0  0  # atno 6909 bound_to 6896
  145.9724  140.7369  142.9404 H   0  0  0  0  0  0  0  0  0  0  0  0  # atno 7974 bound_to 7965
  156.0443  140.1310  157.0121 H   0  0  0  0  0  0  0  0  0  0  0  0  # atno 8008 bound_to 7997
  154.4405  140.1024  156.6353 H   0  0  0  0  0  0  0  0  0  0  0  0  # atno 8009 bound_to 7997
  155.5620  140.3465  155.4496 H   0  0  0  0  0  0  0  0  0  0  0  0  # atno 8010 bound_to 7997
  140.5731  143.9124  150.6728 H   0  0  0  0  0  0  0  0  0  0  0  0  # atno 10167 bound_to 10162
  156.9082  130.5746  149.5647 H   0  0  0  0  0  0  0  0  0  0  0  0  # atno 10718 bound_to 10713
  153.1307  135.4685  154.9343 H   0  0  0  0  0  0  0  0  0  0  0  0  # atno 10763 bound_to 10752
  154.7661  135.3145  154.8285 H   0  0  0  0  0  0  0  0  0  0  0  0  # atno 10764 bound_to 10752
  153.8829  135.6892  153.4819 H   0  0  0  0  0  0  0  0  0  0  0  0  # atno 10765 bound_to 10752
  140.9621  134.0922  157.3958 H   0  0  0  0  0  0  0  0  0  0  0  0  # atno 11005 bound_to 11000
  144.6840  140.2771  143.7297 LP  0  0  0  0  0  0  0  0  0  0  0  0  # atno 17320 bound_to 7965
  145.7887  139.1919  143.2115 LP  0  0  0  0  0  0  0  0  0  0  0  0  # atno 17321 bound_to 7965
  140.2604  143.3528  152.1327 LP  0  0  0  0  0  0  0  0  0  0  0  0  # atno 17342 bound_to 10162
  139.5128  144.6922  151.5728 LP  0  0  0  0  0  0  0  0  0  0  0  0  # atno 17343 bound_to 10162
  156.0549  130.5612  150.9069 LP  0  0  0  0  0  0  0  0  0  0  0  0  # atno 17370 bound_to 10713
  157.5984  131.0942  150.9002 LP  0  0  0  0  0  0  0  0  0  0  0  0  # atno 17371 bound_to 10713
  139.8881  135.0095  156.6603 LP  0  0  0  0  0  0  0  0  0  0  0  0  # atno 17394 bound_to 11000
  140.7453  133.8943  155.8307 LP  0  0  0  0  0  0  0  0  0  0  0  0  # atno 17395 bound_to 11000

$$$$
