#       Name:                AV-unprocessed.smi:1010
#       Creating user name   scv26
#       Creation time:       Fri Mar 27 02:36:34 2020


#       File generated by GOLD software.
#

@<TRIPOS>MOLECULE
AV-unprocessed.smi:1010
    61    63     1
SMALL
NO_CHARGES


@<TRIPOS>ATOM
      1 ****        -2.0348   2.2440   0.1813 C.3            1 S1                 0.0000
      2 ****        -2.1139   1.9189   1.6337 N.4            1 S1                 1.0000
      3 ****        -1.3066   2.8905   2.4277 C.3            1 S1                 0.0000
      4 ****        -2.0637   0.4514   2.0437 C.3            1 S1                 0.0000
      5 ****        -0.6075  -0.1648   2.0602 C.3            1 S1                 0.0000
      6 ****         0.0084  -0.1805   0.7315 N.pl3          1 S1                -1.0000
      7 ****         1.2367   0.3196   0.4344 C.2            1 S1                 0.0000
      8 ****         2.0082   0.9307   1.1820 O.2            1 S1                 0.0000
      9 ****         1.5815   0.0763  -0.8406 N.am           1 S1                 0.0000
     10 ****         2.8367   0.3090  -1.4650 C.ar           1 S1                 0.0000
     11 ****         3.5408   1.5232  -1.2713 C.ar           1 S1                 0.0000
     12 ****         4.7638   1.7360  -1.9370 C.ar           1 S1                 0.0000
     13 ****         5.2575   0.7360  -2.7950 C.ar           1 S1                 0.0000
     14 ****         4.5554  -0.4034  -2.9703 N.pl3          1 S1                 1.0000
     15 ****         3.3796  -0.6604  -2.3541 C.ar           1 S1                 0.0000
     16 ****         2.7917  -1.9003  -2.6574 N.3            1 S1                 0.0000
     17 ****         2.5583  -2.8102  -1.5398 C.3            1 S1                 0.0000
     18 ****         1.0897  -3.2367  -1.6254 C.3            1 S1                 0.0000
     19 ****         0.7567  -3.0520  -3.1018 C.3            1 S1                 0.0000
     20 ****         1.5980  -1.8376  -3.4914 C.3            1 S1                 0.0000
     21 ****        -2.6787   0.3116   3.4750 C.3            1 S1                 0.0000
     22 ****        -4.1640   0.7181   3.5174 C.3            1 S1                 0.0000
     23 ****        -4.9131  -0.1060   2.6351 O.3            1 S1                 0.0000
     24 ****        -4.4910   0.0018   1.2827 C.3            1 S1                 0.0000
     25 ****        -3.0136  -0.4197   1.1551 C.3            1 S1                 0.0000
     26 ****        -1.0375   2.0858  -0.2249 H              1 S1                 0.0000
     27 ****        -2.2733   3.2968   0.0276 H              1 S1                 0.0000
     28 ****        -2.7480   1.6876  -0.4227 H              1 S1                 0.0000
     29 ****        -0.2421   2.8113   2.2039 H              1 S1                 0.0000
     30 ****        -1.4407   2.7768   3.5011 H              1 S1                 0.0000
     31 ****        -1.6094   3.9098   2.1867 H              1 S1                 0.0000
     32 ****        -0.0094   0.3809   2.7911 H              1 S1                 0.0000
     33 ****        -0.6636  -1.1793   2.4554 H              1 S1                 0.0000
     34 ****         0.9344  -0.5005  -1.3581 H              1 S1                 0.0000
     35 ****         3.1489   2.2985  -0.6298 H              1 S1                 0.0000
     36 ****         5.3110   2.6564  -1.7954 H              1 S1                 0.0000
     37 ****         6.1829   0.8141  -3.3470 H              1 S1                 0.0000
     38 ****         3.2078  -3.6759  -1.6711 H              1 S1                 0.0000
     39 ****         2.7953  -2.3710  -0.5700 H              1 S1                 0.0000
     40 ****         0.9232  -4.2550  -1.2740 H              1 S1                 0.0000
     41 ****         0.4710  -2.5705  -1.0233 H              1 S1                 0.0000
     42 ****         1.0836  -3.9267  -3.6656 H              1 S1                 0.0000
     43 ****        -0.3083  -2.9082  -3.2857 H              1 S1                 0.0000
     44 ****         1.0433  -0.9170  -3.3063 H              1 S1                 0.0000
     45 ****         1.8617  -1.8595  -4.5490 H              1 S1                 0.0000
     46 ****        -2.6337  -0.7249   3.8204 H              1 S1                 0.0000
     47 ****        -2.1303   0.8791   4.2271 H              1 S1                 0.0000
     48 ****        -4.5555   0.5879   4.5264 H              1 S1                 0.0000
     49 ****        -4.3003   1.7696   3.2617 H              1 S1                 0.0000
     50 ****        -5.1166  -0.6500   0.6726 H              1 S1                 0.0000
     51 ****        -4.6528   1.0179   0.9218 H              1 S1                 0.0000
     52 ****        -2.7226  -0.4175   0.1038 H              1 S1                 0.0000
     53 ****        -2.9621  -1.4702   1.4528 H              1 S1                 0.0000
     54 ****        -3.0654   2.1670   1.8626 H              1 S1                 0.0000
     55 ****         4.9334  -1.1113  -3.6001 H              1 S1                 0.0000
     56 ****        -0.5154  -0.5909  -0.0150 LP             1 S1                 0.0000
     57 ****         1.7492   1.1073   2.1316 LP             1 S1                 0.0000
     58 ****         2.8914   1.2487   0.8372 LP             1 S1                 0.0000
     59 ****         3.5323  -2.2994  -3.1980 LP             1 S1                 0.0000
     60 ****        -5.8756   0.1598   2.6907 LP             1 S1                 0.0000
     61 ****        -4.8127  -1.0576   2.9254 LP             1 S1                 0.0000
@<TRIPOS>BOND
    1    1    2 1     
    2    1   26 1     
    3    1   27 1     
    4    1   28 1     
    5    2    3 1     
    6    2    4 1     
    7    2   54 1     
    8    3   29 1     
    9    3   30 1     
   10    3   31 1     
   11    4   25 1     
   12    4    5 1     
   13    4   21 1     
   14    5    6 1     
   15    5   32 1     
   16    5   33 1     
   17    6    7 1     
   18    7    8 2     
   19    7    9 am    
   20    9   10 1     
   21    9   34 1     
   22   10   15 ar    
   23   10   11 ar    
   24   11   12 ar    
   25   11   35 1     
   26   12   13 ar    
   27   12   36 1     
   28   13   14 ar    
   29   13   37 1     
   30   14   15 ar    
   31   14   55 1     
   32   15   16 1     
   33   16   20 1     
   34   16   17 1     
   35   17   18 1     
   36   17   38 1     
   37   17   39 1     
   38   18   19 1     
   39   18   40 1     
   40   18   41 1     
   41   19   20 1     
   42   19   42 1     
   43   19   43 1     
   44   20   44 1     
   45   20   45 1     
   46   21   22 1     
   47   21   46 1     
   48   21   47 1     
   49   22   23 1     
   50   22   48 1     
   51   22   49 1     
   52   23   24 1     
   53   24   25 1     
   54   24   50 1     
   55   24   51 1     
   56   25   52 1     
   57   25   53 1     
   58    6   56 1     
   59    8   57 1     
   60    8   58 1     
   61   16   59 1     
   62   23   60 1     
   63   23   61 1     
@<TRIPOS>SUBSTRUCTURE
      1 S1             1
@<TRIPOS>SET
LONE_PAIRS      STATIC     ATOMS    <user>   **** ""
6 56 57 58 59 60 61
DONOR_HYDROGENS      STATIC     ATOMS    <user>   **** ""
3 54 34 55
ATOM$BLUE        STATIC     ATOMS    COLORGROUP SYSTEM
6 56 57 58 59 60 61
ATOM$RED        STATIC     ATOMS    COLORGROUP SYSTEM
3 54 34 55
