AV-unprocessed.smi:467|AV-procd|sdf|2644|dock5
  -GOLD-   2262023 53D 1   1.00000     0.00000
 Structure written by MMmdl.
 44 46  0  0  0  0  0  0  0  0  1 V2000
  153.2165  142.6734  162.0101 C   0  0  0  0  0  0  0  0  0  0  0  0
  152.6881  142.4262  160.6082 C   0  0  0  0  0  0  0  0  0  0  0  0
  152.7827  141.1284  160.0566 C   0  0  0  0  0  0  0  0  0  0  0  0
  152.2972  140.8559  158.7587 C   0  0  0  0  0  0  0  0  0  0  0  0
  152.2810  139.6761  158.0343 N   0  0  0  0  0  0  0  0  0  0  0  0
  151.6997  140.0646  156.9029 C   0  0  0  0  0  0  0  0  0  0  0  0
  151.3388  141.3586  156.8074 N   0  0  0  0  0  0  0  0  0  0  0  0
  150.6939  142.0040  155.6773 C   0  0  0  0  0  0  0  0  0  0  0  0
  149.4340  141.2525  155.2064 C   0  0  1  0  0  0  0  0  0  0  0  0
  148.6488  142.1116  154.4029 O   0  0  0  0  0  0  0  0  0  0  0  0
  149.7978  140.0076  154.3730 C   0  0  0  0  0  0  0  0  0  0  0  0
  149.9686  138.7667  155.1313 N   0  0  0  0  0  0  0  0  0  0  0  0
  150.7940  137.7819  154.4334 C   0  0  0  0  0  0  0  0  0  0  0  0
  150.9339  136.4773  155.2378 C   0  0  0  0  0  0  0  0  0  0  0  0
  149.6433  135.9483  155.5227 O   0  0  0  0  0  0  0  0  0  0  0  0
  148.8241  136.8617  156.2448 C   0  0  0  0  0  0  0  0  0  0  0  0
  148.6758  138.1645  155.4405 C   0  0  0  0  0  0  0  0  0  0  0  0
  151.7153  141.9271  158.0196 C   0  0  0  0  0  0  0  0  0  0  0  0
  151.6181  143.2228  158.5565 C   0  0  0  0  0  0  0  0  0  0  0  0
  152.1022  143.4766  159.8568 C   0  0  0  0  0  0  0  0  0  0  0  0
  151.9813  144.8769  160.4313 C   0  0  0  0  0  0  0  0  0  0  0  0
  153.6821  141.7786  162.4241 H   0  0  0  0  0  0  0  0  0  0  0  0
  152.4051  142.9681  162.6759 H   0  0  0  0  0  0  0  0  0  0  0  0
  153.9650  143.4659  162.0041 H   0  0  0  0  0  0  0  0  0  0  0  0
  153.2272  140.3276  160.6289 H   0  0  0  0  0  0  0  0  0  0  0  0
  151.5253  139.3684  156.0956 H   0  0  0  0  0  0  0  0  0  0  0  0
  150.4490  143.0303  155.9545 H   0  0  0  0  0  0  0  0  0  0  0  0
  151.4182  142.0672  154.8640 H   0  0  0  0  0  0  0  0  0  0  0  0
  148.8534  140.9737  156.0848 H   0  0  0  0  0  0  0  0  0  0  0  0
  148.8745  143.0046  154.6151 H   0  0  0  0  0  0  0  0  0  0  0  0
  149.0160  139.8656  153.6251 H   0  0  0  0  0  0  0  0  0  0  0  0
  150.7106  140.2080  153.8097 H   0  0  0  0  0  0  0  0  0  0  0  0
  150.3596  137.5591  153.4578 H   0  0  0  0  0  0  0  0  0  0  0  0
  151.7908  138.1796  154.2489 H   0  0  0  0  0  0  0  0  0  0  0  0
  151.5041  135.7414  154.6709 H   0  0  0  0  0  0  0  0  0  0  0  0
  151.4753  136.6544  156.1687 H   0  0  0  0  0  0  0  0  0  0  0  0
  147.8479  136.4080  156.4156 H   0  0  0  0  0  0  0  0  0  0  0  0
  149.2625  137.0598  157.2242 H   0  0  0  0  0  0  0  0  0  0  0  0
  148.0657  138.8681  156.0082 H   0  0  0  0  0  0  0  0  0  0  0  0
  148.1335  137.9567  154.5165 H   0  0  0  0  0  0  0  0  0  0  0  0
  151.1672  144.0122  157.9733 H   0  0  0  0  0  0  0  0  0  0  0  0
  151.4883  145.5523  159.7316 H   0  0  0  0  0  0  0  0  0  0  0  0
  152.9670  145.2857  160.6539 H   0  0  0  0  0  0  0  0  0  0  0  0
  151.3952  144.8630  161.3505 H   0  0  0  0  0  0  0  0  0  0  0  0
  1  2  1  0  0  0  0
  1 22  1  0  0  0  0
  1 23  1  0  0  0  0
  1 24  1  0  0  0  0
  2 20  1  0  0  0  0
  2  3  2  0  0  0  0
  3  4  1  0  0  0  0
  3 25  1  0  0  0  0
  4 18  2  0  0  0  0
  4  5  1  0  0  0  0
  5  6  2  0  0  0  0
  6  7  1  0  0  0  0
  6 26  1  0  0  0  0
  7  8  1  0  0  0  0
  7 18  1  0  0  0  0
  8  9  1  0  0  0  0
  8 27  1  0  0  0  0
  8 28  1  0  0  0  0
  9 10  1  0  0  0  0
  9 11  1  0  0  0  0
  9 29  1  0  0  0  0
 10 30  1  0  0  0  0
 11 12  1  0  0  0  0
 11 31  1  0  0  0  0
 11 32  1  0  0  0  0
 12 17  1  0  0  0  0
 12 13  1  0  0  0  0
 13 14  1  0  0  0  0
 13 33  1  0  0  0  0
 13 34  1  0  0  0  0
 14 15  1  0  0  0  0
 14 35  1  0  0  0  0
 14 36  1  0  0  0  0
 15 16  1  0  0  0  0
 16 17  1  0  0  0  0
 16 37  1  0  0  0  0
 16 38  1  0  0  0  0
 17 39  1  0  0  0  0
 17 40  1  0  0  0  0
 18 19  1  0  0  0  0
 19 20  2  0  0  0  0
 19 41  1  0  0  0  0
 20 21  1  0  0  0  0
 21 42  1  0  0  0  0
 21 43  1  0  0  0  0
 21 44  1  0  0  0  0
M  END
> <s_m_source_file>
AV-unprocessed.smi

> <i_m_source_file_index>
467

> <i_lp_mmshare_version>
43012

> <i_f3d_flags>
0

> <s_epik_input>
W0NIM11jKFtjSF0xKWMoW0NIM10pW2NIXWMoYzEyKW4oW2NIXW4yKVtDSDJdW0NASF0oW09IXSlbQ0gyXU4zW0NIMl1bQ0gyXU9bQ0gyXVtDSDJdMw==

> <s_epik_cmdline>
J2VwaWtfcHl0aG9uJywgJy1waCcsICc3LjAnLCAnLXRuJywgJzgnLCAnLW1hJywgJzIwMCcsICctbWV0YWxfYmluZGluZycsICctaW1hZScsICc8aW5maWxlLm1hZT4nLCAnLW9tYWUnLCAnPG91dGZpbGUubWFlPic=

> <r_epik_Ionization_Penalty>
0.345029

> <r_epik_Ionization_Penalty_Charging>
0

> <r_epik_Ionization_Penalty_Neutral>
0.345029

> <r_epik_State_Penalty>
0.314465

> <r_epik_Charging_Adjusted_Penalty>
0.314465

> <i_epik_Tot_Q>
0

> <i_epik_Tot_abs_Q>
0

> <r_epik_Metal_State_Penalty>
0.239717

> <b_epik_Metal_Only>
0

> <s_lp_Force_Field>
OPLS_2005

> <r_lp_Energy>
29.8688

> <b_lp_Chiralities_Consistent>
1

> <s_lp_Variant>
AV-unprocessed.smi:467-2

> <Gold.Version>
5.8.1

> <Gold.Id.Protein>
6NUR|6NUR_protein|mol2

> <Gold.PLP.Fitness>
43.8621

> <Gold.PLP.PLP>
-42.3755

> <Gold.PLP.part.hbond>
-2.0000

> <Gold.PLP.part.metal>
0.0000

> <Gold.PLP.part.buried>
-4.4585

> <Gold.PLP.part.nonpolar>
-34.7937

> <Gold.PLP.part.repulsive>
0.1724

> <Gold.PLP.ligand.clash>
0.0000

> <Gold.PLP.ligand.torsion>
0.8038

> <Gold.PLP.Chemscore.Hbond>
1.0191

> <Gold.PLP.Chemscore.CHOScore>
0.0000

> <Gold.PLP.Chemscore.Metal>
0.0000

> <Gold.Chemscore.Hbonds>
donor molecule, donor type, donor heavy atom, donor atom, acceptor molecule, acceptor atom, score
      L1  H    10    30       P1  8028  1.00
      P1  H  8011  8017       L1    10  0.02

> <Gold.PLP.Chemscore.Internal.Correction>
0.0370

> <Gold.Rescore>
     Score         DG    S(hbond)    S(metal)    S(lipo)     H(rot)  DE(clash)    DE(int)     intcor
     15.63     -17.90       1.00        0.00     121.86       2.02       0.18       2.09       ----

> <Gold.Chemscore.Fitness>
15.6263

> <Gold.Chemscore.DG>
-17.8983

> <Gold.Chemscore.ZeroCoef>
-5.4800

> <Gold.Chemscore.Hbond>
0.9996

> <Gold.Chemscore.Metal>
0.0000

> <Gold.Chemscore.Lipo>
121.8595

> <Gold.Chemscore.Internal_Hbond>
0.0000

> <Gold.Chemscore.DEClash>
0.1779

> <Gold.Chemscore.DEInternal>
2.0941

> <Gold.Chemscore.Rot>
2.0227

> <Gold.Chemscore.Internal.Correction>
   9.000000E+99

> <Gold.Chemscore.Hbonds>
donor molecule, donor type, donor heavy atom, donor atom, acceptor molecule, acceptor atom, score
      L1  H    10    30       P1  8028  0.97

> <Gold.Chemscore.Hbond.Weighted>
-3.3388

> <Gold.Chemscore.Metal.Weighted>
-0.0000

> <Gold.Chemscore.Lipo.Weighted>
-14.2576

> <Gold.Chemscore.Internal_Hbond.Weighted>
0.0000

> <Gold.Chemscore.DEClash.Weighted>
0.1779

> <Gold.Chemscore.DEInternal.Weighted>
2.0941

> <Gold.Chemscore.Rot.Weighted>
5.1780

> <Gold.Chemscore.Internal.Correction.Weighted>
   9.000000E+99

> <Gold.Protein.RotatedTorsions>
[ 6907 6896 6895 6894 ] final  119.79 input  -60.11 | X-H torsion
[ 7974 7965 7964 7962 ] final    7.82 input  175.53 | X-H torsion
[ 8008 7997 7996 7995 ] final  143.85 input   59.86 | X-H torsion
[ 10167 10162 10161 10158 ] final -166.30 input  -65.29 | X-H torsion
[ 10718 10713 10712 10709 ] final -132.49 input   66.30 | X-H torsion
[ 10763 10752 10751 10750 ] final -130.48 input  -60.55 | X-H torsion
[ 11005 11000 10999 10996 ] final -145.66 input  -57.11 | X-H torsion

> <Gold.Protein.ActiveResidues>
 VAL166  LYS551  ARG553  GLY616  TRP617  ASP618  TYR619  PRO620  LYS621  CYS622 
 ASP623  PHE694  ASN695  SER759  ASP760  ASP761  ALA762  ILE779  LEU786  VAL792 
 PHE793  MET794  SER795  GLU796  ALA797  LYS798  CYS799  TRP800  GLU811  SER814 

> <Gold.Protein.RotatedAtoms>
  152.4446  133.7512  159.6694 H   0  0  0  0  0  0  0  0  0  0  0  0  # atno 6907 bound_to 6896
  150.8343  133.8029  159.3092 H   0  0  0  0  0  0  0  0  0  0  0  0  # atno 6908 bound_to 6896
  151.5673  135.1066  160.0038 H   0  0  0  0  0  0  0  0  0  0  0  0  # atno 6909 bound_to 6896
  146.2423  140.0026  142.8414 H   0  0  0  0  0  0  0  0  0  0  0  0  # atno 7974 bound_to 7965
  156.2921  140.2251  156.4958 H   0  0  0  0  0  0  0  0  0  0  0  0  # atno 8008 bound_to 7997
  154.7732  140.0465  157.1089 H   0  0  0  0  0  0  0  0  0  0  0  0  # atno 8009 bound_to 7997
  154.9849  140.3083  155.4934 H   0  0  0  0  0  0  0  0  0  0  0  0  # atno 8010 bound_to 7997
  139.6124  144.0787  152.1855 H   0  0  0  0  0  0  0  0  0  0  0  0  # atno 10167 bound_to 10162
  156.2351  130.7061  151.0899 H   0  0  0  0  0  0  0  0  0  0  0  0  # atno 10718 bound_to 10713
  154.8755  135.3861  154.4090 H   0  0  0  0  0  0  0  0  0  0  0  0  # atno 10763 bound_to 10752
  153.4806  135.7030  153.5945 H   0  0  0  0  0  0  0  0  0  0  0  0  # atno 10764 bound_to 10752
  153.4362  135.3867  155.2168 H   0  0  0  0  0  0  0  0  0  0  0  0  # atno 10765 bound_to 10752
  140.7900  134.2980  157.5017 H   0  0  0  0  0  0  0  0  0  0  0  0  # atno 11005 bound_to 11000
  145.1401  140.9567  143.4493 LP  0  0  0  0  0  0  0  0  0  0  0  0  # atno 17320 bound_to 7965
  145.0304  139.3346  143.6027 LP  0  0  0  0  0  0  0  0  0  0  0  0  # atno 17321 bound_to 7965
  140.0409  144.6008  150.7411 LP  0  0  0  0  0  0  0  0  0  0  0  0  # atno 17342 bound_to 10162
  140.7328  143.2710  151.3889 LP  0  0  0  0  0  0  0  0  0  0  0  0  # atno 17343 bound_to 10162
  157.7151  131.0714  150.6358 LP  0  0  0  0  0  0  0  0  0  0  0  0  # atno 17370 bound_to 10713
  156.6428  130.4463  149.5746 LP  0  0  0  0  0  0  0  0  0  0  0  0  # atno 17371 bound_to 10713
  139.8732  134.9369  156.3672 LP  0  0  0  0  0  0  0  0  0  0  0  0  # atno 17394 bound_to 11000
  140.9399  133.7521  156.0133 LP  0  0  0  0  0  0  0  0  0  0  0  0  # atno 17395 bound_to 11000

$$$$
