AV-unprocessed.smi:2702|AV-procd|sdf|10432|dock4
  -GOLD-   2272014473D 1   1.00000     0.00000
 Structure written by MMmdl.
 47 48  0  0  0  0  0  0  0  0  1 V2000
  145.3104  137.2880  151.9598 C   0  0  0  0  0  0  0  0  0  0  0  0
  146.1330  138.0737  152.8040 O   0  0  0  0  0  0  0  0  0  0  0  0
  146.4891  139.3144  152.2164 C   0  0  0  0  0  0  0  0  0  0  0  0
  147.5277  140.0313  153.0571 C   0  0  0  0  0  0  0  0  0  0  0  0
  148.6823  139.4340  153.4346 C   0  0  0  0  0  0  0  0  0  0  0  0
  149.6695  140.1567  154.2371 C   0  0  0  0  0  0  0  0  0  0  0  0
  150.7304  139.6478  154.5992 O   0  0  0  0  0  0  0  0  0  0  0  0
  149.3253  141.4402  154.5527 N   0  0  0  0  0  0  0  0  0  0  0  0
  150.2173  142.3047  155.3474 C   0  0  0  0  0  0  0  0  0  0  0  0
  150.3740  141.8539  156.8079 C   0  0  0  0  0  0  0  0  0  0  0  0
  149.6110  141.0234  157.3038 O   0  0  0  0  0  0  0  0  0  0  0  0
  151.3834  142.4208  157.4855 N   0  0  0  0  0  0  0  0  0  0  0  0
  151.7401  142.1365  158.8748 C   0  0  2  0  0  0  0  0  0  0  0  0
  152.1966  143.4407  159.5559 C   0  0  0  0  0  0  0  0  0  0  0  0
  152.6268  143.1917  161.0044 C   0  0  0  0  0  0  0  0  0  0  0  0
  153.7345  142.1346  161.0641 C   0  0  0  0  0  0  0  0  0  0  0  0
  153.2975  140.8077  160.4118 C   0  0  2  0  0  0  0  0  0  0  0  0
  154.4336  139.7754  160.5343 C   0  0  0  0  0  0  0  0  0  0  0  0
  152.8297  141.0321  158.9456 C   0  0  1  0  0  0  0  0  0  0  0  0
  152.3351  139.7242  158.2891 C   0  0  0  0  0  0  0  0  0  0  0  0
  148.1122  142.0164  154.1265 C   0  0  0  0  0  0  0  0  0  0  0  0
  147.2527  141.3538  153.4201 N   0  0  0  0  0  0  0  0  0  0  0  0
  145.0633  136.3511  152.4591 H   0  0  0  0  0  0  0  0  0  0  0  0
  145.8200  137.0474  151.0258 H   0  0  0  0  0  0  0  0  0  0  0  0
  144.3769  137.8025  151.7281 H   0  0  0  0  0  0  0  0  0  0  0  0
  146.9015  139.1544  151.2190 H   0  0  0  0  0  0  0  0  0  0  0  0
  145.6016  139.9397  152.1065 H   0  0  0  0  0  0  0  0  0  0  0  0
  148.8861  138.4142  153.1430 H   0  0  0  0  0  0  0  0  0  0  0  0
  151.2085  142.3600  154.8923 H   0  0  0  0  0  0  0  0  0  0  0  0
  149.8516  143.3329  155.3425 H   0  0  0  0  0  0  0  0  0  0  0  0
  151.9575  143.0947  157.0002 H   0  0  0  0  0  0  0  0  0  0  0  0
  150.8592  141.7651  159.4028 H   0  0  0  0  0  0  0  0  0  0  0  0
  153.0275  143.8788  159.0011 H   0  0  0  0  0  0  0  0  0  0  0  0
  151.3912  144.1761  159.5381 H   0  0  0  0  0  0  0  0  0  0  0  0
  152.9746  144.1218  161.4545 H   0  0  0  0  0  0  0  0  0  0  0  0
  151.7695  142.8626  161.5932 H   0  0  0  0  0  0  0  0  0  0  0  0
  154.6277  142.5151  160.5664 H   0  0  0  0  0  0  0  0  0  0  0  0
  154.0122  141.9655  162.1052 H   0  0  0  0  0  0  0  0  0  0  0  0
  152.4487  140.4270  160.9823 H   0  0  0  0  0  0  0  0  0  0  0  0
  155.2836  140.0438  159.9061 H   0  0  0  0  0  0  0  0  0  0  0  0
  154.1073  138.7753  160.2512 H   0  0  0  0  0  0  0  0  0  0  0  0
  154.7910  139.7074  161.5621 H   0  0  0  0  0  0  0  0  0  0  0  0
  153.6917  141.3788  158.3730 H   0  0  0  0  0  0  0  0  0  0  0  0
  151.4952  139.2997  158.8399 H   0  0  0  0  0  0  0  0  0  0  0  0
  153.1201  138.9704  158.2426 H   0  0  0  0  0  0  0  0  0  0  0  0
  152.0078  139.8827  157.2617 H   0  0  0  0  0  0  0  0  0  0  0  0
  147.9539  143.0528  154.4293 H   0  0  0  0  0  0  0  0  0  0  0  0
  1  2  1  0  0  0  0
  1 23  1  0  0  0  0
  1 24  1  0  0  0  0
  1 25  1  0  0  0  0
  2  3  1  0  0  0  0
  3  4  1  0  0  0  0
  3 26  1  0  0  0  0
  3 27  1  0  0  0  0
  4 22  1  0  0  0  0
  4  5  2  0  0  0  0
  5  6  1  0  0  0  0
  5 28  1  0  0  0  0
  6  7  2  0  0  0  0
  6  8  1  0  0  0  0
  8  9  1  0  0  0  0
  8 21  1  0  0  0  0
  9 10  1  0  0  0  0
  9 29  1  0  0  0  0
  9 30  1  0  0  0  0
 10 11  2  0  0  0  0
 10 12  1  0  0  0  0
 12 13  1  0  0  0  0
 12 31  1  0  0  0  0
 13 19  1  0  0  0  0
 13 14  1  0  0  0  0
 13 32  1  0  0  0  0
 14 15  1  0  0  0  0
 14 33  1  0  0  0  0
 14 34  1  0  0  0  0
 15 16  1  0  0  0  0
 15 35  1  0  0  0  0
 15 36  1  0  0  0  0
 16 17  1  0  0  0  0
 16 37  1  0  0  0  0
 16 38  1  0  0  0  0
 17 18  1  0  0  0  0
 17 19  1  0  0  0  0
 17 39  1  0  0  0  0
 18 40  1  0  0  0  0
 18 41  1  0  0  0  0
 18 42  1  0  0  0  0
 19 20  1  0  0  0  0
 19 43  1  0  0  0  0
 20 44  1  0  0  0  0
 20 45  1  0  0  0  0
 20 46  1  0  0  0  0
 21 22  2  0  0  0  0
 21 47  1  0  0  0  0
M  END
> <s_m_source_file>
AV-unprocessed.smi

> <i_m_source_file_index>
2702

> <i_lp_mmshare_version>
43012

> <i_f3d_flags>
0

> <s_epik_input>
W0NIM11PW0NIMl1jMVtjSF1jKD1PKW4oW2NIXW4xKVtDSDJdQyg9TylbTkhdW0NAQEhdMltDSDJdW0NIMl1bQ0gyXVtDQEBIXShbQ0gzXSlbQ0BIXTJbQ0gzXQ==

> <s_epik_cmdline>
J2VwaWtfcHl0aG9uJywgJy1waCcsICc3LjAnLCAnLXRuJywgJzgnLCAnLW1hJywgJzIwMCcsICctbWV0YWxfYmluZGluZycsICctaW1hZScsICc8aW5maWxlLm1hZT4nLCAnLW9tYWUnLCAnPG91dGZpbGUubWFlPic=

> <r_lp_tautomer_probability>
1

> <r_epik_Ionization_Penalty>
1.22164e-06

> <r_epik_Ionization_Penalty_Charging>
3.17988e-07

> <r_epik_Ionization_Penalty_Neutral>
9.03656e-07

> <r_epik_State_Penalty>
-0

> <r_epik_Charging_Adjusted_Penalty>
3.17988e-07

> <i_epik_Tot_Q>
0

> <i_epik_Tot_abs_Q>
0

> <r_epik_Metal_State_Penalty>
-0

> <b_epik_Metal_Only>
0

> <s_lp_Force_Field>
OPLS_2005

> <r_lp_Energy>
18.2474

> <b_lp_Chiralities_Consistent>
1

> <s_lp_Variant>
AV-unprocessed.smi:2702-3

> <Gold.Version>
5.8.1

> <Gold.Id.Protein>
6NUR|6NUR_protein|mol2

> <Gold.PLP.Fitness>
43.2101

> <Gold.PLP.PLP>
-39.4092

> <Gold.PLP.part.hbond>
-1.0000

> <Gold.PLP.part.metal>
0.0000

> <Gold.PLP.part.buried>
1.7100

> <Gold.PLP.part.nonpolar>
-39.9178

> <Gold.PLP.part.repulsive>
0.5316

> <Gold.PLP.ligand.clash>
0.0000

> <Gold.PLP.ligand.torsion>
0.6344

> <Gold.PLP.Chemscore.Hbond>
0.7000

> <Gold.PLP.Chemscore.CHOScore>
0.9831

> <Gold.PLP.Chemscore.Metal>
0.0000

> <Gold.Chemscore.Hbonds>
donor molecule, donor type, donor heavy atom, donor atom, acceptor molecule, acceptor atom, score
      P1  H  7989  7998       L1     7  0.40
      L1  C    21    47       P1  8028  1.00

> <Gold.PLP.Chemscore.Internal.Correction>
0.0204

> <Gold.Rescore>
     Score         DG    S(hbond)    S(metal)    S(lipo)     H(rot)  DE(clash)    DE(int)     intcor
     11.73     -13.18       0.07        0.00     106.02       1.93       0.65       0.81       ----

> <Gold.Chemscore.Fitness>
11.7266

> <Gold.Chemscore.DG>
-13.1824

> <Gold.Chemscore.ZeroCoef>
-5.4800

> <Gold.Chemscore.Hbond>
0.0701

> <Gold.Chemscore.Metal>
0.0000

> <Gold.Chemscore.Lipo>
106.0248

> <Gold.Chemscore.Internal_Hbond>
0.0000

> <Gold.Chemscore.DEClash>
0.6466

> <Gold.Chemscore.DEInternal>
0.8092

> <Gold.Chemscore.Rot>
1.9284

> <Gold.Chemscore.Internal.Correction>
   9.000000E+99

> <Gold.Chemscore.Hbonds>
donor molecule, donor type, donor heavy atom, donor atom, acceptor molecule, acceptor atom, score
      P1  H  7989  7998       L1     7  0.01

> <Gold.Chemscore.Hbond.Weighted>
-0.2343

> <Gold.Chemscore.Metal.Weighted>
-0.0000

> <Gold.Chemscore.Lipo.Weighted>
-12.4049

> <Gold.Chemscore.Internal_Hbond.Weighted>
0.0000

> <Gold.Chemscore.DEClash.Weighted>
0.6466

> <Gold.Chemscore.DEInternal.Weighted>
0.8092

> <Gold.Chemscore.Rot.Weighted>
4.9368

> <Gold.Chemscore.Internal.Correction.Weighted>
   9.000000E+99

> <Gold.Protein.RotatedTorsions>
[ 6907 6896 6895 6894 ] final   77.11 input  -60.11 | X-H torsion
[ 7974 7965 7964 7962 ] final  172.16 input  175.53 | X-H torsion
[ 8008 7997 7996 7995 ] final  -15.70 input   59.86 | X-H torsion
[ 10167 10162 10161 10158 ] final -128.84 input  -65.29 | X-H torsion
[ 10718 10713 10712 10709 ] final  177.13 input   66.30 | X-H torsion
[ 10763 10752 10751 10750 ] final  -34.57 input  -60.55 | X-H torsion
[ 11005 11000 10999 10996 ] final -105.52 input  -57.11 | X-H torsion

> <Gold.Protein.ActiveResidues>
 VAL166  LYS551  ARG553  GLY616  TRP617  ASP618  TYR619  PRO620  LYS621  CYS622 
 ASP623  PHE694  ASN695  SER759  ASP760  ASP761  ALA762  ILE779  LEU786  VAL792 
 PHE793  MET794  SER795  GLU796  ALA797  LYS798  CYS799  TRP800  GLU811  SER814 

> <Gold.Protein.RotatedAtoms>
  152.5103  134.3867  159.9369 H   0  0  0  0  0  0  0  0  0  0  0  0  # atno 6907 bound_to 6896
  151.3826  133.3810  159.2719 H   0  0  0  0  0  0  0  0  0  0  0  0  # atno 6908 bound_to 6896
  150.9493  134.8915  159.7721 H   0  0  0  0  0  0  0  0  0  0  0  0  # atno 6909 bound_to 6896
  144.7275  139.9457  143.6430 H   0  0  0  0  0  0  0  0  0  0  0  0  # atno 7974 bound_to 7965
  154.5110  140.2189  155.9157 H   0  0  0  0  0  0  0  0  0  0  0  0  # atno 8008 bound_to 7997
  156.1552  140.3153  155.8679 H   0  0  0  0  0  0  0  0  0  0  0  0  # atno 8009 bound_to 7997
  155.3861  140.0475  157.3033 H   0  0  0  0  0  0  0  0  0  0  0  0  # atno 8010 bound_to 7997
  139.9460  143.6109  152.2489 H   0  0  0  0  0  0  0  0  0  0  0  0  # atno 10167 bound_to 10162
  156.9098  130.9906  151.3022 H   0  0  0  0  0  0  0  0  0  0  0  0  # atno 10718 bound_to 10713
  153.8488  135.6851  153.4794 H   0  0  0  0  0  0  0  0  0  0  0  0  # atno 10763 bound_to 10752
  153.1409  135.4658  154.9492 H   0  0  0  0  0  0  0  0  0  0  0  0  # atno 10764 bound_to 10752
  154.7811  135.3269  154.7934 H   0  0  0  0  0  0  0  0  0  0  0  0  # atno 10765 bound_to 10752
  141.1049  133.8815  157.1744 H   0  0  0  0  0  0  0  0  0  0  0  0  # atno 11005 bound_to 11000
  146.0750  139.3739  143.0499 LP  0  0  0  0  0  0  0  0  0  0  0  0  # atno 17320 bound_to 7965
  145.7917  140.9811  143.1045 LP  0  0  0  0  0  0  0  0  0  0  0  0  # atno 17321 bound_to 7965
  139.6666  144.7662  151.1861 LP  0  0  0  0  0  0  0  0  0  0  0  0  # atno 17342 bound_to 10162
  140.7597  143.5928  150.8778 LP  0  0  0  0  0  0  0  0  0  0  0  0  # atno 17343 bound_to 10162
  157.5974  130.8488  149.8750 LP  0  0  0  0  0  0  0  0  0  0  0  0  # atno 17370 bound_to 10713
  156.0541  130.3712  150.1132 LP  0  0  0  0  0  0  0  0  0  0  0  0  # atno 17371 bound_to 10713
  139.9915  135.0062  156.9986 LP  0  0  0  0  0  0  0  0  0  0  0  0  # atno 17394 bound_to 11000
  140.4927  134.1177  155.7235 LP  0  0  0  0  0  0  0  0  0  0  0  0  # atno 17395 bound_to 11000

$$$$
