#       Name:                AV-unprocessed.smi:72
#       Creating user name   scv26
#       Creation time:       Thu Mar 26 17:02:10 2020


#       File generated by GOLD software.
#

@<TRIPOS>MOLECULE
AV-unprocessed.smi:72
    41    42     1
SMALL
NO_CHARGES


@<TRIPOS>ATOM
      1 ****        -4.9987  -0.0780  -0.4214 N.pl3          1 S1                 0.0000
      2 ****        -3.6498  -0.3446  -0.5325 C.2            1 S1                 0.0000
      3 ****        -2.7896   0.3233   0.3196 N.pl3          1 S1                 1.0000
      4 ****        -1.4608   0.1571   0.3542 C.2            1 S1                 0.0000
      5 ****        -0.9020  -0.7341  -0.4386 N.am           1 S1                 0.0000
      6 ****         0.5973  -0.9079  -0.4297 C.3            1 S1                 0.0000
      7 ****         1.1417   0.2548  -0.9665 O.3            1 S1                 0.0000
      8 ****         2.3180   0.5962  -0.2458 C.3            1 S1                 0.0000
      9 ****         2.6044   2.0987  -0.3909 C.3            1 S1                 0.0000
     10 ****         3.2896   2.3454  -1.5999 O.3            1 S1                 0.0000
     11 ****         1.9827   0.1714   1.1882 C.3            1 S1                 0.0000
     12 ****         3.1671  -0.0877   1.9148 O.3            1 S1                 0.0000
     13 ****         1.1819  -1.1092   0.9847 C.3            1 S1                 0.0000
     14 ****         0.2155  -1.2917   2.0041 O.3            1 S1                 0.0000
     15 ****        -1.6921  -1.3958  -1.4152 C.2            1 S1                 0.0000
     16 ****        -1.1780  -2.1484  -2.2411 O.2            1 S1                 0.0000
     17 ****        -3.0743  -1.1596  -1.3726 N.2            1 S1                 0.0000
     18 ****         0.8398  -1.7573  -1.0679 H              1 S1                 0.0000
     19 ****         3.1492  -0.0038  -0.6230 H              1 S1                 0.0000
     20 ****         1.3857   0.9376   1.6854 H              1 S1                 0.0000
     21 ****         1.8420  -1.9778   0.9493 H              1 S1                 0.0000
     22 ****        -5.6980  -0.5103  -1.0087 H              1 S1                 0.0000
     23 ****        -5.3952   0.5585   0.2551 H              1 S1                 0.0000
     24 ****        -0.8632   0.7697   1.0172 H              1 S1                 0.0000
     25 ****         1.6867   2.6858  -0.3450 H              1 S1                 0.0000
     26 ****         3.2471   2.4388   0.4217 H              1 S1                 0.0000
     27 ****         2.7401   2.0739  -2.3193 H              1 S1                 0.0000
     28 ****         3.6695  -0.7412   1.4526 H              1 S1                 0.0000
     29 ****        -0.1613  -2.1540   1.9121 H              1 S1                 0.0000
     30 ****        -3.1963   0.9911   0.9590 H              1 S1                 0.0000
     31 ****         0.4777   0.9990  -0.8948 LP             1 S1                 0.0000
     32 ****         1.3707   0.1039  -1.9282 LP             1 S1                 0.0000
     33 ****         4.1444   1.8265  -1.6145 LP             1 S1                 0.0000
     34 ****         3.4910   3.3216  -1.6797 LP             1 S1                 0.0000
     35 ****         2.9352  -0.4249   2.8272 LP             1 S1                 0.0000
     36 ****         3.7026   0.7529   1.9962 LP             1 S1                 0.0000
     37 ****        -0.5012  -0.5999   1.9165 LP             1 S1                 0.0000
     38 ****         0.6514  -1.2085   2.9002 LP             1 S1                 0.0000
     39 ****        -0.1898  -2.3016  -2.2310 LP             1 S1                 0.0000
     40 ****        -1.7481  -2.6071  -2.9226 LP             1 S1                 0.0000
     41 ****        -3.6539  -1.6460  -2.0265 LP             1 S1                 0.0000
@<TRIPOS>BOND
    1    1    2 1     
    2    1   22 1     
    3    1   23 1     
    4    2   17 2     
    5    2    3 1     
    6    3    4 2     
    7    3   30 1     
    8    4    5 1     
    9    4   24 1     
   10    5    6 1     
   11    5   15 am    
   12    6   18 1     
   13    6   13 1     
   14    6    7 1     
   15    7    8 1     
   16    8   19 1     
   17    8    9 1     
   18    8   11 1     
   19    9   10 1     
   20    9   25 1     
   21    9   26 1     
   22   10   27 1     
   23   11   20 1     
   24   11   12 1     
   25   11   13 1     
   26   12   28 1     
   27   13   21 1     
   28   13   14 1     
   29   14   29 1     
   30   15   16 2     
   31   15   17 1     
   32    7   31 1     
   33    7   32 1     
   34   10   33 1     
   35   10   34 1     
   36   12   35 1     
   37   12   36 1     
   38   14   37 1     
   39   14   38 1     
   40   16   39 1     
   41   16   40 1     
   42   17   41 1     
@<TRIPOS>SUBSTRUCTURE
      1 S1             1
@<TRIPOS>SET
LONE_PAIRS      STATIC     ATOMS    <user>   **** ""
11 31 32 33 34 35 36 37 38 39 40 41
DONOR_HYDROGENS      STATIC     ATOMS    <user>   **** ""
6 22 23 30 27 28 29
ATOM$BLUE        STATIC     ATOMS    COLORGROUP SYSTEM
11 31 32 33 34 35 36 37 38 39 40 41
ATOM$RED        STATIC     ATOMS    COLORGROUP SYSTEM
6 22 23 30 27 28 29
