#       Name:                AV-unprocessed.smi:158
#       Creating user name   scv26
#       Creation time:       Thu Mar 26 19:03:00 2020


#       File generated by GOLD software.
#

@<TRIPOS>MOLECULE
AV-unprocessed.smi:158
    40    42     1
SMALL
NO_CHARGES


@<TRIPOS>ATOM
      1 ****        -5.1120  -0.1889  -1.4127 N.pl3          1 S1                 0.0000
      2 ****        -3.9008   0.1577  -0.9547 C.ar           1 S1                 0.0000
      3 ****        -3.7696   1.3431  -0.3152 N.ar           1 S1                 0.0000
      4 ****        -2.5775   1.7282   0.1569 C.ar           1 S1                 0.0000
      5 ****        -2.5253   3.2563   0.9539 Cl             1 S1                 0.0000
      6 ****        -1.4210   1.0618   0.0791 N.ar           1 S1                 0.0000
      7 ****        -1.5486  -0.1346  -0.5655 C.ar           1 S1                 0.0000
      8 ****        -2.7526  -0.6572  -1.1090 C.ar           1 S1                 0.0000
      9 ****        -2.5126  -1.8957  -1.6888 N.2            1 S1                 0.0000
     10 ****        -1.2351  -2.0901  -1.4957 C.2            1 S1                 0.0000
     11 ****        -0.5772  -1.0803  -0.8285 N.pl3          1 S1                 0.0000
     12 ****         0.8735  -1.0192  -0.4684 C.3            1 S1                 0.0000
     13 ****         1.3340   0.2921  -0.6170 O.3            1 S1                 0.0000
     14 ****         2.0470   0.7006   0.5518 C.3            1 S1                 0.0000
     15 ****         3.2659   1.5379   0.1354 C.3            1 S1                 0.0000
     16 ****         3.9005   2.0900   1.2694 O.3            1 S1                 0.0000
     17 ****         2.3806  -0.6153   1.2653 C.3            1 S1                 0.0000
     18 ****         2.6125  -0.4736   2.6528 O.3            1 S1                 0.0000
     19 ****         1.1376  -1.4355   0.9822 C.3            1 S1                 0.0000
     20 ****         0.1200  -1.0541   1.7606 F              1 S1                 0.0000
     21 ****         1.3750  -1.6618  -1.1932 H              1 S1                 0.0000
     22 ****         1.3631   1.2973   1.1584 H              1 S1                 0.0000
     23 ****         3.2470  -1.0882   0.8006 H              1 S1                 0.0000
     24 ****         1.2705  -2.5134   1.0781 H              1 S1                 0.0000
     25 ****        -5.2350  -1.0683  -1.8937 H              1 S1                 0.0000
     26 ****        -5.8984   0.4298  -1.2774 H              1 S1                 0.0000
     27 ****        -0.7334  -2.9836  -1.8379 H              1 S1                 0.0000
     28 ****         3.9802   0.9377  -0.4292 H              1 S1                 0.0000
     29 ****         2.9509   2.3569  -0.5117 H              1 S1                 0.0000
     30 ****         4.6153   2.6353   0.9778 H              1 S1                 0.0000
     31 ****         3.3265   0.1339   2.7754 H              1 S1                 0.0000
     32 ****        -4.5671   1.9344  -0.1947 LP             1 S1                 0.0000
     33 ****        -0.5579   1.4023   0.4520 LP             1 S1                 0.0000
     34 ****        -3.1655  -2.4985  -2.1474 LP             1 S1                 0.0000
     35 ****         0.5541   0.9020  -0.7581 LP             1 S1                 0.0000
     36 ****         1.9426   0.3407  -1.4089 LP             1 S1                 0.0000
     37 ****         4.2517   1.3557   1.8502 LP             1 S1                 0.0000
     38 ****         3.2459   2.6406   1.7875 LP             1 S1                 0.0000
     39 ****         2.8521  -1.3606   3.0475 LP             1 S1                 0.0000
     40 ****         1.7894  -0.1218   3.0987 LP             1 S1                 0.0000
@<TRIPOS>BOND
    1    1    2 1     
    2    1   25 1     
    3    1   26 1     
    4    2    8 ar    
    5    2    3 ar    
    6    3    4 ar    
    7    4    5 1     
    8    4    6 ar    
    9    6    7 ar    
   10    7   11 1     
   11    7    8 ar    
   12    8    9 1     
   13    9   10 2     
   14   10   11 1     
   15   10   27 1     
   16   11   12 1     
   17   12   21 1     
   18   12   19 1     
   19   12   13 1     
   20   13   14 1     
   21   14   22 1     
   22   14   15 1     
   23   14   17 1     
   24   15   16 1     
   25   15   28 1     
   26   15   29 1     
   27   16   30 1     
   28   17   23 1     
   29   17   18 1     
   30   17   19 1     
   31   18   31 1     
   32   19   24 1     
   33   19   20 1     
   34    3   32 1     
   35    6   33 1     
   36    9   34 1     
   37   13   35 1     
   38   13   36 1     
   39   16   37 1     
   40   16   38 1     
   41   18   39 1     
   42   18   40 1     
@<TRIPOS>SUBSTRUCTURE
      1 S1             1
@<TRIPOS>SET
LONE_PAIRS      STATIC     ATOMS    <user>   **** ""
9 32 33 34 35 36 37 38 39 40
DONOR_HYDROGENS      STATIC     ATOMS    <user>   **** ""
4 25 26 30 31
ATOM$BLUE        STATIC     ATOMS    COLORGROUP SYSTEM
9 32 33 34 35 36 37 38 39 40
ATOM$RED        STATIC     ATOMS    COLORGROUP SYSTEM
4 25 26 30 31
