#       Name:                AV-unprocessed.smi:3279
#       Creating user name   scv26
#       Creation time:       Fri Mar 27 18:46:47 2020


#       File generated by GOLD software.
#

@<TRIPOS>MOLECULE
AV-unprocessed.smi:3279
    43    43     1
SMALL
NO_CHARGES


@<TRIPOS>ATOM
      1 ****        -2.4869   2.2071  -1.2793 C.3            1 S1                 0.0000
      2 ****        -2.8402   1.3201  -0.0723 C.3            1 S1                 0.0000
      3 ****        -2.2222  -0.0933  -0.1381 C.3            1 S1                 0.0000
      4 ****        -0.7622  -0.0711  -0.1247 N.am           1 S1                 0.0000
      5 ****         0.0320  -0.2008  -1.1990 C.2            1 S1                 0.0000
      6 ****        -0.3911  -0.3285  -2.3476 O.2            1 S1                 0.0000
      7 ****         1.5350  -0.1650  -0.9360 C.3            1 S1                 0.0000
      8 ****         1.8553  -1.2081  -0.0201 O.3            1 S1                 0.0000
      9 ****         3.2050  -1.3117   0.4406 C.3            1 S1                 0.0000
     10 ****         3.5678  -0.1010   1.3227 C.3            1 S1                 0.0000
     11 ****         4.1947  -1.4641  -0.7322 C.3            1 S1                 0.0000
     12 ****         3.2193  -2.5906   1.2931 C.3            1 S1                 0.0000
     13 ****        -4.3240   1.2464   0.1188 C.2            1 S1                 0.0000
     14 ****        -5.2027   0.7143  -0.7228 N.2            1 S1                 0.0000
     15 ****        -6.4204   0.8999  -0.0888 N.2            1 S1                 0.0000
     16 ****        -6.2731   1.5052   1.0558 N.2            1 S1                 0.0000
     17 ****        -4.9473   1.7294   1.1961 N.pl3          1 S1                 0.0000
     18 ****        -4.5420   2.1899   1.9982 H              1 S1                 0.0000
     19 ****        -2.9389   3.1948  -1.1824 H              1 S1                 0.0000
     20 ****        -2.8452   1.7679  -2.2108 H              1 S1                 0.0000
     21 ****        -1.4113   2.3534  -1.3723 H              1 S1                 0.0000
     22 ****        -2.4312   1.8104   0.8126 H              1 S1                 0.0000
     23 ****        -2.5389  -0.6671   0.7336 H              1 S1                 0.0000
     24 ****        -2.5978  -0.6356  -1.0077 H              1 S1                 0.0000
     25 ****        -0.3169   0.0281   0.7763 H              1 S1                 0.0000
     26 ****         2.0639  -0.2941  -1.8804 H              1 S1                 0.0000
     27 ****         1.7905   0.8165  -0.5379 H              1 S1                 0.0000
     28 ****         4.5396  -0.2413   1.7975 H              1 S1                 0.0000
     29 ****         2.8327   0.0441   2.1148 H              1 S1                 0.0000
     30 ****         3.6268   0.8236   0.7491 H              1 S1                 0.0000
     31 ****         4.2666  -0.5544  -1.3284 H              1 S1                 0.0000
     32 ****         3.8982  -2.2769  -1.3960 H              1 S1                 0.0000
     33 ****         5.1991  -1.6853  -0.3697 H              1 S1                 0.0000
     34 ****         4.2072  -2.7774   1.7154 H              1 S1                 0.0000
     35 ****         2.9446  -3.4632   0.6993 H              1 S1                 0.0000
     36 ****         2.5133  -2.5223   2.1217 H              1 S1                 0.0000
     37 ****        -1.3762  -0.3396  -2.5192 LP             1 S1                 0.0000
     38 ****         0.2502  -0.4211  -3.1092 LP             1 S1                 0.0000
     39 ****         1.6265  -2.0740  -0.4650 LP             1 S1                 0.0000
     40 ****         1.2758  -1.0838   0.7853 LP             1 S1                 0.0000
     41 ****        -5.0267   0.2813  -1.6068 LP             1 S1                 0.0000
     42 ****        -7.3005   0.6067  -0.4620 LP             1 S1                 0.0000
     43 ****        -6.9956   1.7539   1.7009 LP             1 S1                 0.0000
@<TRIPOS>BOND
    1    1    2 1     
    2    1   19 1     
    3    1   20 1     
    4    1   21 1     
    5    2    3 1     
    6    2   13 1     
    7    2   22 1     
    8    3    4 1     
    9    3   23 1     
   10    3   24 1     
   11    4    5 am    
   12    4   25 1     
   13    5    6 2     
   14    5    7 1     
   15    7    8 1     
   16    7   26 1     
   17    7   27 1     
   18    8    9 1     
   19    9   10 1     
   20    9   11 1     
   21    9   12 1     
   22   10   28 1     
   23   10   29 1     
   24   10   30 1     
   25   11   31 1     
   26   11   32 1     
   27   11   33 1     
   28   12   34 1     
   29   12   35 1     
   30   12   36 1     
   31   13   17 1     
   32   13   14 2     
   33   14   15 1     
   34   15   16 2     
   35   16   17 1     
   36   17   18 1     
   37    6   37 1     
   38    6   38 1     
   39    8   39 1     
   40    8   40 1     
   41   14   41 1     
   42   15   42 1     
   43   16   43 1     
@<TRIPOS>SUBSTRUCTURE
      1 S1             1
@<TRIPOS>SET
LONE_PAIRS      STATIC     ATOMS    <user>   **** ""
7 37 38 39 40 41 42 43
DONOR_HYDROGENS      STATIC     ATOMS    <user>   **** ""
2 25 18
ATOM$BLUE        STATIC     ATOMS    COLORGROUP SYSTEM
7 37 38 39 40 41 42 43
ATOM$RED        STATIC     ATOMS    COLORGROUP SYSTEM
2 25 18
