#       Name:                AV-unprocessed.smi:1819
#       Creating user name   scv26
#       Creation time:       Fri Mar 27 09:05:04 2020


#       File generated by GOLD software.
#

@<TRIPOS>MOLECULE
AV-unprocessed.smi:1819
    35    35     1
SMALL
NO_CHARGES


@<TRIPOS>ATOM
      1 ****         0.3754   1.1358   1.1559 O.2            1 S1                 0.0000
      2 ****        -0.0732   0.1391   0.5877 C.2            1 S1                 0.0000
      3 ****        -1.5879  -0.0700   0.4465 C.3            1 S1                 0.0000
      4 ****        -2.3463   1.1889   0.4825 N.am           1 S1                 0.0000
      5 ****        -2.9534   1.6083   1.6579 C.2            1 S1                 0.0000
      6 ****        -3.6568   2.7605   1.7639 C.2            1 S1                 0.0000
      7 ****        -3.8124   3.6399   0.6102 C.2            1 S1                 0.0000
      8 ****        -4.4316   4.7015   0.6058 O.2            1 S1                 0.0000
      9 ****        -3.1852   3.1849  -0.5527 N.am           1 S1                 0.0000
     10 ****        -2.4571   1.9996  -0.6683 C.2            1 S1                 0.0000
     11 ****        -1.9394   1.6941  -1.7420 O.2            1 S1                 0.0000
     12 ****         0.7067  -0.8264   0.0813 N.am           1 S1                 0.0000
     13 ****         2.1621  -0.8124   0.1204 C.3            1 S1                 0.0000
     14 ****         2.7333  -2.0343  -0.6070 C.3            1 S1                 0.0000
     15 ****         4.5466  -2.0389  -0.5710 S.3            1 S1                 0.0000
     16 ****         4.8841  -3.5625  -1.4941 C.3            1 S1                 0.0000
     17 ****         6.1992  -3.7560  -1.5783 F              1 S1                 0.0000
     18 ****         4.3375  -4.6079  -0.8750 F              1 S1                 0.0000
     19 ****         4.3857  -3.4755  -2.7265 F              1 S1                 0.0000
     20 ****        -3.2633   3.7625  -1.3772 H              1 S1                 0.0000
     21 ****        -1.8041  -0.6115  -0.4769 H              1 S1                 0.0000
     22 ****        -1.9142  -0.7315   1.2505 H              1 S1                 0.0000
     23 ****        -2.8606   0.9903   2.5397 H              1 S1                 0.0000
     24 ****        -4.1059   3.0336   2.7079 H              1 S1                 0.0000
     25 ****         0.2636  -1.6165  -0.3651 H              1 S1                 0.0000
     26 ****         2.5294   0.1041  -0.3444 H              1 S1                 0.0000
     27 ****         2.4953  -0.8047   1.1594 H              1 S1                 0.0000
     28 ****         2.3703  -2.9525  -0.1443 H              1 S1                 0.0000
     29 ****         2.4024  -2.0428  -1.6459 H              1 S1                 0.0000
     30 ****        -0.2490   1.8205   1.5318 LP             1 S1                 0.0000
     31 ****         1.3639   1.2602   1.2412 LP             1 S1                 0.0000
     32 ****        -4.8788   5.0230   1.4404 LP             1 S1                 0.0000
     33 ****        -4.4882   5.2439  -0.2325 LP             1 S1                 0.0000
     34 ****        -1.4175   0.8448  -1.8218 LP             1 S1                 0.0000
     35 ****        -2.0406   2.2951  -2.5348 LP             1 S1                 0.0000
@<TRIPOS>BOND
    1    1    2 2     
    2    2    3 1     
    3    2   12 am    
    4    3    4 1     
    5    3   21 1     
    6    3   22 1     
    7    4   10 1     
    8    4    5 1     
    9    5    6 2     
   10    5   23 1     
   11    6    7 1     
   12    6   24 1     
   13    7    8 2     
   14    7    9 1     
   15    9   20 1     
   16    9   10 1     
   17   10   11 2     
   18   12   13 1     
   19   12   25 1     
   20   13   14 1     
   21   13   26 1     
   22   13   27 1     
   23   14   15 1     
   24   14   28 1     
   25   14   29 1     
   26   15   16 1     
   27   16   17 1     
   28   16   18 1     
   29   16   19 1     
   30    1   30 1     
   31    1   31 1     
   32    8   32 1     
   33    8   33 1     
   34   11   34 1     
   35   11   35 1     
@<TRIPOS>SUBSTRUCTURE
      1 S1             1
@<TRIPOS>SET
LONE_PAIRS      STATIC     ATOMS    <user>   **** ""
6 30 31 32 33 34 35
DONOR_HYDROGENS      STATIC     ATOMS    <user>   **** ""
2 20 25
ATOM$BLUE        STATIC     ATOMS    COLORGROUP SYSTEM
6 30 31 32 33 34 35
ATOM$RED        STATIC     ATOMS    COLORGROUP SYSTEM
2 20 25
