AV-unprocessed.smi:460|AV-procd|sdf|2627|dock1
  -GOLD-   2262023 33D 1   1.00000     0.00000
 Structure written by MMmdl.
 46 48  0  0  0  0  0  0  0  0  1 V2000
  151.9450  137.7987  157.8123 C   0  0  0  0  0  0  0  0  0  0  0  0
  152.7552  137.9072  156.5108 C   0  0  0  0  0  0  0  0  0  0  0  0
  152.7324  139.2986  155.8418 C   0  0  1  0  0  0  0  0  0  0  0  0
  153.7653  139.3516  154.8765 O   0  0  0  0  0  0  0  0  0  0  0  0
  151.3880  139.6683  155.2701 C   0  0  0  0  0  0  0  0  0  0  0  0
  150.6826  138.8339  154.5015 N   0  0  0  0  0  0  0  0  0  0  0  0
  149.5447  139.5621  154.2185 C   0  0  0  0  0  0  0  0  0  0  0  0
  148.4151  139.2337  153.4353 C   0  0  0  0  0  0  0  0  0  0  0  0
  147.3600  140.1569  153.2818 C   0  0  0  0  0  0  0  0  0  0  0  0
  147.4179  141.4174  153.9106 C   0  0  0  0  0  0  0  0  0  0  0  0
  148.5324  141.7618  154.6989 C   0  0  0  0  0  0  0  0  0  0  0  0
  149.5851  140.8385  154.8455 C   0  0  0  0  0  0  0  0  0  0  0  0
  150.8011  140.8668  155.5231 N   0  0  0  0  0  0  0  0  0  0  0  0
  151.3114  141.9782  156.3159 C   0  0  0  0  0  0  0  0  0  0  0  0
  151.0183  141.7974  157.8127 C   0  0  0  0  0  0  0  0  0  0  0  0
  152.2374  141.4984  158.4773 O   0  0  0  0  0  0  0  0  0  0  0  0
  152.4789  142.0523  159.7151 C   0  0  0  0  0  0  0  0  0  0  0  0
  151.7887  143.1824  160.2195 C   0  0  0  0  0  0  0  0  0  0  0  0
  152.0955  143.6929  161.4941 C   0  0  0  0  0  0  0  0  0  0  0  0
  153.0912  143.0811  162.2751 C   0  0  0  0  0  0  0  0  0  0  0  0
  153.7809  141.9580  161.7829 C   0  0  0  0  0  0  0  0  0  0  0  0
  153.4803  141.4357  160.4995 C   0  0  0  0  0  0  0  0  0  0  0  0
  154.1113  140.3376  159.9514 O   0  0  0  0  0  0  0  0  0  0  0  0
  155.1100  139.6815  160.7171 C   0  0  0  0  0  0  0  0  0  0  0  0
  151.9725  136.7796  158.1985 H   0  0  0  0  0  0  0  0  0  0  0  0
  150.8994  138.0630  157.6527 H   0  0  0  0  0  0  0  0  0  0  0  0
  152.3431  138.4524  158.5885 H   0  0  0  0  0  0  0  0  0  0  0  0
  153.7871  137.6320  156.7292 H   0  0  0  0  0  0  0  0  0  0  0  0
  152.3940  137.1612  155.8018 H   0  0  0  0  0  0  0  0  0  0  0  0
  153.0049  140.0445  156.5881 H   0  0  0  0  0  0  0  0  0  0  0  0
  153.5789  138.7137  154.2048 H   0  0  0  0  0  0  0  0  0  0  0  0
  148.3623  138.2711  152.9486 H   0  0  0  0  0  0  0  0  0  0  0  0
  146.5029  139.8974  152.6779 H   0  0  0  0  0  0  0  0  0  0  0  0
  146.6080  142.1211  153.7859 H   0  0  0  0  0  0  0  0  0  0  0  0
  148.5823  142.7290  155.1764 H   0  0  0  0  0  0  0  0  0  0  0  0
  152.3877  142.0485  156.1558 H   0  0  0  0  0  0  0  0  0  0  0  0
  150.8920  142.9156  155.9534 H   0  0  0  0  0  0  0  0  0  0  0  0
  150.5817  142.7122  158.2151 H   0  0  0  0  0  0  0  0  0  0  0  0
  150.3007  140.9877  157.9535 H   0  0  0  0  0  0  0  0  0  0  0  0
  151.0210  143.6776  159.6446 H   0  0  0  0  0  0  0  0  0  0  0  0
  151.5668  144.5554  161.8718 H   0  0  0  0  0  0  0  0  0  0  0  0
  153.3274  143.4739  163.2533 H   0  0  0  0  0  0  0  0  0  0  0  0
  154.5393  141.5150  162.4100 H   0  0  0  0  0  0  0  0  0  0  0  0
  155.4878  138.8273  160.1553 H   0  0  0  0  0  0  0  0  0  0  0  0
  154.7076  139.3048  161.6584 H   0  0  0  0  0  0  0  0  0  0  0  0
  155.9539  140.3418  160.9211 H   0  0  0  0  0  0  0  0  0  0  0  0
  1  2  1  0  0  0  0
  1 25  1  0  0  0  0
  1 26  1  0  0  0  0
  1 27  1  0  0  0  0
  2  3  1  0  0  0  0
  2 28  1  0  0  0  0
  2 29  1  0  0  0  0
  3  4  1  0  0  0  0
  3  5  1  0  0  0  0
  3 30  1  0  0  0  0
  4 31  1  0  0  0  0
  5 13  1  0  0  0  0
  5  6  2  0  0  0  0
  6  7  1  0  0  0  0
  7 12  2  0  0  0  0
  7  8  1  0  0  0  0
  8  9  2  0  0  0  0
  8 32  1  0  0  0  0
  9 10  1  0  0  0  0
  9 33  1  0  0  0  0
 10 11  2  0  0  0  0
 10 34  1  0  0  0  0
 11 12  1  0  0  0  0
 11 35  1  0  0  0  0
 12 13  1  0  0  0  0
 13 14  1  0  0  0  0
 14 15  1  0  0  0  0
 14 36  1  0  0  0  0
 14 37  1  0  0  0  0
 15 16  1  0  0  0  0
 15 38  1  0  0  0  0
 15 39  1  0  0  0  0
 16 17  1  0  0  0  0
 17 22  1  0  0  0  0
 17 18  2  0  0  0  0
 18 19  1  0  0  0  0
 18 40  1  0  0  0  0
 19 20  2  0  0  0  0
 19 41  1  0  0  0  0
 20 21  1  0  0  0  0
 20 42  1  0  0  0  0
 21 22  2  0  0  0  0
 21 43  1  0  0  0  0
 22 23  1  0  0  0  0
 23 24  1  0  0  0  0
 24 44  1  0  0  0  0
 24 45  1  0  0  0  0
 24 46  1  0  0  0  0
M  END
> <s_m_source_file>
AV-unprocessed.smi

> <i_m_source_file_index>
460

> <i_lp_mmshare_version>
43012

> <i_f3d_flags>
0

> <s_epik_input>
W2NIXTFbY0hdW2NIXVtjSF1jKGMxMiluKGMobjIpW0NAQEhdKFtPSF0pW0NIMl1bQ0gzXSlbQ0gyXVtDSDJdT2MzW2NIXVtjSF1bY0hdW2NIXWMzT1tDSDNd

> <s_epik_cmdline>
J2VwaWtfcHl0aG9uJywgJy1waCcsICc3LjAnLCAnLXRuJywgJzgnLCAnLW1hJywgJzIwMCcsICctbWV0YWxfYmluZGluZycsICctaW1hZScsICc8aW5maWxlLm1hZT4nLCAnLW9tYWUnLCAnPG91dGZpbGUubWFlPic=

> <r_lp_tautomer_probability>
1

> <r_epik_Ionization_Penalty>
0.0507825

> <r_epik_Ionization_Penalty_Charging>
0

> <r_epik_Ionization_Penalty_Neutral>
0.0507825

> <r_epik_State_Penalty>
0.0434615

> <r_epik_Charging_Adjusted_Penalty>
0.0434615

> <i_epik_Tot_Q>
0

> <i_epik_Tot_abs_Q>
0

> <r_epik_Metal_State_Penalty>
4.50935e-05

> <b_epik_Metal_Only>
0

> <s_lp_Force_Field>
OPLS_2005

> <r_lp_Energy>
20.6013

> <b_lp_Chiralities_Consistent>
1

> <s_lp_Variant>
AV-unprocessed.smi:460-2

> <Gold.Version>
5.8.1

> <Gold.Id.Protein>
6NUR|6NUR_protein|mol2

> <Gold.PLP.Fitness>
51.2109

> <Gold.PLP.PLP>
-51.5908

> <Gold.PLP.part.hbond>
-1.0000

> <Gold.PLP.part.metal>
0.0000

> <Gold.PLP.part.buried>
-4.4413

> <Gold.PLP.part.nonpolar>
-44.9891

> <Gold.PLP.part.repulsive>
0.1456

> <Gold.PLP.ligand.clash>
0.0000

> <Gold.PLP.ligand.torsion>
1.5979

> <Gold.PLP.Chemscore.Hbond>
0.8816

> <Gold.PLP.Chemscore.CHOScore>
0.0000

> <Gold.PLP.Chemscore.Metal>
0.0000

> <Gold.Chemscore.Hbonds>
donor molecule, donor type, donor heavy atom, donor atom, acceptor molecule, acceptor atom, score
      P1  H  7997  8010       L1     4  0.44

> <Gold.PLP.Chemscore.Internal.Correction>
0.1711

> <Gold.Rescore>
     Score         DG    S(hbond)    S(metal)    S(lipo)     H(rot)  DE(clash)    DE(int)     intcor
     15.83     -17.38       0.38        0.00     142.44       2.36       0.17       1.37       ----

> <Gold.Chemscore.Fitness>
15.8347

> <Gold.Chemscore.DG>
-17.3760

> <Gold.Chemscore.ZeroCoef>
-5.4800

> <Gold.Chemscore.Hbond>
0.3801

> <Gold.Chemscore.Metal>
0.0000

> <Gold.Chemscore.Lipo>
142.4361

> <Gold.Chemscore.Internal_Hbond>
0.0000

> <Gold.Chemscore.DEClash>
0.1693

> <Gold.Chemscore.DEInternal>
1.3721

> <Gold.Chemscore.Rot>
2.3587

> <Gold.Chemscore.Internal.Correction>
   9.000000E+99

> <Gold.Chemscore.Hbonds>
donor molecule, donor type, donor heavy atom, donor atom, acceptor molecule, acceptor atom, score
      P1  H  7997  8010       L1     4  0.02

> <Gold.Chemscore.Hbond.Weighted>
-1.2694

> <Gold.Chemscore.Metal.Weighted>
-0.0000

> <Gold.Chemscore.Lipo.Weighted>
-16.6650

> <Gold.Chemscore.Internal_Hbond.Weighted>
0.0000

> <Gold.Chemscore.DEClash.Weighted>
0.1693

> <Gold.Chemscore.DEInternal.Weighted>
1.3721

> <Gold.Chemscore.Rot.Weighted>
6.0384

> <Gold.Chemscore.Internal.Correction.Weighted>
   9.000000E+99

> <Gold.Protein.RotatedTorsions>
[ 6907 6896 6895 6894 ] final  161.15 input  -60.11 | X-H torsion
[ 7974 7965 7964 7962 ] final  130.63 input  175.53 | X-H torsion
[ 8008 7997 7996 7995 ] final  114.44 input   59.86 | X-H torsion
[ 10167 10162 10161 10158 ] final  -90.00 input  -65.29 | X-H torsion
[ 10718 10713 10712 10709 ] final   74.36 input   66.30 | X-H torsion
[ 10763 10752 10751 10750 ] final -163.86 input  -60.55 | X-H torsion
[ 11005 11000 10999 10996 ] final  -46.20 input  -57.11 | X-H torsion

> <Gold.Protein.ActiveResidues>
 VAL166  LYS551  ARG553  GLY616  TRP617  ASP618  TYR619  PRO620  LYS621  CYS622 
 ASP623  PHE694  ASN695  SER759  ASP760  ASP761  ALA762  ILE779  LEU786  VAL792 
 PHE793  MET794  SER795  GLU796  ALA797  LYS798  CYS799  TRP800  GLU811  SER814 

> <Gold.Protein.RotatedAtoms>
  151.9599  133.3692  159.4031 H   0  0  0  0  0  0  0  0  0  0  0  0  # atno 6907 bound_to 6896
  150.6966  134.4251  159.5232 H   0  0  0  0  0  0  0  0  0  0  0  0  # atno 6908 bound_to 6896
  152.1938  134.8648  160.0565 H   0  0  0  0  0  0  0  0  0  0  0  0  # atno 6909 bound_to 6896
  145.0158  139.4177  143.5222 H   0  0  0  0  0  0  0  0  0  0  0  0  # atno 7974 bound_to 7965
  156.2321  140.2959  156.0215 H   0  0  0  0  0  0  0  0  0  0  0  0  # atno 8008 bound_to 7997
  155.2196  140.0415  157.2963 H   0  0  0  0  0  0  0  0  0  0  0  0  # atno 8009 bound_to 7997
  154.6013  140.2428  155.7796 H   0  0  0  0  0  0  0  0  0  0  0  0  # atno 8010 bound_to 7997
  140.3592  143.2851  151.9635 H   0  0  0  0  0  0  0  0  0  0  0  0  # atno 10167 bound_to 10162
  157.6589  130.9674  150.1200 H   0  0  0  0  0  0  0  0  0  0  0  0  # atno 10718 bound_to 10713
  154.7083  135.3001  154.9237 H   0  0  0  0  0  0  0  0  0  0  0  0  # atno 10763 bound_to 10752
  154.0147  135.6690  153.4772 H   0  0  0  0  0  0  0  0  0  0  0  0  # atno 10764 bound_to 10752
  153.0734  135.5048  154.8266 H   0  0  0  0  0  0  0  0  0  0  0  0  # atno 10765 bound_to 10752
  141.0564  133.6724  156.3121 H   0  0  0  0  0  0  0  0  0  0  0  0  # atno 11005 bound_to 11000
  146.3477  139.9628  142.8715 LP  0  0  0  0  0  0  0  0  0  0  0  0  # atno 17320 bound_to 7965
  145.1961  140.9833  143.4183 LP  0  0  0  0  0  0  0  0  0  0  0  0  # atno 17321 bound_to 7965
  139.4816  144.6008  151.7609 LP  0  0  0  0  0  0  0  0  0  0  0  0  # atno 17342 bound_to 10162
  140.5144  144.0976  150.6004 LP  0  0  0  0  0  0  0  0  0  0  0  0  # atno 17343 bound_to 10162
  156.2074  130.3664  149.8713 LP  0  0  0  0  0  0  0  0  0  0  0  0  # atno 17370 bound_to 10713
  156.6600  130.8778  151.3546 LP  0  0  0  0  0  0  0  0  0  0  0  0  # atno 17371 bound_to 10713
  140.5956  134.5607  157.5508 LP  0  0  0  0  0  0  0  0  0  0  0  0  # atno 17394 bound_to 11000
  139.9394  134.7815  156.0718 LP  0  0  0  0  0  0  0  0  0  0  0  0  # atno 17395 bound_to 11000

$$$$
