AV-unprocessed.smi:2069|AV-procd|sdf|8432|dock10
  -GOLD-   2272011133D 1   1.00000     0.00000
 Structure written by MMmdl.
 38 39  0  0  0  0  0  0  0  0  1 V2000
  138.1130  136.8559  153.7130 C   0  0  0  0  0  0  0  0  0  0  0  0
  139.5919  137.0015  153.8308 C   0  0  0  0  0  0  0  0  0  0  0  0
  140.3557  136.1287  154.4993 N   0  0  0  0  0  0  0  0  0  0  0  0
  141.6996  136.4740  154.4685 N   0  0  0  0  0  0  0  0  0  0  0  0
  141.9106  137.6003  153.7736 C   0  0  0  0  0  0  0  0  0  0  0  0
  143.1922  138.1812  153.5814 N   0  0  0  0  0  0  0  0  0  0  0  0
  144.3797  137.7533  154.0452 C   0  0  0  0  0  0  0  0  0  0  0  0
  144.5526  136.7522  154.7407 O   0  0  0  0  0  0  0  0  0  0  0  0
  145.3719  138.5678  153.6557 N   0  0  0  0  0  0  0  0  0  0  0  0
  146.7878  138.4003  153.9772 C   0  0  0  0  0  0  0  0  0  0  0  0
  147.5204  139.7506  154.2193 C   0  0  1  0  0  0  0  0  0  0  0  0
  146.5988  140.6856  155.0430 C   0  0  0  0  0  0  0  0  0  0  0  0
  148.8599  139.5844  154.8318 N   0  0  0  0  0  0  0  0  0  0  0  0
  149.7825  138.8183  153.9852 C   0  0  0  0  0  0  0  0  0  0  0  0
  151.1820  138.6696  154.6073 C   0  0  0  0  0  0  0  0  0  0  0  0
  151.7240  139.9536  154.8821 O   0  0  0  0  0  0  0  0  0  0  0  0
  150.8998  140.6998  155.7664 C   0  0  0  0  0  0  0  0  0  0  0  0
  149.4993  140.8664  155.1518 C   0  0  0  0  0  0  0  0  0  0  0  0
  140.4690  138.3368  153.0939 S   0  0  0  0  0  0  0  0  0  0  0  0
  137.7374  136.1428  154.4475 H   0  0  0  0  0  0  0  0  0  0  0  0
  137.8523  136.5017  152.7157 H   0  0  0  0  0  0  0  0  0  0  0  0
  137.6277  137.8172  153.8821 H   0  0  0  0  0  0  0  0  0  0  0  0
  143.2060  139.0224  153.0241 H   0  0  0  0  0  0  0  0  0  0  0  0
  145.1317  139.3679  153.0892 H   0  0  0  0  0  0  0  0  0  0  0  0
  146.9298  137.7413  154.8355 H   0  0  0  0  0  0  0  0  0  0  0  0
  147.2005  137.8755  153.1179 H   0  0  0  0  0  0  0  0  0  0  0  0
  147.6546  140.2189  153.2429 H   0  0  0  0  0  0  0  0  0  0  0  0
  145.6045  140.7785  154.6085 H   0  0  0  0  0  0  0  0  0  0  0  0
  146.9782  141.7051  155.0916 H   0  0  0  0  0  0  0  0  0  0  0  0
  146.4779  140.3199  156.0632 H   0  0  0  0  0  0  0  0  0  0  0  0
  149.4062  137.8113  153.8169 H   0  0  0  0  0  0  0  0  0  0  0  0
  149.8692  139.2939  153.0071 H   0  0  0  0  0  0  0  0  0  0  0  0
  151.1358  138.0811  155.5249 H   0  0  0  0  0  0  0  0  0  0  0  0
  151.8465  138.1425  153.9224 H   0  0  0  0  0  0  0  0  0  0  0  0
  150.8406  140.1979  156.7333 H   0  0  0  0  0  0  0  0  0  0  0  0
  151.3552  141.6749  155.9399 H   0  0  0  0  0  0  0  0  0  0  0  0
  149.5702  141.4800  154.2524 H   0  0  0  0  0  0  0  0  0  0  0  0
  148.9028  141.4249  155.8706 H   0  0  0  0  0  0  0  0  0  0  0  0
  1  2  1  0  0  0  0
  1 20  1  0  0  0  0
  1 21  1  0  0  0  0
  1 22  1  0  0  0  0
  2 19  1  0  0  0  0
  2  3  2  0  0  0  0
  3  4  1  0  0  0  0
  4  5  2  0  0  0  0
  5  6  1  0  0  0  0
  5 19  1  0  0  0  0
  6  7  1  0  0  0  0
  6 23  1  0  0  0  0
  7  8  2  0  0  0  0
  7  9  1  0  0  0  0
  9 10  1  0  0  0  0
  9 24  1  0  0  0  0
 10 11  1  0  0  0  0
 10 25  1  0  0  0  0
 10 26  1  0  0  0  0
 11 12  1  0  0  0  0
 11 13  1  0  0  0  0
 11 27  1  0  0  0  0
 12 28  1  0  0  0  0
 12 29  1  0  0  0  0
 12 30  1  0  0  0  0
 13 18  1  0  0  0  0
 13 14  1  0  0  0  0
 14 15  1  0  0  0  0
 14 31  1  0  0  0  0
 14 32  1  0  0  0  0
 15 16  1  0  0  0  0
 15 33  1  0  0  0  0
 15 34  1  0  0  0  0
 16 17  1  0  0  0  0
 17 18  1  0  0  0  0
 17 35  1  0  0  0  0
 17 36  1  0  0  0  0
 18 37  1  0  0  0  0
 18 38  1  0  0  0  0
M  END
> <s_m_source_file>
AV-unprocessed.smi

> <i_m_source_file_index>
2069

> <i_lp_mmshare_version>
43012

> <i_f3d_flags>
0

> <s_epik_input>
W0NIM11jMW5uYyhzMSlbTkhdQyg9TylbTkhdW0NIMl1bQ0BIXShbQ0gzXSlOMltDSDJdW0NIMl1PW0NIMl1bQ0gyXTI=

> <s_epik_cmdline>
J2VwaWtfcHl0aG9uJywgJy1waCcsICc3LjAnLCAnLXRuJywgJzgnLCAnLW1hJywgJzIwMCcsICctbWV0YWxfYmluZGluZycsICctaW1hZScsICc8aW5maWxlLm1hZT4nLCAnLW9tYWUnLCAnPG91dGZpbGUubWFlPic=

> <r_lp_tautomer_probability>
1

> <r_epik_Ionization_Penalty>
0.221104

> <r_epik_Ionization_Penalty_Charging>
0

> <r_epik_Ionization_Penalty_Neutral>
0.221104

> <r_epik_State_Penalty>
0.209349

> <r_epik_Charging_Adjusted_Penalty>
0.209349

> <i_epik_Tot_Q>
0

> <i_epik_Tot_abs_Q>
0

> <r_epik_Metal_State_Penalty>
0.561068

> <b_epik_Metal_Only>
0

> <s_lp_Force_Field>
OPLS_2005

> <r_lp_Energy>
28.2693

> <b_lp_Chiralities_Consistent>
1

> <s_lp_Variant>
AV-unprocessed.smi:2069-2

> <Gold.Version>
5.8.1

> <Gold.Id.Protein>
6NUR|6NUR_protein|mol2

> <Gold.PLP.Fitness>
39.7618

> <Gold.PLP.PLP>
-28.7219

> <Gold.PLP.part.hbond>
-4.0000

> <Gold.PLP.part.metal>
0.0000

> <Gold.PLP.part.buried>
-4.1420

> <Gold.PLP.part.nonpolar>
-21.3866

> <Gold.PLP.part.repulsive>
0.2183

> <Gold.PLP.ligand.clash>
0.0000

> <Gold.PLP.ligand.torsion>
0.3262

> <Gold.PLP.Chemscore.Hbond>
3.8880

> <Gold.PLP.Chemscore.CHOScore>
0.0000

> <Gold.PLP.Chemscore.Metal>
0.0000

> <Gold.Chemscore.Hbonds>
donor molecule, donor type, donor heavy atom, donor atom, acceptor molecule, acceptor atom, score
      L1  H     6    23       P1 10175  1.00
      L1  H     9    24       P1 10175  0.88
      P1  H  7989  7998       L1    16  1.00
      P1  H 11000 11005       L1     3  0.84

> <Gold.PLP.Chemscore.Internal.Correction>
0.0282

> <Gold.Rescore>
     Score         DG    S(hbond)    S(metal)    S(lipo)     H(rot)  DE(clash)    DE(int)     intcor
     17.29     -18.95       3.09        0.00      62.08       1.60       0.04       1.63       ----

> <Gold.Chemscore.Fitness>
17.2859

> <Gold.Chemscore.DG>
-18.9526

> <Gold.Chemscore.ZeroCoef>
-5.4800

> <Gold.Chemscore.Hbond>
3.0867

> <Gold.Chemscore.Metal>
0.0000

> <Gold.Chemscore.Lipo>
62.0795

> <Gold.Chemscore.Internal_Hbond>
0.0000

> <Gold.Chemscore.DEClash>
0.0379

> <Gold.Chemscore.DEInternal>
1.6288

> <Gold.Chemscore.Rot>
1.6016

> <Gold.Chemscore.Internal.Correction>
   9.000000E+99

> <Gold.Chemscore.Hbonds>
donor molecule, donor type, donor heavy atom, donor atom, acceptor molecule, acceptor atom, score
      L1  H     6    23       P1 10175  0.97
      L1  H     9    24       P1 10175  0.86
      P1  H  7989  7998       L1    16  0.23
      P1  H 11000 11005       L1     3  0.62

> <Gold.Chemscore.Hbond.Weighted>
-10.3095

> <Gold.Chemscore.Metal.Weighted>
-0.0000

> <Gold.Chemscore.Lipo.Weighted>
-7.2633

> <Gold.Chemscore.Internal_Hbond.Weighted>
0.0000

> <Gold.Chemscore.DEClash.Weighted>
0.0379

> <Gold.Chemscore.DEInternal.Weighted>
1.6288

> <Gold.Chemscore.Rot.Weighted>
4.1001

> <Gold.Chemscore.Internal.Correction.Weighted>
   9.000000E+99

> <Gold.Protein.RotatedTorsions>
[ 6907 6896 6895 6894 ] final  -70.04 input  -60.11 | X-H torsion
[ 7974 7965 7964 7962 ] final   -2.10 input  175.53 | X-H torsion
[ 8008 7997 7996 7995 ] final   81.60 input   59.86 | X-H torsion
[ 10167 10162 10161 10158 ] final  -39.62 input  -65.29 | X-H torsion
[ 10718 10713 10712 10709 ] final  -78.98 input   66.30 | X-H torsion
[ 10763 10752 10751 10750 ] final -177.48 input  -60.55 | X-H torsion
[ 11005 11000 10999 10996 ] final   69.68 input  -57.11 | X-H torsion

> <Gold.Protein.ActiveResidues>
 VAL166  LYS551  ARG553  GLY616  TRP617  ASP618  TYR619  PRO620  LYS621  CYS622 
 ASP623  PHE694  ASN695  SER759  ASP760  ASP761  ALA762  ILE779  LEU786  VAL792 
 PHE793  MET794  SER795  GLU796  ALA797  LYS798  CYS799  TRP800  GLU811  SER814 

> <Gold.Protein.RotatedAtoms>
  150.7276  134.5511  159.5794 H   0  0  0  0  0  0  0  0  0  0  0  0  # atno 6907 bound_to 6896
  152.2998  134.7622  160.0369 H   0  0  0  0  0  0  0  0  0  0  0  0  # atno 6908 bound_to 6896
  151.8206  133.3358  159.3620 H   0  0  0  0  0  0  0  0  0  0  0  0  # atno 6909 bound_to 6896
  146.2409  140.1520  142.8334 H   0  0  0  0  0  0  0  0  0  0  0  0  # atno 7974 bound_to 7965
  155.8993  140.3434  155.6014 H   0  0  0  0  0  0  0  0  0  0  0  0  # atno 8008 bound_to 7997
  155.7519  140.0821  157.2216 H   0  0  0  0  0  0  0  0  0  0  0  0  # atno 8009 bound_to 7997
  154.4042  140.1552  156.2721 H   0  0  0  0  0  0  0  0  0  0  0  0  # atno 8010 bound_to 7997
  140.7059  143.3203  151.2808 H   0  0  0  0  0  0  0  0  0  0  0  0  # atno 10167 bound_to 10162
  156.0104  130.4533  150.3579 H   0  0  0  0  0  0  0  0  0  0  0  0  # atno 10718 bound_to 10713
  154.5596  135.2819  155.0932 H   0  0  0  0  0  0  0  0  0  0  0  0  # atno 10763 bound_to 10752
  154.2346  135.6368  153.5190 H   0  0  0  0  0  0  0  0  0  0  0  0  # atno 10764 bound_to 10752
  153.0025  135.5545  154.6186 H   0  0  0  0  0  0  0  0  0  0  0  0  # atno 10765 bound_to 10752
  139.9640  134.7012  156.0585 H   0  0  0  0  0  0  0  0  0  0  0  0  # atno 11005 bound_to 11000
  145.0160  140.8754  143.5195 LP  0  0  0  0  0  0  0  0  0  0  0  0  # atno 17320 bound_to 7965
  145.1561  139.2486  143.5416 LP  0  0  0  0  0  0  0  0  0  0  0  0  # atno 17321 bound_to 7965
  139.6655  144.0113  152.2720 LP  0  0  0  0  0  0  0  0  0  0  0  0  # atno 17342 bound_to 10162
  139.9694  144.6504  150.8003 LP  0  0  0  0  0  0  0  0  0  0  0  0  # atno 17343 bound_to 10162
  157.1669  131.0359  151.2814 LP  0  0  0  0  0  0  0  0  0  0  0  0  # atno 17370 bound_to 10713
  157.4263  130.7465  149.6954 LP  0  0  0  0  0  0  0  0  0  0  0  0  # atno 17371 bound_to 10713
  141.1319  133.6584  156.3487 LP  0  0  0  0  0  0  0  0  0  0  0  0  # atno 17394 bound_to 11000
  140.5437  134.6095  157.5387 LP  0  0  0  0  0  0  0  0  0  0  0  0  # atno 17395 bound_to 11000

$$$$
