AV-unprocessed.smi:3275|AV-procd|sdf|12532|dock4
  -GOLD-   2272018443D 1   1.00000     0.00000
 Structure written by MMmdl.
 34 35  0  0  0  0  0  0  0  0  1 V2000
  150.5828  136.1557  154.2468 O   0  0  0  0  0  0  0  0  0  0  0  0
  151.3268  137.3080  154.5788 C   0  0  0  0  0  0  0  0  0  0  0  0
  150.7839  138.5176  153.8113 C   0  0  0  0  0  0  0  0  0  0  0  0
  151.3043  139.6977  154.4114 O   0  0  0  0  0  0  0  0  0  0  0  0
  150.6562  140.1776  155.5893 C   0  0  2  0  0  0  0  0  0  0  0  0
  149.4342  141.0713  155.2928 C   0  0  0  0  0  0  0  0  0  0  0  0
  148.7494  141.4694  156.6110 C   0  0  0  0  0  0  0  0  0  0  0  0
  149.7519  142.1241  157.5785 C   0  0  0  0  0  0  0  0  0  0  0  0
  150.9104  141.2606  157.7908 N   0  0  0  0  0  0  0  0  0  0  0  0
  151.7493  141.7144  158.8199 C   0  0  0  0  0  0  0  0  0  0  0  0
  151.7210  143.0590  159.2552 C   0  0  0  0  0  0  0  0  0  0  0  0
  152.5860  143.4518  160.2956 C   0  0  0  0  0  0  0  0  0  0  0  0
  153.4451  142.6078  160.9046 N   0  0  0  0  0  0  0  0  0  0  0  0
  153.4673  141.3234  160.4891 C   0  0  0  0  0  0  0  0  0  0  0  0
  152.6445  140.8257  159.4582 C   0  0  0  0  0  0  0  0  0  0  0  0
  152.7497  139.1619  158.9999 Cl  0  0  0  0  0  0  0  0  0  0  0  0
  151.6194  140.8728  156.5741 C   0  0  0  0  0  0  0  0  0  0  0  0
  149.9738  136.3792  153.5597 H   0  0  0  0  0  0  0  0  0  0  0  0
  151.2641  137.4765  155.6542 H   0  0  0  0  0  0  0  0  0  0  0  0
  152.3757  137.1378  154.3339 H   0  0  0  0  0  0  0  0  0  0  0  0
  151.0857  138.4473  152.7663 H   0  0  0  0  0  0  0  0  0  0  0  0
  149.6947  138.5098  153.8468 H   0  0  0  0  0  0  0  0  0  0  0  0
  150.2844  139.2785  156.0830 H   0  0  0  0  0  0  0  0  0  0  0  0
  149.7351  141.9779  154.7684 H   0  0  0  0  0  0  0  0  0  0  0  0
  148.7299  140.5485  154.6453 H   0  0  0  0  0  0  0  0  0  0  0  0
  147.9215  142.1503  156.4128 H   0  0  0  0  0  0  0  0  0  0  0  0
  148.3170  140.5843  157.0794 H   0  0  0  0  0  0  0  0  0  0  0  0
  150.0834  143.0828  157.1768 H   0  0  0  0  0  0  0  0  0  0  0  0
  149.2647  142.3283  158.5329 H   0  0  0  0  0  0  0  0  0  0  0  0
  151.0502  143.7778  158.8081 H   0  0  0  0  0  0  0  0  0  0  0  0
  152.5863  144.4721  160.6490 H   0  0  0  0  0  0  0  0  0  0  0  0
  154.1647  140.6722  160.9951 H   0  0  0  0  0  0  0  0  0  0  0  0
  152.4421  140.2023  156.8261 H   0  0  0  0  0  0  0  0  0  0  0  0
  152.0525  141.7639  156.1205 H   0  0  0  0  0  0  0  0  0  0  0  0
  1  2  1  0  0  0  0
  1 18  1  0  0  0  0
  2  3  1  0  0  0  0
  2 19  1  0  0  0  0
  2 20  1  0  0  0  0
  3  4  1  0  0  0  0
  3 21  1  0  0  0  0
  3 22  1  0  0  0  0
  4  5  1  0  0  0  0
  5 17  1  0  0  0  0
  5  6  1  0  0  0  0
  5 23  1  0  0  0  0
  6  7  1  0  0  0  0
  6 24  1  0  0  0  0
  6 25  1  0  0  0  0
  7  8  1  0  0  0  0
  7 26  1  0  0  0  0
  7 27  1  0  0  0  0
  8  9  1  0  0  0  0
  8 28  1  0  0  0  0
  8 29  1  0  0  0  0
  9 10  1  0  0  0  0
  9 17  1  0  0  0  0
 10 15  1  0  0  0  0
 10 11  2  0  0  0  0
 11 12  1  0  0  0  0
 11 30  1  0  0  0  0
 12 13  2  0  0  0  0
 12 31  1  0  0  0  0
 13 14  1  0  0  0  0
 14 15  2  0  0  0  0
 14 32  1  0  0  0  0
 15 16  1  0  0  0  0
 17 33  1  0  0  0  0
 17 34  1  0  0  0  0
M  END
> <s_m_source_file>
AV-unprocessed.smi

> <i_m_source_file_index>
3275

> <i_lp_mmshare_version>
43012

> <i_f3d_flags>
0

> <s_epik_input>
W09IXVtDSDJdW0NIMl1PW0NAQEhdMVtDSDJdW0NIMl1bQ0gyXU4oW0NIMl0xKWMyW2NIXVtjSF1uW2NIXWMyQ2w=

> <s_epik_cmdline>
J2VwaWtfcHl0aG9uJywgJy1waCcsICc3LjAnLCAnLXRuJywgJzgnLCAnLW1hJywgJzIwMCcsICctbWV0YWxfYmluZGluZycsICctaW1hZScsICc8aW5maWxlLm1hZT4nLCAnLW9tYWUnLCAnPG91dGZpbGUubWFlPic=

> <r_lp_tautomer_probability>
1

> <r_epik_Ionization_Penalty>
1.24095

> <r_epik_Ionization_Penalty_Charging>
0

> <r_epik_Ionization_Penalty_Neutral>
1.24095

> <r_epik_State_Penalty>
1.30987

> <r_epik_Charging_Adjusted_Penalty>
1.30987

> <i_epik_Tot_Q>
0

> <i_epik_Tot_abs_Q>
0

> <r_epik_Metal_State_Penalty>
0.00479332

> <b_epik_Metal_Only>
0

> <s_lp_Force_Field>
OPLS_2005

> <r_lp_Energy>
21.9158

> <b_lp_Chiralities_Consistent>
1

> <s_lp_Variant>
AV-unprocessed.smi:3275-3

> <Gold.Version>
5.8.1

> <Gold.Id.Protein>
6NUR|6NUR_protein|mol2

> <Gold.PLP.Fitness>
38.1526

> <Gold.PLP.PLP>
-33.6390

> <Gold.PLP.part.hbond>
-3.0000

> <Gold.PLP.part.metal>
0.0000

> <Gold.PLP.part.buried>
-4.3154

> <Gold.PLP.part.nonpolar>
-26.1516

> <Gold.PLP.part.repulsive>
0.1328

> <Gold.PLP.ligand.clash>
0.0027

> <Gold.PLP.ligand.torsion>
0.8429

> <Gold.PLP.Chemscore.Hbond>
2.0000

> <Gold.PLP.Chemscore.CHOScore>
0.0000

> <Gold.PLP.Chemscore.Metal>
0.0000

> <Gold.Chemscore.Hbonds>
donor molecule, donor type, donor heavy atom, donor atom, acceptor molecule, acceptor atom, score
      L1  H     1    18       P1  7948  0.80
      P1  H  7989  7998       L1     4  0.96

> <Gold.PLP.Chemscore.Internal.Correction>
0.2022

> <Gold.Rescore>
     Score         DG    S(hbond)    S(metal)    S(lipo)     H(rot)  DE(clash)    DE(int)     intcor
     15.73     -16.52       1.54        0.00      95.35       2.06       0.07       0.72       ----

> <Gold.Chemscore.Fitness>
15.7270

> <Gold.Chemscore.DG>
-16.5216

> <Gold.Chemscore.ZeroCoef>
-5.4800

> <Gold.Chemscore.Hbond>
1.5423

> <Gold.Chemscore.Metal>
0.0000

> <Gold.Chemscore.Lipo>
95.3532

> <Gold.Chemscore.Internal_Hbond>
0.0000

> <Gold.Chemscore.DEClash>
0.0702

> <Gold.Chemscore.DEInternal>
0.7243

> <Gold.Chemscore.Rot>
2.0570

> <Gold.Chemscore.Internal.Correction>
   9.000000E+99

> <Gold.Chemscore.Hbonds>
donor molecule, donor type, donor heavy atom, donor atom, acceptor molecule, acceptor atom, score
      L1  H     1    18       P1  7948  0.12
      P1  H  7989  7998       L1     4  0.64

> <Gold.Chemscore.Hbond.Weighted>
-5.1513

> <Gold.Chemscore.Metal.Weighted>
-0.0000

> <Gold.Chemscore.Lipo.Weighted>
-11.1563

> <Gold.Chemscore.Internal_Hbond.Weighted>
0.0000

> <Gold.Chemscore.DEClash.Weighted>
0.0702

> <Gold.Chemscore.DEInternal.Weighted>
0.7243

> <Gold.Chemscore.Rot.Weighted>
5.2660

> <Gold.Chemscore.Internal.Correction.Weighted>
   9.000000E+99

> <Gold.Protein.RotatedTorsions>
[ 6907 6896 6895 6894 ] final -161.20 input  -60.11 | X-H torsion
[ 7974 7965 7964 7962 ] final   -3.91 input  175.53 | X-H torsion
[ 8008 7997 7996 7995 ] final  -48.45 input   59.86 | X-H torsion
[ 10167 10162 10161 10158 ] final -118.24 input  -65.29 | X-H torsion
[ 10718 10713 10712 10709 ] final -141.47 input   66.30 | X-H torsion
[ 10763 10752 10751 10750 ] final  146.24 input  -60.55 | X-H torsion
[ 11005 11000 10999 10996 ] final  -15.16 input  -57.11 | X-H torsion

> <Gold.Protein.ActiveResidues>
 VAL166  LYS551  ARG553  GLY616  TRP617  ASP618  TYR619  PRO620  LYS621  CYS622 
 ASP623  PHE694  ASN695  SER759  ASP760  ASP761  ALA762  ILE779  LEU786  VAL792 
 PHE793  MET794  SER795  GLU796  ALA797  LYS798  CYS799  TRP800  GLU811  SER814 

> <Gold.Protein.RotatedAtoms>
  151.3610  133.3889  159.2689 H   0  0  0  0  0  0  0  0  0  0  0  0  # atno 6907 bound_to 6896
  150.9725  134.9097  159.7807 H   0  0  0  0  0  0  0  0  0  0  0  0  # atno 6908 bound_to 6896
  152.5189  134.3572  159.9324 H   0  0  0  0  0  0  0  0  0  0  0  0  # atno 6909 bound_to 6896
  146.2381  140.1793  142.8332 H   0  0  0  0  0  0  0  0  0  0  0  0  # atno 7974 bound_to 7965
  154.4029  140.1321  156.4341 H   0  0  0  0  0  0  0  0  0  0  0  0  # atno 8008 bound_to 7997
  155.7522  140.3488  155.5136 H   0  0  0  0  0  0  0  0  0  0  0  0  # atno 8009 bound_to 7997
  155.8938  140.1008  157.1389 H   0  0  0  0  0  0  0  0  0  0  0  0  # atno 8010 bound_to 7997
  140.0597  143.4980  152.2038 H   0  0  0  0  0  0  0  0  0  0  0  0  # atno 10167 bound_to 10162
  156.3344  130.7603  151.1727 H   0  0  0  0  0  0  0  0  0  0  0  0  # atno 10718 bound_to 10713
  154.0186  135.2908  155.3384 H   0  0  0  0  0  0  0  0  0  0  0  0  # atno 10763 bound_to 10752
  154.7060  135.5169  153.8599 H   0  0  0  0  0  0  0  0  0  0  0  0  # atno 10764 bound_to 10752
  153.0691  135.6641  154.0410 H   0  0  0  0  0  0  0  0  0  0  0  0  # atno 10765 bound_to 10752
  140.7938  133.8267  155.9405 H   0  0  0  0  0  0  0  0  0  0  0  0  # atno 11005 bound_to 11000
  144.9948  140.8579  143.5318 LP  0  0  0  0  0  0  0  0  0  0  0  0  # atno 17320 bound_to 7965
  145.1804  139.2355  143.5295 LP  0  0  0  0  0  0  0  0  0  0  0  0  # atno 17321 bound_to 7965
  139.5902  144.7547  151.3421 LP  0  0  0  0  0  0  0  0  0  0  0  0  # atno 17342 bound_to 10162
  140.7178  143.7219  150.7689 LP  0  0  0  0  0  0  0  0  0  0  0  0  # atno 17343 bound_to 10162
  157.7436  131.0472  150.4933 LP  0  0  0  0  0  0  0  0  0  0  0  0  # atno 17370 bound_to 10713
  156.5104  130.4138  149.6304 LP  0  0  0  0  0  0  0  0  0  0  0  0  # atno 17371 bound_to 10713
  140.9363  134.1958  157.4829 LP  0  0  0  0  0  0  0  0  0  0  0  0  # atno 17394 bound_to 11000
  139.8728  134.9853  156.5277 LP  0  0  0  0  0  0  0  0  0  0  0  0  # atno 17395 bound_to 11000

$$$$
