#       Name:                AV-unprocessed.smi:2872
#       Creating user name   scv26
#       Creation time:       Fri Mar 27 15:50:05 2020


#       File generated by GOLD software.
#

@<TRIPOS>MOLECULE
AV-unprocessed.smi:2872
    44    46     1
SMALL
NO_CHARGES


@<TRIPOS>ATOM
      1 ****        -2.9239   3.4113  -3.5196 O.2            1 S1                 0.0000
      2 ****        -2.9769   3.8795  -2.3835 C.2            1 S1                 0.0000
      3 ****        -2.1867   3.4950  -1.3710 N.am           1 S1                 0.0000
      4 ****        -1.1154   2.5085  -1.4752 C.3            1 S1                 0.0000
      5 ****        -1.5748   1.0829  -1.3928 C.2            1 S1                 0.0000
      6 ****        -2.8591   0.6258  -1.4656 N.pl3          1 S1                 1.0000
      7 ****        -2.8777  -0.7637  -1.3419 C.ar           1 S1                 0.0000
      8 ****        -3.9361  -1.6669  -1.3521 C.ar           1 S1                 0.0000
      9 ****        -3.6067  -3.0296  -1.1956 C.ar           1 S1                 0.0000
     10 ****        -2.2692  -3.4480  -1.0365 C.ar           1 S1                 0.0000
     11 ****        -1.2045  -2.5228  -1.0301 C.ar           1 S1                 0.0000
     12 ****        -1.5396  -1.1783  -1.1872 C.ar           1 S1                 0.0000
     13 ****        -0.7732  -0.0089  -1.2319 N.pl3          1 S1                 0.0000
     14 ****         0.6864  -0.1034  -1.1048 C.3            1 S1                 0.0000
     15 ****         1.1317  -0.1659   0.3610 C.3            1 S1                 0.0000
     16 ****         2.5498  -0.2309   0.3955 O.3            1 S1                 0.0000
     17 ****         3.1700  -0.2927   1.6248 C.ar           1 S1                 0.0000
     18 ****         4.5791  -0.3528   1.6274 C.ar           1 S1                 0.0000
     19 ****         5.2961  -0.4176   2.8376 C.ar           1 S1                 0.0000
     20 ****         4.6063  -0.4232   4.0640 C.ar           1 S1                 0.0000
     21 ****         3.2005  -0.3645   4.0768 C.ar           1 S1                 0.0000
     22 ****         2.4833  -0.2993   2.8658 C.ar           1 S1                 0.0000
     23 ****        -3.6779   4.6644  -2.0602 H              1 S1                 0.0000
     24 ****        -2.3134   3.9401  -0.4733 H              1 S1                 0.0000
     25 ****        -0.5601   2.6505  -2.4038 H              1 S1                 0.0000
     26 ****        -0.4114   2.6936  -0.6635 H              1 S1                 0.0000
     27 ****        -4.9611  -1.3483  -1.4730 H              1 S1                 0.0000
     28 ****        -4.3952  -3.7683  -1.1966 H              1 S1                 0.0000
     29 ****        -2.0549  -4.5002  -0.9170 H              1 S1                 0.0000
     30 ****        -0.1835  -2.8528  -0.9066 H              1 S1                 0.0000
     31 ****         1.0341  -0.9752  -1.6601 H              1 S1                 0.0000
     32 ****         1.1222   0.7686  -1.5935 H              1 S1                 0.0000
     33 ****         0.7814   0.7213   0.8911 H              1 S1                 0.0000
     34 ****         0.7021  -1.0451   0.8435 H              1 S1                 0.0000
     35 ****         5.1164  -0.3494   0.6903 H              1 S1                 0.0000
     36 ****         6.3751  -0.4629   2.8243 H              1 S1                 0.0000
     37 ****         5.1546  -0.4728   4.9932 H              1 S1                 0.0000
     38 ****         2.6700  -0.3691   5.0176 H              1 S1                 0.0000
     39 ****         1.4062  -0.2554   2.9170 H              1 S1                 0.0000
     40 ****        -3.6627   1.2270  -1.5955 H              1 S1                 0.0000
     41 ****        -2.2593   2.6958  -3.7350 LP             1 S1                 0.0000
     42 ****        -3.5455   3.7461  -4.2278 LP             1 S1                 0.0000
     43 ****         2.8952   0.5839  -0.0700 LP             1 S1                 0.0000
     44 ****         2.8215  -1.0468  -0.1149 LP             1 S1                 0.0000
@<TRIPOS>BOND
    1    1    2 2     
    2    2    3 am    
    3    2   23 1     
    4    3    4 1     
    5    3   24 1     
    6    4    5 1     
    7    4   25 1     
    8    4   26 1     
    9    5   13 1     
   10    5    6 2     
   11    6    7 1     
   12    6   40 1     
   13    7   12 ar    
   14    7    8 ar    
   15    8    9 ar    
   16    8   27 1     
   17    9   10 ar    
   18    9   28 1     
   19   10   11 ar    
   20   10   29 1     
   21   11   12 ar    
   22   11   30 1     
   23   12   13 1     
   24   13   14 1     
   25   14   15 1     
   26   14   31 1     
   27   14   32 1     
   28   15   16 1     
   29   15   33 1     
   30   15   34 1     
   31   16   17 1     
   32   17   22 ar    
   33   17   18 ar    
   34   18   19 ar    
   35   18   35 1     
   36   19   20 ar    
   37   19   36 1     
   38   20   21 ar    
   39   20   37 1     
   40   21   22 ar    
   41   21   38 1     
   42   22   39 1     
   43    1   41 1     
   44    1   42 1     
   45   16   43 1     
   46   16   44 1     
@<TRIPOS>SUBSTRUCTURE
      1 S1             1
@<TRIPOS>SET
LONE_PAIRS      STATIC     ATOMS    <user>   **** ""
4 41 42 43 44
DONOR_HYDROGENS      STATIC     ATOMS    <user>   **** ""
2 24 40
ATOM$BLUE        STATIC     ATOMS    COLORGROUP SYSTEM
4 41 42 43 44
ATOM$RED        STATIC     ATOMS    COLORGROUP SYSTEM
2 24 40
