#       Name:                AV-unprocessed.smi:3298
#       Creating user name   scv26
#       Creation time:       Fri Mar 27 18:57:53 2020


#       File generated by GOLD software.
#

@<TRIPOS>MOLECULE
AV-unprocessed.smi:3298
    40    41     1
SMALL
NO_CHARGES


@<TRIPOS>ATOM
      1 ****        -5.7525   0.9857   0.5628 C.3            1 S1                 0.0000
      2 ****        -4.4126   1.5862   0.1929 C.ar           1 S1                 0.0000
      3 ****        -3.2893   0.7895  -0.1160 C.ar           1 S1                 0.0000
      4 ****        -2.0624   1.4098  -0.4396 C.ar           1 S1                 0.0000
      5 ****        -0.9575   0.5747  -0.7540 N.am           1 S1                 0.0000
      6 ****         0.3491   0.8407  -0.5861 C.2            1 S1                 0.0000
      7 ****         0.8042   1.8825  -0.1136 O.2            1 S1                 0.0000
      8 ****         1.1123  -0.1904  -0.9745 N.am           1 S1                 0.0000
      9 ****         2.5662  -0.2353  -0.8642 C.3            1 S1                 0.0000
     10 ****         3.1220  -1.3732  -1.6754 C.2            1 S1                 0.0000
     11 ****         3.8526  -2.2148  -0.9479 C.2            1 S1                 0.0000
     12 ****         3.9285  -1.8196   0.5049 C.3            1 S1                 0.0000
     13 ****         3.4575  -2.9373   1.4517 C.3            1 S1                 0.0000
     14 ****         4.3320  -4.0443   1.3894 O.3            1 S1                 0.0000
     15 ****         3.0447  -0.5481   0.5785 C.3            1 S1                 0.0000
     16 ****        -2.0051   2.8256  -0.4758 C.ar           1 S1                 0.0000
     17 ****        -3.1601   3.5699  -0.1627 C.ar           1 S1                 0.0000
     18 ****        -4.3063   2.9328   0.1590 N.pl3          1 S1                 1.0000
     19 ****         3.0061   0.6945  -1.2292 H              1 S1                 0.0000
     20 ****         4.9631  -1.5576   0.7308 H              1 S1                 0.0000
     21 ****        -5.6530  -0.0723   0.8074 H              1 S1                 0.0000
     22 ****        -6.4516   1.0811  -0.2683 H              1 S1                 0.0000
     23 ****        -6.1756   1.4946   1.4295 H              1 S1                 0.0000
     24 ****        -3.3666  -0.2881  -0.0944 H              1 S1                 0.0000
     25 ****        -1.1870  -0.3593  -1.0609 H              1 S1                 0.0000
     26 ****         0.6592  -1.0101  -1.3513 H              1 S1                 0.0000
     27 ****         2.9455  -1.4634  -2.7373 H              1 S1                 0.0000
     28 ****         4.3549  -3.0906  -1.3320 H              1 S1                 0.0000
     29 ****         3.4320  -2.5755   2.4798 H              1 S1                 0.0000
     30 ****         2.4479  -3.2624   1.1979 H              1 S1                 0.0000
     31 ****         4.0270  -4.7032   1.9944 H              1 S1                 0.0000
     32 ****         3.6104   0.2909   0.9852 H              1 S1                 0.0000
     33 ****         2.1985  -0.7043   1.2497 H              1 S1                 0.0000
     34 ****        -1.1016   3.3498  -0.7487 H              1 S1                 0.0000
     35 ****        -3.2016   4.6492  -0.1646 H              1 S1                 0.0000
     36 ****        -5.1293   3.4930   0.3826 H              1 S1                 0.0000
     37 ****         0.1849   2.6109   0.1796 LP             1 S1                 0.0000
     38 ****         1.7931   2.0003  -0.0230 LP             1 S1                 0.0000
     39 ****         5.2565  -3.7580   1.6408 LP             1 S1                 0.0000
     40 ****         4.3391  -4.4164   0.4612 LP             1 S1                 0.0000
@<TRIPOS>BOND
    1    1    2 1     
    2    1   21 1     
    3    1   22 1     
    4    1   23 1     
    5    2   18 ar    
    6    2    3 ar    
    7    3    4 ar    
    8    3   24 1     
    9    4    5 1     
   10    4   16 ar    
   11    5    6 am    
   12    5   25 1     
   13    6    7 2     
   14    6    8 am    
   15    8    9 1     
   16    8   26 1     
   17    9   19 1     
   18    9   15 1     
   19    9   10 1     
   20   10   11 2     
   21   10   27 1     
   22   11   12 1     
   23   11   28 1     
   24   12   20 1     
   25   12   13 1     
   26   12   15 1     
   27   13   14 1     
   28   13   29 1     
   29   13   30 1     
   30   14   31 1     
   31   15   32 1     
   32   15   33 1     
   33   16   17 ar    
   34   16   34 1     
   35   17   18 ar    
   36   17   35 1     
   37   18   36 1     
   38    7   37 1     
   39    7   38 1     
   40   14   39 1     
   41   14   40 1     
@<TRIPOS>SUBSTRUCTURE
      1 S1             1
@<TRIPOS>SET
LONE_PAIRS      STATIC     ATOMS    <user>   **** ""
4 37 38 39 40
DONOR_HYDROGENS      STATIC     ATOMS    <user>   **** ""
4 25 26 31 36
ATOM$BLUE        STATIC     ATOMS    COLORGROUP SYSTEM
4 37 38 39 40
ATOM$RED        STATIC     ATOMS    COLORGROUP SYSTEM
4 25 26 31 36
