AV-unprocessed.smi:1554|AV-procd|sdf|6240|dock3
  -GOLD-   22720 6423D 1   1.00000     0.00000
 Structure written by MMmdl.
 47 49  0  0  0  0  0  0  0  0  1 V2000
  152.8340  143.2778  161.7379 C   0  0  0  0  0  0  0  0  0  0  0  0
  152.3173  142.8381  160.3795 C   0  0  0  0  0  0  0  0  0  0  0  0
  152.3558  141.4668  160.0401 C   0  0  0  0  0  0  0  0  0  0  0  0
  151.8853  141.0172  158.7869 C   0  0  0  0  0  0  0  0  0  0  0  0
  151.8303  139.7409  158.2533 N   0  0  0  0  0  0  0  0  0  0  0  0
  151.2937  139.9734  157.0590 C   0  0  0  0  0  0  0  0  0  0  0  0
  150.9934  141.2505  156.7551 N   0  0  0  0  0  0  0  0  0  0  0  0
  150.4048  141.7380  155.5201 C   0  0  0  0  0  0  0  0  0  0  0  0
  149.4602  140.7100  154.8688 C   0  0  2  0  0  0  0  0  0  0  0  0
  150.2068  139.8637  154.0165 O   0  0  0  0  0  0  0  0  0  0  0  0
  148.3655  141.4005  154.0311 C   0  0  0  0  0  0  0  0  0  0  0  0
  147.4892  142.3156  154.7654 N   0  0  0  0  0  0  0  0  0  0  0  0
  146.3264  142.7361  153.9856 C   0  0  0  0  0  0  0  0  0  0  0  0
  145.4071  143.6723  154.7880 C   0  0  0  0  0  0  0  0  0  0  0  0
  145.0075  143.0320  155.9950 O   0  0  0  0  0  0  0  0  0  0  0  0
  146.1100  142.6482  156.8118 C   0  0  1  0  0  0  0  0  0  0  0  0
  145.5626  141.9820  158.0785 C   0  0  0  0  0  0  0  0  0  0  0  0
  147.0264  141.7056  156.0075 C   0  0  0  0  0  0  0  0  0  0  0  0
  151.3699  141.9844  157.8751 C   0  0  0  0  0  0  0  0  0  0  0  0
  151.3271  143.3516  158.2009 C   0  0  0  0  0  0  0  0  0  0  0  0
  151.8015  143.7839  159.4571 C   0  0  0  0  0  0  0  0  0  0  0  0
  151.7496  145.2622  159.7996 C   0  0  0  0  0  0  0  0  0  0  0  0
  153.1875  142.4285  162.3234 H   0  0  0  0  0  0  0  0  0  0  0  0
  152.0445  143.7704  162.3061 H   0  0  0  0  0  0  0  0  0  0  0  0
  153.6653  143.9738  161.6232 H   0  0  0  0  0  0  0  0  0  0  0  0
  152.7493  140.7463  160.7418 H   0  0  0  0  0  0  0  0  0  0  0  0
  151.1073  139.1685  156.3631 H   0  0  0  0  0  0  0  0  0  0  0  0
  149.8611  142.6568  155.7436 H   0  0  0  0  0  0  0  0  0  0  0  0
  151.2073  142.0120  154.8340 H   0  0  0  0  0  0  0  0  0  0  0  0
  149.0194  140.1026  155.6584 H   0  0  0  0  0  0  0  0  0  0  0  0
  149.7472  139.7911  153.1938 H   0  0  0  0  0  0  0  0  0  0  0  0
  148.8332  141.9426  153.2077 H   0  0  0  0  0  0  0  0  0  0  0  0
  147.7608  140.6217  153.5635 H   0  0  0  0  0  0  0  0  0  0  0  0
  146.6391  143.2549  153.0806 H   0  0  0  0  0  0  0  0  0  0  0  0
  145.7584  141.8613  153.6655 H   0  0  0  0  0  0  0  0  0  0  0  0
  145.9158  144.6100  155.0167 H   0  0  0  0  0  0  0  0  0  0  0  0
  144.5197  143.9225  154.2067 H   0  0  0  0  0  0  0  0  0  0  0  0
  146.6660  143.5428  157.0979 H   0  0  0  0  0  0  0  0  0  0  0  0
  146.3714  141.6788  158.7437 H   0  0  0  0  0  0  0  0  0  0  0  0
  144.9779  141.0941  157.8359 H   0  0  0  0  0  0  0  0  0  0  0  0
  144.9170  142.6655  158.6303 H   0  0  0  0  0  0  0  0  0  0  0  0
  146.4910  140.7806  155.7862 H   0  0  0  0  0  0  0  0  0  0  0  0
  147.8837  141.4288  156.6225 H   0  0  0  0  0  0  0  0  0  0  0  0
  150.9351  144.0610  157.4872 H   0  0  0  0  0  0  0  0  0  0  0  0
  151.3533  145.8490  158.9704 H   0  0  0  0  0  0  0  0  0  0  0  0
  152.7472  145.6381  160.0279 H   0  0  0  0  0  0  0  0  0  0  0  0
  151.1088  145.4303  160.6655 H   0  0  0  0  0  0  0  0  0  0  0  0
  1  2  1  0  0  0  0
  1 23  1  0  0  0  0
  1 24  1  0  0  0  0
  1 25  1  0  0  0  0
  2 21  1  0  0  0  0
  2  3  2  0  0  0  0
  3  4  1  0  0  0  0
  3 26  1  0  0  0  0
  4 19  2  0  0  0  0
  4  5  1  0  0  0  0
  5  6  2  0  0  0  0
  6  7  1  0  0  0  0
  6 27  1  0  0  0  0
  7  8  1  0  0  0  0
  7 19  1  0  0  0  0
  8  9  1  0  0  0  0
  8 28  1  0  0  0  0
  8 29  1  0  0  0  0
  9 10  1  0  0  0  0
  9 11  1  0  0  0  0
  9 30  1  0  0  0  0
 10 31  1  0  0  0  0
 11 12  1  0  0  0  0
 11 32  1  0  0  0  0
 11 33  1  0  0  0  0
 12 18  1  0  0  0  0
 12 13  1  0  0  0  0
 13 14  1  0  0  0  0
 13 34  1  0  0  0  0
 13 35  1  0  0  0  0
 14 15  1  0  0  0  0
 14 36  1  0  0  0  0
 14 37  1  0  0  0  0
 15 16  1  0  0  0  0
 16 17  1  0  0  0  0
 16 18  1  0  0  0  0
 16 38  1  0  0  0  0
 17 39  1  0  0  0  0
 17 40  1  0  0  0  0
 17 41  1  0  0  0  0
 18 42  1  0  0  0  0
 18 43  1  0  0  0  0
 19 20  1  0  0  0  0
 20 21  2  0  0  0  0
 20 44  1  0  0  0  0
 21 22  1  0  0  0  0
 22 45  1  0  0  0  0
 22 46  1  0  0  0  0
 22 47  1  0  0  0  0
M  END
> <s_m_source_file>
AV-unprocessed.smi

> <i_m_source_file_index>
1554

> <i_lp_mmshare_version>
43012

> <i_f3d_flags>
0

> <s_epik_input>
W0NIM11jKFtjSF0xKWMoW0NIM10pW2NIXWMoYzEyKW4oW2NIXW4yKVtDSDJdW0NASF0oW09IXSlbQ0gyXU4zW0NIMl1bQ0gyXU9bQ0BASF0oW0NIM10pW0NIMl0z

> <s_epik_cmdline>
J2VwaWtfcHl0aG9uJywgJy1waCcsICc3LjAnLCAnLXRuJywgJzgnLCAnLW1hJywgJzIwMCcsICctbWV0YWxfYmluZGluZycsICctaW1hZScsICc8aW5maWxlLm1hZT4nLCAnLW9tYWUnLCAnPG91dGZpbGUubWFlPic=

> <r_epik_Ionization_Penalty>
0.345108

> <r_epik_Ionization_Penalty_Charging>
0

> <r_epik_Ionization_Penalty_Neutral>
0.345108

> <r_epik_State_Penalty>
0.314544

> <r_epik_Charging_Adjusted_Penalty>
0.314544

> <i_epik_Tot_Q>
0

> <i_epik_Tot_abs_Q>
0

> <r_epik_Metal_State_Penalty>
0.239719

> <b_epik_Metal_Only>
0

> <s_lp_Force_Field>
OPLS_2005

> <r_lp_Energy>
29.4167

> <b_lp_Chiralities_Consistent>
1

> <s_lp_Variant>
AV-unprocessed.smi:1554-1

> <Gold.Version>
5.8.1

> <Gold.Id.Protein>
6NUR|6NUR_protein|mol2

> <Gold.PLP.Fitness>
52.1915

> <Gold.PLP.PLP>
-47.6217

> <Gold.PLP.part.hbond>
-2.0000

> <Gold.PLP.part.metal>
0.0000

> <Gold.PLP.part.buried>
-7.5110

> <Gold.PLP.part.nonpolar>
-39.1626

> <Gold.PLP.part.repulsive>
1.1506

> <Gold.PLP.ligand.clash>
0.0000

> <Gold.PLP.ligand.torsion>
0.7815

> <Gold.PLP.Chemscore.Hbond>
2.0000

> <Gold.PLP.Chemscore.CHOScore>
0.0000

> <Gold.PLP.Chemscore.Metal>
0.0000

> <Gold.Chemscore.Hbonds>
donor molecule, donor type, donor heavy atom, donor atom, acceptor molecule, acceptor atom, score
      L1  H    10    31       P1  7957  0.94
      P1  H  7989  7998       L1    10  0.95

> <Gold.PLP.Chemscore.Internal.Correction>
0.1328

> <Gold.Rescore>
     Score         DG    S(hbond)    S(metal)    S(lipo)     H(rot)  DE(clash)    DE(int)     intcor
     17.53     -18.97       1.34        0.00     120.52       1.98       0.56       0.88       ----

> <Gold.Chemscore.Fitness>
17.5252

> <Gold.Chemscore.DG>
-18.9715

> <Gold.Chemscore.ZeroCoef>
-5.4800

> <Gold.Chemscore.Hbond>
1.3387

> <Gold.Chemscore.Metal>
0.0000

> <Gold.Chemscore.Lipo>
120.5233

> <Gold.Chemscore.Internal_Hbond>
0.0000

> <Gold.Chemscore.DEClash>
0.5642

> <Gold.Chemscore.DEInternal>
0.8820

> <Gold.Chemscore.Rot>
1.9848

> <Gold.Chemscore.Internal.Correction>
   9.000000E+99

> <Gold.Chemscore.Hbonds>
donor molecule, donor type, donor heavy atom, donor atom, acceptor molecule, acceptor atom, score
      L1  H    10    31       P1  7957  0.87
      P1  H  7989  7998       L1    10  0.10

> <Gold.Chemscore.Hbond.Weighted>
-4.4713

> <Gold.Chemscore.Metal.Weighted>
-0.0000

> <Gold.Chemscore.Lipo.Weighted>
-14.1012

> <Gold.Chemscore.Internal_Hbond.Weighted>
0.0000

> <Gold.Chemscore.DEClash.Weighted>
0.5642

> <Gold.Chemscore.DEInternal.Weighted>
0.8820

> <Gold.Chemscore.Rot.Weighted>
5.0810

> <Gold.Chemscore.Internal.Correction.Weighted>
   9.000000E+99

> <Gold.Protein.RotatedTorsions>
[ 6907 6896 6895 6894 ] final   79.62 input  -60.11 | X-H torsion
[ 7974 7965 7964 7962 ] final   52.92 input  175.53 | X-H torsion
[ 8008 7997 7996 7995 ] final  173.84 input   59.86 | X-H torsion
[ 10167 10162 10161 10158 ] final   88.41 input  -65.29 | X-H torsion
[ 10718 10713 10712 10709 ] final  138.80 input   66.30 | X-H torsion
[ 10763 10752 10751 10750 ] final   -8.05 input  -60.55 | X-H torsion
[ 11005 11000 10999 10996 ] final  -80.04 input  -57.11 | X-H torsion

> <Gold.Protein.ActiveResidues>
 VAL166  LYS551  ARG553  GLY616  TRP617  ASP618  TYR619  PRO620  LYS621  CYS622 
 ASP623  PHE694  ASN695  SER759  ASP760  ASP761  ALA762  ILE779  LEU786  VAL792 
 PHE793  MET794  SER795  GLU796  ALA797  LYS798  CYS799  TRP800  GLU811  SER814 

> <Gold.Protein.RotatedAtoms>
  152.5205  134.3482  159.9241 H   0  0  0  0  0  0  0  0  0  0  0  0  # atno 6907 bound_to 6896
  151.3433  133.3947  159.2681 H   0  0  0  0  0  0  0  0  0  0  0  0  # atno 6908 bound_to 6896
  150.9786  134.9164  159.7888 H   0  0  0  0  0  0  0  0  0  0  0  0  # atno 6909 bound_to 6896
  145.9765  139.4199  143.0158 H   0  0  0  0  0  0  0  0  0  0  0  0  # atno 7974 bound_to 7965
  156.1035  140.1450  156.9436 H   0  0  0  0  0  0  0  0  0  0  0  0  # atno 8008 bound_to 7997
  154.4718  140.0907  156.7208 H   0  0  0  0  0  0  0  0  0  0  0  0  # atno 8009 bound_to 7997
  155.4719  140.3442  155.4329 H   0  0  0  0  0  0  0  0  0  0  0  0  # atno 8010 bound_to 7997
  139.8675  144.6511  150.8987 H   0  0  0  0  0  0  0  0  0  0  0  0  # atno 10167 bound_to 10162
  157.4214  131.1039  151.0350 H   0  0  0  0  0  0  0  0  0  0  0  0  # atno 10718 bound_to 10713
  153.4349  135.7012  153.6206 H   0  0  0  0  0  0  0  0  0  0  0  0  # atno 10763 bound_to 10752
  153.4605  135.3737  155.2336 H   0  0  0  0  0  0  0  0  0  0  0  0  # atno 10764 bound_to 10752
  154.8726  135.4019  154.3739 H   0  0  0  0  0  0  0  0  0  0  0  0  # atno 10765 bound_to 10752
  141.1668  133.7132  156.8213 H   0  0  0  0  0  0  0  0  0  0  0  0  # atno 11005 bound_to 11000
  145.7832  140.9847  143.1088 LP  0  0  0  0  0  0  0  0  0  0  0  0  # atno 17320 bound_to 7965
  144.6850  139.9590  143.7480 LP  0  0  0  0  0  0  0  0  0  0  0  0  # atno 17321 bound_to 7965
  140.7766  143.3691  151.1682 LP  0  0  0  0  0  0  0  0  0  0  0  0  # atno 17342 bound_to 10162
  139.7315  143.9065  152.3021 LP  0  0  0  0  0  0  0  0  0  0  0  0  # atno 17343 bound_to 10162
  157.1279  130.6089  149.5522 LP  0  0  0  0  0  0  0  0  0  0  0  0  # atno 17370 bound_to 10713
  155.9882  130.4924  150.7158 LP  0  0  0  0  0  0  0  0  0  0  0  0  # atno 17371 bound_to 10713
  140.2117  134.8822  157.3281 LP  0  0  0  0  0  0  0  0  0  0  0  0  # atno 17394 bound_to 11000
  140.2080  134.4174  155.7627 LP  0  0  0  0  0  0  0  0  0  0  0  0  # atno 17395 bound_to 11000

$$$$
