#       Name:                AV-unprocessed.smi:2288
#       Creating user name   scv26
#       Creation time:       Fri Mar 27 12:42:30 2020


#       File generated by GOLD software.
#

@<TRIPOS>MOLECULE
AV-unprocessed.smi:2288
    45    46     1
SMALL
NO_CHARGES


@<TRIPOS>ATOM
      1 ****        -1.8814  -0.0298   5.1615 C.3            1 S1                 0.0000
      2 ****        -1.7502  -0.6305   3.7771 C.ar           1 S1                 0.0000
      3 ****        -2.0130  -1.9994   3.5649 C.ar           1 S1                 0.0000
      4 ****        -1.8843  -2.5541   2.2757 C.ar           1 S1                 0.0000
      5 ****        -2.1649  -4.0264   2.0566 C.3            1 S1                 0.0000
      6 ****        -1.4967  -1.7346   1.1958 C.ar           1 S1                 0.0000
      7 ****        -1.2368  -0.3627   1.3982 C.ar           1 S1                 0.0000
      8 ****        -0.8061   0.5046   0.2246 C.3            1 S1                 0.0000
      9 ****        -1.4689   1.7540   0.2329 O.3            1 S1                 0.0000
     10 ****         0.7183   0.7521   0.2538 C.3            1 S1                 0.0000
     11 ****         1.2476   1.1462  -1.0628 N.am           1 S1                 0.0000
     12 ****         1.4788   2.5180  -1.2553 C.2            1 S1                 0.0000
     13 ****         1.9471   2.9781  -2.3692 N.2            1 S1                 0.0000
     14 ****         2.2331   2.1018  -3.4201 C.2            1 S1                 0.0000
     15 ****         2.7818   2.7464  -4.6808 C.3            1 S1                 0.0000
     16 ****         2.0248   0.7621  -3.3003 C.2            1 S1                 0.0000
     17 ****         2.3164  -0.2395  -4.4109 C.3            1 S1                 0.0000
     18 ****         1.4884   0.2244  -2.0396 C.2            1 S1                 0.0000
     19 ****         1.2657  -0.9756  -1.8658 O.2            1 S1                 0.0000
     20 ****        -1.3610   0.1837   2.6945 C.ar           1 S1                 0.0000
     21 ****        -2.2220  -0.7696   5.8866 H              1 S1                 0.0000
     22 ****        -2.5988   0.7910   5.1506 H              1 S1                 0.0000
     23 ****        -0.9195   0.3585   5.4971 H              1 S1                 0.0000
     24 ****        -2.3119  -2.6278   4.3913 H              1 S1                 0.0000
     25 ****        -1.8212  -4.3542   1.0750 H              1 S1                 0.0000
     26 ****        -3.2353  -4.2202   2.1274 H              1 S1                 0.0000
     27 ****        -1.6560  -4.6275   2.8107 H              1 S1                 0.0000
     28 ****        -1.3950  -2.1603   0.2080 H              1 S1                 0.0000
     29 ****        -1.0885  -0.0082  -0.6957 H              1 S1                 0.0000
     30 ****        -2.3976   1.5996   0.1481 H              1 S1                 0.0000
     31 ****         0.9759   1.4662   1.0390 H              1 S1                 0.0000
     32 ****         1.2240  -0.1679   0.5540 H              1 S1                 0.0000
     33 ****         1.2339   3.1597  -0.4071 H              1 S1                 0.0000
     34 ****         3.7758   2.3592  -4.9063 H              1 S1                 0.0000
     35 ****         2.8614   3.8287  -4.5714 H              1 S1                 0.0000
     36 ****         2.1272   2.5444  -5.5289 H              1 S1                 0.0000
     37 ****         1.4016  -0.7595  -4.6973 H              1 S1                 0.0000
     38 ****         3.0354  -0.9838  -4.0669 H              1 S1                 0.0000
     39 ****         2.7269   0.2209  -5.3079 H              1 S1                 0.0000
     40 ****        -1.1548   1.2311   2.8620 H              1 S1                 0.0000
     41 ****        -1.1480   2.3117  -0.5326 LP             1 S1                 0.0000
     42 ****        -1.2827   2.2294   1.0928 LP             1 S1                 0.0000
     43 ****         2.1045   3.9596  -2.4788 LP             1 S1                 0.0000
     44 ****         0.8994  -1.2947  -0.9917 LP             1 S1                 0.0000
     45 ****         1.4514  -1.6299  -2.5989 LP             1 S1                 0.0000
@<TRIPOS>BOND
    1    1    2 1     
    2    1   21 1     
    3    1   22 1     
    4    1   23 1     
    5    2   20 ar    
    6    2    3 ar    
    7    3    4 ar    
    8    3   24 1     
    9    4    5 1     
   10    4    6 ar    
   11    5   25 1     
   12    5   26 1     
   13    5   27 1     
   14    6    7 ar    
   15    6   28 1     
   16    7    8 1     
   17    7   20 ar    
   18    8    9 1     
   19    8   10 1     
   20    8   29 1     
   21    9   30 1     
   22   10   11 1     
   23   10   31 1     
   24   10   32 1     
   25   11   18 am    
   26   11   12 1     
   27   12   13 2     
   28   12   33 1     
   29   13   14 1     
   30   14   15 1     
   31   14   16 2     
   32   15   34 1     
   33   15   35 1     
   34   15   36 1     
   35   16   17 1     
   36   16   18 1     
   37   17   37 1     
   38   17   38 1     
   39   17   39 1     
   40   18   19 2     
   41   20   40 1     
   42    9   41 1     
   43    9   42 1     
   44   13   43 1     
   45   19   44 1     
   46   19   45 1     
@<TRIPOS>SUBSTRUCTURE
      1 S1             1
@<TRIPOS>SET
LONE_PAIRS      STATIC     ATOMS    <user>   **** ""
5 41 42 43 44 45
DONOR_HYDROGENS      STATIC     ATOMS    <user>   **** ""
1 30
ATOM$BLUE        STATIC     ATOMS    COLORGROUP SYSTEM
5 41 42 43 44 45
ATOM$RED        STATIC     ATOMS    COLORGROUP SYSTEM
1 30
