#       Name:                AV-unprocessed.smi:1645
#       Creating user name   scv26
#       Creation time:       Fri Mar 27 07:31:06 2020


#       File generated by GOLD software.
#

@<TRIPOS>MOLECULE
AV-unprocessed.smi:1645
    58    61     1
SMALL
NO_CHARGES


@<TRIPOS>ATOM
      1 ****        -0.9867   1.6719  -0.2163 O.2            1 S1                 0.0000
      2 ****        -1.2815   0.5587  -0.6488 C.2            1 S1                 0.0000
      3 ****        -0.4155  -0.4410  -0.8909 N.am           1 S1                 0.0000
      4 ****         1.0032  -0.4416  -0.7864 C.ar           1 S1                 0.0000
      5 ****         1.6986  -1.5265  -1.3600 C.ar           1 S1                 0.0000
      6 ****         3.1059  -1.5755  -1.2937 C.ar           1 S1                 0.0000
      7 ****         3.8190  -0.5370  -0.6440 C.ar           1 S1                 0.0000
      8 ****         5.2282  -0.4882  -0.5485 N.pl3          1 S1                 0.0000
      9 ****         5.7912  -0.0647   0.7375 C.3            1 S1                 0.0000
     10 ****         7.2471   0.4067   0.5830 C.3            1 S1                 0.0000
     11 ****         8.1017  -0.6569  -0.1206 C.3            1 S1                 0.0000
     12 ****         7.4684  -1.0269  -1.4689 C.3            1 S1                 0.0000
     13 ****         6.0077  -1.4777  -1.2950 C.3            1 S1                 0.0000
     14 ****         3.1052   0.4752  -0.0943 N.pl3          1 S1                 1.0000
     15 ****         1.7582   0.5630  -0.1351 C.ar           1 S1                 0.0000
     16 ****        -2.5379   0.1935  -0.9436 N.am           1 S1                 0.0000
     17 ****        -3.7133   1.0585  -0.8440 C.3            1 S1                 0.0000
     18 ****        -4.8088   0.7042  -1.8679 C.3            1 S1                 0.0000
     19 ****        -6.1233   0.8515  -1.0946 C.3            1 S1                 0.0000
     20 ****        -5.7498   0.4451   0.2651 N.4            1 S1                 1.0000
     21 ****        -6.7071   0.6855   1.3637 C.3            1 S1                 0.0000
     22 ****        -6.1653   0.0046   2.6390 C.3            1 S1                 0.0000
     23 ****        -4.7107   0.4235   2.9538 C.3            1 S1                 0.0000
     24 ****        -3.7887   0.2705   1.7242 C.3            1 S1                 0.0000
     25 ****        -4.4178   1.0148   0.5328 C.3            1 S1                 0.0000
     26 ****        -0.8174  -1.2888  -1.2636 H              1 S1                 0.0000
     27 ****         1.1594  -2.3196  -1.8575 H              1 S1                 0.0000
     28 ****         3.6116  -2.4180  -1.7406 H              1 S1                 0.0000
     29 ****         5.2133   0.7417   1.1883 H              1 S1                 0.0000
     30 ****         5.7457  -0.9068   1.4292 H              1 S1                 0.0000
     31 ****         7.2711   1.3333   0.0077 H              1 S1                 0.0000
     32 ****         7.6695   0.6390   1.5609 H              1 S1                 0.0000
     33 ****         9.1168  -0.2873  -0.2695 H              1 S1                 0.0000
     34 ****         8.1797  -1.5449   0.5080 H              1 S1                 0.0000
     35 ****         7.5061  -0.1651  -2.1367 H              1 S1                 0.0000
     36 ****         8.0470  -1.8156  -1.9508 H              1 S1                 0.0000
     37 ****         5.9687  -2.4326  -0.7691 H              1 S1                 0.0000
     38 ****         5.5793  -1.6319  -2.2856 H              1 S1                 0.0000
     39 ****         1.3524   1.4331   0.3573 H              1 S1                 0.0000
     40 ****        -2.6903  -0.7421  -1.2912 H              1 S1                 0.0000
     41 ****        -3.4075   2.0894  -1.0348 H              1 S1                 0.0000
     42 ****        -4.7749   1.3359  -2.7562 H              1 S1                 0.0000
     43 ****        -4.7005  -0.3307  -2.1966 H              1 S1                 0.0000
     44 ****        -6.4542   1.8914  -1.0923 H              1 S1                 0.0000
     45 ****        -6.9233   0.2323  -1.5016 H              1 S1                 0.0000
     46 ****        -6.8399   1.7571   1.5200 H              1 S1                 0.0000
     47 ****        -7.6816   0.2721   1.1014 H              1 S1                 0.0000
     48 ****        -6.8120   0.2313   3.4872 H              1 S1                 0.0000
     49 ****        -6.2021  -1.0779   2.5081 H              1 S1                 0.0000
     50 ****        -4.7016   1.4638   3.2818 H              1 S1                 0.0000
     51 ****        -4.3240  -0.1633   3.7875 H              1 S1                 0.0000
     52 ****        -2.8021   0.6749   1.9521 H              1 S1                 0.0000
     53 ****        -3.6543  -0.7855   1.4861 H              1 S1                 0.0000
     54 ****        -4.5625   2.0555   0.8317 H              1 S1                 0.0000
     55 ****        -5.6180  -0.5550   0.2166 H              1 S1                 0.0000
     56 ****         3.6170   1.2227   0.3750 H              1 S1                 0.0000
     57 ****        -0.0326   1.8933  -0.0144 LP             1 S1                 0.0000
     58 ****        -1.7011   2.3554  -0.0666 LP             1 S1                 0.0000
@<TRIPOS>BOND
    1    1    2 2     
    2    2    3 am    
    3    2   16 am    
    4    3    4 1     
    5    3   26 1     
    6    4   15 ar    
    7    4    5 ar    
    8    5    6 ar    
    9    5   27 1     
   10    6    7 ar    
   11    6   28 1     
   12    7    8 1     
   13    7   14 ar    
   14    8   13 1     
   15    8    9 1     
   16    9   10 1     
   17    9   29 1     
   18    9   30 1     
   19   10   11 1     
   20   10   31 1     
   21   10   32 1     
   22   11   12 1     
   23   11   33 1     
   24   11   34 1     
   25   12   13 1     
   26   12   35 1     
   27   12   36 1     
   28   13   37 1     
   29   13   38 1     
   30   14   15 ar    
   31   14   56 1     
   32   15   39 1     
   33   16   17 1     
   34   16   40 1     
   35   17   25 1     
   36   17   18 1     
   37   17   41 1     
   38   18   19 1     
   39   18   42 1     
   40   18   43 1     
   41   19   20 1     
   42   19   44 1     
   43   19   45 1     
   44   20   25 1     
   45   20   21 1     
   46   20   55 1     
   47   21   22 1     
   48   21   46 1     
   49   21   47 1     
   50   22   23 1     
   51   22   48 1     
   52   22   49 1     
   53   23   24 1     
   54   23   50 1     
   55   23   51 1     
   56   24   25 1     
   57   24   52 1     
   58   24   53 1     
   59   25   54 1     
   60    1   57 1     
   61    1   58 1     
@<TRIPOS>SUBSTRUCTURE
      1 S1             1
@<TRIPOS>SET
LONE_PAIRS      STATIC     ATOMS    <user>   **** ""
2 57 58
DONOR_HYDROGENS      STATIC     ATOMS    <user>   **** ""
4 26 56 40 55
ATOM$BLUE        STATIC     ATOMS    COLORGROUP SYSTEM
2 57 58
ATOM$RED        STATIC     ATOMS    COLORGROUP SYSTEM
4 26 56 40 55
