AV-unprocessed.smi:102|AV-procd|sdf|972|dock3
  -GOLD-   2262017523D 1   1.00000     0.00000
 Structure written by MMmdl.
 43 44  0  0  0  0  0  0  0  0  2 V2000
  147.9275  136.4802  160.7999 C   0  0  0  0  0  0  0  0  0  0  0  0
  148.3348  137.4214  159.6743 C   0  0  0  0  0  0  0  0  0  0  0  0
  147.6008  138.3391  159.3077 O   0  0  0  0  0  0  0  0  0  0  0  0
  149.5454  137.1217  159.1692 O   0  0  0  0  0  0  0  0  0  0  0  0
  149.8806  137.4850  157.8365 C   0  0  0  0  0  0  0  0  0  0  0  0
  150.7077  138.7789  157.8202 C   0  0  1  0  0  0  0  0  0  0  0  0
  152.0825  138.4995  158.0435 O   0  0  0  0  0  0  0  0  0  0  0  0
  152.8345  139.5765  157.5876 C   0  0  2  0  0  0  0  0  0  0  0  0
  152.9989  140.5621  158.7367 N   0  0  0  0  0  0  0  0  0  0  0  0
  152.4987  141.8557  158.6760 C   0  0  0  0  0  0  0  0  0  0  0  0
  152.5858  142.6961  159.7267 C   0  0  0  0  0  0  0  0  0  0  0  0
  152.0889  143.9412  159.6305 F   0  0  0  0  0  0  0  0  0  0  0  0
  153.2016  142.2382  160.9687 C   0  0  0  0  0  0  0  0  0  0  0  0
  153.3062  143.0180  161.9142 O   0  0  0  0  0  0  0  0  0  0  0  0
  153.6306  140.9452  161.0257 N   0  5  0  0  0  0  0  0  0  0  0  0
  153.5285  140.0856  159.9698 C   0  0  0  0  0  0  0  0  0  0  0  0
  153.8764  138.9067  160.0367 O   0  0  0  0  0  0  0  0  0  0  0  0
  152.0843  140.1546  156.3736 C   0  0  1  0  0  0  0  0  0  0  0  0
  152.7276  139.7790  155.1623 O   0  0  0  0  0  0  0  0  0  0  0  0
  153.0192  138.4892  154.9205 C   0  0  0  0  0  0  0  0  0  0  0  0
  154.2172  138.3305  153.9941 C   0  0  0  0  0  0  0  0  0  0  0  0
  152.4185  137.5124  155.3682 O   0  0  0  0  0  0  0  0  0  0  0  0
  150.7146  139.4768  156.4541 C   0  0  2  0  0  0  0  0  0  0  0  0
  149.6714  140.4403  156.3853 O   0  0  0  0  0  0  0  0  0  0  0  0
  149.5549  141.2363  155.3085 C   0  0  0  0  0  0  0  0  0  0  0  0
  148.4313  142.2532  155.4583 C   0  0  0  0  0  0  0  0  0  0  0  0
  150.2546  141.1949  154.2963 O   0  0  0  0  0  0  0  0  0  0  0  0
  148.6765  136.4893  161.5918 H   0  0  0  0  0  0  0  0  0  0  0  0
  147.8316  135.4617  160.4237 H   0  0  0  0  0  0  0  0  0  0  0  0
  146.9703  136.7831  161.2250 H   0  0  0  0  0  0  0  0  0  0  0  0
  150.3928  136.6793  157.3085 H   0  0  0  0  0  0  0  0  0  0  0  0
  148.9430  137.6554  157.3072 H   0  0  0  0  0  0  0  0  0  0  0  0
  150.3496  139.4633  158.5908 H   0  0  0  0  0  0  0  0  0  0  0  0
  153.8455  139.2646  157.3224 H   0  0  0  0  0  0  0  0  0  0  0  0
  152.0073  142.2175  157.7869 H   0  0  0  0  0  0  0  0  0  0  0  0
  152.0114  141.2400  156.4323 H   0  0  0  0  0  0  0  0  0  0  0  0
  155.0780  138.8668  154.3936 H   0  0  0  0  0  0  0  0  0  0  0  0
  153.9865  138.7300  153.0064 H   0  0  0  0  0  0  0  0  0  0  0  0
  154.4839  137.2787  153.8884 H   0  0  0  0  0  0  0  0  0  0  0  0
  150.6157  138.7266  155.6673 H   0  0  0  0  0  0  0  0  0  0  0  0
  147.5120  141.7605  155.7746 H   0  0  0  0  0  0  0  0  0  0  0  0
  148.2439  142.7598  154.5113 H   0  0  0  0  0  0  0  0  0  0  0  0
  148.6985  143.0016  156.2043 H   0  0  0  0  0  0  0  0  0  0  0  0
  1  2  1  0  0  0  0
  1 28  1  0  0  0  0
  1 29  1  0  0  0  0
  1 30  1  0  0  0  0
  2  3  2  0  0  0  0
  2  4  1  0  0  0  0
  4  5  1  0  0  0  0
  5  6  1  0  0  0  0
  5 31  1  0  0  0  0
  5 32  1  0  0  0  0
  6 23  1  0  0  0  0
  6  7  1  0  0  0  0
  6 33  1  0  0  0  0
  7  8  1  0  0  0  0
  8  9  1  0  0  0  0
  8 18  1  0  0  0  0
  8 34  1  0  0  0  0
  9 16  1  0  0  0  0
  9 10  1  0  0  0  0
 10 11  2  0  0  0  0
 10 35  1  0  0  0  0
 11 12  1  0  0  0  0
 11 13  1  0  0  0  0
 13 14  2  0  0  0  0
 13 15  1  0  0  0  0
 15 16  1  0  0  0  0
 16 17  2  0  0  0  0
 18 19  1  0  0  0  0
 18 23  1  0  0  0  0
 18 36  1  0  0  0  0
 19 20  1  0  0  0  0
 20 21  1  0  0  0  0
 20 22  2  0  0  0  0
 21 37  1  0  0  0  0
 21 38  1  0  0  0  0
 21 39  1  0  0  0  0
 23 24  1  0  0  0  0
 23 40  1  0  0  0  0
 24 25  1  0  0  0  0
 25 26  1  0  0  0  0
 25 27  2  0  0  0  0
 26 41  1  0  0  0  0
 26 42  1  0  0  0  0
 26 43  1  0  0  0  0
M  CHG  1  15  -1
M  END
> <s_m_source_file>
AV-unprocessed.smi

> <i_m_source_file_index>
102

> <i_lp_mmshare_version>
43012

> <i_f3d_flags>
0

> <s_epik_input>
W0NIM11DKD1PKU9bQ0gyXVtDQEBIXTFPW0NASF0oW0NAQEhdKE9DKD1PKVtDSDNdKVtDQEhdMU9DKD1PKVtDSDNdKW4yW2NIXWMoRiljKD1PKVtuSF1jMj1P

> <s_epik_cmdline>
J2VwaWtfcHl0aG9uJywgJy1waCcsICc3LjAnLCAnLXRuJywgJzgnLCAnLW1hJywgJzIwMCcsICctbWV0YWxfYmluZGluZycsICctaW1hZScsICc8aW5maWxlLm1hZT4nLCAnLW9tYWUnLCAnPG91dGZpbGUubWFlPic=

> <r_epik_Ionization_Penalty>
1.40304

> <r_epik_Ionization_Penalty_Charging>
1.43915e-08

> <r_epik_Ionization_Penalty_Neutral>
1.40304

> <r_epik_State_Penalty>
1.48536

> <r_epik_Charging_Adjusted_Penalty>
1.48536

> <i_epik_Tot_Q>
-1

> <i_epik_Tot_abs_Q>
1

> <r_epik_Metal_State_Penalty>
0.00663881

> <b_epik_Metal_Only>
0

> <s_epik_Chemistry_Notes>
This compound has an ester and may undergo hydrolysis at high or low pH. This compound contains an acetal/aminal-like group ( X-CH(R)-Y where X, Y are N, S, or O) that may be acid/base labile, releasing an aldehyde.

> <s_lp_Force_Field>
OPLS_2005

> <r_lp_Energy>
19.0054

> <b_lp_Chiralities_Consistent>
1

> <s_lp_Variant>
AV-unprocessed.smi:102-28

> <Gold.Version>
5.8.1

> <Gold.Id.Protein>
6NUR|6NUR_protein|mol2

> <Gold.PLP.Fitness>
41.0801

> <Gold.PLP.PLP>
-37.7501

> <Gold.PLP.part.hbond>
-5.1597

> <Gold.PLP.part.metal>
0.0000

> <Gold.PLP.part.buried>
-4.3883

> <Gold.PLP.part.nonpolar>
-30.8444

> <Gold.PLP.part.repulsive>
0.5498

> <Gold.PLP.ligand.clash>
0.0000

> <Gold.PLP.ligand.torsion>
1.2871

> <Gold.PLP.Chemscore.Hbond>
1.9040

> <Gold.PLP.Chemscore.CHOScore>
0.0000

> <Gold.PLP.Chemscore.Metal>
0.0000

> <Gold.Chemscore.Hbonds>
donor molecule, donor type, donor heavy atom, donor atom, acceptor molecule, acceptor atom, score
      P1  H  6934  6947       L1     3  0.30
      P1  H  7989  7998       L1    27  0.46
      P1  H  8011  8017       L1    27  0.13
      P1  H 10752 10763       L1    22  0.36

> <Gold.PLP.Chemscore.Internal.Correction>
0.1922

> <Gold.Rescore>
     Score         DG    S(hbond)    S(metal)    S(lipo)     H(rot)  DE(clash)    DE(int)     intcor
     -1.03      -7.62       1.72        0.00      56.61       4.00       3.17       5.48       ----

> <Gold.Chemscore.Fitness>
-1.0281

> <Gold.Chemscore.DG>
-7.6189

> <Gold.Chemscore.ZeroCoef>
-5.4800

> <Gold.Chemscore.Hbond>
1.7196

> <Gold.Chemscore.Metal>
0.0000

> <Gold.Chemscore.Lipo>
56.6055

> <Gold.Chemscore.Internal_Hbond>
0.0000

> <Gold.Chemscore.DEClash>
3.1685

> <Gold.Chemscore.DEInternal>
5.4785

> <Gold.Chemscore.Rot>
3.9951

> <Gold.Chemscore.Internal.Correction>
   9.000000E+99

> <Gold.Chemscore.Hbonds>
donor molecule, donor type, donor heavy atom, donor atom, acceptor molecule, acceptor atom, score
      P1  H  6934  6947       L1     3  0.08
      P1  H  7989  7998       L1    27  0.45
      P1  H  8011  8017       L1    27  0.13
      P1  H 10752 10763       L1    22  0.35

> <Gold.Chemscore.Hbond.Weighted>
-5.7435

> <Gold.Chemscore.Metal.Weighted>
-0.0000

> <Gold.Chemscore.Lipo.Weighted>
-6.6228

> <Gold.Chemscore.Internal_Hbond.Weighted>
0.0000

> <Gold.Chemscore.DEClash.Weighted>
3.1685

> <Gold.Chemscore.DEInternal.Weighted>
5.4785

> <Gold.Chemscore.Rot.Weighted>
10.2274

> <Gold.Chemscore.Internal.Correction.Weighted>
   9.000000E+99

> <Gold.Protein.RotatedTorsions>
[ 6907 6896 6895 6894 ] final   55.86 input  -60.11 | X-H torsion
[ 7974 7965 7964 7962 ] final  -59.30 input  175.53 | X-H torsion
[ 8008 7997 7996 7995 ] final  -42.22 input   59.86 | X-H torsion
[ 10167 10162 10161 10158 ] final    2.55 input  -65.29 | X-H torsion
[ 10718 10713 10712 10709 ] final -122.07 input   66.30 | X-H torsion
[ 10763 10752 10751 10750 ] final   90.01 input  -60.55 | X-H torsion
[ 11005 11000 10999 10996 ] final  -72.65 input  -57.11 | X-H torsion

> <Gold.Protein.ActiveResidues>
 VAL166  LYS551  ARG553  GLY616  TRP617  ASP618  TYR619  PRO620  LYS621  CYS622 
 ASP623  PHE694  ASN695  SER759  ASP760  ASP761  ALA762  ILE779  LEU786  VAL792 
 PHE793  MET794  SER795  GLU796  ALA797  LYS798  CYS799  TRP800  GLU811  SER814 

> <Gold.Protein.RotatedAtoms>
  152.3580  134.6912  160.0215 H   0  0  0  0  0  0  0  0  0  0  0  0  # atno 6907 bound_to 6896
  151.7244  133.3310  159.3332 H   0  0  0  0  0  0  0  0  0  0  0  0  # atno 6908 bound_to 6896
  150.7585  134.6353  159.6252 H   0  0  0  0  0  0  0  0  0  0  0  0  # atno 6909 bound_to 6896
  145.8291  140.8491  143.0093 H   0  0  0  0  0  0  0  0  0  0  0  0  # atno 7974 bound_to 7965
  154.4000  140.1479  156.3319 H   0  0  0  0  0  0  0  0  0  0  0  0  # atno 8008 bound_to 7997
  155.8436  140.3461  155.5626 H   0  0  0  0  0  0  0  0  0  0  0  0  # atno 8009 bound_to 7997
  155.8061  140.0877  157.1921 H   0  0  0  0  0  0  0  0  0  0  0  0  # atno 8010 bound_to 7997
  140.6629  143.7255  150.7773 H   0  0  0  0  0  0  0  0  0  0  0  0  # atno 10167 bound_to 10162
  156.1389  130.6451  150.9739 H   0  0  0  0  0  0  0  0  0  0  0  0  # atno 10718 bound_to 10713
  153.1931  135.4449  155.0174 H   0  0  0  0  0  0  0  0  0  0  0  0  # atno 10763 bound_to 10752
  154.8102  135.3291  154.7327 H   0  0  0  0  0  0  0  0  0  0  0  0  # atno 10764 bound_to 10752
  153.7779  135.6979  153.4949 H   0  0  0  0  0  0  0  0  0  0  0  0  # atno 10765 bound_to 10752
  141.1611  133.6853  156.7092 H   0  0  0  0  0  0  0  0  0  0  0  0  # atno 11005 bound_to 11000
  144.6741  140.0646  143.7475 LP  0  0  0  0  0  0  0  0  0  0  0  0  # atno 17320 bound_to 7965
  145.9591  139.2787  143.1166 LP  0  0  0  0  0  0  0  0  0  0  0  0  # atno 17321 bound_to 7965
  140.0927  143.4862  152.2469 LP  0  0  0  0  0  0  0  0  0  0  0  0  # atno 17342 bound_to 10162
  139.5869  144.7534  151.3498 LP  0  0  0  0  0  0  0  0  0  0  0  0  # atno 17343 bound_to 10162
  157.6557  131.0889  150.7952 LP  0  0  0  0  0  0  0  0  0  0  0  0  # atno 17370 bound_to 10713
  156.8029  130.4927  149.5367 LP  0  0  0  0  0  0  0  0  0  0  0  0  # atno 17371 bound_to 10713
  140.2900  134.8248  157.4008 LP  0  0  0  0  0  0  0  0  0  0  0  0  # atno 17394 bound_to 11000
  140.1355  134.5039  155.8072 LP  0  0  0  0  0  0  0  0  0  0  0  0  # atno 17395 bound_to 11000

$$$$
