AV-unprocessed.smi:1328|AV-procd|sdf|5479|dock7
  -GOLD-   22720 5 53D 1   1.00000     0.00000
 Structure written by MMmdl.
 38 39  0  0  0  0  0  0  0  0  1 V2000
  149.7773  141.8209  158.1975 C   0  0  0  0  0  0  0  0  0  0  0  0
  150.4305  141.0651  157.0761 C   0  0  0  0  0  0  0  0  0  0  0  0
  150.1455  141.3845  155.8250 N   0  0  0  0  0  0  0  0  0  0  0  0
  150.8954  140.5153  155.0271 O   0  0  0  0  0  0  0  0  0  0  0  0
  151.6134  139.6986  155.8391 C   0  0  0  0  0  0  0  0  0  0  0  0
  152.4784  138.6850  155.1693 C   0  0  0  0  0  0  0  0  0  0  0  0
  151.3671  139.9940  157.1520 C   0  0  0  0  0  0  0  0  0  0  0  0
  151.9382  139.3433  158.3855 C   0  0  0  0  0  0  0  0  0  0  0  0
  152.9498  140.2858  159.0362 C   0  0  0  0  0  0  0  0  0  0  0  0
  154.1544  140.0501  158.9475 O   0  0  0  0  0  0  0  0  0  0  0  0
  152.4420  141.3411  159.6925 N   0  0  0  0  0  0  0  0  0  0  0  0
  153.2044  142.3382  160.4411 C   0  0  2  0  0  0  0  0  0  0  0  0
  153.0425  142.0485  161.9406 C   0  0  0  0  0  0  0  0  0  0  0  0
  152.7407  143.7646  160.0786 C   0  0  2  0  0  0  0  0  0  0  0  0
  151.3199  144.1179  160.5247 C   0  0  0  0  0  0  0  0  0  0  0  0
  150.9605  145.2213  159.5572 C   0  0  0  0  0  0  0  0  0  0  0  0
  151.5983  144.7182  158.2666 C   0  0  0  0  0  0  0  0  0  0  0  0
  152.7256  143.9413  158.6629 O   0  0  0  0  0  0  0  0  0  0  0  0
  150.4144  142.6368  158.5385 H   0  0  0  0  0  0  0  0  0  0  0  0
  149.5838  141.1712  159.0509 H   0  0  0  0  0  0  0  0  0  0  0  0
  148.8226  142.2489  157.8897 H   0  0  0  0  0  0  0  0  0  0  0  0
  151.8969  137.8043  154.8964 H   0  0  0  0  0  0  0  0  0  0  0  0
  153.2866  138.3648  155.8269 H   0  0  0  0  0  0  0  0  0  0  0  0
  152.9245  139.0920  154.2618 H   0  0  0  0  0  0  0  0  0  0  0  0
  151.1562  139.1079  159.1082 H   0  0  0  0  0  0  0  0  0  0  0  0
  152.4251  138.3957  158.1517 H   0  0  0  0  0  0  0  0  0  0  0  0
  151.4380  141.4454  159.7014 H   0  0  0  0  0  0  0  0  0  0  0  0
  154.2655  142.2480  160.2017 H   0  0  0  0  0  0  0  0  0  0  0  0
  153.6270  142.7446  162.5428 H   0  0  0  0  0  0  0  0  0  0  0  0
  153.3817  141.0411  162.1842 H   0  0  0  0  0  0  0  0  0  0  0  0
  152.0006  142.1337  162.2518 H   0  0  0  0  0  0  0  0  0  0  0  0
  153.4324  144.4999  160.4936 H   0  0  0  0  0  0  0  0  0  0  0  0
  150.6491  143.2688  160.3844 H   0  0  0  0  0  0  0  0  0  0  0  0
  151.2645  144.4297  161.5680 H   0  0  0  0  0  0  0  0  0  0  0  0
  149.8862  145.3839  159.4674 H   0  0  0  0  0  0  0  0  0  0  0  0
  151.4251  146.1580  159.8677 H   0  0  0  0  0  0  0  0  0  0  0  0
  150.9059  144.0707  157.7275 H   0  0  0  0  0  0  0  0  0  0  0  0
  151.8884  145.5322  157.6017 H   0  0  0  0  0  0  0  0  0  0  0  0
  1  2  1  0  0  0  0
  1 19  1  0  0  0  0
  1 20  1  0  0  0  0
  1 21  1  0  0  0  0
  2  7  1  0  0  0  0
  2  3  2  0  0  0  0
  3  4  1  0  0  0  0
  4  5  1  0  0  0  0
  5  6  1  0  0  0  0
  5  7  2  0  0  0  0
  6 22  1  0  0  0  0
  6 23  1  0  0  0  0
  6 24  1  0  0  0  0
  7  8  1  0  0  0  0
  8  9  1  0  0  0  0
  8 25  1  0  0  0  0
  8 26  1  0  0  0  0
  9 10  2  0  0  0  0
  9 11  1  0  0  0  0
 11 12  1  0  0  0  0
 11 27  1  0  0  0  0
 12 13  1  0  0  0  0
 12 14  1  0  0  0  0
 12 28  1  0  0  0  0
 13 29  1  0  0  0  0
 13 30  1  0  0  0  0
 13 31  1  0  0  0  0
 14 18  1  0  0  0  0
 14 15  1  0  0  0  0
 14 32  1  0  0  0  0
 15 16  1  0  0  0  0
 15 33  1  0  0  0  0
 15 34  1  0  0  0  0
 16 17  1  0  0  0  0
 16 35  1  0  0  0  0
 16 36  1  0  0  0  0
 17 18  1  0  0  0  0
 17 37  1  0  0  0  0
 17 38  1  0  0  0  0
M  END
> <s_m_source_file>
AV-unprocessed.smi

> <i_m_source_file_index>
1328

> <i_lp_mmshare_version>
43012

> <i_f3d_flags>
0

> <s_epik_input>
W0NIM11jMW5vYyhbQ0gzXSljMVtDSDJdQyg9TylbTkhdW0NASF0oW0NIM10pW0NAQEhdMltDSDJdW0NIMl1bQ0gyXU8y

> <s_epik_cmdline>
J2VwaWtfcHl0aG9uJywgJy1waCcsICc3LjAnLCAnLXRuJywgJzgnLCAnLW1hJywgJzIwMCcsICctbWV0YWxfYmluZGluZycsICctaW1hZScsICc8aW5maWxlLm1hZT4nLCAnLW9tYWUnLCAnPG91dGZpbGUubWFlPic=

> <r_lp_tautomer_probability>
1

> <r_epik_Ionization_Penalty>
2.66156e-08

> <r_epik_Ionization_Penalty_Charging>
0

> <r_epik_Ionization_Penalty_Neutral>
2.66156e-08

> <r_epik_State_Penalty>
-0

> <r_epik_Charging_Adjusted_Penalty>
0

> <i_epik_Tot_Q>
0

> <i_epik_Tot_abs_Q>
0

> <r_epik_Metal_State_Penalty>
-0

> <b_epik_Metal_Only>
0

> <s_lp_Force_Field>
OPLS_2005

> <r_lp_Energy>
12.1854

> <b_lp_Chiralities_Consistent>
1

> <s_lp_Variant>
AV-unprocessed.smi:1328-1

> <Gold.Version>
5.8.1

> <Gold.Id.Protein>
6NUR|6NUR_protein|mol2

> <Gold.PLP.Fitness>
45.8722

> <Gold.PLP.PLP>
-40.9794

> <Gold.PLP.part.hbond>
-2.0000

> <Gold.PLP.part.metal>
0.0000

> <Gold.PLP.part.buried>
-6.4575

> <Gold.PLP.part.nonpolar>
-32.4136

> <Gold.PLP.part.repulsive>
0.2683

> <Gold.PLP.ligand.clash>
0.0000

> <Gold.PLP.ligand.torsion>
0.5615

> <Gold.PLP.Chemscore.Hbond>
2.0000

> <Gold.PLP.Chemscore.CHOScore>
0.0000

> <Gold.PLP.Chemscore.Metal>
0.0000

> <Gold.Chemscore.Hbonds>
donor molecule, donor type, donor heavy atom, donor atom, acceptor molecule, acceptor atom, score
      P1  H  7989  7998       L1     4  1.00
      P1  H  7997  8008       L1    10  1.00

> <Gold.PLP.Chemscore.Internal.Correction>
0.0157

> <Gold.Rescore>
     Score         DG    S(hbond)    S(metal)    S(lipo)     H(rot)  DE(clash)    DE(int)     intcor
     19.61     -20.11       1.90        0.00     104.10       1.52       0.00       0.51       ----

> <Gold.Chemscore.Fitness>
19.6082

> <Gold.Chemscore.DG>
-20.1136

> <Gold.Chemscore.ZeroCoef>
-5.4800

> <Gold.Chemscore.Hbond>
1.8964

> <Gold.Chemscore.Metal>
0.0000

> <Gold.Chemscore.Lipo>
104.1046

> <Gold.Chemscore.Internal_Hbond>
0.0000

> <Gold.Chemscore.DEClash>
0.0000

> <Gold.Chemscore.DEInternal>
0.5053

> <Gold.Chemscore.Rot>
1.5159

> <Gold.Chemscore.Internal.Correction>
   9.000000E+99

> <Gold.Chemscore.Hbonds>
donor molecule, donor type, donor heavy atom, donor atom, acceptor molecule, acceptor atom, score
      P1  H  7989  7998       L1     4  0.86
      P1  H  7997  8008       L1    10  0.91

> <Gold.Chemscore.Hbond.Weighted>
-6.3341

> <Gold.Chemscore.Metal.Weighted>
-0.0000

> <Gold.Chemscore.Lipo.Weighted>
-12.1802

> <Gold.Chemscore.Internal_Hbond.Weighted>
0.0000

> <Gold.Chemscore.DEClash.Weighted>
0.0000

> <Gold.Chemscore.DEInternal.Weighted>
0.5053

> <Gold.Chemscore.Rot.Weighted>
3.8807

> <Gold.Chemscore.Internal.Correction.Weighted>
   9.000000E+99

> <Gold.Protein.RotatedTorsions>
[ 6907 6896 6895 6894 ] final   38.87 input  -60.11 | X-H torsion
[ 7974 7965 7964 7962 ] final   45.48 input  175.53 | X-H torsion
[ 8008 7997 7996 7995 ] final -107.33 input   59.86 | X-H torsion
[ 10167 10162 10161 10158 ] final   40.07 input  -65.29 | X-H torsion
[ 10718 10713 10712 10709 ] final   89.46 input   66.30 | X-H torsion
[ 10763 10752 10751 10750 ] final  -51.45 input  -60.55 | X-H torsion
[ 11005 11000 10999 10996 ] final   26.45 input  -57.11 | X-H torsion

> <Gold.Protein.ActiveResidues>
 VAL166  LYS551  ARG553  GLY616  TRP617  ASP618  TYR619  PRO620  LYS621  CYS622 
 ASP623  PHE694  ASN695  SER759  ASP760  ASP761  ALA762  ILE779  LEU786  VAL792 
 PHE793  MET794  SER795  GLU796  ALA797  LYS798  CYS799  TRP800  GLU811  SER814 

> <Gold.Protein.RotatedAtoms>
  152.1622  134.8903  160.0540 H   0  0  0  0  0  0  0  0  0  0  0  0  # atno 6907 bound_to 6896
  151.9895  133.3781  159.4147 H   0  0  0  0  0  0  0  0  0  0  0  0  # atno 6908 bound_to 6896
  150.6889  134.3875  159.5105 H   0  0  0  0  0  0  0  0  0  0  0  0  # atno 6909 bound_to 6896
  146.0476  139.4960  142.9738 H   0  0  0  0  0  0  0  0  0  0  0  0  # atno 7974 bound_to 7965
  154.9277  140.0405  157.2032 H   0  0  0  0  0  0  0  0  0  0  0  0  # atno 8008 bound_to 7997
  154.8191  140.2880  155.5778 H   0  0  0  0  0  0  0  0  0  0  0  0  # atno 8009 bound_to 7997
  156.2978  140.2522  156.3095 H   0  0  0  0  0  0  0  0  0  0  0  0  # atno 8010 bound_to 7997
  140.3778  144.2020  150.6131 H   0  0  0  0  0  0  0  0  0  0  0  0  # atno 10167 bound_to 10162
  157.6955  131.0334  150.3428 H   0  0  0  0  0  0  0  0  0  0  0  0  # atno 10718 bound_to 10713
  154.1268  135.6526  153.4914 H   0  0  0  0  0  0  0  0  0  0  0  0  # atno 10763 bound_to 10752
  153.0207  135.5283  154.7041 H   0  0  0  0  0  0  0  0  0  0  0  0  # atno 10764 bound_to 10752
  154.6264  135.2971  155.0237 H   0  0  0  0  0  0  0  0  0  0  0  0  # atno 10765 bound_to 10752
  140.3369  134.2376  155.7695 H   0  0  0  0  0  0  0  0  0  0  0  0  # atno 11005 bound_to 11000
  145.6778  141.0199  143.1622 LP  0  0  0  0  0  0  0  0  0  0  0  0  # atno 17320 bound_to 7965
  144.7106  139.8386  143.7416 LP  0  0  0  0  0  0  0  0  0  0  0  0  # atno 17321 bound_to 7965
  140.4968  143.2330  151.8737 LP  0  0  0  0  0  0  0  0  0  0  0  0  # atno 17342 bound_to 10162
  139.4798  144.5104  151.8940 LP  0  0  0  0  0  0  0  0  0  0  0  0  # atno 17343 bound_to 10162
  156.3887  130.3894  149.7046 LP  0  0  0  0  0  0  0  0  0  0  0  0  # atno 17370 bound_to 10713
  156.4404  130.7858  151.2879 LP  0  0  0  0  0  0  0  0  0  0  0  0  # atno 17371 bound_to 10713
  141.2049  133.7875  157.0263 LP  0  0  0  0  0  0  0  0  0  0  0  0  # atno 17394 bound_to 11000
  140.0813  134.9646  157.1629 LP  0  0  0  0  0  0  0  0  0  0  0  0  # atno 17395 bound_to 11000

$$$$
