AV-unprocessed.smi:2450|AV-procd|sdf|9668|dock4
  -GOLD-   2272013303D 1   1.00000     0.00000
 Structure written by MMmdl.
 42 43  0  0  0  0  0  0  0  0  2 V2000
  152.1805  144.9612  159.7147 C   0  0  0  0  0  0  0  0  0  0  0  0
  151.5629  144.7853  158.3197 C   0  0  0  0  0  0  0  0  0  0  0  0
  151.6094  143.3364  157.7986 C   0  0  1  0  0  0  0  0  0  0  0  0
  151.5825  142.3216  158.9532 C   0  0  0  0  0  0  0  0  0  0  0  0
  150.4942  143.0932  156.8855 N   0  0  0  0  0  0  0  0  0  0  0  0
  150.1795  141.9090  156.3413 C   0  0  0  0  0  0  0  0  0  0  0  0
  150.7902  140.8673  156.5779 O   0  0  0  0  0  0  0  0  0  0  0  0
  149.1132  142.0174  155.5309 N   0  0  0  0  0  0  0  0  0  0  0  0
  148.4633  141.0028  154.7698 C   0  0  0  0  0  0  0  0  0  0  0  0
  149.0988  139.7910  154.3942 C   0  0  0  0  0  0  0  0  0  0  0  0
  148.3958  138.8415  153.6267 C   0  0  0  0  0  0  0  0  0  0  0  0
  147.0732  139.1195  153.2360 C   0  0  0  0  0  0  0  0  0  0  0  0
  146.5018  140.2880  153.5941 N   0  3  0  0  0  0  0  0  0  0  0  0
  147.1339  141.2340  154.3317 C   0  0  0  0  0  0  0  0  0  0  0  0
  146.4473  142.4183  154.6510 N   0  0  0  0  0  0  0  0  0  0  0  0
  145.9693  143.1955  153.5196 C   0  0  0  0  0  0  0  0  0  0  0  0
  144.9529  144.1806  154.1030 C   0  0  0  0  0  0  0  0  0  0  0  0
  144.5173  143.5570  155.4349 C   0  0  0  0  0  0  0  0  0  0  0  0
  145.3064  142.2491  155.5345 C   0  0  0  0  0  0  0  0  0  0  0  0
  152.0779  145.9919  160.0551 H   0  0  0  0  0  0  0  0  0  0  0  0
  153.2435  144.7191  159.7185 H   0  0  0  0  0  0  0  0  0  0  0  0
  151.6878  144.3201  160.4460 H   0  0  0  0  0  0  0  0  0  0  0  0
  150.5249  145.1179  158.3560 H   0  0  0  0  0  0  0  0  0  0  0  0
  152.0677  145.4485  157.6159 H   0  0  0  0  0  0  0  0  0  0  0  0
  152.5468  143.2084  157.2537 H   0  0  0  0  0  0  0  0  0  0  0  0
  152.4167  142.4842  159.6363 H   0  0  0  0  0  0  0  0  0  0  0  0
  151.6590  141.2982  158.5846 H   0  0  0  0  0  0  0  0  0  0  0  0
  150.6606  142.4000  159.5302 H   0  0  0  0  0  0  0  0  0  0  0  0
  149.9313  143.8943  156.6398 H   0  0  0  0  0  0  0  0  0  0  0  0
  148.6711  142.9247  155.5052 H   0  0  0  0  0  0  0  0  0  0  0  0
  150.1200  139.5738  154.6664 H   0  0  0  0  0  0  0  0  0  0  0  0
  148.8688  137.9141  153.3380 H   0  0  0  0  0  0  0  0  0  0  0  0
  146.4619  138.4508  152.6469 H   0  0  0  0  0  0  0  0  0  0  0  0
  146.7911  143.7134  153.0243 H   0  0  0  0  0  0  0  0  0  0  0  0
  145.4858  142.5506  152.7845 H   0  0  0  0  0  0  0  0  0  0  0  0
  145.4220  145.1489  154.2825 H   0  0  0  0  0  0  0  0  0  0  0  0
  144.1144  144.3391  153.4241 H   0  0  0  0  0  0  0  0  0  0  0  0
  144.7797  144.2216  156.2590 H   0  0  0  0  0  0  0  0  0  0  0  0
  143.4421  143.3811  155.4801 H   0  0  0  0  0  0  0  0  0  0  0  0
  144.6891  141.4118  155.2053 H   0  0  0  0  0  0  0  0  0  0  0  0
  145.6266  142.0501  156.5576 H   0  0  0  0  0  0  0  0  0  0  0  0
  145.5439  140.4683  153.2933 H   0  0  0  0  0  0  0  0  0  0  0  0
  1  2  1  0  0  0  0
  1 20  1  0  0  0  0
  1 21  1  0  0  0  0
  1 22  1  0  0  0  0
  2  3  1  0  0  0  0
  2 23  1  0  0  0  0
  2 24  1  0  0  0  0
  3  4  1  0  0  0  0
  3  5  1  0  0  0  0
  3 25  1  0  0  0  0
  4 26  1  0  0  0  0
  4 27  1  0  0  0  0
  4 28  1  0  0  0  0
  5  6  1  0  0  0  0
  5 29  1  0  0  0  0
  6  7  2  0  0  0  0
  6  8  1  0  0  0  0
  8  9  1  0  0  0  0
  8 30  1  0  0  0  0
  9 14  1  0  0  0  0
  9 10  2  0  0  0  0
 10 11  1  0  0  0  0
 10 31  1  0  0  0  0
 11 12  2  0  0  0  0
 11 32  1  0  0  0  0
 12 13  1  0  0  0  0
 12 33  1  0  0  0  0
 13 14  2  0  0  0  0
 13 42  1  0  0  0  0
 14 15  1  0  0  0  0
 15 19  1  0  0  0  0
 15 16  1  0  0  0  0
 16 17  1  0  0  0  0
 16 34  1  0  0  0  0
 16 35  1  0  0  0  0
 17 18  1  0  0  0  0
 17 36  1  0  0  0  0
 17 37  1  0  0  0  0
 18 19  1  0  0  0  0
 18 38  1  0  0  0  0
 18 39  1  0  0  0  0
 19 40  1  0  0  0  0
 19 41  1  0  0  0  0
M  CHG  1  13   1
M  END
> <s_m_source_file>
AV-unprocessed.smi

> <i_m_source_file_index>
2450

> <i_lp_mmshare_version>
43012

> <i_f3d_flags>
0

> <s_epik_input>
W0NIM11bQ0gyXVtDQEhdKFtDSDNdKVtOSF1DKD1PKVtOSF1jMVtjSF1bY0hdW2NIXW5jMU4yW0NIMl1bQ0gyXVtDSDJdW0NIMl0y

> <s_epik_cmdline>
J2VwaWtfcHl0aG9uJywgJy1waCcsICc3LjAnLCAnLXRuJywgJzgnLCAnLW1hJywgJzIwMCcsICctbWV0YWxfYmluZGluZycsICctaW1hZScsICc8aW5maWxlLm1hZT4nLCAnLW9tYWUnLCAnPG91dGZpbGUubWFlPic=

> <r_lp_tautomer_probability>
0.999994

> <r_epik_Ionization_Penalty>
1.08838

> <r_epik_Ionization_Penalty_Charging>
1.08836

> <r_epik_Ionization_Penalty_Neutral>
2.1796e-05

> <r_epik_State_Penalty>
1.14442

> <r_epik_Charging_Adjusted_Penalty>
2.23278

> <i_epik_Tot_Q>
1

> <i_epik_Tot_abs_Q>
1

> <r_epik_Metal_State_Penalty>
1.23344

> <b_epik_Metal_Only>
0

> <s_lp_Force_Field>
OPLS_2005

> <r_lp_Energy>
41.1125

> <b_lp_Chiralities_Consistent>
1

> <s_lp_Variant>
AV-unprocessed.smi:2450-4

> <Gold.Version>
5.8.1

> <Gold.Id.Protein>
6NUR|6NUR_protein|mol2

> <Gold.PLP.Fitness>
48.7666

> <Gold.PLP.PLP>
-37.9775

> <Gold.PLP.part.hbond>
-2.9788

> <Gold.PLP.part.metal>
0.0000

> <Gold.PLP.part.buried>
-4.9937

> <Gold.PLP.part.nonpolar>
-30.2270

> <Gold.PLP.part.repulsive>
0.3851

> <Gold.PLP.ligand.clash>
0.0000

> <Gold.PLP.ligand.torsion>
0.5678

> <Gold.PLP.Chemscore.Hbond>
3.9600

> <Gold.PLP.Chemscore.CHOScore>
0.0000

> <Gold.PLP.Chemscore.Metal>
0.0000

> <Gold.Chemscore.Hbonds>
donor molecule, donor type, donor heavy atom, donor atom, acceptor molecule, acceptor atom, score
      L1  H     5    29       P1  8028  1.00
      L1  H     8    30       P1  8028  0.96
      L1  H    13    42       P1 10175  2.00

> <Gold.PLP.Chemscore.Internal.Correction>
0.0447

> <Gold.Rescore>
     Score         DG    S(hbond)    S(metal)    S(lipo)     H(rot)  DE(clash)    DE(int)     intcor
     19.82     -22.48       2.85        0.00      93.30       1.34       0.33       2.33       ----

> <Gold.Chemscore.Fitness>
19.8213

> <Gold.Chemscore.DG>
-22.4765

> <Gold.Chemscore.ZeroCoef>
-5.4800

> <Gold.Chemscore.Hbond>
2.8471

> <Gold.Chemscore.Metal>
0.0000

> <Gold.Chemscore.Lipo>
93.2960

> <Gold.Chemscore.Internal_Hbond>
0.0000

> <Gold.Chemscore.DEClash>
0.3277

> <Gold.Chemscore.DEInternal>
2.3275

> <Gold.Chemscore.Rot>
1.3393

> <Gold.Chemscore.Internal.Correction>
   9.000000E+99

> <Gold.Chemscore.Hbonds>
donor molecule, donor type, donor heavy atom, donor atom, acceptor molecule, acceptor atom, score
      L1  H     5    29       P1  8028  0.98
      L1  H     8    30       P1  8028  0.92
      L1  H    13    42       P1 10175  0.90

> <Gold.Chemscore.Hbond.Weighted>
-9.5094

> <Gold.Chemscore.Metal.Weighted>
-0.0000

> <Gold.Chemscore.Lipo.Weighted>
-10.9156

> <Gold.Chemscore.Internal_Hbond.Weighted>
0.0000

> <Gold.Chemscore.DEClash.Weighted>
0.3277

> <Gold.Chemscore.DEInternal.Weighted>
2.3275

> <Gold.Chemscore.Rot.Weighted>
3.4285

> <Gold.Chemscore.Internal.Correction.Weighted>
   9.000000E+99

> <Gold.Protein.RotatedTorsions>
[ 6907 6896 6895 6894 ] final  174.48 input  -60.11 | X-H torsion
[ 7974 7965 7964 7962 ] final   68.50 input  175.53 | X-H torsion
[ 8008 7997 7996 7995 ] final  172.11 input   59.86 | X-H torsion
[ 10167 10162 10161 10158 ] final    7.11 input  -65.29 | X-H torsion
[ 10718 10713 10712 10709 ] final  -25.13 input   66.30 | X-H torsion
[ 10763 10752 10751 10750 ] final -126.75 input  -60.55 | X-H torsion
[ 11005 11000 10999 10996 ] final  -76.89 input  -57.11 | X-H torsion

> <Gold.Protein.ActiveResidues>
 VAL166  LYS551  ARG553  GLY616  TRP617  ASP618  TYR619  PRO620  LYS621  CYS622 
 ASP623  PHE694  ASN695  SER759  ASP760  ASP761  ALA762  ILE779  LEU786  VAL792 
 PHE793  MET794  SER795  GLU796  ALA797  LYS798  CYS799  TRP800  GLU811  SER814 

> <Gold.Protein.RotatedAtoms>
  151.7515  133.3327  159.3392 H   0  0  0  0  0  0  0  0  0  0  0  0  # atno 6907 bound_to 6896
  150.7533  134.6188  159.6134 H   0  0  0  0  0  0  0  0  0  0  0  0  # atno 6908 bound_to 6896
  152.3465  134.7066  160.0300 H   0  0  0  0  0  0  0  0  0  0  0  0  # atno 6909 bound_to 6896
  145.8019  139.2986  143.1150 H   0  0  0  0  0  0  0  0  0  0  0  0  # atno 7974 bound_to 7965
  156.1206  140.1494  156.9209 H   0  0  0  0  0  0  0  0  0  0  0  0  # atno 8008 bound_to 7997
  154.4833  140.0873  156.7470 H   0  0  0  0  0  0  0  0  0  0  0  0  # atno 8009 bound_to 7997
  155.4434  140.3432  155.4295 H   0  0  0  0  0  0  0  0  0  0  0  0  # atno 8010 bound_to 7997
  140.6390  143.7818  150.7401 H   0  0  0  0  0  0  0  0  0  0  0  0  # atno 10167 bound_to 10162
  156.4684  130.4519  149.6885 H   0  0  0  0  0  0  0  0  0  0  0  0  # atno 10718 bound_to 10713
  154.8748  135.3985  154.3481 H   0  0  0  0  0  0  0  0  0  0  0  0  # atno 10763 bound_to 10752
  153.4271  135.7024  153.6261 H   0  0  0  0  0  0  0  0  0  0  0  0  # atno 10764 bound_to 10752
  153.4898  135.3751  155.2455 H   0  0  0  0  0  0  0  0  0  0  0  0  # atno 10765 bound_to 10752
  141.1657  133.7001  156.7737 H   0  0  0  0  0  0  0  0  0  0  0  0  # atno 11005 bound_to 11000
  145.9869  140.8636  143.0086 LP  0  0  0  0  0  0  0  0  0  0  0  0  # atno 17320 bound_to 7965
  144.6768  140.2160  143.7372 LP  0  0  0  0  0  0  0  0  0  0  0  0  # atno 17321 bound_to 7965
  140.1446  143.4411  152.2171 LP  0  0  0  0  0  0  0  0  0  0  0  0  # atno 17342 bound_to 10162
  139.5600  144.7399  151.4183 LP  0  0  0  0  0  0  0  0  0  0  0  0  # atno 17343 bound_to 10162
  156.3644  130.7498  151.2474 LP  0  0  0  0  0  0  0  0  0  0  0  0  # atno 17370 bound_to 10713
  157.7493  131.0341  150.4302 LP  0  0  0  0  0  0  0  0  0  0  0  0  # atno 17371 bound_to 10713
  140.2445  134.8588  157.3606 LP  0  0  0  0  0  0  0  0  0  0  0  0  # atno 17394 bound_to 11000
  140.1763  134.4545  155.7800 LP  0  0  0  0  0  0  0  0  0  0  0  0  # atno 17395 bound_to 11000

$$$$
