AV-unprocessed.smi:83|AV-procd|sdf|805|dock7
  -GOLD-   2262017193D 1   1.00000     0.00000
 Structure written by MMmdl.
 56 59  0  0  0  0  0  0  0  0  1 V2000
  152.9868  142.7242  162.4898 C   0  0  0  0  0  0  0  0  0  0  0  0
  152.4251  143.2054  161.1510 C   0  0  0  0  0  0  0  0  0  0  0  0
  152.0981  144.3859  161.0302 O   0  0  0  0  0  0  0  0  0  0  0  0
  152.3065  142.3130  160.1474 N   0  0  0  0  0  0  0  0  0  0  0  0
  152.6848  140.9020  160.2095 C   0  0  0  0  0  0  0  0  0  0  0  0
  152.5494  140.3795  158.7779 C   0  0  0  0  0  0  0  0  0  0  0  0
  151.5052  141.2942  158.1474 C   0  0  2  0  0  0  0  0  0  0  0  0
  151.5494  141.3269  156.6073 C   0  0  0  0  0  0  0  0  0  0  0  0
  150.9421  140.1402  156.0008 N   0  0  0  0  0  0  0  0  0  0  0  0
  151.3734  138.8312  156.4740 C   0  0  0  0  0  0  0  0  0  0  0  0
  149.7544  140.2630  155.3452 C   0  0  0  0  0  0  0  0  0  0  0  0
  149.3268  141.5150  155.0313 N   0  0  0  0  0  0  0  0  0  0  0  0
  148.1679  141.7039  154.3955 C   0  0  0  0  0  0  0  0  0  0  0  0
  147.2860  140.7934  153.9842 N   0  0  0  0  0  0  0  0  0  0  0  0
  147.7002  139.5325  154.2944 C   0  0  0  0  0  0  0  0  0  0  0  0
  148.9080  139.1765  154.9634 C   0  0  0  0  0  0  0  0  0  0  0  0
  148.9650  137.7928  155.1043 N   0  0  0  0  0  0  0  0  0  0  0  0
  147.8681  137.3604  154.5464 C   0  0  0  0  0  0  0  0  0  0  0  0
  147.0505  138.3391  154.0341 N   0  0  0  0  0  0  0  0  0  0  0  0
  145.7774  138.1405  153.3641 C   0  0  0  0  0  0  0  0  0  0  0  0
  145.3684  136.6556  153.3082 C   0  0  2  0  0  0  0  0  0  0  0  0
  146.1588  135.9881  152.3429 O   0  0  0  0  0  0  0  0  0  0  0  0
  143.8825  136.4741  152.9474 C   0  0  1  0  0  0  0  0  0  0  0  0
  143.4114  135.0179  152.9090 C   0  0  0  0  0  0  0  0  0  0  0  0
  141.9269  135.1037  153.2315 C   0  0  0  0  0  0  0  0  0  0  0  0
  141.7359  136.5367  153.7332 C   0  0  0  0  0  0  0  0  0  0  0  0
  143.0509  137.0225  153.9584 O   0  0  0  0  0  0  0  0  0  0  0  0
  151.7689  142.6410  158.8304 C   0  0  0  0  0  0  0  0  0  0  0  0
  152.4027  141.8896  162.8783 H   0  0  0  0  0  0  0  0  0  0  0  0
  152.9594  143.5258  163.2287 H   0  0  0  0  0  0  0  0  0  0  0  0
  154.0232  142.4048  162.3784 H   0  0  0  0  0  0  0  0  0  0  0  0
  153.6993  140.7610  160.5846 H   0  0  0  0  0  0  0  0  0  0  0  0
  151.9975  140.3765  160.8738 H   0  0  0  0  0  0  0  0  0  0  0  0
  153.5028  140.4890  158.2588 H   0  0  0  0  0  0  0  0  0  0  0  0
  152.2677  139.3268  158.7393 H   0  0  0  0  0  0  0  0  0  0  0  0
  150.5252  140.9381  158.4690 H   0  0  0  0  0  0  0  0  0  0  0  0
  151.0991  142.2474  156.2359 H   0  0  0  0  0  0  0  0  0  0  0  0
  152.5900  141.3688  156.2843 H   0  0  0  0  0  0  0  0  0  0  0  0
  151.2439  138.0740  155.7001 H   0  0  0  0  0  0  0  0  0  0  0  0
  150.8080  138.5343  157.3577 H   0  0  0  0  0  0  0  0  0  0  0  0
  152.4298  138.8501  156.7428 H   0  0  0  0  0  0  0  0  0  0  0  0
  147.9100  142.7320  154.1894 H   0  0  0  0  0  0  0  0  0  0  0  0
  147.6232  136.3097  154.4929 H   0  0  0  0  0  0  0  0  0  0  0  0
  145.0229  138.7212  153.8957 H   0  0  0  0  0  0  0  0  0  0  0  0
  145.8389  138.5594  152.3591 H   0  0  0  0  0  0  0  0  0  0  0  0
  145.5626  136.1935  154.2772 H   0  0  0  0  0  0  0  0  0  0  0  0
  147.0644  136.2167  152.4873 H   0  0  0  0  0  0  0  0  0  0  0  0
  143.6544  136.9657  151.9993 H   0  0  0  0  0  0  0  0  0  0  0  0
  143.6084  134.5404  151.9487 H   0  0  0  0  0  0  0  0  0  0  0  0
  143.9169  134.4358  153.6810 H   0  0  0  0  0  0  0  0  0  0  0  0
  141.3097  134.9150  152.3524 H   0  0  0  0  0  0  0  0  0  0  0  0
  141.6565  134.3736  153.9950 H   0  0  0  0  0  0  0  0  0  0  0  0
  141.2533  137.1489  152.9700 H   0  0  0  0  0  0  0  0  0  0  0  0
  141.1349  136.5881  154.6413 H   0  0  0  0  0  0  0  0  0  0  0  0
  150.8564  143.2364  158.8950 H   0  0  0  0  0  0  0  0  0  0  0  0
  152.5146  143.2207  158.2843 H   0  0  0  0  0  0  0  0  0  0  0  0
  1  2  1  0  0  0  0
  1 29  1  0  0  0  0
  1 30  1  0  0  0  0
  1 31  1  0  0  0  0
  2  3  2  0  0  0  0
  2  4  1  0  0  0  0
  4 28  1  0  0  0  0
  4  5  1  0  0  0  0
  5  6  1  0  0  0  0
  5 32  1  0  0  0  0
  5 33  1  0  0  0  0
  6  7  1  0  0  0  0
  6 34  1  0  0  0  0
  6 35  1  0  0  0  0
  7  8  1  0  0  0  0
  7 28  1  0  0  0  0
  7 36  1  0  0  0  0
  8  9  1  0  0  0  0
  8 37  1  0  0  0  0
  8 38  1  0  0  0  0
  9 10  1  0  0  0  0
  9 11  1  0  0  0  0
 10 39  1  0  0  0  0
 10 40  1  0  0  0  0
 10 41  1  0  0  0  0
 11 16  1  0  0  0  0
 11 12  2  0  0  0  0
 12 13  1  0  0  0  0
 13 14  2  0  0  0  0
 13 42  1  0  0  0  0
 14 15  1  0  0  0  0
 15 19  1  0  0  0  0
 15 16  2  0  0  0  0
 16 17  1  0  0  0  0
 17 18  2  0  0  0  0
 18 19  1  0  0  0  0
 18 43  1  0  0  0  0
 19 20  1  0  0  0  0
 20 21  1  0  0  0  0
 20 44  1  0  0  0  0
 20 45  1  0  0  0  0
 21 22  1  0  0  0  0
 21 23  1  0  0  0  0
 21 46  1  0  0  0  0
 22 47  1  0  0  0  0
 23 27  1  0  0  0  0
 23 24  1  0  0  0  0
 23 48  1  0  0  0  0
 24 25  1  0  0  0  0
 24 49  1  0  0  0  0
 24 50  1  0  0  0  0
 25 26  1  0  0  0  0
 25 51  1  0  0  0  0
 25 52  1  0  0  0  0
 26 27  1  0  0  0  0
 26 53  1  0  0  0  0
 26 54  1  0  0  0  0
 28 55  1  0  0  0  0
 28 56  1  0  0  0  0
M  END
> <s_m_source_file>
AV-unprocessed.smi

> <i_m_source_file_index>
83

> <i_lp_mmshare_version>
43012

> <i_f3d_flags>
0

> <s_epik_input>
W0NIM11DKD1PKU4xW0NIMl1bQ0gyXVtDQEhdKFtDSDJdMSlbQ0gyXU4oW0NIM10pYyhuW2NIXW4yKWMoYzIzKW5bY0hdbjNbQ0gyXVtDQEhdKFtPSF0pW0NAQEhdNFtDSDJdW0NIMl1bQ0gyXU80

> <s_epik_cmdline>
J2VwaWtfcHl0aG9uJywgJy1waCcsICc3LjAnLCAnLXRuJywgJzgnLCAnLW1hJywgJzIwMCcsICctbWV0YWxfYmluZGluZycsICctaW1hZScsICc8aW5maWxlLm1hZT4nLCAnLW9tYWUnLCAnPG91dGZpbGUubWFlPic=

> <r_lp_tautomer_probability>
1

> <r_epik_Ionization_Penalty>
0.00109752

> <r_epik_Ionization_Penalty_Charging>
0

> <r_epik_Ionization_Penalty_Neutral>
0.00109752

> <r_epik_State_Penalty>
0.000634803

> <r_epik_Charging_Adjusted_Penalty>
0.000634803

> <i_epik_Tot_Q>
0

> <i_epik_Tot_abs_Q>
0

> <r_epik_Metal_State_Penalty>
-0

> <b_epik_Metal_Only>
0

> <s_lp_Force_Field>
OPLS_2005

> <r_lp_Energy>
52.1459

> <b_lp_Chiralities_Consistent>
1

> <s_lp_Variant>
AV-unprocessed.smi:83-6

> <Gold.Version>
5.8.1

> <Gold.Id.Protein>
6NUR|6NUR_protein|mol2

> <Gold.PLP.Fitness>
50.3098

> <Gold.PLP.PLP>
-44.3686

> <Gold.PLP.part.hbond>
-1.0000

> <Gold.PLP.part.metal>
0.0000

> <Gold.PLP.part.buried>
-6.0482

> <Gold.PLP.part.nonpolar>
-38.3689

> <Gold.PLP.part.repulsive>
0.7910

> <Gold.PLP.ligand.clash>
0.0000

> <Gold.PLP.ligand.torsion>
0.3993

> <Gold.PLP.Chemscore.Hbond>
0.9920

> <Gold.PLP.Chemscore.CHOScore>
1.1063

> <Gold.PLP.Chemscore.Metal>
0.0000

> <Gold.Chemscore.Hbonds>
donor molecule, donor type, donor heavy atom, donor atom, acceptor molecule, acceptor atom, score
      L1  H    22    47       P1  7948  0.98
      L1  C    13    42       P1  8028  0.66

> <Gold.PLP.Chemscore.Internal.Correction>
0.4449

> <Gold.Rescore>
     Score         DG    S(hbond)    S(metal)    S(lipo)     H(rot)  DE(clash)    DE(int)     intcor
      9.14     -11.84       0.96        0.00      84.14       2.62       0.81       1.89       ----

> <Gold.Chemscore.Fitness>
9.1367

> <Gold.Chemscore.DG>
-11.8389

> <Gold.Chemscore.ZeroCoef>
-5.4800

> <Gold.Chemscore.Hbond>
0.9609

> <Gold.Chemscore.Metal>
0.0000

> <Gold.Chemscore.Lipo>
84.1395

> <Gold.Chemscore.Internal_Hbond>
0.0000

> <Gold.Chemscore.DEClash>
0.8074

> <Gold.Chemscore.DEInternal>
1.8948

> <Gold.Chemscore.Rot>
2.6152

> <Gold.Chemscore.Internal.Correction>
   9.000000E+99

> <Gold.Chemscore.Hbonds>
donor molecule, donor type, donor heavy atom, donor atom, acceptor molecule, acceptor atom, score
      L1  H    22    47       P1  7948  0.91

> <Gold.Chemscore.Hbond.Weighted>
-3.2095

> <Gold.Chemscore.Metal.Weighted>
-0.0000

> <Gold.Chemscore.Lipo.Weighted>
-9.8443

> <Gold.Chemscore.Internal_Hbond.Weighted>
0.0000

> <Gold.Chemscore.DEClash.Weighted>
0.8074

> <Gold.Chemscore.DEInternal.Weighted>
1.8948

> <Gold.Chemscore.Rot.Weighted>
6.6949

> <Gold.Chemscore.Internal.Correction.Weighted>
   9.000000E+99

> <Gold.Protein.RotatedTorsions>
[ 6907 6896 6895 6894 ] final   18.29 input  -60.11 | X-H torsion
[ 7974 7965 7964 7962 ] final  -38.61 input  175.53 | X-H torsion
[ 8008 7997 7996 7995 ] final  -24.82 input   59.86 | X-H torsion
[ 10167 10162 10161 10158 ] final  127.04 input  -65.29 | X-H torsion
[ 10718 10713 10712 10709 ] final  -67.09 input   66.30 | X-H torsion
[ 10763 10752 10751 10750 ] final -110.76 input  -60.55 | X-H torsion
[ 11005 11000 10999 10996 ] final  -94.70 input  -57.11 | X-H torsion

> <Gold.Protein.ActiveResidues>
 VAL166  LYS551  ARG553  GLY616  TRP617  ASP618  TYR619  PRO620  LYS621  CYS622 
 ASP623  PHE694  ASN695  SER759  ASP760  ASP761  ALA762  ILE779  LEU786  VAL792 
 PHE793  MET794  SER795  GLU796  ALA797  LYS798  CYS799  TRP800  GLU811  SER814 

> <Gold.Protein.RotatedAtoms>
  151.8630  135.0517  160.0471 H   0  0  0  0  0  0  0  0  0  0  0  0  # atno 6907 bound_to 6896
  152.2648  133.5325  159.5412 H   0  0  0  0  0  0  0  0  0  0  0  0  # atno 6908 bound_to 6896
  150.7129  134.0696  159.3902 H   0  0  0  0  0  0  0  0  0  0  0  0  # atno 6909 bound_to 6896
  146.0471  140.6532  142.9060 H   0  0  0  0  0  0  0  0  0  0  0  0  # atno 7974 bound_to 7965
  154.4509  140.1943  156.0523 H   0  0  0  0  0  0  0  0  0  0  0  0  # atno 8008 bound_to 7997
  156.0645  140.3292  155.7474 H   0  0  0  0  0  0  0  0  0  0  0  0  # atno 8009 bound_to 7997
  155.5360  140.0582  157.2870 H   0  0  0  0  0  0  0  0  0  0  0  0  # atno 8010 bound_to 7997
  139.5599  144.6874  151.4074 H   0  0  0  0  0  0  0  0  0  0  0  0  # atno 10167 bound_to 10162
  156.0576  130.4272  150.1804 H   0  0  0  0  0  0  0  0  0  0  0  0  # atno 10718 bound_to 10713
  154.8265  135.4552  154.0935 H   0  0  0  0  0  0  0  0  0  0  0  0  # atno 10763 bound_to 10752
  153.2244  135.6898  153.7968 H   0  0  0  0  0  0  0  0  0  0  0  0  # atno 10764 bound_to 10752
  153.7374  135.3317  155.3274 H   0  0  0  0  0  0  0  0  0  0  0  0  # atno 10765 bound_to 10752
  141.1463  133.7974  157.0334 H   0  0  0  0  0  0  0  0  0  0  0  0  # atno 11005 bound_to 11000
  144.7103  140.4013  143.7086 LP  0  0  0  0  0  0  0  0  0  0  0  0  # atno 17320 bound_to 7965
  145.6788  139.1614  143.2713 LP  0  0  0  0  0  0  0  0  0  0  0  0  # atno 17321 bound_to 7965
  140.6877  143.7935  150.7210 LP  0  0  0  0  0  0  0  0  0  0  0  0  # atno 17342 bound_to 10162
  140.1407  143.4443  152.2195 LP  0  0  0  0  0  0  0  0  0  0  0  0  # atno 17343 bound_to 10162
  156.9878  130.9884  151.3422 LP  0  0  0  0  0  0  0  0  0  0  0  0  # atno 17370 bound_to 10713
  157.5559  130.8213  149.8204 LP  0  0  0  0  0  0  0  0  0  0  0  0  # atno 17371 bound_to 10713
  140.0739  134.9686  157.1514 LP  0  0  0  0  0  0  0  0  0  0  0  0  # atno 17394 bound_to 11000
  140.3671  134.2431  155.7181 LP  0  0  0  0  0  0  0  0  0  0  0  0  # atno 17395 bound_to 11000

$$$$
