AV-unprocessed.smi:23|AV-procd|sdf|174|dock9
  -GOLD-   2262015433D 1   1.00000     0.00000
 Structure written by MMmdl.
 53 56  0  0  0  0  0  0  0  0  1 V2000
  146.3416  142.8118  153.6365 C   0  0  0  0  0  0  0  0  0  0  0  0
  146.2969  142.2778  154.9546 O   0  0  0  0  0  0  0  0  0  0  0  0
  147.2075  141.2304  155.3059 C   0  0  2  0  0  0  0  0  0  0  0  0
  146.9548  141.0599  156.8176 C   0  0  0  0  0  0  0  0  0  0  0  0
  148.6722  141.6561  155.0262 C   0  0  0  0  0  0  0  0  0  0  0  0
  149.6625  140.5165  155.3257 C   0  0  0  0  0  0  0  0  0  0  0  0
  149.2629  139.2253  154.5920 C   0  0  0  0  0  0  0  0  0  0  0  0
  147.8719  138.8734  154.8791 N   0  0  0  0  0  0  0  0  0  0  0  0
  147.4676  137.6044  154.6225 C   0  0  0  0  0  0  0  0  0  0  0  0
  148.0391  136.5629  155.2845 N   0  0  0  0  0  0  0  0  0  0  0  0
  147.6560  135.3089  155.0270 C   0  0  0  0  0  0  0  0  0  0  0  0
  146.7316  134.8785  154.1665 N   0  0  0  0  0  0  0  0  0  0  0  0
  146.1451  135.9190  153.5079 C   0  0  0  0  0  0  0  0  0  0  0  0
  146.4545  137.2992  153.6702 C   0  0  0  0  0  0  0  0  0  0  0  0
  145.6566  138.0649  152.8280 N   0  0  0  0  0  0  0  0  0  0  0  0
  144.9302  137.1865  152.1922 C   0  0  0  0  0  0  0  0  0  0  0  0
  145.1368  135.8759  152.5603 N   0  0  0  0  0  0  0  0  0  0  0  0
  144.5059  134.7171  151.9982 C   0  0  0  0  0  0  0  0  0  0  0  0
  145.0093  133.3067  152.3210 C   0  0  0  0  0  0  0  0  0  0  0  0
  144.6968  132.8511  150.8784 C   0  0  0  0  0  0  0  0  0  0  0  0
  145.8105  132.0448  150.1926 C   0  0  0  0  0  0  0  0  0  0  0  0
  147.0895  132.5503  150.5185 O   0  0  0  0  0  0  0  0  0  0  0  0
  143.3752  132.0832  150.6517 C   0  0  0  0  0  0  0  0  0  0  0  0
  142.9969  132.0040  149.2923 O   0  0  0  0  0  0  0  0  0  0  0  0
  144.6867  134.3544  150.5209 C   0  0  0  0  0  0  0  0  0  0  0  0
  146.8897  139.9103  154.5607 C   0  0  0  0  0  0  0  0  0  0  0  0
  145.6176  143.6234  153.5657 H   0  0  0  0  0  0  0  0  0  0  0  0
  146.0639  142.0739  152.8848 H   0  0  0  0  0  0  0  0  0  0  0  0
  147.3148  143.2295  153.3836 H   0  0  0  0  0  0  0  0  0  0  0  0
  147.5617  140.2672  157.2539 H   0  0  0  0  0  0  0  0  0  0  0  0
  145.9121  140.8071  157.0125 H   0  0  0  0  0  0  0  0  0  0  0  0
  147.1759  141.9793  157.3607 H   0  0  0  0  0  0  0  0  0  0  0  0
  148.7974  141.9286  153.9794 H   0  0  0  0  0  0  0  0  0  0  0  0
  148.9303  142.5427  155.6063 H   0  0  0  0  0  0  0  0  0  0  0  0
  150.6697  140.8124  155.0312 H   0  0  0  0  0  0  0  0  0  0  0  0
  149.7055  140.3301  156.3987 H   0  0  0  0  0  0  0  0  0  0  0  0
  149.3844  139.3546  153.5156 H   0  0  0  0  0  0  0  0  0  0  0  0
  149.9275  138.4157  154.8968 H   0  0  0  0  0  0  0  0  0  0  0  0
  148.1621  134.5401  155.5922 H   0  0  0  0  0  0  0  0  0  0  0  0
  144.2135  137.4753  151.4371 H   0  0  0  0  0  0  0  0  0  0  0  0
  143.4475  134.8114  152.2433 H   0  0  0  0  0  0  0  0  0  0  0  0
  146.0773  133.2865  152.5452 H   0  0  0  0  0  0  0  0  0  0  0  0
  144.4403  132.7925  153.0961 H   0  0  0  0  0  0  0  0  0  0  0  0
  145.7645  130.9913  150.4706 H   0  0  0  0  0  0  0  0  0  0  0  0
  145.7061  132.0813  149.1079 H   0  0  0  0  0  0  0  0  0  0  0  0
  147.7268  131.8653  150.3848 H   0  0  0  0  0  0  0  0  0  0  0  0
  143.4514  131.0644  151.0327 H   0  0  0  0  0  0  0  0  0  0  0  0
  142.5523  132.5557  151.1887 H   0  0  0  0  0  0  0  0  0  0  0  0
  142.4508  132.7480  149.0887 H   0  0  0  0  0  0  0  0  0  0  0  0
  143.8636  134.6687  149.8781 H   0  0  0  0  0  0  0  0  0  0  0  0
  145.6411  134.7054  150.1248 H   0  0  0  0  0  0  0  0  0  0  0  0
  145.8731  139.5919  154.7901 H   0  0  0  0  0  0  0  0  0  0  0  0
  146.9316  140.0577  153.4818 H   0  0  0  0  0  0  0  0  0  0  0  0
  1  2  1  0  0  0  0
  1 27  1  0  0  0  0
  1 28  1  0  0  0  0
  1 29  1  0  0  0  0
  2  3  1  0  0  0  0
  3 26  1  0  0  0  0
  3  4  1  0  0  0  0
  3  5  1  0  0  0  0
  4 30  1  0  0  0  0
  4 31  1  0  0  0  0
  4 32  1  0  0  0  0
  5  6  1  0  0  0  0
  5 33  1  0  0  0  0
  5 34  1  0  0  0  0
  6  7  1  0  0  0  0
  6 35  1  0  0  0  0
  6 36  1  0  0  0  0
  7  8  1  0  0  0  0
  7 37  1  0  0  0  0
  7 38  1  0  0  0  0
  8  9  1  0  0  0  0
  8 26  1  0  0  0  0
  9 14  1  0  0  0  0
  9 10  2  0  0  0  0
 10 11  1  0  0  0  0
 11 12  2  0  0  0  0
 11 39  1  0  0  0  0
 12 13  1  0  0  0  0
 13 17  1  0  0  0  0
 13 14  2  0  0  0  0
 14 15  1  0  0  0  0
 15 16  2  0  0  0  0
 16 17  1  0  0  0  0
 16 40  1  0  0  0  0
 17 18  1  0  0  0  0
 18 25  1  0  0  0  0
 18 19  1  0  0  0  0
 18 41  1  0  0  0  0
 19 20  1  0  0  0  0
 19 42  1  0  0  0  0
 19 43  1  0  0  0  0
 20 21  1  0  0  0  0
 20 23  1  0  0  0  0
 20 25  1  0  0  0  0
 21 22  1  0  0  0  0
 21 44  1  0  0  0  0
 21 45  1  0  0  0  0
 22 46  1  0  0  0  0
 23 24  1  0  0  0  0
 23 47  1  0  0  0  0
 23 48  1  0  0  0  0
 24 49  1  0  0  0  0
 25 50  1  0  0  0  0
 25 51  1  0  0  0  0
 26 52  1  0  0  0  0
 26 53  1  0  0  0  0
M  END
> <s_m_source_file>
AV-unprocessed.smi

> <i_m_source_file_index>
23

> <i_lp_mmshare_version>
43012

> <i_f3d_flags>
0

> <s_epik_input>
W0NIM11PW0NAQF0xKFtDSDNdKVtDSDJdW0NIMl1bQ0gyXU4oW0NIMl0xKWMobltjSF1uMiljKGMyMyluW2NIXW4zW0NIXShbQ0gyXTQpW0NIMl1DNChbQ0gyXVtPSF0pW0NIMl1bT0hd

> <s_epik_cmdline>
J2VwaWtfcHl0aG9uJywgJy1waCcsICc3LjAnLCAnLXRuJywgJzgnLCAnLW1hJywgJzIwMCcsICctbWV0YWxfYmluZGluZycsICctaW1hZScsICc8aW5maWxlLm1hZT4nLCAnLW9tYWUnLCAnPG91dGZpbGUubWFlPic=

> <r_lp_tautomer_probability>
1

> <r_epik_Ionization_Penalty>
0.00233978

> <r_epik_Ionization_Penalty_Charging>
0

> <r_epik_Ionization_Penalty_Neutral>
0.00233978

> <r_epik_State_Penalty>
0.00146422

> <r_epik_Charging_Adjusted_Penalty>
0.00146422

> <i_epik_Tot_Q>
0

> <i_epik_Tot_abs_Q>
0

> <r_epik_Metal_State_Penalty>
-0

> <b_epik_Metal_Only>
0

> <s_lp_Force_Field>
OPLS_2005

> <r_lp_Energy>
49.2291

> <b_lp_Chiralities_Consistent>
1

> <s_lp_Variant>
AV-unprocessed.smi:23-2

> <Gold.Version>
5.8.1

> <Gold.Id.Protein>
6NUR|6NUR_protein|mol2

> <Gold.PLP.Fitness>
46.5484

> <Gold.PLP.PLP>
-35.4325

> <Gold.PLP.part.hbond>
-4.4156

> <Gold.PLP.part.metal>
0.0000

> <Gold.PLP.part.buried>
-2.8710

> <Gold.PLP.part.nonpolar>
-29.2732

> <Gold.PLP.part.repulsive>
0.9676

> <Gold.PLP.ligand.clash>
0.0000

> <Gold.PLP.ligand.torsion>
0.6741

> <Gold.PLP.Chemscore.Hbond>
2.8688

> <Gold.PLP.Chemscore.CHOScore>
1.0000

> <Gold.PLP.Chemscore.Metal>
0.0000

> <Gold.Chemscore.Hbonds>
donor molecule, donor type, donor heavy atom, donor atom, acceptor molecule, acceptor atom, score
      L1  H    22    46       P1 10747  1.00
      L1  H    24    49       P1 10186  0.46
      P1  H 10785 10796       L1    24  1.00
      L1  C    16    40       P1 10171  0.91

> <Gold.PLP.Chemscore.Internal.Correction>
0.8577

> <Gold.Rescore>
     Score         DG    S(hbond)    S(metal)    S(lipo)     H(rot)  DE(clash)    DE(int)     intcor
     11.55     -14.97       2.64        0.00      79.69       3.38       0.08       3.34       ----

> <Gold.Chemscore.Fitness>
11.5462

> <Gold.Chemscore.DG>
-14.9684

> <Gold.Chemscore.ZeroCoef>
-5.4800

> <Gold.Chemscore.Hbond>
2.6428

> <Gold.Chemscore.Metal>
0.0000

> <Gold.Chemscore.Lipo>
79.6894

> <Gold.Chemscore.Internal_Hbond>
0.0000

> <Gold.Chemscore.DEClash>
0.0847

> <Gold.Chemscore.DEInternal>
3.3375

> <Gold.Chemscore.Rot>
3.3837

> <Gold.Chemscore.Internal.Correction>
   9.000000E+99

> <Gold.Chemscore.Hbonds>
donor molecule, donor type, donor heavy atom, donor atom, acceptor molecule, acceptor atom, score
      L1  H    22    46       P1 10747  0.99
      L1  H    24    49       P1 10186  0.45
      P1  H 10785 10796       L1    24  0.64

> <Gold.Chemscore.Hbond.Weighted>
-8.8270

> <Gold.Chemscore.Metal.Weighted>
-0.0000

> <Gold.Chemscore.Lipo.Weighted>
-9.3237

> <Gold.Chemscore.Internal_Hbond.Weighted>
0.0000

> <Gold.Chemscore.DEClash.Weighted>
0.0847

> <Gold.Chemscore.DEInternal.Weighted>
3.3375

> <Gold.Chemscore.Rot.Weighted>
8.6622

> <Gold.Chemscore.Internal.Correction.Weighted>
   9.000000E+99

> <Gold.Protein.RotatedTorsions>
[ 6907 6896 6895 6894 ] final  116.00 input  -60.11 | X-H torsion
[ 7974 7965 7964 7962 ] final  135.36 input  175.53 | X-H torsion
[ 8008 7997 7996 7995 ] final -114.86 input   59.86 | X-H torsion
[ 10167 10162 10161 10158 ] final   52.98 input  -65.29 | X-H torsion
[ 10718 10713 10712 10709 ] final -175.78 input   66.30 | X-H torsion
[ 10763 10752 10751 10750 ] final -107.77 input  -60.55 | X-H torsion
[ 11005 11000 10999 10996 ] final  -33.64 input  -57.11 | X-H torsion

> <Gold.Protein.ActiveResidues>
 VAL166  LYS551  ARG553  GLY616  TRP617  ASP618  TYR619  PRO620  LYS621  CYS622 
 ASP623  PHE694  ASN695  SER759  ASP760  ASP761  ALA762  ILE779  LEU786  VAL792 
 PHE793  MET794  SER795  GLU796  ALA797  LYS798  CYS799  TRP800  GLU811  SER814 

> <Gold.Protein.RotatedAtoms>
  152.4706  133.8021  159.6958 H   0  0  0  0  0  0  0  0  0  0  0  0  # atno 6907 bound_to 6896
  150.8693  133.7519  159.2973 H   0  0  0  0  0  0  0  0  0  0  0  0  # atno 6908 bound_to 6896
  151.5059  135.1066  159.9893 H   0  0  0  0  0  0  0  0  0  0  0  0  # atno 6909 bound_to 6896
  144.9671  139.4646  143.5451 H   0  0  0  0  0  0  0  0  0  0  0  0  # atno 7974 bound_to 7965
  155.0430  140.0392  157.2516 H   0  0  0  0  0  0  0  0  0  0  0  0  # atno 8008 bound_to 7997
  154.7201  140.2710  155.6525 H   0  0  0  0  0  0  0  0  0  0  0  0  # atno 8009 bound_to 7997
  156.2814  140.2704  156.1870 H   0  0  0  0  0  0  0  0  0  0  0  0  # atno 8010 bound_to 7997
  140.2456  144.3535  150.6365 H   0  0  0  0  0  0  0  0  0  0  0  0  # atno 10167 bound_to 10162
  156.8050  130.9565  151.3117 H   0  0  0  0  0  0  0  0  0  0  0  0  # atno 10718 bound_to 10713
  154.8095  135.4662  154.0480 H   0  0  0  0  0  0  0  0  0  0  0  0  # atno 10763 bound_to 10752
  153.1922  135.6857  153.8345 H   0  0  0  0  0  0  0  0  0  0  0  0  # atno 10764 bound_to 10752
  153.7859  135.3250  155.3349 H   0  0  0  0  0  0  0  0  0  0  0  0  # atno 10765 bound_to 10752
  140.9651  133.7142  156.1432 H   0  0  0  0  0  0  0  0  0  0  0  0  # atno 11005 bound_to 11000
  146.3371  139.8859  142.8817 LP  0  0  0  0  0  0  0  0  0  0  0  0  # atno 17320 bound_to 7965
  145.2613  141.0078  143.3824 LP  0  0  0  0  0  0  0  0  0  0  0  0  # atno 17321 bound_to 7965
  140.6080  143.2168  151.6943 LP  0  0  0  0  0  0  0  0  0  0  0  0  # atno 17342 bound_to 10162
  139.5063  144.3687  152.0491 LP  0  0  0  0  0  0  0  0  0  0  0  0  # atno 17343 bound_to 10162
  157.6535  130.8904  149.9681 LP  0  0  0  0  0  0  0  0  0  0  0  0  # atno 17370 bound_to 10713
  156.1079  130.3651  150.0102 LP  0  0  0  0  0  0  0  0  0  0  0  0  # atno 17371 bound_to 10713
  140.7411  134.4149  157.5554 LP  0  0  0  0  0  0  0  0  0  0  0  0  # atno 17394 bound_to 11000
  139.8892  134.8837  156.2435 LP  0  0  0  0  0  0  0  0  0  0  0  0  # atno 17395 bound_to 11000

$$$$
