#       Name:                AV-unprocessed.smi:3290
#       Creating user name   scv26
#       Creation time:       Fri Mar 27 18:54:50 2020


#       File generated by GOLD software.
#

@<TRIPOS>MOLECULE
AV-unprocessed.smi:3290
    46    47     1
SMALL
NO_CHARGES


@<TRIPOS>ATOM
      1 ****        -1.8172   0.3505   2.0627 C.3            1 S1                 0.0000
      2 ****        -2.3670   1.3140   0.9954 C.3            1 S1                 0.0000
      3 ****        -3.8997   1.4248   1.1409 C.3            1 S1                 0.0000
      4 ****        -4.5026   2.4176   0.1384 C.3            1 S1                 0.0000
      5 ****        -4.1289   2.0349  -1.2976 C.3            1 S1                 0.0000
      6 ****        -2.6058   1.9308  -1.4565 C.3            1 S1                 0.0000
      7 ****        -1.9793   0.9268  -0.4628 C.3            1 S1                 0.0000
      8 ****        -0.4536   0.8560  -0.7009 C.3            1 S1                 0.0000
      9 ****         0.1200  -0.4327  -0.2640 N.4            1 S1                 1.0000
     10 ****         1.5837  -0.5292  -0.4320 C.3            1 S1                 0.0000
     11 ****         2.1153  -1.8960   0.0332 C.3            1 S1                 0.0000
     12 ****         1.5522  -2.9046  -0.7830 O.3            1 S1                 0.0000
     13 ****         3.6349  -1.9314   0.0044 C.ar           1 S1                 0.0000
     14 ****         4.3405  -2.0327  -1.2143 C.ar           1 S1                 0.0000
     15 ****         5.7493  -2.0490  -1.1780 C.ar           1 S1                 0.0000
     16 ****         6.4620  -1.9712  -0.0340 N.ar           1 S1                 0.0000
     17 ****         5.7823  -1.8740   1.1285 C.ar           1 S1                 0.0000
     18 ****         4.3750  -1.8488   1.2024 C.ar           1 S1                 0.0000
     19 ****        -2.1054  -0.6806   1.8555 H              1 S1                 0.0000
     20 ****        -2.1966   0.6063   3.0526 H              1 S1                 0.0000
     21 ****        -0.7304   0.3957   2.1258 H              1 S1                 0.0000
     22 ****        -1.9482   2.2994   1.2058 H              1 S1                 0.0000
     23 ****        -4.3562   0.4440   0.9992 H              1 S1                 0.0000
     24 ****        -4.1577   1.7390   2.1530 H              1 S1                 0.0000
     25 ****        -5.5872   2.4451   0.2464 H              1 S1                 0.0000
     26 ****        -4.1433   3.4241   0.3564 H              1 S1                 0.0000
     27 ****        -4.5926   1.0824  -1.5571 H              1 S1                 0.0000
     28 ****        -4.5266   2.7735  -1.9941 H              1 S1                 0.0000
     29 ****        -2.3777   1.6348  -2.4811 H              1 S1                 0.0000
     30 ****        -2.1590   2.9162  -1.3162 H              1 S1                 0.0000
     31 ****        -2.4064  -0.0522  -0.6876 H              1 S1                 0.0000
     32 ****        -0.2352   0.9582  -1.7649 H              1 S1                 0.0000
     33 ****         0.0487   1.6834  -0.1979 H              1 S1                 0.0000
     34 ****        -0.0991  -0.5658   0.7129 H              1 S1                 0.0000
     35 ****         1.8460  -0.3525  -1.4765 H              1 S1                 0.0000
     36 ****         2.0502   0.2643   0.1536 H              1 S1                 0.0000
     37 ****         1.7843  -2.0820   1.0561 H              1 S1                 0.0000
     38 ****         1.8473  -3.7455  -0.4669 H              1 S1                 0.0000
     39 ****         3.8188  -2.0943  -2.1581 H              1 S1                 0.0000
     40 ****         6.3182  -2.1243  -2.0929 H              1 S1                 0.0000
     41 ****         6.3772  -1.8123   2.0278 H              1 S1                 0.0000
     42 ****         3.8813  -1.7666   2.1597 H              1 S1                 0.0000
     43 ****        -0.3115  -1.1759  -0.7953 H              1 S1                 0.0000
     44 ****         1.8484  -2.7771  -1.7296 LP             1 S1                 0.0000
     45 ****         0.5544  -2.8580  -0.7368 LP             1 S1                 0.0000
     46 ****         7.4618  -1.9851  -0.0472 LP             1 S1                 0.0000
@<TRIPOS>BOND
    1    1    2 1     
    2    1   19 1     
    3    1   20 1     
    4    1   21 1     
    5    2    7 1     
    6    2    3 1     
    7    2   22 1     
    8    3    4 1     
    9    3   23 1     
   10    3   24 1     
   11    4    5 1     
   12    4   25 1     
   13    4   26 1     
   14    5    6 1     
   15    5   27 1     
   16    5   28 1     
   17    6    7 1     
   18    6   29 1     
   19    6   30 1     
   20    7    8 1     
   21    7   31 1     
   22    8    9 1     
   23    8   32 1     
   24    8   33 1     
   25    9   10 1     
   26    9   34 1     
   27    9   43 1     
   28   10   11 1     
   29   10   35 1     
   30   10   36 1     
   31   11   12 1     
   32   11   13 1     
   33   11   37 1     
   34   12   38 1     
   35   13   18 ar    
   36   13   14 ar    
   37   14   15 ar    
   38   14   39 1     
   39   15   16 ar    
   40   15   40 1     
   41   16   17 ar    
   42   17   18 ar    
   43   17   41 1     
   44   18   42 1     
   45   12   44 1     
   46   12   45 1     
   47   16   46 1     
@<TRIPOS>SUBSTRUCTURE
      1 S1             1
@<TRIPOS>SET
LONE_PAIRS      STATIC     ATOMS    <user>   **** ""
3 44 45 46
DONOR_HYDROGENS      STATIC     ATOMS    <user>   **** ""
3 34 43 38
ATOM$BLUE        STATIC     ATOMS    COLORGROUP SYSTEM
3 44 45 46
ATOM$RED        STATIC     ATOMS    COLORGROUP SYSTEM
3 34 43 38
