AV-unprocessed.smi:794|AV-procd|sdf|3762|dock1
  -GOLD-   22720 1193D 1   1.00000     0.00000
 Structure written by MMmdl.
 41 43  0  0  0  0  0  0  0  0  1 V2000
  145.0100  137.2096  162.4614 C   0  0  0  0  0  0  0  0  0  0  0  0
  146.0984  136.5994  161.6290 C   0  0  0  0  0  0  0  0  0  0  0  0
  146.6617  137.3734  160.6100 N   0  0  0  0  0  0  0  0  0  0  0  0
  147.6169  136.7216  159.9410 C   0  0  0  0  0  0  0  0  0  0  0  0
  148.3514  137.2687  158.8563 N   0  0  0  0  0  0  0  0  0  0  0  0
  149.3727  136.7123  158.1813 C   0  0  0  0  0  0  0  0  0  0  0  0
  149.8379  135.5923  158.3939 O   0  0  0  0  0  0  0  0  0  0  0  0
  149.8268  137.5372  157.2271 N   0  0  0  0  0  0  0  0  0  0  0  0
  150.9244  137.2538  156.2991 C   0  0  2  0  0  0  0  0  0  0  0  0
  152.2413  137.9636  156.7026 C   0  0  2  0  0  0  0  0  0  0  0  0
  152.0086  139.4617  156.9928 C   0  0  0  0  0  0  0  0  0  0  0  0
  151.7074  140.0300  155.5942 C   0  0  0  0  0  0  0  0  0  0  0  0
  151.8503  138.7946  154.6796 C   0  0  1  0  0  0  0  0  0  0  0  0
  152.9821  138.0436  155.3712 C   0  0  0  0  0  0  0  0  0  0  0  0
  150.6822  137.7943  154.8613 C   0  0  2  0  0  0  0  0  0  0  0  0
  149.2691  138.3282  154.5345 C   0  0  0  0  0  0  0  0  0  0  0  0
  149.2158  138.7889  153.2010 O   0  0  0  0  0  0  0  0  0  0  0  0
  147.8902  135.0901  160.5220 S   0  0  0  0  0  0  0  0  0  0  0  0
  146.6473  135.3375  161.7245 C   0  0  0  0  0  0  0  0  0  0  0  0
  146.3177  134.2351  162.6785 C   0  0  0  0  0  0  0  0  0  0  0  0
  144.6327  136.5292  163.2226 H   0  0  0  0  0  0  0  0  0  0  0  0
  144.1629  137.5031  161.8410 H   0  0  0  0  0  0  0  0  0  0  0  0
  145.3656  138.1040  162.9735 H   0  0  0  0  0  0  0  0  0  0  0  0
  148.0644  138.1897  158.5595 H   0  0  0  0  0  0  0  0  0  0  0  0
  149.3813  138.4378  157.1313 H   0  0  0  0  0  0  0  0  0  0  0  0
  151.1104  136.1797  156.2401 H   0  0  0  0  0  0  0  0  0  0  0  0
  152.7846  137.4495  157.4960 H   0  0  0  0  0  0  0  0  0  0  0  0
  151.2099  139.6551  157.7088 H   0  0  0  0  0  0  0  0  0  0  0  0
  152.9160  139.9142  157.3951 H   0  0  0  0  0  0  0  0  0  0  0  0
  150.7275  140.5013  155.5335 H   0  0  0  0  0  0  0  0  0  0  0  0
  152.4464  140.7877  155.3302 H   0  0  0  0  0  0  0  0  0  0  0  0
  152.0471  139.0462  153.6371 H   0  0  0  0  0  0  0  0  0  0  0  0
  153.9123  138.6124  155.4247 H   0  0  0  0  0  0  0  0  0  0  0  0
  153.1894  137.0664  154.9311 H   0  0  0  0  0  0  0  0  0  0  0  0
  150.8618  136.9640  154.1754 H   0  0  0  0  0  0  0  0  0  0  0  0
  148.5347  137.5298  154.6458 H   0  0  0  0  0  0  0  0  0  0  0  0
  148.9648  139.1318  155.2040 H   0  0  0  0  0  0  0  0  0  0  0  0
  149.1731  138.0408  152.6251 H   0  0  0  0  0  0  0  0  0  0  0  0
  145.5122  134.5042  163.3595 H   0  0  0  0  0  0  0  0  0  0  0  0
  147.1883  133.9774  163.2818 H   0  0  0  0  0  0  0  0  0  0  0  0
  146.0080  133.3402  162.1385 H   0  0  0  0  0  0  0  0  0  0  0  0
  1  2  1  0  0  0  0
  1 21  1  0  0  0  0
  1 22  1  0  0  0  0
  1 23  1  0  0  0  0
  2 19  2  0  0  0  0
  2  3  1  0  0  0  0
  3  4  2  0  0  0  0
  4  5  1  0  0  0  0
  4 18  1  0  0  0  0
  5  6  1  0  0  0  0
  5 24  1  0  0  0  0
  6  7  2  0  0  0  0
  6  8  1  0  0  0  0
  8  9  1  0  0  0  0
  8 25  1  0  0  0  0
  9 15  1  0  0  0  0
  9 10  1  0  0  0  0
  9 26  1  0  0  0  0
 10 14  1  0  0  0  0
 10 11  1  0  0  0  0
 10 27  1  0  0  0  0
 11 12  1  0  0  0  0
 11 28  1  0  0  0  0
 11 29  1  0  0  0  0
 12 13  1  0  0  0  0
 12 30  1  0  0  0  0
 12 31  1  0  0  0  0
 13 14  1  0  0  0  0
 13 15  1  0  0  0  0
 13 32  1  0  0  0  0
 14 33  1  0  0  0  0
 14 34  1  0  0  0  0
 15 16  1  0  0  0  0
 15 35  1  0  0  0  0
 16 17  1  0  0  0  0
 16 36  1  0  0  0  0
 16 37  1  0  0  0  0
 17 38  1  0  0  0  0
 18 19  1  0  0  0  0
 19 20  1  0  0  0  0
 20 39  1  0  0  0  0
 20 40  1  0  0  0  0
 20 41  1  0  0  0  0
M  END
> <s_m_source_file>
AV-unprocessed.smi

> <i_m_source_file_index>
794

> <i_lp_mmshare_version>
43012

> <i_f3d_flags>
0

> <s_epik_input>
W0NIM11jMW5jKHNjMVtDSDNdKVtOSF1DKD1PKVtOSF1bQ0BIXShbQ0BASF0yMylbQ0BIXShbQ0gyXVtPSF0pW0NAQEhdKFtDSDJdMylbQ0gyXVtDSDJdMg==

> <s_epik_cmdline>
J2VwaWtfcHl0aG9uJywgJy1waCcsICc3LjAnLCAnLXRuJywgJzgnLCAnLW1hJywgJzIwMCcsICctbWV0YWxfYmluZGluZycsICctaW1hZScsICc8aW5maWxlLm1hZT4nLCAnLW9tYWUnLCAnPG91dGZpbGUubWFlPic=

> <r_lp_tautomer_probability>
0.999

> <r_epik_Ionization_Penalty>
0.000713029

> <r_epik_Ionization_Penalty_Charging>
0

> <r_epik_Ionization_Penalty_Neutral>
0.000713029

> <r_epik_State_Penalty>
0.000177984

> <r_epik_Charging_Adjusted_Penalty>
0.000177984

> <i_epik_Tot_Q>
0

> <i_epik_Tot_abs_Q>
0

> <r_epik_Metal_State_Penalty>
-0

> <b_epik_Metal_Only>
0

> <s_lp_Force_Field>
OPLS_2005

> <r_lp_Energy>
49.8561

> <b_lp_Chiralities_Consistent>
1

> <s_lp_Variant>
AV-unprocessed.smi:794-7

> <Gold.Version>
5.8.1

> <Gold.Id.Protein>
6NUR|6NUR_protein|mol2

> <Gold.PLP.Fitness>
41.2806

> <Gold.PLP.PLP>
-32.8308

> <Gold.PLP.part.hbond>
-3.6304

> <Gold.PLP.part.metal>
0.0000

> <Gold.PLP.part.buried>
-2.3551

> <Gold.PLP.part.nonpolar>
-26.9791

> <Gold.PLP.part.repulsive>
0.1743

> <Gold.PLP.ligand.clash>
0.0000

> <Gold.PLP.ligand.torsion>
0.2805

> <Gold.PLP.Chemscore.Hbond>
3.0000

> <Gold.PLP.Chemscore.CHOScore>
0.0000

> <Gold.PLP.Chemscore.Metal>
0.0000

> <Gold.Chemscore.Hbonds>
donor molecule, donor type, donor heavy atom, donor atom, acceptor molecule, acceptor atom, score
      L1  H    17    38       P1  7948  1.00
      P1  H  6896  6908       L1     7  1.00
      P1  H  6934  6947       L1     3  1.00

> <Gold.PLP.Chemscore.Internal.Correction>
0.0108

> <Gold.Rescore>
     Score         DG    S(hbond)    S(metal)    S(lipo)     H(rot)  DE(clash)    DE(int)     intcor
     19.01     -20.57       2.83        0.00      87.09       1.78       0.04       1.51       ----

> <Gold.Chemscore.Fitness>
19.0125

> <Gold.Chemscore.DG>
-20.5651

> <Gold.Chemscore.ZeroCoef>
-5.4800

> <Gold.Chemscore.Hbond>
2.8300

> <Gold.Chemscore.Metal>
0.0000

> <Gold.Chemscore.Lipo>
87.0852

> <Gold.Chemscore.Internal_Hbond>
0.0000

> <Gold.Chemscore.DEClash>
0.0408

> <Gold.Chemscore.DEInternal>
1.5118

> <Gold.Chemscore.Rot>
1.7798

> <Gold.Chemscore.Internal.Correction>
   9.000000E+99

> <Gold.Chemscore.Hbonds>
donor molecule, donor type, donor heavy atom, donor atom, acceptor molecule, acceptor atom, score
      L1  H    17    38       P1  7948  0.95
      P1  H  6896  6908       L1     7  0.98
      P1  H  6934  6947       L1     3  0.73

> <Gold.Chemscore.Hbond.Weighted>
-9.4523

> <Gold.Chemscore.Metal.Weighted>
-0.0000

> <Gold.Chemscore.Lipo.Weighted>
-10.1890

> <Gold.Chemscore.Internal_Hbond.Weighted>
0.0000

> <Gold.Chemscore.DEClash.Weighted>
0.0408

> <Gold.Chemscore.DEInternal.Weighted>
1.5118

> <Gold.Chemscore.Rot.Weighted>
4.5562

> <Gold.Chemscore.Internal.Correction.Weighted>
   9.000000E+99

> <Gold.Protein.RotatedTorsions>
[ 6907 6896 6895 6894 ] final  179.27 input  -60.11 | X-H torsion
[ 7974 7965 7964 7962 ] final  -70.74 input  175.53 | X-H torsion
[ 8008 7997 7996 7995 ] final  107.06 input   59.86 | X-H torsion
[ 10167 10162 10161 10158 ] final  147.90 input  -65.29 | X-H torsion
[ 10718 10713 10712 10709 ] final  108.50 input   66.30 | X-H torsion
[ 10763 10752 10751 10750 ] final  -73.12 input  -60.55 | X-H torsion
[ 11005 11000 10999 10996 ] final   75.62 input  -57.11 | X-H torsion

> <Gold.Protein.ActiveResidues>
 VAL166  LYS551  ARG553  GLY616  TRP617  ASP618  TYR619  PRO620  LYS621  CYS622 
 ASP623  PHE694  ASN695  SER759  ASP760  ASP761  ALA762  ILE779  LEU786  VAL792 
 PHE793  MET794  SER795  GLU796  ALA797  LYS798  CYS799  TRP800  GLU811  SER814 

> <Gold.Protein.RotatedAtoms>
  151.6744  133.3313  159.3204 H   0  0  0  0  0  0  0  0  0  0  0  0  # atno 6907 bound_to 6896
  150.7852  134.6835  159.6466 H   0  0  0  0  0  0  0  0  0  0  0  0  # atno 6908 bound_to 6896
  152.3920  134.6429  160.0156 H   0  0  0  0  0  0  0  0  0  0  0  0  # atno 6909 bound_to 6896
  145.6871  140.9167  143.0801 H   0  0  0  0  0  0  0  0  0  0  0  0  # atno 7974 bound_to 7965
  156.1793  140.3101  155.9119 H   0  0  0  0  0  0  0  0  0  0  0  0  # atno 8008 bound_to 7997
  155.3418  140.0466  157.3062 H   0  0  0  0  0  0  0  0  0  0  0  0  # atno 8009 bound_to 7997
  154.5325  140.2235  155.8789 H   0  0  0  0  0  0  0  0  0  0  0  0  # atno 8010 bound_to 7997
  139.4883  144.5720  151.7036 H   0  0  0  0  0  0  0  0  0  0  0  0  # atno 10167 bound_to 10162
  157.6583  131.0895  150.6314 H   0  0  0  0  0  0  0  0  0  0  0  0  # atno 10718 bound_to 10713
  154.4550  135.5908  153.6217 H   0  0  0  0  0  0  0  0  0  0  0  0  # atno 10763 bound_to 10752
  152.9817  135.6030  154.3557 H   0  0  0  0  0  0  0  0  0  0  0  0  # atno 10764 bound_to 10752
  154.3422  135.2841  155.2395 H   0  0  0  0  0  0  0  0  0  0  0  0  # atno 10765 bound_to 10752
  139.9335  134.7533  156.1294 H   0  0  0  0  0  0  0  0  0  0  0  0  # atno 11005 bound_to 11000
  144.7008  139.8772  143.7444 LP  0  0  0  0  0  0  0  0  0  0  0  0  # atno 17320 bound_to 7965
  146.0914  139.3904  143.0403 LP  0  0  0  0  0  0  0  0  0  0  0  0  # atno 17321 bound_to 7965
  140.5309  144.0731  150.6053 LP  0  0  0  0  0  0  0  0  0  0  0  0  # atno 17342 bound_to 10162
  140.3721  143.2849  152.0266 LP  0  0  0  0  0  0  0  0  0  0  0  0  # atno 17343 bound_to 10162
  156.6618  130.4514  149.5685 LP  0  0  0  0  0  0  0  0  0  0  0  0  # atno 17370 bound_to 10713
  156.2061  130.6650  151.1220 LP  0  0  0  0  0  0  0  0  0  0  0  0  # atno 17371 bound_to 10713
  141.0937  133.6704  156.2596 LP  0  0  0  0  0  0  0  0  0  0  0  0  # atno 17394 bound_to 11000
  140.6138  134.5431  157.5537 LP  0  0  0  0  0  0  0  0  0  0  0  0  # atno 17395 bound_to 11000

$$$$
