AV-unprocessed.smi:1565|AV-procd|sdf|6301|dock6
  -GOLD-   22720 6503D 1   1.00000     0.00000
 Structure written by MMmdl.
 39 40  0  0  0  0  0  0  0  0  2 V2000
  152.1367  145.4680  158.6430 C   0  0  0  0  0  0  0  0  0  0  0  0
  151.8141  143.9999  158.9408 C   0  0  2  0  0  0  0  0  0  0  0  0
  152.9565  143.3005  159.7010 C   0  0  0  0  0  0  0  0  0  0  0  0
  152.6673  141.8785  159.8625 N   0  0  0  0  0  0  0  0  0  0  0  0
  153.5038  141.1928  160.7694 C   0  0  0  0  0  0  0  0  0  0  0  0
  153.7411  141.7270  162.0574 C   0  0  0  0  0  0  0  0  0  0  0  0
  154.5896  141.0355  162.9432 C   0  0  0  0  0  0  0  0  0  0  0  0
  155.1761  139.8182  162.5285 C   0  0  0  0  0  0  0  0  0  0  0  0
  156.1259  139.0473  163.4053 C   0  0  0  0  0  0  0  0  0  0  0  0
  156.6895  139.6550  164.3223 O   0  0  0  0  0  0  0  0  0  0  0  0
  156.2631  137.7496  163.0110 N   0  5  0  0  0  0  0  0  0  0  0  0
  156.0740  136.5961  163.8942 C   0  0  0  0  0  0  0  0  0  0  0  0
  154.7174  135.9080  163.6397 C   0  0  0  0  0  0  0  0  0  0  0  0
  154.5981  135.6549  162.3364 F   0  0  0  0  0  0  0  0  0  0  0  0
  154.6426  134.7521  164.3012 F   0  0  0  0  0  0  0  0  0  0  0  0
  153.7024  136.6908  164.0088 F   0  0  0  0  0  0  0  0  0  0  0  0
  154.8809  139.3673  161.2239 C   0  0  0  0  0  0  0  0  0  0  0  0
  154.0666  140.0258  160.3710 N   0  0  0  0  0  0  0  0  0  0  0  0
  152.3327  141.2134  158.6052 C   0  0  0  0  0  0  0  0  0  0  0  0
  151.2062  141.9715  157.8788 C   0  0  2  0  0  0  0  0  0  0  0  0
  150.9066  141.3740  156.5000 C   0  0  0  0  0  0  0  0  0  0  0  0
  151.5959  143.3306  157.7019 O   0  0  0  0  0  0  0  0  0  0  0  0
  152.3020  146.0283  159.5638 H   0  0  0  0  0  0  0  0  0  0  0  0
  151.3169  145.9456  158.1059 H   0  0  0  0  0  0  0  0  0  0  0  0
  153.0341  145.5582  158.0302 H   0  0  0  0  0  0  0  0  0  0  0  0
  150.8994  143.9600  159.5353 H   0  0  0  0  0  0  0  0  0  0  0  0
  153.8933  143.4055  159.1520 H   0  0  0  0  0  0  0  0  0  0  0  0
  153.0967  143.7930  160.6624 H   0  0  0  0  0  0  0  0  0  0  0  0
  153.2801  142.6490  162.3780 H   0  0  0  0  0  0  0  0  0  0  0  0
  154.7836  141.4463  163.9234 H   0  0  0  0  0  0  0  0  0  0  0  0
  156.8735  135.8613  163.7880 H   0  0  0  0  0  0  0  0  0  0  0  0
  156.1148  136.9071  164.9388 H   0  0  0  0  0  0  0  0  0  0  0  0
  155.3068  138.4493  160.8456 H   0  0  0  0  0  0  0  0  0  0  0  0
  153.2220  141.1670  157.9750 H   0  0  0  0  0  0  0  0  0  0  0  0
  152.0144  140.1880  158.7979 H   0  0  0  0  0  0  0  0  0  0  0  0
  150.2938  141.9361  158.4771 H   0  0  0  0  0  0  0  0  0  0  0  0
  150.5924  140.3333  156.5831 H   0  0  0  0  0  0  0  0  0  0  0  0
  151.7853  141.4083  155.8553 H   0  0  0  0  0  0  0  0  0  0  0  0
  150.1071  141.9236  156.0026 H   0  0  0  0  0  0  0  0  0  0  0  0
  1  2  1  0  0  0  0
  1 23  1  0  0  0  0
  1 24  1  0  0  0  0
  1 25  1  0  0  0  0
  2 22  1  0  0  0  0
  2  3  1  0  0  0  0
  2 26  1  0  0  0  0
  3  4  1  0  0  0  0
  3 27  1  0  0  0  0
  3 28  1  0  0  0  0
  4  5  1  0  0  0  0
  4 19  1  0  0  0  0
  5 18  1  0  0  0  0
  5  6  2  0  0  0  0
  6  7  1  0  0  0  0
  6 29  1  0  0  0  0
  7  8  2  0  0  0  0
  7 30  1  0  0  0  0
  8  9  1  0  0  0  0
  8 17  1  0  0  0  0
  9 10  2  0  0  0  0
  9 11  1  0  0  0  0
 11 12  1  0  0  0  0
 12 13  1  0  0  0  0
 12 31  1  0  0  0  0
 12 32  1  0  0  0  0
 13 14  1  0  0  0  0
 13 15  1  0  0  0  0
 13 16  1  0  0  0  0
 17 18  2  0  0  0  0
 17 33  1  0  0  0  0
 19 20  1  0  0  0  0
 19 34  1  0  0  0  0
 19 35  1  0  0  0  0
 20 21  1  0  0  0  0
 20 22  1  0  0  0  0
 20 36  1  0  0  0  0
 21 37  1  0  0  0  0
 21 38  1  0  0  0  0
 21 39  1  0  0  0  0
M  CHG  1  11  -1
M  END
> <s_m_source_file>
AV-unprocessed.smi

> <i_m_source_file_index>
1565

> <i_lp_mmshare_version>
43012

> <i_f3d_flags>
0

> <s_epik_input>
W0NIM11bQ0BASF0xW0NIMl1OKFtDSDJdW0NASF0oTzEpW0NIM10pYzJbY0hdW2NIXWMoW2NIXW4yKUMoPU8pW05IXVtDSDJdQyhGKShGKUY=

> <s_epik_cmdline>
J2VwaWtfcHl0aG9uJywgJy1waCcsICc3LjAnLCAnLXRuJywgJzgnLCAnLW1hJywgJzIwMCcsICctbWV0YWxfYmluZGluZycsICctaW1hZScsICc8aW5maWxlLm1hZT4nLCAnLW9tYWUnLCAnPG91dGZpbGUubWFlPic=

> <r_lp_tautomer_probability>
1

> <r_epik_Ionization_Penalty>
6.78525

> <r_epik_Ionization_Penalty_Charging>
6.78469

> <r_epik_Ionization_Penalty_Neutral>
0.000559052

> <r_epik_State_Penalty>
6.78469

> <r_epik_Charging_Adjusted_Penalty>
13.5694

> <i_epik_Tot_Q>
-1

> <i_epik_Tot_abs_Q>
1

> <r_epik_Metal_State_Penalty>
2.70441

> <b_epik_Metal_Only>
1

> <s_lp_Force_Field>
OPLS_2005

> <r_lp_Energy>
25.7162

> <b_lp_Chiralities_Consistent>
1

> <s_lp_Variant>
AV-unprocessed.smi:1565-5

> <Gold.Version>
5.8.1

> <Gold.Id.Protein>
6NUR|6NUR_protein|mol2

> <Gold.PLP.Fitness>
40.7278

> <Gold.PLP.PLP>
-42.4230

> <Gold.PLP.part.hbond>
0.0000

> <Gold.PLP.part.metal>
0.0000

> <Gold.PLP.part.buried>
-3.8012

> <Gold.PLP.part.nonpolar>
-38.2922

> <Gold.PLP.part.repulsive>
0.0936

> <Gold.PLP.ligand.clash>
0.0000

> <Gold.PLP.ligand.torsion>
1.0078

> <Gold.PLP.Chemscore.Hbond>
0.0000

> <Gold.PLP.Chemscore.CHOScore>
0.0000

> <Gold.PLP.Chemscore.Metal>
0.0000

> <Gold.PLP.Chemscore.Internal.Correction>
0.3204

> <Gold.Rescore>
     Score         DG    S(hbond)    S(metal)    S(lipo)     H(rot)  DE(clash)    DE(int)     intcor
     13.34     -14.04       0.00        0.00     101.42       1.29       0.07       0.63       ----

> <Gold.Chemscore.Fitness>
13.3378

> <Gold.Chemscore.DG>
-14.0389

> <Gold.Chemscore.ZeroCoef>
-5.4800

> <Gold.Chemscore.Hbond>
0.0000

> <Gold.Chemscore.Metal>
0.0000

> <Gold.Chemscore.Lipo>
101.4245

> <Gold.Chemscore.Internal_Hbond>
0.0000

> <Gold.Chemscore.DEClash>
0.0739

> <Gold.Chemscore.DEInternal>
0.6272

> <Gold.Chemscore.Rot>
1.2921

> <Gold.Chemscore.Internal.Correction>
   9.000000E+99

> <Gold.Chemscore.Hbond.Weighted>
-0.0000

> <Gold.Chemscore.Metal.Weighted>
-0.0000

> <Gold.Chemscore.Lipo.Weighted>
-11.8667

> <Gold.Chemscore.Internal_Hbond.Weighted>
0.0000

> <Gold.Chemscore.DEClash.Weighted>
0.0739

> <Gold.Chemscore.DEInternal.Weighted>
0.6272

> <Gold.Chemscore.Rot.Weighted>
3.3078

> <Gold.Chemscore.Internal.Correction.Weighted>
   9.000000E+99

> <Gold.Protein.RotatedTorsions>
[ 6907 6896 6895 6894 ] final -151.72 input  -60.11 | X-H torsion
[ 7974 7965 7964 7962 ] final   30.39 input  175.53 | X-H torsion
[ 8008 7997 7996 7995 ] final  -20.12 input   59.86 | X-H torsion
[ 10167 10162 10161 10158 ] final  108.69 input  -65.29 | X-H torsion
[ 10718 10713 10712 10709 ] final  163.15 input   66.30 | X-H torsion
[ 10763 10752 10751 10750 ] final   66.92 input  -60.55 | X-H torsion
[ 11005 11000 10999 10996 ] final  -79.52 input  -57.11 | X-H torsion

> <Gold.Protein.ActiveResidues>
 VAL166  LYS551  ARG553  GLY616  TRP617  ASP618  TYR619  PRO620  LYS621  CYS622 
 ASP623  PHE694  ASN695  SER759  ASP760  ASP761  ALA762  ILE779  LEU786  VAL792 
 PHE793  MET794  SER795  GLU796  ALA797  LYS798  CYS799  TRP800  GLU811  SER814 

> <Gold.Protein.RotatedAtoms>
  151.2172  133.4523  159.2599 H   0  0  0  0  0  0  0  0  0  0  0  0  # atno 6907 bound_to 6896
  151.0920  134.9922  159.8417 H   0  0  0  0  0  0  0  0  0  0  0  0  # atno 6908 bound_to 6896
  152.5435  134.2104  159.8801 H   0  0  0  0  0  0  0  0  0  0  0  0  # atno 6909 bound_to 6896
  146.1615  139.6795  142.9030 H   0  0  0  0  0  0  0  0  0  0  0  0  # atno 7974 bound_to 7965
  154.4791  140.2070  155.9807 H   0  0  0  0  0  0  0  0  0  0  0  0  # atno 8008 bound_to 7997
  156.1136  140.3225  155.8077 H   0  0  0  0  0  0  0  0  0  0  0  0  # atno 8009 bound_to 7997
  155.4591  140.0523  157.2983 H   0  0  0  0  0  0  0  0  0  0  0  0  # atno 8010 bound_to 7997
  139.6826  144.7117  151.1489 H   0  0  0  0  0  0  0  0  0  0  0  0  # atno 10167 bound_to 10162
  157.1125  131.0471  151.2451 H   0  0  0  0  0  0  0  0  0  0  0  0  # atno 10718 bound_to 10713
  153.0162  135.5303  154.6900 H   0  0  0  0  0  0  0  0  0  0  0  0  # atno 10763 bound_to 10752
  154.6037  135.2871  155.0510 H   0  0  0  0  0  0  0  0  0  0  0  0  # atno 10764 bound_to 10752
  154.1558  135.6555  153.5026 H   0  0  0  0  0  0  0  0  0  0  0  0  # atno 10765 bound_to 10752
  141.1667  133.7109  156.8134 H   0  0  0  0  0  0  0  0  0  0  0  0  # atno 11005 bound_to 11000
  145.4577  141.0431  143.2769 LP  0  0  0  0  0  0  0  0  0  0  0  0  # atno 17320 bound_to 7965
  144.8033  139.6099  143.7062 LP  0  0  0  0  0  0  0  0  0  0  0  0  # atno 17321 bound_to 7965
  140.7657  143.5677  150.9030 LP  0  0  0  0  0  0  0  0  0  0  0  0  # atno 17342 bound_to 10162
  139.9350  143.6449  152.3067 LP  0  0  0  0  0  0  0  0  0  0  0  0  # atno 17343 bound_to 10162
  157.4546  130.7618  149.7182 LP  0  0  0  0  0  0  0  0  0  0  0  0  # atno 17370 bound_to 10713
  155.9847  130.3989  150.3299 LP  0  0  0  0  0  0  0  0  0  0  0  0  # atno 17371 bound_to 10713
  140.2171  134.8785  157.3337 LP  0  0  0  0  0  0  0  0  0  0  0  0  # atno 17394 bound_to 11000
  140.2026  134.4236  155.7654 LP  0  0  0  0  0  0  0  0  0  0  0  0  # atno 17395 bound_to 11000

$$$$
