AV-unprocessed.smi:2742|AV-procd|sdf|10565|dock10
  -GOLD-   2272015 13D 1   1.00000     0.00000
 Structure written by MMmdl.
 37 38  0  0  0  0  0  0  0  0  1 V2000
  151.1806  139.0708  155.0896 C   0  0  0  0  0  0  0  0  0  0  0  0
  149.8743  140.1497  154.4443 S   0  0  0  0  0  0  0  0  0  0  0  0
  148.4824  138.9858  154.3532 C   0  0  1  0  0  0  0  0  0  0  0  0
  147.9232  138.7117  155.7605 C   0  0  0  0  0  0  0  0  0  0  0  0
  146.7301  137.7447  155.7144 C   0  0  0  0  0  0  0  0  0  0  0  0
  145.6222  138.2727  154.7879 C   0  0  0  0  0  0  0  0  0  0  0  0
  146.1480  138.5733  153.3686 C   0  0  2  0  0  0  0  0  0  0  0  0
  146.4811  137.3423  152.6528 N   0  0  0  0  0  0  0  0  0  0  0  0
  145.5978  136.4371  152.2077 C   0  0  0  0  0  0  0  0  0  0  0  0
  144.3806  136.5543  152.3463 O   0  0  0  0  0  0  0  0  0  0  0  0
  146.2221  135.4156  151.5962 N   0  0  0  0  0  0  0  0  0  0  0  0
  145.6690  134.2545  150.9879 C   0  0  0  0  0  0  0  0  0  0  0  0
  144.4251  134.2170  150.3114 C   0  0  0  0  0  0  0  0  0  0  0  0
  143.9905  132.9930  149.7641 C   0  0  0  0  0  0  0  0  0  0  0  0
  144.6945  131.8451  149.8546 N   0  0  0  0  0  0  0  0  0  0  0  0
  145.8739  131.8813  150.5095 C   0  0  0  0  0  0  0  0  0  0  0  0
  146.3999  133.0517  151.0924 C   0  0  0  0  0  0  0  0  0  0  0  0
  147.5900  133.0170  151.7396 F   0  0  0  0  0  0  0  0  0  0  0  0
  147.3716  139.5101  153.4186 C   0  0  0  0  0  0  0  0  0  0  0  0
  152.0902  139.6478  155.2557 H   0  0  0  0  0  0  0  0  0  0  0  0
  151.4080  138.2706  154.3861 H   0  0  0  0  0  0  0  0  0  0  0  0
  150.8762  138.6277  156.0376 H   0  0  0  0  0  0  0  0  0  0  0  0
  148.8732  138.0482  153.9559 H   0  0  0  0  0  0  0  0  0  0  0  0
  148.7052  138.2978  156.3980 H   0  0  0  0  0  0  0  0  0  0  0  0
  147.6122  139.6497  156.2228 H   0  0  0  0  0  0  0  0  0  0  0  0
  147.0645  136.7654  155.3703 H   0  0  0  0  0  0  0  0  0  0  0  0
  146.3327  137.5980  156.7190 H   0  0  0  0  0  0  0  0  0  0  0  0
  144.7962  137.5617  154.7484 H   0  0  0  0  0  0  0  0  0  0  0  0
  145.2100  139.1877  155.2154 H   0  0  0  0  0  0  0  0  0  0  0  0
  145.3632  139.0873  152.8106 H   0  0  0  0  0  0  0  0  0  0  0  0
  147.4618  137.1657  152.4912 H   0  0  0  0  0  0  0  0  0  0  0  0
  147.2252  135.4976  151.5184 H   0  0  0  0  0  0  0  0  0  0  0  0
  143.7936  135.0850  150.2074 H   0  0  0  0  0  0  0  0  0  0  0  0
  143.0467  132.9343  149.2424 H   0  0  0  0  0  0  0  0  0  0  0  0
  146.4148  130.9489  150.5729 H   0  0  0  0  0  0  0  0  0  0  0  0
  147.0490  140.4926  153.7660 H   0  0  0  0  0  0  0  0  0  0  0  0
  147.7583  139.6598  152.4105 H   0  0  0  0  0  0  0  0  0  0  0  0
  1  2  1  0  0  0  0
  1 20  1  0  0  0  0
  1 21  1  0  0  0  0
  1 22  1  0  0  0  0
  2  3  1  0  0  0  0
  3 19  1  0  0  0  0
  3  4  1  0  0  0  0
  3 23  1  0  0  0  0
  4  5  1  0  0  0  0
  4 24  1  0  0  0  0
  4 25  1  0  0  0  0
  5  6  1  0  0  0  0
  5 26  1  0  0  0  0
  5 27  1  0  0  0  0
  6  7  1  0  0  0  0
  6 28  1  0  0  0  0
  6 29  1  0  0  0  0
  7  8  1  0  0  0  0
  7 19  1  0  0  0  0
  7 30  1  0  0  0  0
  8  9  1  0  0  0  0
  8 31  1  0  0  0  0
  9 10  2  0  0  0  0
  9 11  1  0  0  0  0
 11 12  1  0  0  0  0
 11 32  1  0  0  0  0
 12 17  1  0  0  0  0
 12 13  2  0  0  0  0
 13 14  1  0  0  0  0
 13 33  1  0  0  0  0
 14 15  2  0  0  0  0
 14 34  1  0  0  0  0
 15 16  1  0  0  0  0
 16 17  2  0  0  0  0
 16 35  1  0  0  0  0
 17 18  1  0  0  0  0
 19 36  1  0  0  0  0
 19 37  1  0  0  0  0
M  END
> <s_m_source_file>
AV-unprocessed.smi

> <i_m_source_file_index>
2742

> <i_lp_mmshare_version>
43012

> <i_f3d_flags>
0

> <s_epik_input>
W0NIM11TW0NAQEhdMVtDSDJdW0NIMl1bQ0gyXVtDQEhdKFtDSDJdMSlbTkhdQyg9TylbTkhdYzJbY0hdW2NIXW5bY0hdYzJG

> <s_epik_cmdline>
J2VwaWtfcHl0aG9uJywgJy1waCcsICc3LjAnLCAnLXRuJywgJzgnLCAnLW1hJywgJzIwMCcsICctbWV0YWxfYmluZGluZycsICctaW1hZScsICc8aW5maWxlLm1hZT4nLCAnLW9tYWUnLCAnPG91dGZpbGUubWFlPic=

> <r_epik_Ionization_Penalty>
0.00344009

> <r_epik_Ionization_Penalty_Charging>
0

> <r_epik_Ionization_Penalty_Neutral>
0.00344009

> <r_epik_State_Penalty>
0.0024078

> <r_epik_Charging_Adjusted_Penalty>
0.0024078

> <i_epik_Tot_Q>
0

> <i_epik_Tot_abs_Q>
0

> <r_epik_Metal_State_Penalty>
-0

> <b_epik_Metal_Only>
0

> <s_lp_Force_Field>
OPLS_2005

> <r_lp_Energy>
13.9364

> <b_lp_Chiralities_Consistent>
1

> <s_lp_Variant>
AV-unprocessed.smi:2742-4

> <Gold.Version>
5.8.1

> <Gold.Id.Protein>
6NUR|6NUR_protein|mol2

> <Gold.PLP.Fitness>
39.0368

> <Gold.PLP.PLP>
-28.5933

> <Gold.PLP.part.hbond>
-2.4975

> <Gold.PLP.part.metal>
0.0000

> <Gold.PLP.part.buried>
-0.6185

> <Gold.PLP.part.nonpolar>
-25.5166

> <Gold.PLP.part.repulsive>
0.4031

> <Gold.PLP.ligand.clash>
0.0000

> <Gold.PLP.ligand.torsion>
0.4992

> <Gold.PLP.Chemscore.Hbond>
2.0000

> <Gold.PLP.Chemscore.CHOScore>
1.8103

> <Gold.PLP.Chemscore.Metal>
0.0000

> <Gold.Chemscore.Hbonds>
donor molecule, donor type, donor heavy atom, donor atom, acceptor molecule, acceptor atom, score
      L1  H     8    31       P1  7948  1.00
      L1  H    11    32       P1  7948  1.00
      L1  C    14    34       P1 10186  0.95
      L1  C    16    35       P1 10747  0.75

> <Gold.PLP.Chemscore.Internal.Correction>
0.0108

> <Gold.Rescore>
     Score         DG    S(hbond)    S(metal)    S(lipo)     H(rot)  DE(clash)    DE(int)     intcor
     16.76     -17.55       1.96        0.00      73.22       1.19       0.28       0.50       ----

> <Gold.Chemscore.Fitness>
16.7592

> <Gold.Chemscore.DG>
-17.5472

> <Gold.Chemscore.ZeroCoef>
-5.4800

> <Gold.Chemscore.Hbond>
1.9584

> <Gold.Chemscore.Metal>
0.0000

> <Gold.Chemscore.Lipo>
73.2156

> <Gold.Chemscore.Internal_Hbond>
0.0000

> <Gold.Chemscore.DEClash>
0.2843

> <Gold.Chemscore.DEInternal>
0.5037

> <Gold.Chemscore.Rot>
1.1875

> <Gold.Chemscore.Internal.Correction>
   9.000000E+99

> <Gold.Chemscore.Hbonds>
donor molecule, donor type, donor heavy atom, donor atom, acceptor molecule, acceptor atom, score
      L1  H     8    31       P1  7948  0.98
      L1  H    11    32       P1  7948  0.97

> <Gold.Chemscore.Hbond.Weighted>
-6.5409

> <Gold.Chemscore.Metal.Weighted>
-0.0000

> <Gold.Chemscore.Lipo.Weighted>
-8.5662

> <Gold.Chemscore.Internal_Hbond.Weighted>
0.0000

> <Gold.Chemscore.DEClash.Weighted>
0.2843

> <Gold.Chemscore.DEInternal.Weighted>
0.5037

> <Gold.Chemscore.Rot.Weighted>
3.0400

> <Gold.Chemscore.Internal.Correction.Weighted>
   9.000000E+99

> <Gold.Protein.RotatedTorsions>
[ 6907 6896 6895 6894 ] final  -98.95 input  -60.11 | X-H torsion
[ 7974 7965 7964 7962 ] final  -54.41 input  175.53 | X-H torsion
[ 8008 7997 7996 7995 ] final  132.89 input   59.86 | X-H torsion
[ 10167 10162 10161 10158 ] final   68.43 input  -65.29 | X-H torsion
[ 10718 10713 10712 10709 ] final   47.82 input   66.30 | X-H torsion
[ 10763 10752 10751 10750 ] final  -31.32 input  -60.55 | X-H torsion
[ 11005 11000 10999 10996 ] final  141.69 input  -57.11 | X-H torsion

> <Gold.Protein.ActiveResidues>
 VAL166  LYS551  ARG553  GLY616  TRP617  ASP618  TYR619  PRO620  LYS621  CYS622 
 ASP623  PHE694  ASN695  SER759  ASP760  ASP761  ALA762  ILE779  LEU786  VAL792 
 PHE793  MET794  SER795  GLU796  ALA797  LYS798  CYS799  TRP800  GLU811  SER814 

> <Gold.Protein.RotatedAtoms>
  150.7063  134.1115  159.4001 H   0  0  0  0  0  0  0  0  0  0  0  0  # atno 6907 bound_to 6896
  151.9102  135.0340  160.0523 H   0  0  0  0  0  0  0  0  0  0  0  0  # atno 6908 bound_to 6896
  152.2342  133.5047  159.5270 H   0  0  0  0  0  0  0  0  0  0  0  0  # atno 6909 bound_to 6896
  145.8859  140.8108  142.9816 H   0  0  0  0  0  0  0  0  0  0  0  0  # atno 7974 bound_to 7965
  156.2987  140.2535  156.3164 H   0  0  0  0  0  0  0  0  0  0  0  0  # atno 8008 bound_to 7997
  154.9277  140.0399  157.2050 H   0  0  0  0  0  0  0  0  0  0  0  0  # atno 8009 bound_to 7997
  154.8248  140.2866  155.5766 H   0  0  0  0  0  0  0  0  0  0  0  0  # atno 8010 bound_to 7997
  140.0788  144.5089  150.7176 H   0  0  0  0  0  0  0  0  0  0  0  0  # atno 10167 bound_to 10162
  157.4623  130.8204  149.7900 H   0  0  0  0  0  0  0  0  0  0  0  0  # atno 10718 bound_to 10713
  153.7954  135.6894  153.4864 H   0  0  0  0  0  0  0  0  0  0  0  0  # atno 10763 bound_to 10752
  153.1723  135.4538  154.9917 H   0  0  0  0  0  0  0  0  0  0  0  0  # atno 10764 bound_to 10752
  154.8028  135.3344  154.7446 H   0  0  0  0  0  0  0  0  0  0  0  0  # atno 10765 bound_to 10752
  140.0421  134.9300  157.0861 H   0  0  0  0  0  0  0  0  0  0  0  0  # atno 11005 bound_to 11000
  144.6728  140.1455  143.7434 LP  0  0  0  0  0  0  0  0  0  0  0  0  # atno 17320 bound_to 7965
  145.8967  139.2407  143.1517 LP  0  0  0  0  0  0  0  0  0  0  0  0  # atno 17321 bound_to 7965
  140.7088  143.2489  151.4644 LP  0  0  0  0  0  0  0  0  0  0  0  0  # atno 17342 bound_to 10162
  139.5792  144.1749  152.1945 LP  0  0  0  0  0  0  0  0  0  0  0  0  # atno 17343 bound_to 10162
  156.0034  130.3868  150.2519 LP  0  0  0  0  0  0  0  0  0  0  0  0  # atno 17370 bound_to 10713
  157.0697  131.0113  151.3194 LP  0  0  0  0  0  0  0  0  0  0  0  0  # atno 17371 bound_to 10713
  140.4053  134.2039  155.7163 LP  0  0  0  0  0  0  0  0  0  0  0  0  # atno 17394 bound_to 11000
  141.1888  133.8252  157.0981 LP  0  0  0  0  0  0  0  0  0  0  0  0  # atno 17395 bound_to 11000

$$$$
