AV-unprocessed.smi:1019|AV-procd|sdf|4445|dock6
  -GOLD-   22720 2403D 1   1.00000     0.00000
 Structure written by MMmdl.
 44 46  0  0  0  0  0  0  0  0  2 V2000
  146.3887  135.1316  153.9327 C   0  0  0  0  0  0  0  0  0  0  0  0
  146.1290  136.0089  152.7673 N   0  3  1  0  0  0  0  0  0  0  0  0
  144.9562  135.5432  151.9856 C   0  0  0  0  0  0  0  0  0  0  0  0
  145.2449  134.2565  151.2312 C   0  0  0  0  0  0  0  0  0  0  0  0
  144.2000  133.5831  150.5634 C   0  0  0  0  0  0  0  0  0  0  0  0
  144.4608  132.3889  149.8636 C   0  0  0  0  0  0  0  0  0  0  0  0
  145.7672  131.8647  149.8268 C   0  0  0  0  0  0  0  0  0  0  0  0
  146.8134  132.5352  150.4894 C   0  0  0  0  0  0  0  0  0  0  0  0
  146.5537  133.7296  151.1892 C   0  0  0  0  0  0  0  0  0  0  0  0
  146.0533  137.4476  153.1357 C   0  0  0  0  0  0  0  0  0  0  0  0
  147.4357  138.1376  153.1364 C   0  0  1  0  0  0  0  0  0  0  0  0
  147.7784  138.4650  151.8049 O   0  0  0  0  0  0  0  0  0  0  0  0
  147.4703  139.4386  153.9629 C   0  0  0  0  0  0  0  0  0  0  0  0
  148.7898  139.7238  154.4957 N   0  0  0  0  0  0  0  0  0  0  0  0
  149.9652  139.2450  154.0448 C   0  0  0  0  0  0  0  0  0  0  0  0
  151.0648  139.6238  154.6892 N   0  0  0  0  0  0  0  0  0  0  0  0
  150.5441  140.4510  155.6695 C   0  0  0  0  0  0  0  0  0  0  0  0
  151.1897  141.1760  156.6965 C   0  0  0  0  0  0  0  0  0  0  0  0
  150.4396  141.9603  157.5973 C   0  0  0  0  0  0  0  0  0  0  0  0
  149.0358  142.0320  157.4859 C   0  0  0  0  0  0  0  0  0  0  0  0
  148.3702  141.3193  156.4703 C   0  0  0  0  0  0  0  0  0  0  0  0
  149.1223  140.5375  155.5738 C   0  0  0  0  0  0  0  0  0  0  0  0
  145.5624  135.1728  154.6436 H   0  0  0  0  0  0  0  0  0  0  0  0
  147.3013  135.4165  154.4546 H   0  0  0  0  0  0  0  0  0  0  0  0
  146.5114  134.0956  153.6154 H   0  0  0  0  0  0  0  0  0  0  0  0
  144.1178  135.3457  152.6552 H   0  0  0  0  0  0  0  0  0  0  0  0
  144.6278  136.3274  151.3013 H   0  0  0  0  0  0  0  0  0  0  0  0
  143.1952  133.9793  150.5876 H   0  0  0  0  0  0  0  0  0  0  0  0
  143.6587  131.8752  149.3542 H   0  0  0  0  0  0  0  0  0  0  0  0
  145.9666  130.9487  149.2898 H   0  0  0  0  0  0  0  0  0  0  0  0
  147.8157  132.1333  150.4601 H   0  0  0  0  0  0  0  0  0  0  0  0
  147.3621  134.2369  151.6954 H   0  0  0  0  0  0  0  0  0  0  0  0
  145.4102  137.9874  152.4410 H   0  0  0  0  0  0  0  0  0  0  0  0
  145.5719  137.5273  154.1108 H   0  0  0  0  0  0  0  0  0  0  0  0
  148.1983  137.4635  153.5255 H   0  0  0  0  0  0  0  0  0  0  0  0
  148.3923  139.1842  151.8183 H   0  0  0  0  0  0  0  0  0  0  0  0
  147.1606  140.2857  153.3490 H   0  0  0  0  0  0  0  0  0  0  0  0
  146.7657  139.3838  154.7939 H   0  0  0  0  0  0  0  0  0  0  0  0
  150.0157  138.5751  153.1989 H   0  0  0  0  0  0  0  0  0  0  0  0
  152.2643  141.1284  156.7925 H   0  0  0  0  0  0  0  0  0  0  0  0
  150.9447  142.5100  158.3779 H   0  0  0  0  0  0  0  0  0  0  0  0
  148.4700  142.6355  158.1806 H   0  0  0  0  0  0  0  0  0  0  0  0
  147.2951  141.3724  156.3839 H   0  0  0  0  0  0  0  0  0  0  0  0
  146.9242  135.9154  152.1511 H   0  0  0  0  0  0  0  0  0  0  0  0
  1  2  1  0  0  0  0
  1 23  1  0  0  0  0
  1 24  1  0  0  0  0
  1 25  1  0  0  0  0
  2  3  1  0  0  0  0
  2 10  1  0  0  0  0
  2 44  1  0  0  0  0
  3  4  1  0  0  0  0
  3 26  1  0  0  0  0
  3 27  1  0  0  0  0
  4  9  1  0  0  0  0
  4  5  2  0  0  0  0
  5  6  1  0  0  0  0
  5 28  1  0  0  0  0
  6  7  2  0  0  0  0
  6 29  1  0  0  0  0
  7  8  1  0  0  0  0
  7 30  1  0  0  0  0
  8  9  2  0  0  0  0
  8 31  1  0  0  0  0
  9 32  1  0  0  0  0
 10 11  1  0  0  0  0
 10 33  1  0  0  0  0
 10 34  1  0  0  0  0
 11 12  1  0  0  0  0
 11 13  1  0  0  0  0
 11 35  1  0  0  0  0
 12 36  1  0  0  0  0
 13 14  1  0  0  0  0
 13 37  1  0  0  0  0
 13 38  1  0  0  0  0
 14 22  1  0  0  0  0
 14 15  1  0  0  0  0
 15 16  2  0  0  0  0
 15 39  1  0  0  0  0
 16 17  1  0  0  0  0
 17 22  2  0  0  0  0
 17 18  1  0  0  0  0
 18 19  2  0  0  0  0
 18 40  1  0  0  0  0
 19 20  1  0  0  0  0
 19 41  1  0  0  0  0
 20 21  2  0  0  0  0
 20 42  1  0  0  0  0
 21 22  1  0  0  0  0
 21 43  1  0  0  0  0
M  CHG  1   2   1
M  END
> <s_m_source_file>
AV-unprocessed.smi

> <i_m_source_file_index>
1019

> <i_lp_mmshare_version>
43012

> <i_f3d_flags>
0

> <s_epik_input>
W2NIXTFbY0hdW2NIXVtjSF1bY0hdYzFbQ0gyXU4oW0NIM10pW0NIMl1bQ0BIXShbT0hdKVtDSDJdbihbY0hdbjIpYyhjMjMpW2NIXVtjSF1bY0hdW2NIXTM=

> <s_epik_cmdline>
J2VwaWtfcHl0aG9uJywgJy1waCcsICc3LjAnLCAnLXRuJywgJzgnLCAnLW1hJywgJzIwMCcsICctbWV0YWxfYmluZGluZycsICctaW1hZScsICc8aW5maWxlLm1hZT4nLCAnLW9tYWUnLCAnPG91dGZpbGUubWFlPic=

> <r_epik_Ionization_Penalty>
0.0996557

> <r_epik_Ionization_Penalty_Charging>
0.0475377

> <r_epik_Ionization_Penalty_Neutral>
0.0521179

> <r_epik_State_Penalty>
0.0851777

> <r_epik_Charging_Adjusted_Penalty>
0.132715

> <i_epik_Tot_Q>
1

> <i_epik_Tot_abs_Q>
1

> <r_epik_Metal_State_Penalty>
0.0423478

> <b_epik_Metal_Only>
0

> <s_lp_Force_Field>
OPLS_2005

> <r_lp_Energy>
16.033

> <b_lp_Chiralities_Consistent>
1

> <s_lp_Variant>
AV-unprocessed.smi:1019-3

> <Gold.Version>
5.8.1

> <Gold.Id.Protein>
6NUR|6NUR_protein|mol2

> <Gold.PLP.Fitness>
51.1371

> <Gold.PLP.PLP>
-37.9917

> <Gold.PLP.part.hbond>
-4.5591

> <Gold.PLP.part.metal>
0.0000

> <Gold.PLP.part.buried>
1.9367

> <Gold.PLP.part.nonpolar>
-34.7304

> <Gold.PLP.part.repulsive>
0.1004

> <Gold.PLP.ligand.clash>
0.0000

> <Gold.PLP.ligand.torsion>
1.3921

> <Gold.PLP.Chemscore.Hbond>
4.5303

> <Gold.PLP.Chemscore.CHOScore>
0.7390

> <Gold.PLP.Chemscore.Metal>
0.0000

> <Gold.Chemscore.Hbonds>
donor molecule, donor type, donor heavy atom, donor atom, acceptor molecule, acceptor atom, score
      L1  H     2    44       P1  7948  1.84
      L1  H    12    36       P1  7957  0.99
      P1  H  7954  7966       L1    12  0.77
      P1  H  7989  7998       L1    16  0.90
      L1  C    15    39       P1  7948  0.20
      L1  C    15    39       P1  7957  0.52

> <Gold.PLP.Chemscore.Internal.Correction>
0.1217

> <Gold.Rescore>
     Score         DG    S(hbond)    S(metal)    S(lipo)     H(rot)  DE(clash)    DE(int)     intcor
     14.16     -17.17       1.81        0.00     100.01       2.36       1.66       1.35       ----

> <Gold.Chemscore.Fitness>
14.1583

> <Gold.Chemscore.DG>
-17.1729

> <Gold.Chemscore.ZeroCoef>
-5.4800

> <Gold.Chemscore.Hbond>
1.8076

> <Gold.Chemscore.Metal>
0.0000

> <Gold.Chemscore.Lipo>
100.0117

> <Gold.Chemscore.Internal_Hbond>
0.0000

> <Gold.Chemscore.DEClash>
1.6625

> <Gold.Chemscore.DEInternal>
1.3521

> <Gold.Chemscore.Rot>
2.3616

> <Gold.Chemscore.Internal.Correction>
   9.000000E+99

> <Gold.Chemscore.Hbonds>
donor molecule, donor type, donor heavy atom, donor atom, acceptor molecule, acceptor atom, score
      L1  H     2    44       P1  7948  0.84
      L1  H    12    36       P1  7957  0.91
      P1  H  7954  7966       L1    12  0.10
      P1  H  7989  7998       L1    16  0.05

> <Gold.Chemscore.Hbond.Weighted>
-6.0373

> <Gold.Chemscore.Metal.Weighted>
-0.0000

> <Gold.Chemscore.Lipo.Weighted>
-11.7014

> <Gold.Chemscore.Internal_Hbond.Weighted>
0.0000

> <Gold.Chemscore.DEClash.Weighted>
1.6625

> <Gold.Chemscore.DEInternal.Weighted>
1.3521

> <Gold.Chemscore.Rot.Weighted>
6.0457

> <Gold.Chemscore.Internal.Correction.Weighted>
   9.000000E+99

> <Gold.Protein.RotatedTorsions>
[ 6907 6896 6895 6894 ] final -132.61 input  -60.11 | X-H torsion
[ 7974 7965 7964 7962 ] final   43.69 input  175.53 | X-H torsion
[ 8008 7997 7996 7995 ] final  130.29 input   59.86 | X-H torsion
[ 10167 10162 10161 10158 ] final  103.31 input  -65.29 | X-H torsion
[ 10718 10713 10712 10709 ] final   50.77 input   66.30 | X-H torsion
[ 10763 10752 10751 10750 ] final    6.22 input  -60.55 | X-H torsion
[ 11005 11000 10999 10996 ] final  -75.29 input  -57.11 | X-H torsion

> <Gold.Protein.ActiveResidues>
 VAL166  LYS551  ARG553  GLY616  TRP617  ASP618  TYR619  PRO620  LYS621  CYS622 
 ASP623  PHE694  ASN695  SER759  ASP760  ASP761  ALA762  ILE779  LEU786  VAL792 
 PHE793  MET794  SER795  GLU796  ALA797  LYS798  CYS799  TRP800  GLU811  SER814 

> <Gold.Protein.RotatedAtoms>
  150.9644  133.6410  159.2748 H   0  0  0  0  0  0  0  0  0  0  0  0  # atno 6907 bound_to 6896
  151.3721  135.0923  159.9478 H   0  0  0  0  0  0  0  0  0  0  0  0  # atno 6908 bound_to 6896
  152.5160  133.9196  159.7582 H   0  0  0  0  0  0  0  0  0  0  0  0  # atno 6909 bound_to 6896
  146.0634  139.5159  142.9644 H   0  0  0  0  0  0  0  0  0  0  0  0  # atno 7974 bound_to 7965
  156.2952  140.2599  156.2737 H   0  0  0  0  0  0  0  0  0  0  0  0  # atno 8008 bound_to 7997
  154.9670  140.0391  157.2235 H   0  0  0  0  0  0  0  0  0  0  0  0  # atno 8009 bound_to 7997
  154.7894  140.2809  155.6007 H   0  0  0  0  0  0  0  0  0  0  0  0  # atno 8010 bound_to 7997
  139.7274  144.7044  151.0777 H   0  0  0  0  0  0  0  0  0  0  0  0  # atno 10167 bound_to 10162
  157.4916  130.8380  149.8210 H   0  0  0  0  0  0  0  0  0  0  0  0  # atno 10718 bound_to 10713
  153.2503  135.6913  153.7687 H   0  0  0  0  0  0  0  0  0  0  0  0  # atno 10763 bound_to 10752
  153.6784  135.3332  155.3172 H   0  0  0  0  0  0  0  0  0  0  0  0  # atno 10764 bound_to 10752
  154.8391  135.4516  154.1457 H   0  0  0  0  0  0  0  0  0  0  0  0  # atno 10765 bound_to 10752
  141.1644  133.6941  156.7495 H   0  0  0  0  0  0  0  0  0  0  0  0  # atno 11005 bound_to 11000
  145.6520  141.0261  143.1755 LP  0  0  0  0  0  0  0  0  0  0  0  0  # atno 17320 bound_to 7965
  144.7188  139.8102  143.7389 LP  0  0  0  0  0  0  0  0  0  0  0  0  # atno 17321 bound_to 7965
  140.7765  143.5088  150.9679 LP  0  0  0  0  0  0  0  0  0  0  0  0  # atno 17342 bound_to 10162
  139.8775  143.7113  152.3160 LP  0  0  0  0  0  0  0  0  0  0  0  0  # atno 17343 bound_to 10162
  156.0177  130.3807  150.2060 LP  0  0  0  0  0  0  0  0  0  0  0  0  # atno 17370 bound_to 10713
  157.0248  130.9990  151.3329 LP  0  0  0  0  0  0  0  0  0  0  0  0  # atno 17371 bound_to 10713
  140.2615  134.8463  157.3763 LP  0  0  0  0  0  0  0  0  0  0  0  0  # atno 17394 bound_to 11000
  140.1607  134.4732  155.7897 LP  0  0  0  0  0  0  0  0  0  0  0  0  # atno 17395 bound_to 11000

$$$$
