AV-unprocessed.smi:176|AV-procd|sdf|1435|dock4
  -GOLD-   2262019213D 1   1.00000     0.00000
 Structure written by MMmdl.
 57 61  0  0  0  0  0  0  0  0  1 V2000
  146.4387  131.6660  149.3402 O   0  0  0  0  0  0  0  0  0  0  0  0
  145.6504  131.9077  150.4888 C   0  0  0  0  0  0  0  0  0  0  0  0
  144.7378  133.1396  150.3397 C   0  0  0  0  0  0  0  0  0  0  0  0
  143.8400  132.8276  149.1238 C   0  0  0  0  0  0  0  0  0  0  0  0
  142.7063  132.0477  149.4453 O   0  0  0  0  0  0  0  0  0  0  0  0
  144.0166  133.6212  151.6201 C   0  0  0  0  0  0  0  0  0  0  0  0
  144.3789  135.0740  151.2867 C   0  0  0  0  0  0  0  0  0  0  0  0
  144.7345  136.0096  152.3140 N   0  0  0  0  0  0  0  0  0  0  0  0
  145.9161  136.7075  152.4258 C   0  0  0  0  0  0  0  0  0  0  0  0
  146.0154  137.4689  153.4812 N   0  0  0  0  0  0  0  0  0  0  0  0
  144.8245  137.2580  154.1667 C   0  0  0  0  0  0  0  0  0  0  0  0
  144.2808  137.7525  155.3868 C   0  0  0  0  0  0  0  0  0  0  0  0
  144.9219  138.6652  156.1622 N   0  0  0  0  0  0  0  0  0  0  0  0
  144.3601  138.9467  157.4833 C   0  0  0  0  0  0  0  0  0  0  0  0
  145.3764  139.6944  158.3612 C   0  0  0  0  0  0  0  0  0  0  0  0
  145.9271  140.9662  157.6786 C   0  0  2  0  0  0  0  0  0  0  0  0
  147.0119  141.4005  158.4798 O   0  0  0  0  0  0  0  0  0  0  0  0
  144.8885  142.1144  157.6370 C   0  0  0  0  0  0  0  0  0  0  0  0
  145.4086  143.3524  156.8844 C   0  0  0  0  0  0  0  0  0  0  0  0
  145.8894  142.9920  155.4711 C   0  0  0  0  0  0  0  0  0  0  0  0
  146.9463  141.8749  155.5069 C   0  0  0  0  0  0  0  0  0  0  0  0
  146.4562  140.6184  156.2599 C   0  0  2  0  0  0  0  0  0  0  0  0
  145.4032  139.8410  155.4393 C   0  0  0  0  0  0  0  0  0  0  0  0
  143.0648  137.2744  155.7658 N   0  0  0  0  0  0  0  0  0  0  0  0
  142.4197  136.3857  155.0048 C   0  0  0  0  0  0  0  0  0  0  0  0
  142.7991  135.8512  153.8431 N   0  0  0  0  0  0  0  0  0  0  0  0
  144.0193  136.3222  153.4570 C   0  0  0  0  0  0  0  0  0  0  0  0
  145.4416  134.5155  150.3334 C   0  0  0  0  0  0  0  0  0  0  0  0
  147.3059  131.4126  149.6179 H   0  0  0  0  0  0  0  0  0  0  0  0
  145.0607  131.0106  150.6807 H   0  0  0  0  0  0  0  0  0  0  0  0
  146.3268  132.0258  151.3360 H   0  0  0  0  0  0  0  0  0  0  0  0
  143.4849  133.7493  148.6614 H   0  0  0  0  0  0  0  0  0  0  0  0
  144.4006  132.2911  148.3576 H   0  0  0  0  0  0  0  0  0  0  0  0
  141.9588  132.6208  149.5230 H   0  0  0  0  0  0  0  0  0  0  0  0
  142.9445  133.4241  151.6421 H   0  0  0  0  0  0  0  0  0  0  0  0
  144.4888  133.2765  152.5409 H   0  0  0  0  0  0  0  0  0  0  0  0
  143.5741  135.5485  150.7244 H   0  0  0  0  0  0  0  0  0  0  0  0
  146.7073  136.6400  151.6935 H   0  0  0  0  0  0  0  0  0  0  0  0
  143.4480  139.5342  157.3736 H   0  0  0  0  0  0  0  0  0  0  0  0
  144.0816  138.0142  157.9762 H   0  0  0  0  0  0  0  0  0  0  0  0
  144.9256  139.9412  159.3231 H   0  0  0  0  0  0  0  0  0  0  0  0
  146.2003  139.0127  158.5792 H   0  0  0  0  0  0  0  0  0  0  0  0
  147.6957  141.7204  157.9116 H   0  0  0  0  0  0  0  0  0  0  0  0
  143.9752  141.7738  157.1487 H   0  0  0  0  0  0  0  0  0  0  0  0
  144.5974  142.3967  158.6496 H   0  0  0  0  0  0  0  0  0  0  0  0
  144.6230  144.1061  156.8266 H   0  0  0  0  0  0  0  0  0  0  0  0
  146.2270  143.8084  157.4430 H   0  0  0  0  0  0  0  0  0  0  0  0
  145.0398  142.6840  154.8616 H   0  0  0  0  0  0  0  0  0  0  0  0
  146.3050  143.8758  154.9865 H   0  0  0  0  0  0  0  0  0  0  0  0
  147.2424  141.6111  154.4910 H   0  0  0  0  0  0  0  0  0  0  0  0
  147.8467  142.2562  155.9901 H   0  0  0  0  0  0  0  0  0  0  0  0
  147.3126  139.9509  156.3715 H   0  0  0  0  0  0  0  0  0  0  0  0
  145.8350  139.5644  154.4783 H   0  0  0  0  0  0  0  0  0  0  0  0
  144.5444  140.4744  155.2160 H   0  0  0  0  0  0  0  0  0  0  0  0
  141.4608  136.0586  155.3788 H   0  0  0  0  0  0  0  0  0  0  0  0
  146.4333  134.5019  150.7874 H   0  0  0  0  0  0  0  0  0  0  0  0
  145.4720  135.0093  149.3616 H   0  0  0  0  0  0  0  0  0  0  0  0
  1  2  1  0  0  0  0
  1 29  1  0  0  0  0
  2  3  1  0  0  0  0
  2 30  1  0  0  0  0
  2 31  1  0  0  0  0
  3 28  1  0  0  0  0
  3  4  1  0  0  0  0
  3  6  1  0  0  0  0
  4  5  1  0  0  0  0
  4 32  1  0  0  0  0
  4 33  1  0  0  0  0
  5 34  1  0  0  0  0
  6  7  1  0  0  0  0
  6 35  1  0  0  0  0
  6 36  1  0  0  0  0
  7  8  1  0  0  0  0
  7 28  1  0  0  0  0
  7 37  1  0  0  0  0
  8 27  1  0  0  0  0
  8  9  1  0  0  0  0
  9 10  2  0  0  0  0
  9 38  1  0  0  0  0
 10 11  1  0  0  0  0
 11 27  2  0  0  0  0
 11 12  1  0  0  0  0
 12 13  1  0  0  0  0
 12 24  2  0  0  0  0
 13 23  1  0  0  0  0
 13 14  1  0  0  0  0
 14 15  1  0  0  0  0
 14 39  1  0  0  0  0
 14 40  1  0  0  0  0
 15 16  1  0  0  0  0
 15 41  1  0  0  0  0
 15 42  1  0  0  0  0
 16 22  1  0  0  0  0
 16 17  1  0  0  0  0
 16 18  1  0  0  0  0
 17 43  1  0  0  0  0
 18 19  1  0  0  0  0
 18 44  1  0  0  0  0
 18 45  1  0  0  0  0
 19 20  1  0  0  0  0
 19 46  1  0  0  0  0
 19 47  1  0  0  0  0
 20 21  1  0  0  0  0
 20 48  1  0  0  0  0
 20 49  1  0  0  0  0
 21 22  1  0  0  0  0
 21 50  1  0  0  0  0
 21 51  1  0  0  0  0
 22 23  1  0  0  0  0
 22 52  1  0  0  0  0
 23 53  1  0  0  0  0
 23 54  1  0  0  0  0
 24 25  1  0  0  0  0
 25 26  2  0  0  0  0
 25 55  1  0  0  0  0
 26 27  1  0  0  0  0
 28 56  1  0  0  0  0
 28 57  1  0  0  0  0
M  END
> <s_m_source_file>
AV-unprocessed.smi

> <i_m_source_file_index>
176

> <i_lp_mmshare_version>
43012

> <i_f3d_flags>
0

> <s_epik_input>
W09IXVtDSDJdQzEoW0NIMl1bT0hdKVtDSDJdW0NIXShbQ0gyXTEpbihbY0hdbjIpYyhjMjMpbltjSF1uYzNOKFtDSDJdW0NIMl00KVtDSDJdW0NAQEhdKFtDQF00NVtPSF0pW0NIMl1bQ0gyXVtDSDJdW0NIMl01

> <s_epik_cmdline>
J2VwaWtfcHl0aG9uJywgJy1waCcsICc3LjAnLCAnLXRuJywgJzgnLCAnLW1hJywgJzIwMCcsICctbWV0YWxfYmluZGluZycsICctaW1hZScsICc8aW5maWxlLm1hZT4nLCAnLW9tYWUnLCAnPG91dGZpbGUubWFlPic=

> <r_lp_tautomer_probability>
1

> <r_epik_Ionization_Penalty>
0.00642876

> <r_epik_Ionization_Penalty_Charging>
0

> <r_epik_Ionization_Penalty_Neutral>
0.00642876

> <r_epik_State_Penalty>
0.00467813

> <r_epik_Charging_Adjusted_Penalty>
0.00467813

> <i_epik_Tot_Q>
0

> <i_epik_Tot_abs_Q>
0

> <r_epik_Metal_State_Penalty>
-0

> <b_epik_Metal_Only>
0

> <s_lp_Force_Field>
OPLS_2005

> <r_lp_Energy>
56.0126

> <b_lp_Chiralities_Consistent>
1

> <s_lp_Variant>
AV-unprocessed.smi:176-3

> <Gold.Version>
5.8.1

> <Gold.Id.Protein>
6NUR|6NUR_protein|mol2

> <Gold.PLP.Fitness>
46.4866

> <Gold.PLP.PLP>
-31.0138

> <Gold.PLP.part.hbond>
-4.9518

> <Gold.PLP.part.metal>
0.0000

> <Gold.PLP.part.buried>
-5.5643

> <Gold.PLP.part.nonpolar>
-21.9153

> <Gold.PLP.part.repulsive>
0.2848

> <Gold.PLP.ligand.clash>
0.0000

> <Gold.PLP.ligand.torsion>
0.8674

> <Gold.PLP.Chemscore.Hbond>
3.4873

> <Gold.PLP.Chemscore.CHOScore>
1.9992

> <Gold.PLP.Chemscore.Metal>
0.0000

> <Gold.Chemscore.Hbonds>
donor molecule, donor type, donor heavy atom, donor atom, acceptor molecule, acceptor atom, score
      L1  H     1    29       P1 10747  1.00
      L1  H     5    34       P1 10186  1.00
      P1  H  6934  6946       L1    17  0.15
      P1  H 10785 10796       L1     5  0.86
      L1  C     9    38       P1  7948  1.00
      L1  C    25    55       P1 11000  0.63

> <Gold.PLP.Chemscore.Internal.Correction>
0.7483

> <Gold.Rescore>
     Score         DG    S(hbond)    S(metal)    S(lipo)     H(rot)  DE(clash)    DE(int)     intcor
     11.81     -12.98       3.09        0.00      57.12       3.71       0.34       0.84       ----

> <Gold.Chemscore.Fitness>
11.8071

> <Gold.Chemscore.DG>
-12.9832

> <Gold.Chemscore.ZeroCoef>
-5.4800

> <Gold.Chemscore.Hbond>
3.0899

> <Gold.Chemscore.Metal>
0.0000

> <Gold.Chemscore.Lipo>
57.1203

> <Gold.Chemscore.Internal_Hbond>
0.0000

> <Gold.Chemscore.DEClash>
0.3409

> <Gold.Chemscore.DEInternal>
0.8352

> <Gold.Chemscore.Rot>
3.7109

> <Gold.Chemscore.Internal.Correction>
   9.000000E+99

> <Gold.Chemscore.Hbonds>
donor molecule, donor type, donor heavy atom, donor atom, acceptor molecule, acceptor atom, score
      L1  H     1    29       P1 10747  1.00
      L1  H     5    34       P1 10186  0.93
      P1  H  6934  6946       L1    17  0.14
      P1  H 10785 10796       L1     5  0.38

> <Gold.Chemscore.Hbond.Weighted>
-10.3201

> <Gold.Chemscore.Metal.Weighted>
-0.0000

> <Gold.Chemscore.Lipo.Weighted>
-6.6831

> <Gold.Chemscore.Internal_Hbond.Weighted>
0.0000

> <Gold.Chemscore.DEClash.Weighted>
0.3409

> <Gold.Chemscore.DEInternal.Weighted>
0.8352

> <Gold.Chemscore.Rot.Weighted>
9.5000

> <Gold.Chemscore.Internal.Correction.Weighted>
   9.000000E+99

> <Gold.Protein.RotatedTorsions>
[ 6907 6896 6895 6894 ] final  177.06 input  -60.11 | X-H torsion
[ 7974 7965 7964 7962 ] final  -66.55 input  175.53 | X-H torsion
[ 8008 7997 7996 7995 ] final  103.73 input   59.86 | X-H torsion
[ 10167 10162 10161 10158 ] final  114.55 input  -65.29 | X-H torsion
[ 10718 10713 10712 10709 ] final  -90.44 input   66.30 | X-H torsion
[ 10763 10752 10751 10750 ] final   71.75 input  -60.55 | X-H torsion
[ 11005 11000 10999 10996 ] final -105.78 input  -57.11 | X-H torsion

> <Gold.Protein.ActiveResidues>
 VAL166  LYS551  ARG553  GLY616  TRP617  ASP618  TYR619  PRO620  LYS621  CYS622 
 ASP623  PHE694  ASN695  SER759  ASP760  ASP761  ALA762  ILE779  LEU786  VAL792 
 PHE793  MET794  SER795  GLU796  ALA797  LYS798  CYS799  TRP800  GLU811  SER814 

> <Gold.Protein.RotatedAtoms>
  151.7101  133.3312  159.3288 H   0  0  0  0  0  0  0  0  0  0  0  0  # atno 6907 bound_to 6896
  150.7697  134.6540  159.6313 H   0  0  0  0  0  0  0  0  0  0  0  0  # atno 6908 bound_to 6896
  152.3716  134.6727  160.0226 H   0  0  0  0  0  0  0  0  0  0  0  0  # atno 6909 bound_to 6896
  145.7403  140.8956  143.0533 H   0  0  0  0  0  0  0  0  0  0  0  0  # atno 7974 bound_to 7965
  156.1510  140.3160  155.8648 H   0  0  0  0  0  0  0  0  0  0  0  0  # atno 8008 bound_to 7997
  155.3971  140.0497  157.3055 H   0  0  0  0  0  0  0  0  0  0  0  0  # atno 8009 bound_to 7997
  154.5058  140.2146  155.9265 H   0  0  0  0  0  0  0  0  0  0  0  0  # atno 8010 bound_to 7997
  139.6381  144.7121  151.2294 H   0  0  0  0  0  0  0  0  0  0  0  0  # atno 10167 bound_to 10162
  155.9988  130.4910  150.5323 H   0  0  0  0  0  0  0  0  0  0  0  0  # atno 10718 bound_to 10713
  153.0417  135.5125  154.7640 H   0  0  0  0  0  0  0  0  0  0  0  0  # atno 10763 bound_to 10752
  154.6572  135.2933  154.9915 H   0  0  0  0  0  0  0  0  0  0  0  0  # atno 10764 bound_to 10752
  154.0779  135.6668  153.4886 H   0  0  0  0  0  0  0  0  0  0  0  0  # atno 10765 bound_to 10752
  141.1037  133.8837  157.1776 H   0  0  0  0  0  0  0  0  0  0  0  0  # atno 11005 bound_to 11000
  144.6872  139.9452  143.7476 LP  0  0  0  0  0  0  0  0  0  0  0  0  # atno 17320 bound_to 7965
  146.0454  139.3460  143.0672 LP  0  0  0  0  0  0  0  0  0  0  0  0  # atno 17321 bound_to 7965
  140.7476  143.6361  150.8378 LP  0  0  0  0  0  0  0  0  0  0  0  0  # atno 17342 bound_to 10162
  139.9995  143.5760  152.2881 LP  0  0  0  0  0  0  0  0  0  0  0  0  # atno 17343 bound_to 10162
  157.3270  131.0692  151.1889 LP  0  0  0  0  0  0  0  0  0  0  0  0  # atno 17370 bound_to 10713
  157.2783  130.6737  149.6053 LP  0  0  0  0  0  0  0  0  0  0  0  0  # atno 17371 bound_to 10713
  139.9898  135.0069  156.9948 LP  0  0  0  0  0  0  0  0  0  0  0  0  # atno 17394 bound_to 11000
  140.4958  134.1147  155.7241 LP  0  0  0  0  0  0  0  0  0  0  0  0  # atno 17395 bound_to 11000

$$$$
