#       Name:                AV-unprocessed.smi:203
#       Creating user name   scv26
#       Creation time:       Thu Mar 26 19:47:52 2020


#       File generated by GOLD software.
#

@<TRIPOS>MOLECULE
AV-unprocessed.smi:203
    67    71     1
SMALL
NO_CHARGES


@<TRIPOS>ATOM
      1 ****        -3.9427   1.4328   3.7491 O.2            1 S1                 0.0000
      2 ****        -3.1527   0.7754   3.0757 C.2            1 S1                 0.0000
      3 ****        -2.4727   1.3060   1.8255 C.3            1 S1                 0.0000
      4 ****        -1.7834   0.0610   1.2307 C.3            1 S1                 0.0000
      5 ****        -2.3985  -0.4417  -0.1148 C.3            1 S1                 0.0000
      6 ****        -3.8903  -0.8462   0.0187 C.3            1 S1                 0.0000
      7 ****        -4.4635  -1.3460  -1.3141 C.3            1 S1                 0.0000
      8 ****        -4.2639  -0.2827  -2.3996 C.3            1 S1                 0.0000
      9 ****        -2.7813   0.0969  -2.5108 C.3            1 S1                 0.0000
     10 ****        -2.2431   0.5225  -1.2194 N.3            1 S1                 0.0000
     11 ****        -1.0148   1.0638  -1.3765 C.ar           1 S1                 0.0000
     12 ****        -0.9250   2.4159  -1.3426 N.ar           1 S1                 0.0000
     13 ****         0.2681   3.0075  -1.4552 C.ar           1 S1                 0.0000
     14 ****         1.4695   2.4437  -1.5997 N.ar           1 S1                 0.0000
     15 ****         1.3779   1.0835  -1.6429 C.ar           1 S1                 0.0000
     16 ****         0.1832   0.3167  -1.5543 C.ar           1 S1                 0.0000
     17 ****         0.4786  -1.0378  -1.6517 N.2            1 S1                 0.0000
     18 ****         1.7775  -1.0709  -1.7697 C.2            1 S1                 0.0000
     19 ****         2.4003   0.1568  -1.7440 N.pl3          1 S1                 0.0000
     20 ****         3.8283   0.4091  -1.8184 C.3            1 S1                 0.0000
     21 ****         4.4025   1.0736  -0.5443 C.3            1 S1                 0.0000
     22 ****         5.8082   1.1413  -0.6676 O.3            1 S1                 0.0000
     23 ****         4.0522   0.4188   0.8143 C.3            1 S1                 0.0000
     24 ****         4.3047  -1.0854   0.9402 C.3            1 S1                 0.0000
     25 ****         3.3962  -1.4430   2.0955 C.3            1 S1                 0.0000
     26 ****         2.1869  -0.5455   1.8425 C.3            1 S1                 0.0000
     27 ****         2.6834   0.6071   1.1664 O.3            1 S1                 0.0000
     28 ****        -1.8277  -0.9957   2.3552 C.3            1 S1                 0.0000
     29 ****        -2.7708  -0.4753   3.3254 N.am           1 S1                 0.0000
     30 ****        -3.1895   1.7699   1.1478 H              1 S1                 0.0000
     31 ****        -1.7394   2.0617   2.1093 H              1 S1                 0.0000
     32 ****        -0.7302   0.2954   1.0755 H              1 S1                 0.0000
     33 ****        -1.8543  -1.3418  -0.4021 H              1 S1                 0.0000
     34 ****        -4.0174  -1.6246   0.7701 H              1 S1                 0.0000
     35 ****        -4.4843   0.0029   0.3570 H              1 S1                 0.0000
     36 ****        -3.9673  -2.2721  -1.6069 H              1 S1                 0.0000
     37 ****        -5.5232  -1.5780  -1.2048 H              1 S1                 0.0000
     38 ****        -4.6292  -0.6510  -3.3585 H              1 S1                 0.0000
     39 ****        -4.8528   0.6037  -2.1603 H              1 S1                 0.0000
     40 ****        -2.2091  -0.7567  -2.8770 H              1 S1                 0.0000
     41 ****        -2.6652   0.8955  -3.2453 H              1 S1                 0.0000
     42 ****         0.2601   4.0867  -1.4148 H              1 S1                 0.0000
     43 ****         2.3209  -2.0005  -1.8576 H              1 S1                 0.0000
     44 ****         4.3342  -0.5372  -2.0145 H              1 S1                 0.0000
     45 ****         4.0154   1.0417  -2.6871 H              1 S1                 0.0000
     46 ****         4.0531   2.1059  -0.5094 H              1 S1                 0.0000
     47 ****         6.1512   0.2610  -0.6851 H              1 S1                 0.0000
     48 ****         4.6213   0.9223   1.5981 H              1 S1                 0.0000
     49 ****         3.9891  -1.6246   0.0481 H              1 S1                 0.0000
     50 ****         5.3512  -1.3254   1.1305 H              1 S1                 0.0000
     51 ****         3.1406  -2.5025   2.1288 H              1 S1                 0.0000
     52 ****         3.8707  -1.1755   3.0406 H              1 S1                 0.0000
     53 ****         1.4708  -1.0473   1.1914 H              1 S1                 0.0000
     54 ****         1.6707  -0.2748   2.7640 H              1 S1                 0.0000
     55 ****        -2.1216  -1.9857   2.0062 H              1 S1                 0.0000
     56 ****        -0.8527  -1.0938   2.8343 H              1 S1                 0.0000
     57 ****        -3.1000  -1.0198   4.1096 H              1 S1                 0.0000
     58 ****        -4.3589   1.0315   4.5649 LP             1 S1                 0.0000
     59 ****        -4.1694   2.3693   3.4813 LP             1 S1                 0.0000
     60 ****        -2.8310   1.2576  -0.8817 LP             1 S1                 0.0000
     61 ****        -1.7503   2.9700  -1.2335 LP             1 S1                 0.0000
     62 ****         2.3271   2.9535  -1.6676 LP             1 S1                 0.0000
     63 ****        -0.1576  -1.8091  -1.6352 LP             1 S1                 0.0000
     64 ****         6.1915   1.6370   0.1117 LP             1 S1                 0.0000
     65 ****         6.0499   1.6142  -1.5150 LP             1 S1                 0.0000
     66 ****         2.1468   0.7603   0.3366 LP             1 S1                 0.0000
     67 ****         2.6030   1.4027   1.7669 LP             1 S1                 0.0000
@<TRIPOS>BOND
    1    1    2 2     
    2    2   29 am    
    3    2    3 1     
    4    3    4 1     
    5    3   30 1     
    6    3   31 1     
    7    4    5 1     
    8    4   28 1     
    9    4   32 1     
   10    5   10 1     
   11    5    6 1     
   12    5   33 1     
   13    6    7 1     
   14    6   34 1     
   15    6   35 1     
   16    7    8 1     
   17    7   36 1     
   18    7   37 1     
   19    8    9 1     
   20    8   38 1     
   21    8   39 1     
   22    9   10 1     
   23    9   40 1     
   24    9   41 1     
   25   10   11 1     
   26   11   16 ar    
   27   11   12 ar    
   28   12   13 ar    
   29   13   14 ar    
   30   13   42 1     
   31   14   15 ar    
   32   15   19 1     
   33   15   16 ar    
   34   16   17 1     
   35   17   18 2     
   36   18   19 1     
   37   18   43 1     
   38   19   20 1     
   39   20   21 1     
   40   20   44 1     
   41   20   45 1     
   42   21   22 1     
   43   21   23 1     
   44   21   46 1     
   45   22   47 1     
   46   23   27 1     
   47   23   24 1     
   48   23   48 1     
   49   24   25 1     
   50   24   49 1     
   51   24   50 1     
   52   25   26 1     
   53   25   51 1     
   54   25   52 1     
   55   26   27 1     
   56   26   53 1     
   57   26   54 1     
   58   28   29 1     
   59   28   55 1     
   60   28   56 1     
   61   29   57 1     
   62    1   58 1     
   63    1   59 1     
   64   10   60 1     
   65   12   61 1     
   66   14   62 1     
   67   17   63 1     
   68   22   64 1     
   69   22   65 1     
   70   27   66 1     
   71   27   67 1     
@<TRIPOS>SUBSTRUCTURE
      1 S1             1
@<TRIPOS>SET
LONE_PAIRS      STATIC     ATOMS    <user>   **** ""
10 58 59 60 61 62 63 64 65 66 67
DONOR_HYDROGENS      STATIC     ATOMS    <user>   **** ""
2 47 57
ATOM$BLUE        STATIC     ATOMS    COLORGROUP SYSTEM
10 58 59 60 61 62 63 64 65 66 67
ATOM$RED        STATIC     ATOMS    COLORGROUP SYSTEM
2 47 57
