AV-unprocessed.smi:1131|AV-procd|sdf|4853|dock4
  -GOLD-   22720 3423D 1   1.00000     0.00000
 Structure written by MMmdl.
 32 33  0  0  0  0  0  0  0  0  2 V2000
  150.7351  140.3431  155.4305 O   0  0  0  0  0  0  0  0  0  0  0  0
  149.9648  141.2723  155.6768 C   0  0  0  0  0  0  0  0  0  0  0  0
  148.6645  141.4451  154.8800 C   0  0  0  0  0  0  0  0  0  0  0  0
  147.7010  140.3558  155.1060 N   0  0  0  0  0  0  0  0  0  0  0  0
  147.9047  139.1483  154.4149 C   0  0  0  0  0  0  0  0  0  0  0  0
  147.0726  138.0991  154.5571 C   0  0  0  0  0  0  0  0  0  0  0  0
  145.9348  138.2379  155.4576 C   0  0  0  0  0  0  0  0  0  0  0  0
  145.1680  137.2880  155.6048 O   0  0  0  0  0  0  0  0  0  0  0  0
  145.7767  139.4314  156.1013 N   0  5  0  0  0  0  0  0  0  0  0  0
  146.6298  140.4910  155.9448 C   0  0  0  0  0  0  0  0  0  0  0  0
  146.4676  141.5604  156.5340 O   0  0  0  0  0  0  0  0  0  0  0  0
  150.1768  142.1644  156.6564 N   0  0  0  0  0  0  0  0  0  0  0  0
  151.3323  142.1870  157.5476 C   0  0  0  0  0  0  0  0  0  0  0  0
  151.2451  143.3340  158.5721 C   0  0  1  0  0  0  0  0  0  0  0  0
  152.3848  143.3996  159.5710 C   0  0  0  0  0  0  0  0  0  0  0  0
  152.2823  144.8352  160.0776 C   0  0  0  0  0  0  0  0  0  0  0  0
  151.7465  145.5947  158.9974 O   0  0  0  0  0  0  0  0  0  0  0  0
  151.3320  144.7259  157.9476 C   0  0  0  0  0  0  0  0  0  0  0  0
  148.2249  142.4044  155.1553 H   0  0  0  0  0  0  0  0  0  0  0  0
  148.8916  141.5296  153.8156 H   0  0  0  0  0  0  0  0  0  0  0  0
  148.7663  139.1304  153.7639 H   0  0  0  0  0  0  0  0  0  0  0  0
  147.2411  137.1794  154.0168 H   0  0  0  0  0  0  0  0  0  0  0  0
  149.4876  142.8908  156.7874 H   0  0  0  0  0  0  0  0  0  0  0  0
  151.4541  141.2265  158.0516 H   0  0  0  0  0  0  0  0  0  0  0  0
  152.2212  142.3199  156.9305 H   0  0  0  0  0  0  0  0  0  0  0  0
  150.3044  143.2596  159.1204 H   0  0  0  0  0  0  0  0  0  0  0  0
  152.3009  142.6627  160.3703 H   0  0  0  0  0  0  0  0  0  0  0  0
  153.3408  143.2489  159.0676 H   0  0  0  0  0  0  0  0  0  0  0  0
  151.5891  144.8939  160.9177 H   0  0  0  0  0  0  0  0  0  0  0  0
  153.2447  145.2299  160.4043 H   0  0  0  0  0  0  0  0  0  0  0  0
  152.0890  144.7511  157.1625 H   0  0  0  0  0  0  0  0  0  0  0  0
  150.3858  145.0496  157.5136 H   0  0  0  0  0  0  0  0  0  0  0  0
  1  2  2  0  0  0  0
  2  3  1  0  0  0  0
  2 12  1  0  0  0  0
  3  4  1  0  0  0  0
  3 19  1  0  0  0  0
  3 20  1  0  0  0  0
  4 10  1  0  0  0  0
  4  5  1  0  0  0  0
  5  6  2  0  0  0  0
  5 21  1  0  0  0  0
  6  7  1  0  0  0  0
  6 22  1  0  0  0  0
  7  8  2  0  0  0  0
  7  9  1  0  0  0  0
  9 10  1  0  0  0  0
 10 11  2  0  0  0  0
 12 13  1  0  0  0  0
 12 23  1  0  0  0  0
 13 14  1  0  0  0  0
 13 24  1  0  0  0  0
 13 25  1  0  0  0  0
 14 18  1  0  0  0  0
 14 15  1  0  0  0  0
 14 26  1  0  0  0  0
 15 16  1  0  0  0  0
 15 27  1  0  0  0  0
 15 28  1  0  0  0  0
 16 17  1  0  0  0  0
 16 29  1  0  0  0  0
 16 30  1  0  0  0  0
 17 18  1  0  0  0  0
 18 31  1  0  0  0  0
 18 32  1  0  0  0  0
M  CHG  1   9  -1
M  END
> <s_m_source_file>
AV-unprocessed.smi

> <i_m_source_file_index>
1131

> <i_lp_mmshare_version>
43012

> <i_f3d_flags>
0

> <s_epik_input>
W0NIMl0xT1tDSDJdW0NIMl1bQ0BIXTFbQ0gyXVtOSF1DKD1PKVtDSDJdbjJbY0hdW2NIXWMoPU8pW25IXWMyPU8=

> <s_epik_cmdline>
J2VwaWtfcHl0aG9uJywgJy1waCcsICc3LjAnLCAnLXRuJywgJzgnLCAnLW1hJywgJzIwMCcsICctbWV0YWxfYmluZGluZycsICctaW1hZScsICc8aW5maWxlLm1hZT4nLCAnLW9tYWUnLCAnPG91dGZpbGUubWFlPic=

> <r_lp_tautomer_probability>
0.999537

> <r_epik_Ionization_Penalty>
3.07866

> <r_epik_Ionization_Penalty_Charging>
2.6898e-08

> <r_epik_Ionization_Penalty_Neutral>
3.07866

> <r_epik_State_Penalty>
3.07769

> <r_epik_Charging_Adjusted_Penalty>
3.07769

> <i_epik_Tot_Q>
-1

> <i_epik_Tot_abs_Q>
1

> <r_epik_Metal_State_Penalty>
0.459839

> <b_epik_Metal_Only>
1

> <s_lp_Force_Field>
OPLS_2005

> <r_lp_Energy>
26.9978

> <b_lp_Chiralities_Consistent>
1

> <s_lp_Variant>
AV-unprocessed.smi:1131-4

> <Gold.Version>
5.8.1

> <Gold.Id.Protein>
6NUR|6NUR_protein|mol2

> <Gold.PLP.Fitness>
38.0969

> <Gold.PLP.PLP>
-29.7932

> <Gold.PLP.part.hbond>
-2.4302

> <Gold.PLP.part.metal>
0.0000

> <Gold.PLP.part.buried>
-1.6908

> <Gold.PLP.part.nonpolar>
-24.6270

> <Gold.PLP.part.repulsive>
0.5417

> <Gold.PLP.ligand.clash>
0.0000

> <Gold.PLP.ligand.torsion>
0.3314

> <Gold.PLP.Chemscore.Hbond>
1.9840

> <Gold.PLP.Chemscore.CHOScore>
0.9979

> <Gold.PLP.Chemscore.Metal>
0.0000

> <Gold.Chemscore.Hbonds>
donor molecule, donor type, donor heavy atom, donor atom, acceptor molecule, acceptor atom, score
      L1  H    12    23       P1  8028  0.35
      P1  H  7989  7998       L1     1  0.60
      L1  C     5    21       P1  7957  0.13

> <Gold.PLP.Chemscore.Internal.Correction>
0.0209

> <Gold.Rescore>
     Score         DG    S(hbond)    S(metal)    S(lipo)     H(rot)  DE(clash)    DE(int)     intcor
     12.99     -13.57       1.37        0.00      74.78       2.05       0.29       0.28       ----

> <Gold.Chemscore.Fitness>
12.9939

> <Gold.Chemscore.DG>
-13.5711

> <Gold.Chemscore.ZeroCoef>
-5.4800

> <Gold.Chemscore.Hbond>
1.3714

> <Gold.Chemscore.Metal>
0.0000

> <Gold.Chemscore.Lipo>
74.7796

> <Gold.Chemscore.Internal_Hbond>
0.0000

> <Gold.Chemscore.DEClash>
0.2948

> <Gold.Chemscore.DEInternal>
0.2824

> <Gold.Chemscore.Rot>
2.0463

> <Gold.Chemscore.Internal.Correction>
   9.000000E+99

> <Gold.Chemscore.Hbonds>
donor molecule, donor type, donor heavy atom, donor atom, acceptor molecule, acceptor atom, score
      L1  H    12    23       P1  8028  0.35
      P1  H  7989  7998       L1     1  0.26

> <Gold.Chemscore.Hbond.Weighted>
-4.5805

> <Gold.Chemscore.Metal.Weighted>
-0.0000

> <Gold.Chemscore.Lipo.Weighted>
-8.7492

> <Gold.Chemscore.Internal_Hbond.Weighted>
0.0000

> <Gold.Chemscore.DEClash.Weighted>
0.2948

> <Gold.Chemscore.DEInternal.Weighted>
0.2824

> <Gold.Chemscore.Rot.Weighted>
5.2386

> <Gold.Chemscore.Internal.Correction.Weighted>
   9.000000E+99

> <Gold.Protein.RotatedTorsions>
[ 6907 6896 6895 6894 ] final   -4.90 input  -60.11 | X-H torsion
[ 7974 7965 7964 7962 ] final  -43.16 input  175.53 | X-H torsion
[ 8008 7997 7996 7995 ] final  -21.14 input   59.86 | X-H torsion
[ 10167 10162 10161 10158 ] final   97.56 input  -65.29 | X-H torsion
[ 10718 10713 10712 10709 ] final   84.83 input   66.30 | X-H torsion
[ 10763 10752 10751 10750 ] final  136.46 input  -60.55 | X-H torsion
[ 11005 11000 10999 10996 ] final   -5.22 input  -57.11 | X-H torsion

> <Gold.Protein.ActiveResidues>
 VAL166  LYS551  ARG553  GLY616  TRP617  ASP618  TYR619  PRO620  LYS621  CYS622 
 ASP623  PHE694  ASN695  SER759  ASP760  ASP761  ALA762  ILE779  LEU786  VAL792 
 PHE793  MET794  SER795  GLU796  ALA797  LYS798  CYS799  TRP800  GLU811  SER814 

> <Gold.Protein.RotatedAtoms>
  151.4902  135.1057  159.9801 H   0  0  0  0  0  0  0  0  0  0  0  0  # atno 6907 bound_to 6896
  152.4744  133.8099  159.7008 H   0  0  0  0  0  0  0  0  0  0  0  0  # atno 6908 bound_to 6896
  150.8772  133.7360  159.2969 H   0  0  0  0  0  0  0  0  0  0  0  0  # atno 6909 bound_to 6896
  146.0046  140.7035  142.9254 H   0  0  0  0  0  0  0  0  0  0  0  0  # atno 7974 bound_to 7965
  154.4724  140.2043  155.9961 H   0  0  0  0  0  0  0  0  0  0  0  0  # atno 8008 bound_to 7997
  156.1034  140.3240  155.7943 H   0  0  0  0  0  0  0  0  0  0  0  0  # atno 8009 bound_to 7997
  155.4759  140.0535  157.2964 H   0  0  0  0  0  0  0  0  0  0  0  0  # atno 8010 bound_to 7997
  139.7789  144.6895  151.0050 H   0  0  0  0  0  0  0  0  0  0  0  0  # atno 10167 bound_to 10162
  157.6905  131.0149  150.2732 H   0  0  0  0  0  0  0  0  0  0  0  0  # atno 10718 bound_to 10713
  153.8569  135.3072  155.3435 H   0  0  0  0  0  0  0  0  0  0  0  0  # atno 10763 bound_to 10752
  154.7866  135.4806  153.9962 H   0  0  0  0  0  0  0  0  0  0  0  0  # atno 10764 bound_to 10752
  153.1485  135.6838  153.9013 H   0  0  0  0  0  0  0  0  0  0  0  0  # atno 10765 bound_to 10752
  140.6887  133.9090  155.8604 H   0  0  0  0  0  0  0  0  0  0  0  0  # atno 11005 bound_to 11000
  144.6931  140.3292  143.7219 LP  0  0  0  0  0  0  0  0  0  0  0  0  # atno 17320 bound_to 7965
  145.7436  139.1772  143.2362 LP  0  0  0  0  0  0  0  0  0  0  0  0  # atno 17321 bound_to 7965
  140.7817  143.4505  151.0420 LP  0  0  0  0  0  0  0  0  0  0  0  0  # atno 17342 bound_to 10162
  139.8186  143.7851  152.3175 LP  0  0  0  0  0  0  0  0  0  0  0  0  # atno 17343 bound_to 10162
  156.3291  130.3797  149.7507 LP  0  0  0  0  0  0  0  0  0  0  0  0  # atno 17370 bound_to 10713
  156.5052  130.8147  151.3148 LP  0  0  0  0  0  0  0  0  0  0  0  0  # atno 17371 bound_to 10713
  141.0259  134.0824  157.4069 LP  0  0  0  0  0  0  0  0  0  0  0  0  # atno 17394 bound_to 11000
  139.8930  135.0128  156.6874 LP  0  0  0  0  0  0  0  0  0  0  0  0  # atno 17395 bound_to 11000

$$$$
