AV-unprocessed.smi:705|AV-procd|sdf|3448|dock10
  -GOLD-   22720 0433D 1   1.00000     0.00000
 Structure written by MMmdl.
 29 30  0  0  0  0  0  0  0  0  2 V2000
  149.3884  134.7943  154.4056 N   0  0  0  0  0  0  0  0  0  0  0  0
  148.7508  133.9014  155.1673 C   0  0  0  0  0  0  0  0  0  0  0  0
  149.1554  133.5645  156.2787 O   0  0  0  0  0  0  0  0  0  0  0  0
  147.4933  133.3304  154.5805 C   0  0  0  0  0  0  0  0  0  0  0  0
  147.3388  133.2118  153.1664 C   0  0  0  0  0  0  0  0  0  0  0  0
  146.0973  132.6621  153.0049 C   0  0  0  0  0  0  0  0  0  0  0  0
  145.3341  132.2903  151.7726 C   0  0  2  0  0  0  0  0  0  0  0  0
  146.1777  132.4706  150.4953 C   0  0  0  0  0  0  0  0  0  0  0  0
  145.3616  132.1053  149.2460 C   0  0  0  0  0  0  0  0  0  0  0  0
  144.0519  132.9077  149.1938 C   0  0  0  0  0  0  0  0  0  0  0  0
  143.2706  132.7099  150.4337 N   0  3  0  0  0  0  0  0  0  0  0  0
  144.0182  133.0873  151.6537 C   0  0  0  0  0  0  0  0  0  0  0  0
  145.5868  132.4906  154.2720 N   0  0  0  0  0  0  0  0  0  0  0  0
  146.4290  132.8929  155.2419 N   0  0  0  0  0  0  0  0  0  0  0  0
  144.6800  132.1009  154.4883 H   0  0  0  0  0  0  0  0  0  0  0  0
  150.2413  135.2210  154.7368 H   0  0  0  0  0  0  0  0  0  0  0  0
  149.0113  135.0380  153.5011 H   0  0  0  0  0  0  0  0  0  0  0  0
  148.0345  133.4883  152.3878 H   0  0  0  0  0  0  0  0  0  0  0  0
  145.0718  131.2333  151.8441 H   0  0  0  0  0  0  0  0  0  0  0  0
  146.5183  133.5040  150.4153 H   0  0  0  0  0  0  0  0  0  0  0  0
  147.0741  131.8514  150.5460 H   0  0  0  0  0  0  0  0  0  0  0  0
  145.9512  132.2934  148.3481 H   0  0  0  0  0  0  0  0  0  0  0  0
  145.1385  131.0376  149.2518 H   0  0  0  0  0  0  0  0  0  0  0  0
  144.2627  133.9706  149.0676 H   0  0  0  0  0  0  0  0  0  0  0  0
  143.4507  132.5971  148.3391 H   0  0  0  0  0  0  0  0  0  0  0  0
  142.4276  133.2641  150.3822 H   0  0  0  0  0  0  0  0  0  0  0  0
  143.3848  132.9040  152.5222 H   0  0  0  0  0  0  0  0  0  0  0  0
  144.2202  134.1592  151.6291 H   0  0  0  0  0  0  0  0  0  0  0  0
  143.0154  131.7350  150.5008 H   0  0  0  0  0  0  0  0  0  0  0  0
  1  2  1  0  0  0  0
  1 16  1  0  0  0  0
  1 17  1  0  0  0  0
  2  3  2  0  0  0  0
  2  4  1  0  0  0  0
  4 14  2  0  0  0  0
  4  5  1  0  0  0  0
  5  6  2  0  0  0  0
  5 18  1  0  0  0  0
  6  7  1  0  0  0  0
  6 13  1  0  0  0  0
  7 12  1  0  0  0  0
  7  8  1  0  0  0  0
  7 19  1  0  0  0  0
  8  9  1  0  0  0  0
  8 20  1  0  0  0  0
  8 21  1  0  0  0  0
  9 10  1  0  0  0  0
  9 22  1  0  0  0  0
  9 23  1  0  0  0  0
 10 11  1  0  0  0  0
 10 24  1  0  0  0  0
 10 25  1  0  0  0  0
 11 12  1  0  0  0  0
 11 26  1  0  0  0  0
 11 29  1  0  0  0  0
 12 27  1  0  0  0  0
 12 28  1  0  0  0  0
 13 15  1  0  0  0  0
 13 14  1  0  0  0  0
M  CHG  1  11   1
M  END
> <s_m_source_file>
AV-unprocessed.smi

> <i_m_source_file_index>
705

> <i_lp_mmshare_version>
43012

> <i_f3d_flags>
0

> <s_epik_input>
W05IMl1DKD1PKWMxW2NIXWMoW25IXW4xKVtDQEBIXTJbQ0gyXVtDSDJdW0NIMl1bTkhdW0NIMl0y

> <s_epik_cmdline>
J2VwaWtfcHl0aG9uJywgJy1waCcsICc3LjAnLCAnLXRuJywgJzgnLCAnLW1hJywgJzIwMCcsICctbWV0YWxfYmluZGluZycsICctaW1hZScsICc8aW5maWxlLm1hZT4nLCAnLW9tYWUnLCAnPG91dGZpbGUubWFlPic=

> <r_lp_tautomer_probability>
0.5

> <r_epik_Ionization_Penalty>
0.000245231

> <r_epik_Ionization_Penalty_Charging>
0.000226378

> <r_epik_Ionization_Penalty_Neutral>
1.88531e-05

> <r_epik_State_Penalty>
0.41068

> <r_epik_Charging_Adjusted_Penalty>
0.410906

> <i_epik_Tot_Q>
1

> <i_epik_Tot_abs_Q>
1

> <r_epik_Metal_State_Penalty>
0.446108

> <b_epik_Metal_Only>
0

> <s_lp_Force_Field>
OPLS_2005

> <r_lp_Energy>
15.347

> <b_lp_Chiralities_Consistent>
1

> <s_lp_Variant>
AV-unprocessed.smi:705-3

> <Gold.Version>
5.8.1

> <Gold.Id.Protein>
6NUR|6NUR_protein|mol2

> <Gold.PLP.Fitness>
33.8794

> <Gold.PLP.PLP>
-22.6643

> <Gold.PLP.part.hbond>
-2.9929

> <Gold.PLP.part.metal>
0.0000

> <Gold.PLP.part.buried>
-3.3292

> <Gold.PLP.part.nonpolar>
-16.5934

> <Gold.PLP.part.repulsive>
0.1535

> <Gold.PLP.ligand.clash>
0.0000

> <Gold.PLP.ligand.torsion>
0.3875

> <Gold.PLP.Chemscore.Hbond>
3.9913

> <Gold.PLP.Chemscore.CHOScore>
0.0000

> <Gold.PLP.Chemscore.Metal>
0.0000

> <Gold.Chemscore.Hbonds>
donor molecule, donor type, donor heavy atom, donor atom, acceptor molecule, acceptor atom, score
      L1  H     1    17       P1  7948  1.00
      L1  H    11    26       P1 10186  2.00
      L1  H    13    15       P1 10957  0.99

> <Gold.PLP.Chemscore.Internal.Correction>
0.0164

> <Gold.Rescore>
     Score         DG    S(hbond)    S(metal)    S(lipo)     H(rot)  DE(clash)    DE(int)     intcor
     18.87     -19.24       2.88        0.00      57.20       1.00       0.00       0.37       ----

> <Gold.Chemscore.Fitness>
18.8653

> <Gold.Chemscore.DG>
-19.2350

> <Gold.Chemscore.ZeroCoef>
-5.4800

> <Gold.Chemscore.Hbond>
2.8809

> <Gold.Chemscore.Metal>
0.0000

> <Gold.Chemscore.Lipo>
57.2030

> <Gold.Chemscore.Internal_Hbond>
0.0000

> <Gold.Chemscore.DEClash>
0.0000

> <Gold.Chemscore.DEInternal>
0.3697

> <Gold.Chemscore.Rot>
1.0000

> <Gold.Chemscore.Internal.Correction>
   9.000000E+99

> <Gold.Chemscore.Hbonds>
donor molecule, donor type, donor heavy atom, donor atom, acceptor molecule, acceptor atom, score
      L1  H     1    17       P1  7948  0.32
      L1  H    11    26       P1 10186  0.94
      L1  H    13    15       P1 10957  0.28

> <Gold.Chemscore.Hbond.Weighted>
-9.6223

> <Gold.Chemscore.Metal.Weighted>
-0.0000

> <Gold.Chemscore.Lipo.Weighted>
-6.6927

> <Gold.Chemscore.Internal_Hbond.Weighted>
0.0000

> <Gold.Chemscore.DEClash.Weighted>
0.0000

> <Gold.Chemscore.DEInternal.Weighted>
0.3697

> <Gold.Chemscore.Rot.Weighted>
2.5600

> <Gold.Chemscore.Internal.Correction.Weighted>
   9.000000E+99

> <Gold.Protein.RotatedTorsions>
[ 6907 6896 6895 6894 ] final  -87.08 input  -60.11 | X-H torsion
[ 7974 7965 7964 7962 ] final -149.94 input  175.53 | X-H torsion
[ 8008 7997 7996 7995 ] final   36.80 input   59.86 | X-H torsion
[ 10167 10162 10161 10158 ] final   56.08 input  -65.29 | X-H torsion
[ 10718 10713 10712 10709 ] final  -60.22 input   66.30 | X-H torsion
[ 10763 10752 10751 10750 ] final  -45.30 input  -60.55 | X-H torsion
[ 11005 11000 10999 10996 ] final   91.11 input  -57.11 | X-H torsion

> <Gold.Protein.ActiveResidues>
 VAL166  LYS551  ARG553  GLY616  TRP617  ASP618  TYR619  PRO620  LYS621  CYS622 
 ASP623  PHE694  ASN695  SER759  ASP760  ASP761  ALA762  ILE779  LEU786  VAL792 
 PHE793  MET794  SER795  GLU796  ALA797  LYS798  CYS799  TRP800  GLU811  SER814 

> <Gold.Protein.RotatedAtoms>
  150.6866  134.2952  159.4683 H   0  0  0  0  0  0  0  0  0  0  0  0  # atno 6907 bound_to 6896
  152.0853  134.9441  160.0582 H   0  0  0  0  0  0  0  0  0  0  0  0  # atno 6908 bound_to 6896
  152.0778  133.4103  159.4524 H   0  0  0  0  0  0  0  0  0  0  0  0  # atno 6909 bound_to 6896
  144.7937  140.4998  143.5755 H   0  0  0  0  0  0  0  0  0  0  0  0  # atno 7974 bound_to 7965
  155.1934  140.3310  155.4355 H   0  0  0  0  0  0  0  0  0  0  0  0  # atno 8008 bound_to 7997
  156.2434  140.1906  156.6975 H   0  0  0  0  0  0  0  0  0  0  0  0  # atno 8009 bound_to 7997
  154.6190  140.0598  156.9577 H   0  0  0  0  0  0  0  0  0  0  0  0  # atno 8010 bound_to 7997
  140.2126  144.3873  150.6483 H   0  0  0  0  0  0  0  0  0  0  0  0  # atno 10167 bound_to 10162
  156.1006  130.4187  150.0824 H   0  0  0  0  0  0  0  0  0  0  0  0  # atno 10718 bound_to 10713
  154.0262  135.6662  153.4776 H   0  0  0  0  0  0  0  0  0  0  0  0  # atno 10763 bound_to 10752
  153.0559  135.5056  154.7976 H   0  0  0  0  0  0  0  0  0  0  0  0  # atno 10764 bound_to 10752
  154.6906  135.3061  154.9449 H   0  0  0  0  0  0  0  0  0  0  0  0  # atno 10765 bound_to 10752
  139.8844  134.8654  156.3381 H   0  0  0  0  0  0  0  0  0  0  0  0  # atno 11005 bound_to 11000
  145.5728  139.1484  143.3279 LP  0  0  0  0  0  0  0  0  0  0  0  0  # atno 17320 bound_to 7965
  146.2198  140.5860  142.9022 LP  0  0  0  0  0  0  0  0  0  0  0  0  # atno 17321 bound_to 7965
  140.6313  143.2188  151.6490 LP  0  0  0  0  0  0  0  0  0  0  0  0  # atno 17342 bound_to 10162
  139.5174  144.3316  152.0821 LP  0  0  0  0  0  0  0  0  0  0  0  0  # atno 17343 bound_to 10162
  156.8812  130.9557  151.3599 LP  0  0  0  0  0  0  0  0  0  0  0  0  # atno 17370 bound_to 10713
  157.6175  130.8630  149.9053 LP  0  0  0  0  0  0  0  0  0  0  0  0  # atno 17371 bound_to 10713
  140.9677  133.7347  156.0490 LP  0  0  0  0  0  0  0  0  0  0  0  0  # atno 17394 bound_to 11000
  140.7910  134.3617  157.5464 LP  0  0  0  0  0  0  0  0  0  0  0  0  # atno 17395 bound_to 11000

$$$$
