AV-unprocessed.smi:3033|AV-procd|sdf|11573|dock5
  -GOLD-   2272016543D 1   1.00000     0.00000
 Structure written by MMmdl.
 33 34  0  0  0  0  0  0  0  0  1 V2000
  153.3494  143.0262  162.9614 C   0  0  0  0  0  0  0  0  0  0  0  0
  152.7695  143.3420  161.7041 O   0  0  0  0  0  0  0  0  0  0  0  0
  152.8182  142.3888  160.7097 C   0  0  0  0  0  0  0  0  0  0  0  0
  153.6008  141.2087  160.7754 C   0  0  0  0  0  0  0  0  0  0  0  0
  153.5928  140.2894  159.7092 C   0  0  0  0  0  0  0  0  0  0  0  0
  152.8051  140.5339  158.5697 C   0  0  0  0  0  0  0  0  0  0  0  0
  152.0176  141.7017  158.4915 C   0  0  0  0  0  0  0  0  0  0  0  0
  151.1680  141.9816  157.2610 C   0  0  2  0  0  0  0  0  0  0  0  0
  151.0988  143.3690  156.9981 O   0  0  0  0  0  0  0  0  0  0  0  0
  149.7391  141.4226  157.4376 C   0  0  0  0  0  0  0  0  0  0  0  0
  149.0169  141.3074  156.1930 N   0  0  0  0  0  0  0  0  0  0  0  0
  147.7217  141.7808  156.0483 C   0  0  0  0  0  0  0  0  0  0  0  0
  147.0108  141.6637  154.9009 C   0  0  0  0  0  0  0  0  0  0  0  0
  145.3992  142.2773  154.8016 Cl  0  0  0  0  0  0  0  0  0  0  0  0
  147.6054  141.0099  153.7358 C   0  0  0  0  0  0  0  0  0  0  0  0
  147.0537  140.8524  152.6485 O   0  0  0  0  0  0  0  0  0  0  0  0
  148.9089  140.5424  153.9291 N   0  0  0  0  0  0  0  0  0  0  0  0
  149.6472  140.6554  155.1078 C   0  0  0  0  0  0  0  0  0  0  0  0
  150.7874  140.1949  155.1604 O   0  0  0  0  0  0  0  0  0  0  0  0
  152.0332  142.6210  159.5616 C   0  0  0  0  0  0  0  0  0  0  0  0
  149.3540  140.0811  153.1491 H   0  0  0  0  0  0  0  0  0  0  0  0
  153.2375  143.8769  163.6334 H   0  0  0  0  0  0  0  0  0  0  0  0
  154.4163  142.8184  162.8680 H   0  0  0  0  0  0  0  0  0  0  0  0
  152.8541  142.1723  163.4254 H   0  0  0  0  0  0  0  0  0  0  0  0
  154.2175  140.9859  161.6329 H   0  0  0  0  0  0  0  0  0  0  0  0
  154.1934  139.3936  159.7657 H   0  0  0  0  0  0  0  0  0  0  0  0
  152.8086  139.8235  157.7556 H   0  0  0  0  0  0  0  0  0  0  0  0
  151.6434  141.5064  156.4016 H   0  0  0  0  0  0  0  0  0  0  0  0
  150.3460  143.5330  156.4511 H   0  0  0  0  0  0  0  0  0  0  0  0
  149.7836  140.3986  157.8140 H   0  0  0  0  0  0  0  0  0  0  0  0
  149.1357  141.9715  158.1639 H   0  0  0  0  0  0  0  0  0  0  0  0
  147.2520  142.2646  156.8932 H   0  0  0  0  0  0  0  0  0  0  0  0
  151.4368  143.5201  159.5056 H   0  0  0  0  0  0  0  0  0  0  0  0
  1  2  1  0  0  0  0
  1 22  1  0  0  0  0
  1 23  1  0  0  0  0
  1 24  1  0  0  0  0
  2  3  1  0  0  0  0
  3 20  1  0  0  0  0
  3  4  2  0  0  0  0
  4  5  1  0  0  0  0
  4 25  1  0  0  0  0
  5  6  2  0  0  0  0
  5 26  1  0  0  0  0
  6  7  1  0  0  0  0
  6 27  1  0  0  0  0
  7  8  1  0  0  0  0
  7 20  2  0  0  0  0
  8  9  1  0  0  0  0
  8 10  1  0  0  0  0
  8 28  1  0  0  0  0
  9 29  1  0  0  0  0
 10 11  1  0  0  0  0
 10 30  1  0  0  0  0
 10 31  1  0  0  0  0
 11 18  1  0  0  0  0
 11 12  1  0  0  0  0
 12 13  2  0  0  0  0
 12 32  1  0  0  0  0
 13 14  1  0  0  0  0
 13 15  1  0  0  0  0
 15 16  2  0  0  0  0
 15 17  1  0  0  0  0
 17 21  1  0  0  0  0
 17 18  1  0  0  0  0
 18 19  2  0  0  0  0
 20 33  1  0  0  0  0
M  END
> <s_m_source_file>
AV-unprocessed.smi

> <i_m_source_file_index>
3033

> <i_lp_mmshare_version>
43012

> <i_f3d_flags>
0

> <s_epik_input>
W0NIM11PYzFbY0hdW2NIXVtjSF1jKFtjSF0xKVtDQEhdKFtPSF0pW0NIMl1uMltjSF1jKENsKWMoPU8pW25IXWMyPU8=

> <s_epik_cmdline>
J2VwaWtfcHl0aG9uJywgJy1waCcsICc3LjAnLCAnLXRuJywgJzgnLCAnLW1hJywgJzIwMCcsICctbWV0YWxfYmluZGluZycsICctaW1hZScsICc8aW5maWxlLm1hZT4nLCAnLW9tYWUnLCAnPG91dGZpbGUubWFlPic=

> <r_lp_tautomer_probability>
0.999537

> <r_epik_Ionization_Penalty>
0.0292058

> <r_epik_Ionization_Penalty_Charging>
0.0292057

> <r_epik_Ionization_Penalty_Neutral>
7.1713e-08

> <r_epik_State_Penalty>
0.0240115

> <r_epik_Charging_Adjusted_Penalty>
0.0532172

> <i_epik_Tot_Q>
0

> <i_epik_Tot_abs_Q>
0

> <r_epik_Metal_State_Penalty>
2.21956

> <b_epik_Metal_Only>
0

> <s_lp_Force_Field>
OPLS_2005

> <r_lp_Energy>
16.8707

> <b_lp_Chiralities_Consistent>
1

> <s_lp_Variant>
AV-unprocessed.smi:3033-1

> <Gold.Version>
5.8.1

> <Gold.Id.Protein>
6NUR|6NUR_protein|mol2

> <Gold.PLP.Fitness>
45.4547

> <Gold.PLP.PLP>
-38.5712

> <Gold.PLP.part.hbond>
-3.0000

> <Gold.PLP.part.metal>
0.0000

> <Gold.PLP.part.buried>
-4.0463

> <Gold.PLP.part.nonpolar>
-31.8187

> <Gold.PLP.part.repulsive>
0.7923

> <Gold.PLP.ligand.clash>
0.0000

> <Gold.PLP.ligand.torsion>
1.0754

> <Gold.PLP.Chemscore.Hbond>
3.0000

> <Gold.PLP.Chemscore.CHOScore>
0.0000

> <Gold.PLP.Chemscore.Metal>
0.0000

> <Gold.Chemscore.Hbonds>
donor molecule, donor type, donor heavy atom, donor atom, acceptor molecule, acceptor atom, score
      L1  H     9    29       P1  8028  0.99
      L1  H    17    21       P1  7957  0.93
      P1  H  7989  7998       L1    19  1.00

> <Gold.PLP.Chemscore.Internal.Correction>
0.0344

> <Gold.Rescore>
     Score         DG    S(hbond)    S(metal)    S(lipo)     H(rot)  DE(clash)    DE(int)     intcor
     15.53     -18.76       2.78        0.00      89.13       2.51       0.80       2.43       ----

> <Gold.Chemscore.Fitness>
15.5278

> <Gold.Chemscore.DG>
-18.7608

> <Gold.Chemscore.ZeroCoef>
-5.4800

> <Gold.Chemscore.Hbond>
2.7783

> <Gold.Chemscore.Metal>
0.0000

> <Gold.Chemscore.Lipo>
89.1339

> <Gold.Chemscore.Internal_Hbond>
0.0000

> <Gold.Chemscore.DEClash>
0.7984

> <Gold.Chemscore.DEInternal>
2.4346

> <Gold.Chemscore.Rot>
2.5107

> <Gold.Chemscore.Internal.Correction>
   9.000000E+99

> <Gold.Chemscore.Hbonds>
donor molecule, donor type, donor heavy atom, donor atom, acceptor molecule, acceptor atom, score
      L1  H     9    29       P1  8028  0.90
      L1  H    17    21       P1  7957  0.86
      P1  H  7989  7998       L1    19  0.38

> <Gold.Chemscore.Hbond.Weighted>
-9.2796

> <Gold.Chemscore.Metal.Weighted>
-0.0000

> <Gold.Chemscore.Lipo.Weighted>
-10.4287

> <Gold.Chemscore.Internal_Hbond.Weighted>
0.0000

> <Gold.Chemscore.DEClash.Weighted>
0.7984

> <Gold.Chemscore.DEInternal.Weighted>
2.4346

> <Gold.Chemscore.Rot.Weighted>
6.4274

> <Gold.Chemscore.Internal.Correction.Weighted>
   9.000000E+99

> <Gold.Protein.RotatedTorsions>
[ 6907 6896 6895 6894 ] final -172.15 input  -60.11 | X-H torsion
[ 7974 7965 7964 7962 ] final -159.20 input  175.53 | X-H torsion
[ 8008 7997 7996 7995 ] final  169.41 input   59.86 | X-H torsion
[ 10167 10162 10161 10158 ] final  -71.13 input  -65.29 | X-H torsion
[ 10718 10713 10712 10709 ] final  149.25 input   66.30 | X-H torsion
[ 10763 10752 10751 10750 ] final    5.56 input  -60.55 | X-H torsion
[ 11005 11000 10999 10996 ] final   -3.83 input  -57.11 | X-H torsion

> <Gold.Protein.ActiveResidues>
 VAL166  LYS551  ARG553  GLY616  TRP617  ASP618  TYR619  PRO620  LYS621  CYS622 
 ASP623  PHE694  ASN695  SER759  ASP760  ASP761  ALA762  ILE779  LEU786  VAL792 
 PHE793  MET794  SER795  GLU796  ALA797  LYS798  CYS799  TRP800  GLU811  SER814 

> <Gold.Protein.RotatedAtoms>
  151.5353  133.3442  159.2925 H   0  0  0  0  0  0  0  0  0  0  0  0  # atno 6907 bound_to 6896
  150.8568  134.7912  159.7063 H   0  0  0  0  0  0  0  0  0  0  0  0  # atno 6908 bound_to 6896
  152.4599  134.5215  159.9836 H   0  0  0  0  0  0  0  0  0  0  0  0  # atno 6909 bound_to 6896
  144.7474  140.3718  143.6074 H   0  0  0  0  0  0  0  0  0  0  0  0  # atno 7974 bound_to 7965
  156.1459  140.1565  156.8847 H   0  0  0  0  0  0  0  0  0  0  0  0  # atno 8008 bound_to 7997
  154.5028  140.0821  156.7870 H   0  0  0  0  0  0  0  0  0  0  0  0  # atno 8009 bound_to 7997
  155.3989  140.3413  155.4258 H   0  0  0  0  0  0  0  0  0  0  0  0  # atno 8010 bound_to 7997
  140.5298  143.2323  151.7283 H   0  0  0  0  0  0  0  0  0  0  0  0  # atno 10167 bound_to 10162
  157.2985  131.0866  151.1408 H   0  0  0  0  0  0  0  0  0  0  0  0  # atno 10718 bound_to 10713
  153.2580  135.6920  153.7608 H   0  0  0  0  0  0  0  0  0  0  0  0  # atno 10763 bound_to 10752
  153.6678  135.3349  155.3146 H   0  0  0  0  0  0  0  0  0  0  0  0  # atno 10764 bound_to 10752
  154.8419  135.4492  154.1560 H   0  0  0  0  0  0  0  0  0  0  0  0  # atno 10765 bound_to 10752
  140.6736  133.9215  155.8510 H   0  0  0  0  0  0  0  0  0  0  0  0  # atno 11005 bound_to 11000
  145.7069  139.1675  143.2561 LP  0  0  0  0  0  0  0  0  0  0  0  0  # atno 17320 bound_to 7965
  146.1375  140.7103  142.9383 LP  0  0  0  0  0  0  0  0  0  0  0  0  # atno 17321 bound_to 7965
  139.4950  144.4131  152.0059 LP  0  0  0  0  0  0  0  0  0  0  0  0  # atno 17342 bound_to 10162
  140.3233  144.3402  150.6004 LP  0  0  0  0  0  0  0  0  0  0  0  0  # atno 17343 bound_to 10162
  157.2777  130.6735  149.6050 LP  0  0  0  0  0  0  0  0  0  0  0  0  # atno 17370 bound_to 10713
  155.9670  130.4459  150.5521 LP  0  0  0  0  0  0  0  0  0  0  0  0  # atno 17371 bound_to 10713
  141.0373  134.0672  157.3944 LP  0  0  0  0  0  0  0  0  0  0  0  0  # atno 17394 bound_to 11000
  139.8974  135.0150  156.7097 LP  0  0  0  0  0  0  0  0  0  0  0  0  # atno 17395 bound_to 11000

$$$$
