#       Name:                AV-unprocessed.smi:1
#       Creating user name   scv26
#       Creation time:       Thu Mar 26 15:09:44 2020


#       File generated by GOLD software.
#

@<TRIPOS>MOLECULE
AV-unprocessed.smi:1
    66    71     1
SMALL
NO_CHARGES


@<TRIPOS>ATOM
      1 ****        -4.2627   4.7350  -1.1373 O.2            1 S1                 0.0000
      2 ****        -4.2907   3.5220  -0.9125 C.2            1 S1                 0.0000
      3 ****        -3.2296   2.6428  -0.7424 N.2            1 S1                 0.0000
      4 ****        -2.0086   3.0845  -0.7504 C.2            1 S1                 0.0000
      5 ****        -1.4664   4.3680  -0.8980 N.pl3          1 S1                 0.0000
      6 ****        -0.1010   4.6929  -0.8710 C.2            1 S1                 0.0000
      7 ****         0.8687   3.8333  -0.7051 N.2            1 S1                 0.0000
      8 ****         0.3826   2.5423  -0.5551 C.2            1 S1                 0.0000
      9 ****        -0.9221   2.0995  -0.5631 C.2            1 S1                 0.0000
     10 ****        -0.9772   0.7224  -0.3786 N.2            1 S1                 0.0000
     11 ****         0.3065   0.3927  -0.2617 C.2            1 S1                 0.0000
     12 ****         1.1766   1.4194  -0.3446 N.pl3          1 S1                 0.0000
     13 ****         2.6735   1.3833  -0.2466 C.3            1 S1                 0.0000
     14 ****         3.0962   0.0556  -0.3315 O.3            1 S1                 0.0000
     15 ****         3.3504  -0.4519   0.9725 C.3            1 S1                 0.0000
     16 ****         4.2682  -1.6751   0.8966 C.3            1 S1                 0.0000
     17 ****         3.5139  -2.7818   0.4312 O.3            1 S1                 0.0000
     18 ****         4.1226  -3.9545   0.1730 C.2            1 S1                 0.0000
     19 ****         5.3314  -4.1437   0.3238 O.2            1 S1                 0.0000
     20 ****         3.1795  -5.0006  -0.3178 C.ar           1 S1                 0.0000
     21 ****         3.6785  -6.2806  -0.6544 C.ar           1 S1                 0.0000
     22 ****         2.8124  -7.2881  -1.1219 C.ar           1 S1                 0.0000
     23 ****         1.4362  -7.0281  -1.2578 C.ar           1 S1                 0.0000
     24 ****         0.9272  -5.7592  -0.9255 C.ar           1 S1                 0.0000
     25 ****         1.7919  -4.7501  -0.4585 C.ar           1 S1                 0.0000
     26 ****         3.9815   0.7499   1.6739 C.3            1 S1                 0.0000
     27 ****         3.8088   0.6971   3.0791 O.3            1 S1                 0.0000
     28 ****         2.4289   1.5460   3.4870 S.o2           1 S1                 0.0000
     29 ****         1.3658   0.5785   3.7985 O.2            1 S1                 0.0000
     30 ****         2.8094   2.6289   4.4064 O.2            1 S1                 0.0000
     31 ****         2.0988   2.2169   1.9948 O.3            1 S1                 0.0000
     32 ****         3.1711   1.9268   1.1096 C.3            1 S1                 0.0000
     33 ****        -5.6254   2.8653  -0.7762 C.ar           1 S1                 0.0000
     34 ****        -6.2704   2.8299   0.4783 C.ar           1 S1                 0.0000
     35 ****        -7.5225   2.1987   0.6112 C.ar           1 S1                 0.0000
     36 ****        -8.1321   1.5997  -0.5083 C.ar           1 S1                 0.0000
     37 ****        -7.4895   1.6317  -1.7612 C.ar           1 S1                 0.0000
     38 ****        -6.2370   2.2624  -1.8958 C.ar           1 S1                 0.0000
     39 ****         0.1042   5.7563  -1.0033 H              1 S1                 0.0000
     40 ****         0.6168  -0.6302  -0.1095 H              1 S1                 0.0000
     41 ****         3.0196   1.9543  -1.1088 H              1 S1                 0.0000
     42 ****         2.4065  -0.7102   1.4553 H              1 S1                 0.0000
     43 ****         5.1173  -1.4768   0.2409 H              1 S1                 0.0000
     44 ****         4.6612  -1.9080   1.8871 H              1 S1                 0.0000
     45 ****         4.7314  -6.5036  -0.5584 H              1 S1                 0.0000
     46 ****         3.2053  -8.2614  -1.3766 H              1 S1                 0.0000
     47 ****         0.7718  -7.8006  -1.6159 H              1 S1                 0.0000
     48 ****        -0.1290  -5.5586  -1.0292 H              1 S1                 0.0000
     49 ****         1.3681  -3.7872  -0.2126 H              1 S1                 0.0000
     50 ****         5.0351   0.8488   1.4095 H              1 S1                 0.0000
     51 ****         3.7837   2.8168   0.9630 H              1 S1                 0.0000
     52 ****        -5.8071   3.2845   1.3421 H              1 S1                 0.0000
     53 ****        -8.0141   2.1722   1.5723 H              1 S1                 0.0000
     54 ****        -9.0915   1.1145  -0.4052 H              1 S1                 0.0000
     55 ****        -7.9562   1.1704  -2.6190 H              1 S1                 0.0000
     56 ****        -5.7485   2.2797  -2.8594 H              1 S1                 0.0000
     57 ****        -2.1182   5.1274  -1.0332 H              1 S1                 0.0000
     58 ****        -3.3856   5.2082  -1.2193 LP             1 S1                 0.0000
     59 ****        -5.1172   5.2448  -1.2375 LP             1 S1                 0.0000
     60 ****        -3.4062   1.6670  -0.6134 LP             1 S1                 0.0000
     61 ****         1.8388   4.0752  -0.6883 LP             1 S1                 0.0000
     62 ****        -1.7808   0.1283  -0.3427 LP             1 S1                 0.0000
     63 ****         3.9337   0.0077  -0.8757 LP             1 S1                 0.0000
     64 ****         2.3831  -0.4928  -0.7683 LP             1 S1                 0.0000
     65 ****         5.9159  -3.4030   0.6548 LP             1 S1                 0.0000
     66 ****         5.7274  -5.0379   0.1151 LP             1 S1                 0.0000
@<TRIPOS>BOND
    1    1    2 2     
    2    2    3 1     
    3    2   33 1     
    4    3    4 2     
    5    4    9 1     
    6    4    5 1     
    7    5    6 1     
    8    5   57 1     
    9    6    7 2     
   10    6   39 1     
   11    7    8 1     
   12    8   12 1     
   13    8    9 2     
   14    9   10 1     
   15   10   11 2     
   16   11   12 1     
   17   11   40 1     
   18   12   13 1     
   19   13   32 1     
   20   13   14 1     
   21   13   41 1     
   22   14   15 1     
   23   15   16 1     
   24   15   26 1     
   25   15   42 1     
   26   16   17 1     
   27   16   43 1     
   28   16   44 1     
   29   17   18 1     
   30   18   19 2     
   31   18   20 1     
   32   20   25 ar    
   33   20   21 ar    
   34   21   22 ar    
   35   21   45 1     
   36   22   23 ar    
   37   22   46 1     
   38   23   24 ar    
   39   23   47 1     
   40   24   25 ar    
   41   24   48 1     
   42   25   49 1     
   43   26   32 1     
   44   26   27 1     
   45   26   50 1     
   46   27   28 1     
   47   28   29 2     
   48   28   30 2     
   49   28   31 1     
   50   31   32 1     
   51   32   51 1     
   52   33   38 ar    
   53   33   34 ar    
   54   34   35 ar    
   55   34   52 1     
   56   35   36 ar    
   57   35   53 1     
   58   36   37 ar    
   59   36   54 1     
   60   37   38 ar    
   61   37   55 1     
   62   38   56 1     
   63    1   58 1     
   64    1   59 1     
   65    3   60 1     
   66    7   61 1     
   67   10   62 1     
   68   14   63 1     
   69   14   64 1     
   70   19   65 1     
   71   19   66 1     
@<TRIPOS>SUBSTRUCTURE
      1 S1             1
@<TRIPOS>SET
LONE_PAIRS      STATIC     ATOMS    <user>   **** ""
11 58 59 60 61 62 63 64 65 66 29 30
DONOR_HYDROGENS      STATIC     ATOMS    <user>   **** ""
1 57
ATOM$BLUE        STATIC     ATOMS    COLORGROUP SYSTEM
11 58 59 60 61 62 63 64 65 66 29 30
ATOM$RED        STATIC     ATOMS    COLORGROUP SYSTEM
1 57
