AV-unprocessed.smi:2301|AV-procd|sdf|9235|dock2
  -GOLD-   2272012453D 1   1.00000     0.00000
 Structure written by MMmdl.
 37 38  0  0  0  0  0  0  0  0  1 V2000
  147.6974  125.6267  155.0040 C   0  0  0  0  0  0  0  0  0  0  0  0
  147.9611  126.0737  153.5816 C   0  0  0  0  0  0  0  0  0  0  0  0
  148.4114  125.1620  152.6067 C   0  0  0  0  0  0  0  0  0  0  0  0
  148.6356  125.6418  151.3040 C   0  0  0  0  0  0  0  0  0  0  0  0
  148.4014  127.0035  151.0315 C   0  0  0  0  0  0  0  0  0  0  0  0
  147.9471  127.8519  152.0666 C   0  0  0  0  0  0  0  0  0  0  0  0
  147.7371  129.2048  151.6879 N   0  0  0  0  0  0  0  0  0  0  0  0
  146.7630  130.0399  152.0914 C   0  0  0  0  0  0  0  0  0  0  0  0
  145.8711  129.7600  152.8932 O   0  0  0  0  0  0  0  0  0  0  0  0
  146.8770  131.2388  151.5007 N   0  0  0  0  0  0  0  0  0  0  0  0
  145.9724  132.3677  151.6993 C   0  0  1  0  0  0  0  0  0  0  0  0
  146.4802  133.5835  150.9028 C   0  0  0  0  0  0  0  0  0  0  0  0
  145.5290  134.7858  151.0375 C   0  0  0  0  0  0  0  0  0  0  0  0
  144.0820  134.4323  150.6452 C   0  0  1  0  0  0  0  0  0  0  0  0
  143.9947  134.2201  149.2496 O   0  0  0  0  0  0  0  0  0  0  0  0
  143.5786  133.1887  151.4019 C   0  0  0  0  0  0  0  0  0  0  0  0
  144.5395  131.9944  151.2692 C   0  0  0  0  0  0  0  0  0  0  0  0
  147.7346  127.3791  153.3203 N   0  0  0  0  0  0  0  0  0  0  0  0
  145.9646  132.6369  152.7575 H   0  0  0  0  0  0  0  0  0  0  0  0
  143.4331  135.2771  150.8783 H   0  0  0  0  0  0  0  0  0  0  0  0
  148.0547  124.6102  155.1714 H   0  0  0  0  0  0  0  0  0  0  0  0
  146.6280  125.6522  155.2150 H   0  0  0  0  0  0  0  0  0  0  0  0
  148.2039  126.2846  155.7111 H   0  0  0  0  0  0  0  0  0  0  0  0
  148.5808  124.1227  152.8475 H   0  0  0  0  0  0  0  0  0  0  0  0
  148.9808  124.9774  150.5258 H   0  0  0  0  0  0  0  0  0  0  0  0
  148.5682  127.3881  150.0358 H   0  0  0  0  0  0  0  0  0  0  0  0
  148.3993  129.5766  151.0233 H   0  0  0  0  0  0  0  0  0  0  0  0
  147.6407  131.3797  150.8557 H   0  0  0  0  0  0  0  0  0  0  0  0
  147.4752  133.8660  151.2486 H   0  0  0  0  0  0  0  0  0  0  0  0
  146.5849  133.3190  149.8496 H   0  0  0  0  0  0  0  0  0  0  0  0
  145.5413  135.1298  152.0725 H   0  0  0  0  0  0  0  0  0  0  0  0
  145.8914  135.6210  150.4369 H   0  0  0  0  0  0  0  0  0  0  0  0
  144.8201  134.4600  148.8567 H   0  0  0  0  0  0  0  0  0  0  0  0
  143.4703  133.4367  152.4585 H   0  0  0  0  0  0  0  0  0  0  0  0
  142.5837  132.9098  151.0528 H   0  0  0  0  0  0  0  0  0  0  0  0
  144.5433  131.6437  150.2362 H   0  0  0  0  0  0  0  0  0  0  0  0
  144.1704  131.1642  151.8725 H   0  0  0  0  0  0  0  0  0  0  0  0
  1  2  1  0  0  0  0
  1 21  1  0  0  0  0
  1 22  1  0  0  0  0
  1 23  1  0  0  0  0
  2 18  1  0  0  0  0
  2  3  2  0  0  0  0
  3  4  1  0  0  0  0
  3 24  1  0  0  0  0
  4  5  2  0  0  0  0
  4 25  1  0  0  0  0
  5  6  1  0  0  0  0
  5 26  1  0  0  0  0
  6  7  1  0  0  0  0
  6 18  2  0  0  0  0
  7  8  1  0  0  0  0
  7 27  1  0  0  0  0
  8  9  2  0  0  0  0
  8 10  1  0  0  0  0
 10 11  1  0  0  0  0
 10 28  1  0  0  0  0
 11 19  1  0  0  0  0
 11 17  1  0  0  0  0
 11 12  1  0  0  0  0
 12 13  1  0  0  0  0
 12 29  1  0  0  0  0
 12 30  1  0  0  0  0
 13 14  1  0  0  0  0
 13 31  1  0  0  0  0
 13 32  1  0  0  0  0
 14 20  1  0  0  0  0
 14 15  1  0  0  0  0
 14 16  1  0  0  0  0
 15 33  1  0  0  0  0
 16 17  1  0  0  0  0
 16 34  1  0  0  0  0
 16 35  1  0  0  0  0
 17 36  1  0  0  0  0
 17 37  1  0  0  0  0
M  END
> <s_m_source_file>
AV-unprocessed.smi

> <i_m_source_file_index>
2301

> <i_lp_mmshare_version>
43012

> <i_f3d_flags>
0

> <s_epik_input>
W0NIM11jMVtjSF1bY0hdW2NIXWMobjEpW05IXUMoPU8pW05IXVtDQEhdMltDSDJdW0NIMl1bQ0BIXShbT0hdKVtDSDJdW0NIMl0y

> <s_epik_cmdline>
J2VwaWtfcHl0aG9uJywgJy1waCcsICc3LjAnLCAnLXRuJywgJzgnLCAnLW1hJywgJzIwMCcsICctbWV0YWxfYmluZGluZycsICctaW1hZScsICc8aW5maWxlLm1hZT4nLCAnLW9tYWUnLCAnPG91dGZpbGUubWFlPic=

> <r_lp_tautomer_probability>
1

> <r_epik_Ionization_Penalty>
9.15533e-05

> <r_epik_Ionization_Penalty_Charging>
0

> <r_epik_Ionization_Penalty_Neutral>
9.15533e-05

> <r_epik_State_Penalty>
-0

> <r_epik_Charging_Adjusted_Penalty>
0

> <i_epik_Tot_Q>
0

> <i_epik_Tot_abs_Q>
0

> <r_epik_Metal_State_Penalty>
-0

> <b_epik_Metal_Only>
0

> <s_lp_Force_Field>
OPLS_2005

> <r_lp_Energy>
13.5369

> <b_lp_Chiralities_Consistent>
1

> <s_lp_Variant>
AV-unprocessed.smi:2301-2

> <Gold.Version>
5.8.1

> <Gold.Id.Protein>
6NUR|6NUR_protein|mol2

> <Gold.PLP.Fitness>
41.1077

> <Gold.PLP.PLP>
-32.7930

> <Gold.PLP.part.hbond>
-3.5102

> <Gold.PLP.part.metal>
0.0000

> <Gold.PLP.part.buried>
-3.8914

> <Gold.PLP.part.nonpolar>
-25.6868

> <Gold.PLP.part.repulsive>
0.3116

> <Gold.PLP.ligand.clash>
0.0000

> <Gold.PLP.ligand.torsion>
0.2841

> <Gold.PLP.Chemscore.Hbond>
2.9600

> <Gold.PLP.Chemscore.CHOScore>
0.0000

> <Gold.PLP.Chemscore.Metal>
0.0000

> <Gold.Chemscore.Hbonds>
donor molecule, donor type, donor heavy atom, donor atom, acceptor molecule, acceptor atom, score
      L1  H     7    27       P1 10747  1.00
      L1  H    10    28       P1 10747  0.96
      L1  H    15    33       P1  7921  1.00

> <Gold.PLP.Chemscore.Internal.Correction>
0.0030

> <Gold.Rescore>
     Score         DG    S(hbond)    S(metal)    S(lipo)     H(rot)  DE(clash)    DE(int)     intcor
     15.53     -17.26       2.39        0.00      63.89       1.44       0.06       1.67       ----

> <Gold.Chemscore.Fitness>
15.5318

> <Gold.Chemscore.DG>
-17.2596

> <Gold.Chemscore.ZeroCoef>
-5.4800

> <Gold.Chemscore.Hbond>
2.3926

> <Gold.Chemscore.Metal>
0.0000

> <Gold.Chemscore.Lipo>
63.8914

> <Gold.Chemscore.Internal_Hbond>
0.0000

> <Gold.Chemscore.DEClash>
0.0626

> <Gold.Chemscore.DEInternal>
1.6652

> <Gold.Chemscore.Rot>
1.4402

> <Gold.Chemscore.Internal.Correction>
   9.000000E+99

> <Gold.Chemscore.Hbonds>
donor molecule, donor type, donor heavy atom, donor atom, acceptor molecule, acceptor atom, score
      L1  H     7    27       P1 10747  0.23
      L1  H    10    28       P1 10747  0.88
      L1  H    15    33       P1  7921  1.00

> <Gold.Chemscore.Hbond.Weighted>
-7.9912

> <Gold.Chemscore.Metal.Weighted>
-0.0000

> <Gold.Chemscore.Lipo.Weighted>
-7.4753

> <Gold.Chemscore.Internal_Hbond.Weighted>
0.0000

> <Gold.Chemscore.DEClash.Weighted>
0.0626

> <Gold.Chemscore.DEInternal.Weighted>
1.6652

> <Gold.Chemscore.Rot.Weighted>
3.6869

> <Gold.Chemscore.Internal.Correction.Weighted>
   9.000000E+99

> <Gold.Protein.RotatedTorsions>
[ 6907 6896 6895 6894 ] final  -94.60 input  -60.11 | X-H torsion
[ 7974 7965 7964 7962 ] final  163.96 input  175.53 | X-H torsion
[ 8008 7997 7996 7995 ] final -140.30 input   59.86 | X-H torsion
[ 10167 10162 10161 10158 ] final  -24.58 input  -65.29 | X-H torsion
[ 10718 10713 10712 10709 ] final -131.68 input   66.30 | X-H torsion
[ 10763 10752 10751 10750 ] final -110.99 input  -60.55 | X-H torsion
[ 11005 11000 10999 10996 ] final  -74.45 input  -57.11 | X-H torsion

> <Gold.Protein.ActiveResidues>
 VAL166  LYS551  ARG553  GLY616  TRP617  ASP618  TYR619  PRO620  LYS621  CYS622 
 ASP623  PHE694  ASN695  SER759  ASP760  ASP761  ALA762  ILE779  LEU786  VAL792 
 PHE793  MET794  SER795  GLU796  ALA797  LYS798  CYS799  TRP800  GLU811  SER814 

> <Gold.Protein.RotatedAtoms>
  150.6945  134.1787  159.4239 H   0  0  0  0  0  0  0  0  0  0  0  0  # atno 6907 bound_to 6896
  151.9762  135.0049  160.0564 H   0  0  0  0  0  0  0  0  0  0  0  0  # atno 6908 bound_to 6896
  152.1797  133.4663  159.4988 H   0  0  0  0  0  0  0  0  0  0  0  0  # atno 6909 bound_to 6896
  144.7566  139.8258  143.6347 H   0  0  0  0  0  0  0  0  0  0  0  0  # atno 7974 bound_to 7965
  155.4590  140.0544  157.2993 H   0  0  0  0  0  0  0  0  0  0  0  0  # atno 8008 bound_to 7997
  154.4745  140.2055  155.9867 H   0  0  0  0  0  0  0  0  0  0  0  0  # atno 8009 bound_to 7997
  156.1110  140.3204  155.8077 H   0  0  0  0  0  0  0  0  0  0  0  0  # atno 8010 bound_to 7997
  140.7288  143.4340  151.0757 H   0  0  0  0  0  0  0  0  0  0  0  0  # atno 10167 bound_to 10162
  156.2269  130.7013  151.0816 H   0  0  0  0  0  0  0  0  0  0  0  0  # atno 10718 bound_to 10713
  154.8277  135.4543  154.0971 H   0  0  0  0  0  0  0  0  0  0  0  0  # atno 10763 bound_to 10752
  153.2271  135.6901  153.7939 H   0  0  0  0  0  0  0  0  0  0  0  0  # atno 10764 bound_to 10752
  153.7336  135.3323  155.3267 H   0  0  0  0  0  0  0  0  0  0  0  0  # atno 10765 bound_to 10752
  141.1635  133.6912  156.7366 H   0  0  0  0  0  0  0  0  0  0  0  0  # atno 11005 bound_to 11000
  146.1583  139.4688  143.0005 LP  0  0  0  0  0  0  0  0  0  0  0  0  # atno 17320 bound_to 7965
  145.6759  141.0204  143.1632 LP  0  0  0  0  0  0  0  0  0  0  0  0  # atno 17321 bound_to 7965
  139.8000  143.8097  152.3162 LP  0  0  0  0  0  0  0  0  0  0  0  0  # atno 17342 bound_to 10162
  139.8110  144.7336  150.9697 LP  0  0  0  0  0  0  0  0  0  0  0  0  # atno 17343 bound_to 10162
  157.7114  131.0732  150.6485 LP  0  0  0  0  0  0  0  0  0  0  0  0  # atno 17370 bound_to 10713
  156.6551  130.4496  149.5706 LP  0  0  0  0  0  0  0  0  0  0  0  0  # atno 17371 bound_to 10713
  140.2705  134.8395  157.3843 LP  0  0  0  0  0  0  0  0  0  0  0  0  # atno 17394 bound_to 11000
  140.1525  134.4831  155.7951 LP  0  0  0  0  0  0  0  0  0  0  0  0  # atno 17395 bound_to 11000

$$$$
