AV-unprocessed.smi:3239|AV-procd|sdf|12380|dock9
  -GOLD-   2272018243D 1   1.00000     0.00000
 Structure written by MMmdl.
 35 35  0  0  0  0  0  0  0  0  1 V2000
  152.7098  143.9420  161.8127 C   0  0  0  0  0  0  0  0  0  0  0  0
  152.9561  142.9221  161.1881 C   0  0  0  0  0  0  0  0  0  0  0  0
  153.2371  141.6944  160.4250 C   0  0  0  0  0  0  0  0  0  0  0  0
  152.4096  141.5745  159.2300 N   0  0  0  0  0  0  0  0  0  0  0  0
  152.4968  140.5890  158.3203 C   0  0  0  0  0  0  0  0  0  0  0  0
  153.2906  139.6516  158.4069 O   0  0  0  0  0  0  0  0  0  0  0  0
  151.5017  140.6520  157.1977 C   0  0  0  0  0  0  0  0  0  0  0  0
  150.3218  141.4241  157.2904 C   0  0  0  0  0  0  0  0  0  0  0  0
  149.4389  141.4601  156.1938 C   0  0  0  0  0  0  0  0  0  0  0  0
  149.7640  140.7295  155.0324 C   0  0  0  0  0  0  0  0  0  0  0  0
  148.8802  140.7758  153.9437 N   0  0  0  0  0  0  0  0  0  0  0  0
  147.4505  141.0163  154.1140 C   0  0  1  0  0  0  0  0  0  0  0  0
  147.0258  142.3178  153.4110 C   0  0  0  0  0  0  0  0  0  0  0  0
  146.6516  139.8100  153.5957 C   0  0  0  0  0  0  0  0  0  0  0  0
  146.8462  139.6801  152.1970 O   0  0  0  0  0  0  0  0  0  0  0  0
  146.2836  138.4880  151.6780 C   0  0  0  0  0  0  0  0  0  0  0  0
  150.8988  139.9984  154.9324 N   0  0  0  0  0  0  0  0  0  0  0  0
  151.7419  139.9668  155.9864 C   0  0  0  0  0  0  0  0  0  0  0  0
  152.4909  144.8326  162.3579 H   0  0  0  0  0  0  0  0  0  0  0  0
  154.2855  141.7167  160.1275 H   0  0  0  0  0  0  0  0  0  0  0  0
  153.1093  140.8346  161.0846 H   0  0  0  0  0  0  0  0  0  0  0  0
  151.7091  142.2878  159.0900 H   0  0  0  0  0  0  0  0  0  0  0  0
  150.0880  141.9870  158.1824 H   0  0  0  0  0  0  0  0  0  0  0  0
  148.5305  142.0424  156.2464 H   0  0  0  0  0  0  0  0  0  0  0  0
  149.2529  140.7567  153.0056 H   0  0  0  0  0  0  0  0  0  0  0  0
  147.2403  141.1078  155.1802 H   0  0  0  0  0  0  0  0  0  0  0  0
  145.9635  142.5147  153.5571 H   0  0  0  0  0  0  0  0  0  0  0  0
  147.2086  142.2666  152.3373 H   0  0  0  0  0  0  0  0  0  0  0  0
  147.5701  143.1790  153.7989 H   0  0  0  0  0  0  0  0  0  0  0  0
  146.9587  138.8975  154.1099 H   0  0  0  0  0  0  0  0  0  0  0  0
  145.5884  139.9557  153.7953 H   0  0  0  0  0  0  0  0  0  0  0  0
  146.4580  138.4385  150.6031 H   0  0  0  0  0  0  0  0  0  0  0  0
  145.2064  138.4542  151.8459 H   0  0  0  0  0  0  0  0  0  0  0  0
  146.7375  137.6071  152.1335 H   0  0  0  0  0  0  0  0  0  0  0  0
  152.6324  139.3698  155.8534 H   0  0  0  0  0  0  0  0  0  0  0  0
  1  2  3  0  0  0  0
  1 19  1  0  0  0  0
  2  3  1  0  0  0  0
  3  4  1  0  0  0  0
  3 20  1  0  0  0  0
  3 21  1  0  0  0  0
  4  5  1  0  0  0  0
  4 22  1  0  0  0  0
  5  6  2  0  0  0  0
  5  7  1  0  0  0  0
  7 18  1  0  0  0  0
  7  8  2  0  0  0  0
  8  9  1  0  0  0  0
  8 23  1  0  0  0  0
  9 10  2  0  0  0  0
  9 24  1  0  0  0  0
 10 11  1  0  0  0  0
 10 17  1  0  0  0  0
 11 12  1  0  0  0  0
 11 25  1  0  0  0  0
 12 13  1  0  0  0  0
 12 14  1  0  0  0  0
 12 26  1  0  0  0  0
 13 27  1  0  0  0  0
 13 28  1  0  0  0  0
 13 29  1  0  0  0  0
 14 15  1  0  0  0  0
 14 30  1  0  0  0  0
 14 31  1  0  0  0  0
 15 16  1  0  0  0  0
 16 32  1  0  0  0  0
 16 33  1  0  0  0  0
 16 34  1  0  0  0  0
 17 18  2  0  0  0  0
 18 35  1  0  0  0  0
M  END
> <s_m_source_file>
AV-unprocessed.smi

> <i_m_source_file_index>
3239

> <i_lp_mmshare_version>
43012

> <i_f3d_flags>
0

> <s_epik_input>
W0NIXSNDW0NIMl1bTkhdQyg9TyljMVtjSF1bY0hdYyhuW2NIXTEpW05IXVtDQEhdKFtDSDNdKVtDSDJdT1tDSDNd

> <s_epik_cmdline>
J2VwaWtfcHl0aG9uJywgJy1waCcsICc3LjAnLCAnLXRuJywgJzgnLCAnLW1hJywgJzIwMCcsICctbWV0YWxfYmluZGluZycsICctaW1hZScsICc8aW5maWxlLm1hZT4nLCAnLW9tYWUnLCAnPG91dGZpbGUubWFlPic=

> <r_lp_tautomer_probability>
1

> <r_epik_Ionization_Penalty>
0.00321854

> <r_epik_Ionization_Penalty_Charging>
0

> <r_epik_Ionization_Penalty_Neutral>
0.00321854

> <r_epik_State_Penalty>
0.00226446

> <r_epik_Charging_Adjusted_Penalty>
0.00226446

> <i_epik_Tot_Q>
0

> <i_epik_Tot_abs_Q>
0

> <r_epik_Metal_State_Penalty>
-0

> <b_epik_Metal_Only>
0

> <s_lp_Force_Field>
OPLS_2005

> <r_lp_Energy>
6.06936

> <b_lp_Chiralities_Consistent>
1

> <s_lp_Variant>
AV-unprocessed.smi:3239-2

> <Gold.Version>
5.8.1

> <Gold.Id.Protein>
6NUR|6NUR_protein|mol2

> <Gold.PLP.Fitness>
45.8851

> <Gold.PLP.PLP>
-37.5549

> <Gold.PLP.part.hbond>
-3.0000

> <Gold.PLP.part.metal>
0.0000

> <Gold.PLP.part.buried>
-4.8185

> <Gold.PLP.part.nonpolar>
-30.3906

> <Gold.PLP.part.repulsive>
2.5319

> <Gold.PLP.ligand.clash>
0.0000

> <Gold.PLP.ligand.torsion>
0.3807

> <Gold.PLP.Chemscore.Hbond>
3.0000

> <Gold.PLP.Chemscore.CHOScore>
0.0000

> <Gold.PLP.Chemscore.Metal>
0.0000

> <Gold.Chemscore.Hbonds>
donor molecule, donor type, donor heavy atom, donor atom, acceptor molecule, acceptor atom, score
      L1  H    11    25       P1  7957  1.00
      P1  H  7989  7998       L1    17  0.90
      P1  H  7997  8008       L1     6  1.00

> <Gold.PLP.Chemscore.Internal.Correction>
0.0916

> <Gold.Rescore>
     Score         DG    S(hbond)    S(metal)    S(lipo)     H(rot)  DE(clash)    DE(int)     intcor
     16.75     -18.51       2.15        0.00      85.37       1.62       1.56       0.20       ----

> <Gold.Chemscore.Fitness>
16.7532

> <Gold.Chemscore.DG>
-18.5069

> <Gold.Chemscore.ZeroCoef>
-5.4800

> <Gold.Chemscore.Hbond>
2.1508

> <Gold.Chemscore.Metal>
0.0000

> <Gold.Chemscore.Lipo>
85.3667

> <Gold.Chemscore.Internal_Hbond>
0.0000

> <Gold.Chemscore.DEClash>
1.5570

> <Gold.Chemscore.DEInternal>
0.1966

> <Gold.Chemscore.Rot>
1.6190

> <Gold.Chemscore.Internal.Correction>
   9.000000E+99

> <Gold.Chemscore.Hbonds>
donor molecule, donor type, donor heavy atom, donor atom, acceptor molecule, acceptor atom, score
      L1  H    11    25       P1  7957  0.94
      P1  H  7989  7998       L1    17  0.15
      P1  H  7997  8008       L1     6  0.29

> <Gold.Chemscore.Hbond.Weighted>
-7.1836

> <Gold.Chemscore.Metal.Weighted>
-0.0000

> <Gold.Chemscore.Lipo.Weighted>
-9.9879

> <Gold.Chemscore.Internal_Hbond.Weighted>
0.0000

> <Gold.Chemscore.DEClash.Weighted>
1.5570

> <Gold.Chemscore.DEInternal.Weighted>
0.1966

> <Gold.Chemscore.Rot.Weighted>
4.1447

> <Gold.Chemscore.Internal.Correction.Weighted>
   9.000000E+99

> <Gold.Protein.RotatedTorsions>
[ 6907 6896 6895 6894 ] final   94.13 input  -60.11 | X-H torsion
[ 7974 7965 7964 7962 ] final  126.20 input  175.53 | X-H torsion
[ 8008 7997 7996 7995 ] final  -77.85 input   59.86 | X-H torsion
[ 10167 10162 10161 10158 ] final -118.15 input  -65.29 | X-H torsion
[ 10718 10713 10712 10709 ] final   -6.40 input   66.30 | X-H torsion
[ 10763 10752 10751 10750 ] final  -73.19 input  -60.55 | X-H torsion
[ 11005 11000 10999 10996 ] final  -32.79 input  -57.11 | X-H torsion

> <Gold.Protein.ActiveResidues>
 VAL166  LYS551  ARG553  GLY616  TRP617  ASP618  TYR619  PRO620  LYS621  CYS622 
 ASP623  PHE694  ASN695  SER759  ASP760  ASP761  ALA762  ILE779  LEU786  VAL792 
 PHE793  MET794  SER795  GLU796  ALA797  LYS798  CYS799  TRP800  GLU811  SER814 

> <Gold.Protein.RotatedAtoms>
  152.5450  134.1241  159.8411 H   0  0  0  0  0  0  0  0  0  0  0  0  # atno 6907 bound_to 6896
  151.1294  133.5040  159.2607 H   0  0  0  0  0  0  0  0  0  0  0  0  # atno 6908 bound_to 6896
  151.1692  135.0320  159.8799 H   0  0  0  0  0  0  0  0  0  0  0  0  # atno 6909 bound_to 6896
  145.0644  139.3779  143.4989 H   0  0  0  0  0  0  0  0  0  0  0  0  # atno 7974 bound_to 7965
  154.5635  140.0703  156.8855 H   0  0  0  0  0  0  0  0  0  0  0  0  # atno 8008 bound_to 7997
  155.2767  140.3369  155.4243 H   0  0  0  0  0  0  0  0  0  0  0  0  # atno 8009 bound_to 7997
  156.2061  140.1741  156.7781 H   0  0  0  0  0  0  0  0  0  0  0  0  # atno 8010 bound_to 7997
  140.0606  143.4971  152.2033 H   0  0  0  0  0  0  0  0  0  0  0  0  # atno 10167 bound_to 10162
  156.7324  130.5184  149.5842 H   0  0  0  0  0  0  0  0  0  0  0  0  # atno 10718 bound_to 10713
  154.4561  135.5905  153.6224 H   0  0  0  0  0  0  0  0  0  0  0  0  # atno 10763 bound_to 10752
  152.9818  135.6032  154.3544 H   0  0  0  0  0  0  0  0  0  0  0  0  # atno 10764 bound_to 10752
  154.3411  135.2841  155.2401 H   0  0  0  0  0  0  0  0  0  0  0  0  # atno 10765 bound_to 10752
  140.9582  133.7180  156.1326 H   0  0  0  0  0  0  0  0  0  0  0  0  # atno 11005 bound_to 11000
  146.3526  140.0358  142.8647 LP  0  0  0  0  0  0  0  0  0  0  0  0  # atno 17320 bound_to 7965
  145.1369  140.9549  143.4511 LP  0  0  0  0  0  0  0  0  0  0  0  0  # atno 17321 bound_to 7965
  139.5896  144.7545  151.3434 LP  0  0  0  0  0  0  0  0  0  0  0  0  # atno 17342 bound_to 10162
  140.7173  143.7231  150.7681 LP  0  0  0  0  0  0  0  0  0  0  0  0  # atno 17343 bound_to 10162
  156.1519  130.6316  151.0607 LP  0  0  0  0  0  0  0  0  0  0  0  0  # atno 17370 bound_to 10713
  157.6853  131.0826  150.7260 LP  0  0  0  0  0  0  0  0  0  0  0  0  # atno 17371 bound_to 10713
  140.7506  134.4049  157.5542 LP  0  0  0  0  0  0  0  0  0  0  0  0  # atno 17394 bound_to 11000
  139.8869  134.8897  156.2558 LP  0  0  0  0  0  0  0  0  0  0  0  0  # atno 17395 bound_to 11000

$$$$
