#       Name:                AV-unprocessed.smi:2644
#       Creating user name   scv26
#       Creation time:       Fri Mar 27 14:28:55 2020


#       File generated by GOLD software.
#

@<TRIPOS>MOLECULE
AV-unprocessed.smi:2644
    49    51     1
SMALL
NO_CHARGES


@<TRIPOS>ATOM
      1 ****        -3.1553  -1.8303   1.2292 C.3            1 S1                 0.0000
      2 ****        -3.1499  -1.2495  -0.0668 O.3            1 S1                 0.0000
      3 ****        -2.5557  -0.0154  -0.2201 C.ar           1 S1                 0.0000
      4 ****        -2.4757   0.5007  -1.5293 C.ar           1 S1                 0.0000
      5 ****        -1.8648   1.7442  -1.7763 C.ar           1 S1                 0.0000
      6 ****        -1.3234   2.4870  -0.7115 C.ar           1 S1                 0.0000
      7 ****        -1.3998   1.9915   0.6074 C.ar           1 S1                 0.0000
      8 ****        -0.7617   2.7543   1.7628 C.3            1 S1                 0.0000
      9 ****        -0.9949   4.1462   1.6871 O.3            1 S1                 0.0000
     10 ****         0.7639   2.5151   1.8599 C.3            1 S1                 0.0000
     11 ****         1.1066   1.0871   1.9105 N.am           1 S1                 0.0000
     12 ****         1.4110   0.5342   0.6788 N.2            1 S1                 0.0000
     13 ****         1.6363  -0.7320   0.5496 C.2            1 S1                 0.0000
     14 ****         1.8801  -1.2110  -0.7990 C.2            1 S1                 0.0000
     15 ****         2.1711  -2.5291  -1.0484 C.2            1 S1                 0.0000
     16 ****         2.3575  -2.7751  -2.4418 C.2            1 S1                 0.0000
     17 ****         2.2025  -1.6547  -3.2216 C.2            1 S1                 0.0000
     18 ****         2.3246  -1.5524  -4.7041 C.3            1 S1                 0.0000
     19 ****         1.8179  -0.2519  -2.2552 S.3            1 S1                 0.0000
     20 ****         1.6216  -1.5832   1.7306 C.2            1 S1                 0.0000
     21 ****         1.3376  -1.0354   2.9320 C.2            1 S1                 0.0000
     22 ****         1.0404   0.3877   3.0803 C.2            1 S1                 0.0000
     23 ****         0.7403   0.9065   4.1552 O.2            1 S1                 0.0000
     24 ****        -2.0209   0.7468   0.8484 C.ar           1 S1                 0.0000
     25 ****        -3.6210  -2.8145   1.1809 H              1 S1                 0.0000
     26 ****        -3.7306  -1.2279   1.9335 H              1 S1                 0.0000
     27 ****        -2.1416  -1.9640   1.6103 H              1 S1                 0.0000
     28 ****        -2.8797  -0.0670  -2.3546 H              1 S1                 0.0000
     29 ****        -1.8024   2.1233  -2.7856 H              1 S1                 0.0000
     30 ****        -0.8375   3.4304  -0.9128 H              1 S1                 0.0000
     31 ****        -1.2281   2.4176   2.6894 H              1 S1                 0.0000
     32 ****        -1.9269   4.2955   1.7343 H              1 S1                 0.0000
     33 ****         1.2569   2.9699   0.9983 H              1 S1                 0.0000
     34 ****         1.1727   3.0332   2.7295 H              1 S1                 0.0000
     35 ****         2.2620  -3.3223  -0.3222 H              1 S1                 0.0000
     36 ****         2.5961  -3.7579  -2.8212 H              1 S1                 0.0000
     37 ****         2.6606  -2.4950  -5.1369 H              1 S1                 0.0000
     38 ****         3.0429  -0.7807  -4.9811 H              1 S1                 0.0000
     39 ****         1.3646  -1.2983  -5.1539 H              1 S1                 0.0000
     40 ****         1.8312  -2.6389   1.6620 H              1 S1                 0.0000
     41 ****         1.3253  -1.6661   3.8088 H              1 S1                 0.0000
     42 ****        -2.0524   0.3818   1.8637 H              1 S1                 0.0000
     43 ****        -4.1029  -1.1587  -0.3560 LP             1 S1                 0.0000
     44 ****        -2.6759  -1.8855  -0.6758 LP             1 S1                 0.0000
     45 ****        -0.6393   4.5017   0.8227 LP             1 S1                 0.0000
     46 ****        -0.5401   4.6068   2.4493 LP             1 S1                 0.0000
     47 ****         1.4575   1.1254  -0.1264 LP             1 S1                 0.0000
     48 ****         0.5313   1.8835   4.1978 LP             1 S1                 0.0000
     49 ****         0.7053   0.3510   4.9860 LP             1 S1                 0.0000
@<TRIPOS>BOND
    1    1    2 1     
    2    1   25 1     
    3    1   26 1     
    4    1   27 1     
    5    2    3 1     
    6    3   24 ar    
    7    3    4 ar    
    8    4    5 ar    
    9    4   28 1     
   10    5    6 ar    
   11    5   29 1     
   12    6    7 ar    
   13    6   30 1     
   14    7    8 1     
   15    7   24 ar    
   16    8    9 1     
   17    8   10 1     
   18    8   31 1     
   19    9   32 1     
   20   10   11 1     
   21   10   33 1     
   22   10   34 1     
   23   11   22 am    
   24   11   12 1     
   25   12   13 2     
   26   13   14 1     
   27   13   20 1     
   28   14   19 1     
   29   14   15 2     
   30   15   16 1     
   31   15   35 1     
   32   16   17 2     
   33   16   36 1     
   34   17   18 1     
   35   17   19 1     
   36   18   37 1     
   37   18   38 1     
   38   18   39 1     
   39   20   21 2     
   40   20   40 1     
   41   21   22 1     
   42   21   41 1     
   43   22   23 2     
   44   24   42 1     
   45    2   43 1     
   46    2   44 1     
   47    9   45 1     
   48    9   46 1     
   49   12   47 1     
   50   23   48 1     
   51   23   49 1     
@<TRIPOS>SUBSTRUCTURE
      1 S1             1
@<TRIPOS>SET
LONE_PAIRS      STATIC     ATOMS    <user>   **** ""
7 43 44 45 46 47 48 49
DONOR_HYDROGENS      STATIC     ATOMS    <user>   **** ""
1 32
ATOM$BLUE        STATIC     ATOMS    COLORGROUP SYSTEM
7 43 44 45 46 47 48 49
ATOM$RED        STATIC     ATOMS    COLORGROUP SYSTEM
1 32
