AV-unprocessed.smi:3050|AV-procd|sdf|11632|dock1
  -GOLD-   2272017 23D 1   1.00000     0.00000
 Structure written by MMmdl.
 45 46  0  0  0  0  0  0  0  0  1 V2000
  152.6906  138.6343  158.6064 C   0  0  0  0  0  0  0  0  0  0  0  0
  152.3040  139.9826  159.2269 C   0  0  0  0  0  0  0  0  0  0  0  0
  153.4866  140.9667  159.2947 C   0  0  1  0  0  0  0  0  0  0  0  0
  153.1869  141.9455  160.2889 O   0  0  0  0  0  0  0  0  0  0  0  0
  152.0679  142.7902  160.0320 C   0  0  0  0  0  0  0  0  0  0  0  0
  152.2777  143.5583  158.7290 C   0  0  0  0  0  0  0  0  0  0  0  0
  151.3301  144.7554  158.8370 C   0  0  0  0  0  0  0  0  0  0  0  0
  151.1827  145.0434  160.3392 C   0  0  0  0  0  0  0  0  0  0  0  0
  151.9024  143.9033  161.0722 C   0  0  0  0  0  0  0  0  0  0  0  0
  154.7948  140.2409  159.6457 C   0  0  0  0  0  0  0  0  0  0  0  0
  155.7262  140.2106  158.8411 O   0  0  0  0  0  0  0  0  0  0  0  0
  154.8481  139.6637  160.8554 N   0  0  0  0  0  0  0  0  0  0  0  0
  156.0152  138.9859  161.4108 C   0  0  0  0  0  0  0  0  0  0  0  0
  155.8378  138.6366  162.9011 C   0  0  0  0  0  0  0  0  0  0  0  0
  156.1366  137.1901  163.1965 C   0  0  0  0  0  0  0  0  0  0  0  0
  156.4783  136.1605  162.2740 C   0  0  0  0  0  0  0  0  0  0  0  0
  156.6621  134.9874  162.8576 N   0  0  0  0  0  0  0  0  0  0  0  0
  156.4476  135.2265  164.1677 N   0  0  0  0  0  0  0  0  0  0  0  0
  156.5642  134.1422  165.1191 C   0  0  0  0  0  0  0  0  0  0  0  0
  156.1317  136.5471  164.4024 C   0  0  0  0  0  0  0  0  0  0  0  0
  151.8342  137.9605  158.5796 H   0  0  0  0  0  0  0  0  0  0  0  0
  153.4788  138.1479  159.1813 H   0  0  0  0  0  0  0  0  0  0  0  0
  153.0483  138.7572  157.5839 H   0  0  0  0  0  0  0  0  0  0  0  0
  151.4851  140.4211  158.6546 H   0  0  0  0  0  0  0  0  0  0  0  0
  151.9154  139.8037  160.2307 H   0  0  0  0  0  0  0  0  0  0  0  0
  153.5898  141.4409  158.3173 H   0  0  0  0  0  0  0  0  0  0  0  0
  151.1422  142.2195  159.9477 H   0  0  0  0  0  0  0  0  0  0  0  0
  153.3077  143.9135  158.6717 H   0  0  0  0  0  0  0  0  0  0  0  0
  152.0875  142.9480  157.8456 H   0  0  0  0  0  0  0  0  0  0  0  0
  151.7013  145.6188  158.2840 H   0  0  0  0  0  0  0  0  0  0  0  0
  150.3575  144.4930  158.4187 H   0  0  0  0  0  0  0  0  0  0  0  0
  151.6153  146.0084  160.6059 H   0  0  0  0  0  0  0  0  0  0  0  0
  150.1274  145.0735  160.6130 H   0  0  0  0  0  0  0  0  0  0  0  0
  151.3594  143.5718  161.9579 H   0  0  0  0  0  0  0  0  0  0  0  0
  152.8851  144.2478  161.3979 H   0  0  0  0  0  0  0  0  0  0  0  0
  154.0345  139.7321  161.4495 H   0  0  0  0  0  0  0  0  0  0  0  0
  156.1623  138.0697  160.8385 H   0  0  0  0  0  0  0  0  0  0  0  0
  156.9125  139.5888  161.2627 H   0  0  0  0  0  0  0  0  0  0  0  0
  156.4777  139.2890  163.4956 H   0  0  0  0  0  0  0  0  0  0  0  0
  154.8183  138.8803  163.2024 H   0  0  0  0  0  0  0  0  0  0  0  0
  156.5909  136.2305  161.2021 H   0  0  0  0  0  0  0  0  0  0  0  0
  156.3093  134.4931  166.1195 H   0  0  0  0  0  0  0  0  0  0  0  0
  157.5876  133.7657  165.1252 H   0  0  0  0  0  0  0  0  0  0  0  0
  155.8857  133.3340  164.8439 H   0  0  0  0  0  0  0  0  0  0  0  0
  155.9247  136.9170  165.3961 H   0  0  0  0  0  0  0  0  0  0  0  0
  1  2  1  0  0  0  0
  1 21  1  0  0  0  0
  1 22  1  0  0  0  0
  1 23  1  0  0  0  0
  2  3  1  0  0  0  0
  2 24  1  0  0  0  0
  2 25  1  0  0  0  0
  3  4  1  0  0  0  0
  3 10  1  0  0  0  0
  3 26  1  0  0  0  0
  4  5  1  0  0  0  0
  5  9  1  0  0  0  0
  5  6  1  0  0  0  0
  5 27  1  0  0  0  0
  6  7  1  0  0  0  0
  6 28  1  0  0  0  0
  6 29  1  0  0  0  0
  7  8  1  0  0  0  0
  7 30  1  0  0  0  0
  7 31  1  0  0  0  0
  8  9  1  0  0  0  0
  8 32  1  0  0  0  0
  8 33  1  0  0  0  0
  9 34  1  0  0  0  0
  9 35  1  0  0  0  0
 10 11  2  0  0  0  0
 10 12  1  0  0  0  0
 12 13  1  0  0  0  0
 12 36  1  0  0  0  0
 13 14  1  0  0  0  0
 13 37  1  0  0  0  0
 13 38  1  0  0  0  0
 14 15  1  0  0  0  0
 14 39  1  0  0  0  0
 14 40  1  0  0  0  0
 15 20  2  0  0  0  0
 15 16  1  0  0  0  0
 16 17  2  0  0  0  0
 16 41  1  0  0  0  0
 17 18  1  0  0  0  0
 18 19  1  0  0  0  0
 18 20  1  0  0  0  0
 19 42  1  0  0  0  0
 19 43  1  0  0  0  0
 19 44  1  0  0  0  0
 20 45  1  0  0  0  0
M  END
> <s_m_source_file>
AV-unprocessed.smi

> <i_m_source_file_index>
3050

> <i_lp_mmshare_version>
43012

> <i_f3d_flags>
0

> <s_epik_input>
W0NIMl0xW0NIMl1bQ0gyXVtDSDJdW0NIXTFPW0NAQEhdKFtDSDJdW0NIM10pQyg9TylbTkhdW0NIMl1bQ0gyXWMyW2NIXW5uKFtDSDNdKVtjSF0y

> <s_epik_cmdline>
J2VwaWtfcHl0aG9uJywgJy1waCcsICc3LjAnLCAnLXRuJywgJzgnLCAnLW1hJywgJzIwMCcsICctbWV0YWxfYmluZGluZycsICctaW1hZScsICc8aW5maWxlLm1hZT4nLCAnLW9tYWUnLCAnPG91dGZpbGUubWFlPic=

> <r_lp_tautomer_probability>
1

> <r_epik_Ionization_Penalty>
0.000440265

> <r_epik_Ionization_Penalty_Charging>
0

> <r_epik_Ionization_Penalty_Neutral>
0.000440265

> <r_epik_State_Penalty>
-0

> <r_epik_Charging_Adjusted_Penalty>
0

> <i_epik_Tot_Q>
0

> <i_epik_Tot_abs_Q>
0

> <r_epik_Metal_State_Penalty>
-0

> <b_epik_Metal_Only>
0

> <s_lp_Force_Field>
OPLS_2005

> <r_lp_Energy>
20.8184

> <b_lp_Chiralities_Consistent>
1

> <s_lp_Variant>
AV-unprocessed.smi:3050-2

> <Gold.Version>
5.8.1

> <Gold.Id.Protein>
6NUR|6NUR_protein|mol2

> <Gold.PLP.Fitness>
49.6343

> <Gold.PLP.PLP>
-47.5586

> <Gold.PLP.part.hbond>
-1.0000

> <Gold.PLP.part.metal>
0.0000

> <Gold.PLP.part.buried>
-5.8185

> <Gold.PLP.part.nonpolar>
-41.1912

> <Gold.PLP.part.repulsive>
0.0151

> <Gold.PLP.ligand.clash>
0.0000

> <Gold.PLP.ligand.torsion>
0.6833

> <Gold.PLP.Chemscore.Hbond>
1.0000

> <Gold.PLP.Chemscore.CHOScore>
0.0000

> <Gold.PLP.Chemscore.Metal>
0.0000

> <Gold.Chemscore.Hbonds>
donor molecule, donor type, donor heavy atom, donor atom, acceptor molecule, acceptor atom, score
      P1  H  7997  8008       L1    11  0.86

> <Gold.PLP.Chemscore.Internal.Correction>
0.4422

> <Gold.Rescore>
     Score         DG    S(hbond)    S(metal)    S(lipo)     H(rot)  DE(clash)    DE(int)     intcor
     15.08     -15.76       0.00        0.00     127.83       1.83       0.19       0.49       ----

> <Gold.Chemscore.Fitness>
15.0819

> <Gold.Chemscore.DG>
-15.7551

> <Gold.Chemscore.ZeroCoef>
-5.4800

> <Gold.Chemscore.Hbond>
0.0000

> <Gold.Chemscore.Metal>
0.0000

> <Gold.Chemscore.Lipo>
127.8307

> <Gold.Chemscore.Internal_Hbond>
0.0000

> <Gold.Chemscore.DEClash>
0.1866

> <Gold.Chemscore.DEInternal>
0.4865

> <Gold.Chemscore.Rot>
1.8286

> <Gold.Chemscore.Internal.Correction>
   9.000000E+99

> <Gold.Chemscore.Hbonds>
donor molecule, donor type, donor heavy atom, donor atom, acceptor molecule, acceptor atom, score
      P1  H  7997  8008       L1    11  0.79

> <Gold.Chemscore.Hbond.Weighted>
-0.0000

> <Gold.Chemscore.Metal.Weighted>
-0.0000

> <Gold.Chemscore.Lipo.Weighted>
-14.9562

> <Gold.Chemscore.Internal_Hbond.Weighted>
0.0000

> <Gold.Chemscore.DEClash.Weighted>
0.1866

> <Gold.Chemscore.DEInternal.Weighted>
0.4865

> <Gold.Chemscore.Rot.Weighted>
4.6811

> <Gold.Chemscore.Internal.Correction.Weighted>
   9.000000E+99

> <Gold.Protein.RotatedTorsions>
[ 6907 6896 6895 6894 ] final  178.53 input  -60.11 | X-H torsion
[ 7974 7965 7964 7962 ] final  161.98 input  175.53 | X-H torsion
[ 8008 7997 7996 7995 ] final -152.17 input   59.86 | X-H torsion
[ 10167 10162 10161 10158 ] final -114.94 input  -65.29 | X-H torsion
[ 10718 10713 10712 10709 ] final  -19.78 input   66.30 | X-H torsion
[ 10763 10752 10751 10750 ] final   96.83 input  -60.55 | X-H torsion
[ 11005 11000 10999 10996 ] final  104.99 input  -57.11 | X-H torsion

> <Gold.Protein.ActiveResidues>
 VAL166  LYS551  ARG553  GLY616  TRP617  ASP618  TYR619  PRO620  LYS621  CYS622 
 ASP623  PHE694  ASN695  SER759  ASP760  ASP761  ALA762  ILE779  LEU786  VAL792 
 PHE793  MET794  SER795  GLU796  ALA797  LYS798  CYS799  TRP800  GLU811  SER814 

> <Gold.Protein.RotatedAtoms>
  151.6863  133.3311  159.3231 H   0  0  0  0  0  0  0  0  0  0  0  0  # atno 6907 bound_to 6896
  150.7799  134.6737  159.6415 H   0  0  0  0  0  0  0  0  0  0  0  0  # atno 6908 bound_to 6896
  152.3854  134.6529  160.0180 H   0  0  0  0  0  0  0  0  0  0  0  0  # atno 6909 bound_to 6896
  144.7659  139.7975  143.6315 H   0  0  0  0  0  0  0  0  0  0  0  0  # atno 7974 bound_to 7965
  155.6510  140.0712  157.2587 H   0  0  0  0  0  0  0  0  0  0  0  0  # atno 8008 bound_to 7997
  154.4162  140.1733  156.1724 H   0  0  0  0  0  0  0  0  0  0  0  0  # atno 8009 bound_to 7997
  155.9777  140.3356  155.6637 H   0  0  0  0  0  0  0  0  0  0  0  0  # atno 8010 bound_to 7997
  140.0955  143.4660  152.1844 H   0  0  0  0  0  0  0  0  0  0  0  0  # atno 10167 bound_to 10162
  156.5409  130.4678  149.6499 H   0  0  0  0  0  0  0  0  0  0  0  0  # atno 10718 bound_to 10713
  153.2696  135.4204  155.0975 H   0  0  0  0  0  0  0  0  0  0  0  0  # atno 10763 bound_to 10752
  154.8451  135.3469  154.6262 H   0  0  0  0  0  0  0  0  0  0  0  0  # atno 10764 bound_to 10752
  153.6682  135.7045  153.5213 H   0  0  0  0  0  0  0  0  0  0  0  0  # atno 10765 bound_to 10752
  139.8797  134.9320  156.5446 H   0  0  0  0  0  0  0  0  0  0  0  0  # atno 11005 bound_to 11000
  146.1765  139.4938  142.9894 LP  0  0  0  0  0  0  0  0  0  0  0  0  # atno 17320 bound_to 7965
  145.6472  141.0271  143.1779 LP  0  0  0  0  0  0  0  0  0  0  0  0  # atno 17321 bound_to 7965
  139.5700  144.7457  151.3916 LP  0  0  0  0  0  0  0  0  0  0  0  0  # atno 17342 bound_to 10162
  140.7006  143.7642  150.7396 LP  0  0  0  0  0  0  0  0  0  0  0  0  # atno 17343 bound_to 10162
  156.2972  130.7157  151.2020 LP  0  0  0  0  0  0  0  0  0  0  0  0  # atno 17370 bound_to 10713
  157.7405  131.0516  150.5159 LP  0  0  0  0  0  0  0  0  0  0  0  0  # atno 17371 bound_to 10713
  140.8285  133.8298  155.8961 LP  0  0  0  0  0  0  0  0  0  0  0  0  # atno 17394 bound_to 11000
  140.9351  134.1972  157.4837 LP  0  0  0  0  0  0  0  0  0  0  0  0  # atno 17395 bound_to 11000

$$$$
