#       Name:                AV-unprocessed.smi:1056
#       Creating user name   scv26
#       Creation time:       Fri Mar 27 03:14:21 2020


#       File generated by GOLD software.
#

@<TRIPOS>MOLECULE
AV-unprocessed.smi:1056
    50    52     1
SMALL
NO_CHARGES


@<TRIPOS>ATOM
      1 ****        -2.7856   4.7930   2.3633 C.3            1 S1                 0.0000
      2 ****        -2.5738   3.5393   1.5331 C.ar           1 S1                 0.0000
      3 ****        -3.1264   3.4744   0.2341 C.ar           1 S1                 0.0000
      4 ****        -2.9522   2.3273  -0.5708 C.ar           1 S1                 0.0000
      5 ****        -3.3996   2.0510  -1.8515 N.2            1 S1                 0.0000
      6 ****        -2.9142   0.8280  -2.0466 C.2            1 S1                 0.0000
      7 ****        -2.2038   0.2794  -1.0423 N.pl3          1 S1                 0.0000
      8 ****        -1.5798  -1.0318  -1.0215 C.3            1 S1                 0.0000
      9 ****        -0.0556  -0.9653  -1.2482 C.3            1 S1                 0.0000
     10 ****         0.1794  -0.3818  -2.5166 O.3            1 S1                 0.0000
     11 ****         0.6014  -2.3638  -1.2008 C.3            1 S1                 0.0000
     12 ****         1.9544  -2.4080  -0.6355 N.3            1 S1                 0.0000
     13 ****         2.9469  -1.6935  -1.4394 C.3            1 S1                 0.0000
     14 ****         4.3209  -1.6560  -0.7520 C.3            1 S1                 0.0000
     15 ****         4.7106  -2.9624  -0.2322 N.am           1 S1                 0.0000
     16 ****         3.8583  -3.9730   0.0036 C.2            1 S1                 0.0000
     17 ****         4.2356  -5.0355   0.4921 O.2            1 S1                 0.0000
     18 ****         2.3774  -3.7946  -0.3825 C.3            1 S1                 0.0000
     19 ****        -2.2025   1.2390  -0.0365 C.ar           1 S1                 0.0000
     20 ****        -1.6466   1.2916   1.2539 C.ar           1 S1                 0.0000
     21 ****        -1.8309   2.4449   2.0450 C.ar           1 S1                 0.0000
     22 ****        -1.2265   2.4925   3.4370 C.3            1 S1                 0.0000
     23 ****        -3.4184   5.5128   1.8431 H              1 S1                 0.0000
     24 ****        -1.8309   5.2760   2.5733 H              1 S1                 0.0000
     25 ****        -3.2669   4.5498   3.3107 H              1 S1                 0.0000
     26 ****        -3.6908   4.3081  -0.1568 H              1 S1                 0.0000
     27 ****        -3.0818   0.3009  -2.9745 H              1 S1                 0.0000
     28 ****        -1.7988  -1.4913  -0.0569 H              1 S1                 0.0000
     29 ****        -2.0527  -1.6580  -1.7798 H              1 S1                 0.0000
     30 ****         0.3831  -0.3258  -0.4807 H              1 S1                 0.0000
     31 ****         1.1124  -0.2961  -2.6385 H              1 S1                 0.0000
     32 ****        -0.0312  -2.9969  -0.5763 H              1 S1                 0.0000
     33 ****         0.5805  -2.8312  -2.1874 H              1 S1                 0.0000
     34 ****         3.0374  -2.1663  -2.4191 H              1 S1                 0.0000
     35 ****         2.6344  -0.6655  -1.6180 H              1 S1                 0.0000
     36 ****         5.0839  -1.2993  -1.4443 H              1 S1                 0.0000
     37 ****         4.2983  -0.9554   0.0836 H              1 S1                 0.0000
     38 ****         5.6835  -3.0947   0.0034 H              1 S1                 0.0000
     39 ****         1.7584  -4.2306   0.4030 H              1 S1                 0.0000
     40 ****         2.2140  -4.3988  -1.2766 H              1 S1                 0.0000
     41 ****        -1.0824   0.4511   1.6301 H              1 S1                 0.0000
     42 ****        -0.6709   1.5814   3.6609 H              1 S1                 0.0000
     43 ****        -2.0083   2.6007   4.1892 H              1 S1                 0.0000
     44 ****        -0.5388   3.3337   3.5268 H              1 S1                 0.0000
     45 ****        -3.9440   2.6205  -2.4674 LP             1 S1                 0.0000
     46 ****        -0.2506   0.5201  -2.5580 LP             1 S1                 0.0000
     47 ****        -0.2022  -0.9661  -3.2328 LP             1 S1                 0.0000
     48 ****         1.9048  -1.9228   0.2375 LP             1 S1                 0.0000
     49 ****         5.1995  -5.1644   0.7248 LP             1 S1                 0.0000
     50 ****         3.5787  -5.7712   0.6569 LP             1 S1                 0.0000
@<TRIPOS>BOND
    1    1    2 1     
    2    1   23 1     
    3    1   24 1     
    4    1   25 1     
    5    2   21 ar    
    6    2    3 ar    
    7    3    4 ar    
    8    3   26 1     
    9    4   19 ar    
   10    4    5 1     
   11    5    6 2     
   12    6    7 1     
   13    6   27 1     
   14    7    8 1     
   15    7   19 1     
   16    8    9 1     
   17    8   28 1     
   18    8   29 1     
   19    9   10 1     
   20    9   11 1     
   21    9   30 1     
   22   10   31 1     
   23   11   12 1     
   24   11   32 1     
   25   11   33 1     
   26   12   18 1     
   27   12   13 1     
   28   13   14 1     
   29   13   34 1     
   30   13   35 1     
   31   14   15 1     
   32   14   36 1     
   33   14   37 1     
   34   15   16 am    
   35   15   38 1     
   36   16   17 2     
   37   16   18 1     
   38   18   39 1     
   39   18   40 1     
   40   19   20 ar    
   41   20   21 ar    
   42   20   41 1     
   43   21   22 1     
   44   22   42 1     
   45   22   43 1     
   46   22   44 1     
   47    5   45 1     
   48   10   46 1     
   49   10   47 1     
   50   12   48 1     
   51   17   49 1     
   52   17   50 1     
@<TRIPOS>SUBSTRUCTURE
      1 S1             1
@<TRIPOS>SET
LONE_PAIRS      STATIC     ATOMS    <user>   **** ""
6 45 46 47 48 49 50
DONOR_HYDROGENS      STATIC     ATOMS    <user>   **** ""
2 31 38
ATOM$BLUE        STATIC     ATOMS    COLORGROUP SYSTEM
6 45 46 47 48 49 50
ATOM$RED        STATIC     ATOMS    COLORGROUP SYSTEM
2 31 38
