AV-unprocessed.smi:1473|AV-procd|sdf|5970|dock5
  -GOLD-   22720 6 63D 1   1.00000     0.00000
 Structure written by MMmdl.
 33 34  0  0  0  0  0  0  0  0  2 V2000
  148.7698  135.5521  154.7018 N   0  5  0  0  0  0  0  0  0  0  0  0
  150.0927  136.1645  155.3906 S   0  0  0  0  0  0  0  0  0  0  0  0
  149.8102  137.1120  156.4801 O   0  0  0  0  0  0  0  0  0  0  0  0
  151.1653  135.1776  155.5881 O   0  0  0  0  0  0  0  0  0  0  0  0
  150.5784  137.1202  154.0463 N   0  0  0  0  0  0  0  0  0  0  0  0
  151.5284  138.2164  154.2043 C   0  0  0  0  0  0  0  0  0  0  0  0
  150.8977  139.4228  154.8669 C   0  0  0  0  0  0  0  0  0  0  0  0
  149.6176  139.8672  154.4800 C   0  0  0  0  0  0  0  0  0  0  0  0
  149.0825  141.0036  155.1168 C   0  0  0  0  0  0  0  0  0  0  0  0
  149.7356  141.6908  156.0782 N   0  0  0  0  0  0  0  0  0  0  0  0
  150.9693  141.2663  156.4446 C   0  0  0  0  0  0  0  0  0  0  0  0
  151.6552  141.9841  157.4347 N   0  0  0  0  0  0  0  0  0  0  0  0
  151.0225  143.2518  157.7776 C   0  0  0  0  0  0  0  0  0  0  0  0
  151.9026  144.0263  158.7736 C   0  0  0  0  0  0  0  0  0  0  0  0
  152.1498  143.2174  159.9204 O   0  0  0  0  0  0  0  0  0  0  0  0
  152.8345  142.0128  159.5874 C   0  0  0  0  0  0  0  0  0  0  0  0
  151.9801  141.1861  158.6103 C   0  0  0  0  0  0  0  0  0  0  0  0
  151.5877  140.1375  155.8670 C   0  0  0  0  0  0  0  0  0  0  0  0
  148.9474  135.4566  153.6946 H   0  0  0  0  0  0  0  0  0  0  0  0
  149.9030  137.1973  153.2865 H   0  0  0  0  0  0  0  0  0  0  0  0
  152.3703  137.8776  154.8092 H   0  0  0  0  0  0  0  0  0  0  0  0
  151.9287  138.4861  153.2265 H   0  0  0  0  0  0  0  0  0  0  0  0
  149.0595  139.3525  153.7115 H   0  0  0  0  0  0  0  0  0  0  0  0
  148.1045  141.3724  154.8452 H   0  0  0  0  0  0  0  0  0  0  0  0
  150.8678  143.8434  156.8744 H   0  0  0  0  0  0  0  0  0  0  0  0
  150.0408  143.0692  158.2173 H   0  0  0  0  0  0  0  0  0  0  0  0
  152.8469  144.3202  158.3124 H   0  0  0  0  0  0  0  0  0  0  0  0
  151.4009  144.9424  159.0851 H   0  0  0  0  0  0  0  0  0  0  0  0
  153.8082  142.2447  159.1529 H   0  0  0  0  0  0  0  0  0  0  0  0
  153.0193  141.4448  160.4992 H   0  0  0  0  0  0  0  0  0  0  0  0
  151.0618  140.8641  159.1035 H   0  0  0  0  0  0  0  0  0  0  0  0
  152.5188  140.2867  158.3095 H   0  0  0  0  0  0  0  0  0  0  0  0
  152.5749  139.8292  156.1803 H   0  0  0  0  0  0  0  0  0  0  0  0
  1  2  1  0  0  0  0
  1 19  1  0  0  0  0
  2  3  2  0  0  0  0
  2  4  2  0  0  0  0
  2  5  1  0  0  0  0
  5  6  1  0  0  0  0
  5 20  1  0  0  0  0
  6  7  1  0  0  0  0
  6 21  1  0  0  0  0
  6 22  1  0  0  0  0
  7 18  1  0  0  0  0
  7  8  2  0  0  0  0
  8  9  1  0  0  0  0
  8 23  1  0  0  0  0
  9 10  2  0  0  0  0
  9 24  1  0  0  0  0
 10 11  1  0  0  0  0
 11 12  1  0  0  0  0
 11 18  2  0  0  0  0
 12 17  1  0  0  0  0
 12 13  1  0  0  0  0
 13 14  1  0  0  0  0
 13 25  1  0  0  0  0
 13 26  1  0  0  0  0
 14 15  1  0  0  0  0
 14 27  1  0  0  0  0
 14 28  1  0  0  0  0
 15 16  1  0  0  0  0
 16 17  1  0  0  0  0
 16 29  1  0  0  0  0
 16 30  1  0  0  0  0
 17 31  1  0  0  0  0
 17 32  1  0  0  0  0
 18 33  1  0  0  0  0
M  CHG  1   1  -1
M  END
> <s_m_source_file>
AV-unprocessed.smi

> <i_m_source_file_index>
1473

> <i_lp_mmshare_version>
43012

> <i_f3d_flags>
0

> <s_epik_input>
W05IMl1TKD1PKSg9TylbTkhdW0NIMl1jMVtjSF1bY0hdbmMoW2NIXTEpTjJbQ0gyXVtDSDJdT1tDSDJdW0NIMl0y

> <s_epik_cmdline>
J2VwaWtfcHl0aG9uJywgJy1waCcsICc3LjAnLCAnLXRuJywgJzgnLCAnLW1hJywgJzIwMCcsICctbWV0YWxfYmluZGluZycsICctaW1hZScsICc8aW5maWxlLm1hZT4nLCAnLW9tYWUnLCAnPG91dGZpbGUubWFlPic=

> <r_lp_tautomer_probability>
1

> <r_epik_Ionization_Penalty>
2.7939

> <r_epik_Ionization_Penalty_Charging>
2.75358

> <r_epik_Ionization_Penalty_Neutral>
0.0403146

> <r_epik_State_Penalty>
2.98411

> <r_epik_Charging_Adjusted_Penalty>
5.73769

> <i_epik_Tot_Q>
-1

> <i_epik_Tot_abs_Q>
1

> <r_epik_Metal_State_Penalty>
0.875881

> <b_epik_Metal_Only>
1

> <s_lp_Force_Field>
OPLS_2005

> <r_lp_Energy>
15.423

> <b_lp_Chiralities_Consistent>
1

> <s_lp_Variant>
AV-unprocessed.smi:1473-5

> <Gold.Version>
5.8.1

> <Gold.Id.Protein>
6NUR|6NUR_protein|mol2

> <Gold.PLP.Fitness>
42.4476

> <Gold.PLP.PLP>
-34.4984

> <Gold.PLP.part.hbond>
-4.0000

> <Gold.PLP.part.metal>
0.0000

> <Gold.PLP.part.buried>
-2.1904

> <Gold.PLP.part.nonpolar>
-28.4740

> <Gold.PLP.part.repulsive>
0.4711

> <Gold.PLP.ligand.clash>
0.0000

> <Gold.PLP.ligand.torsion>
0.9997

> <Gold.PLP.Chemscore.Hbond>
2.9280

> <Gold.PLP.Chemscore.CHOScore>
0.0000

> <Gold.PLP.Chemscore.Metal>
0.0000

> <Gold.Chemscore.Hbonds>
donor molecule, donor type, donor heavy atom, donor atom, acceptor molecule, acceptor atom, score
      L1  H     1    19       P1  7948  1.00
      L1  H     5    20       P1  7948  0.90
      P1  H 10752 10763       L1     4  1.00

> <Gold.PLP.Chemscore.Internal.Correction>
1.1647

> <Gold.Rescore>
     Score         DG    S(hbond)    S(metal)    S(lipo)     H(rot)  DE(clash)    DE(int)     intcor
     15.27     -16.81       2.10        0.00      78.09       1.88       0.50       1.04       ----

> <Gold.Chemscore.Fitness>
15.2680

> <Gold.Chemscore.DG>
-16.8101

> <Gold.Chemscore.ZeroCoef>
-5.4800

> <Gold.Chemscore.Hbond>
2.0990

> <Gold.Chemscore.Metal>
0.0000

> <Gold.Chemscore.Lipo>
78.0854

> <Gold.Chemscore.Internal_Hbond>
0.0000

> <Gold.Chemscore.DEClash>
0.5050

> <Gold.Chemscore.DEInternal>
1.0371

> <Gold.Chemscore.Rot>
1.8814

> <Gold.Chemscore.Internal.Correction>
   9.000000E+99

> <Gold.Chemscore.Hbonds>
donor molecule, donor type, donor heavy atom, donor atom, acceptor molecule, acceptor atom, score
      L1  H     1    19       P1  7948  0.74
      L1  H     5    20       P1  7948  0.30
      P1  H 10752 10763       L1     4  0.90

> <Gold.Chemscore.Hbond.Weighted>
-7.0105

> <Gold.Chemscore.Metal.Weighted>
-0.0000

> <Gold.Chemscore.Lipo.Weighted>
-9.1360

> <Gold.Chemscore.Internal_Hbond.Weighted>
0.0000

> <Gold.Chemscore.DEClash.Weighted>
0.5050

> <Gold.Chemscore.DEInternal.Weighted>
1.0371

> <Gold.Chemscore.Rot.Weighted>
4.8165

> <Gold.Chemscore.Internal.Correction.Weighted>
   9.000000E+99

> <Gold.Protein.RotatedTorsions>
[ 6907 6896 6895 6894 ] final  146.68 input  -60.11 | X-H torsion
[ 7974 7965 7964 7962 ] final    3.74 input  175.53 | X-H torsion
[ 8008 7997 7996 7995 ] final  -34.31 input   59.86 | X-H torsion
[ 10167 10162 10161 10158 ] final  -94.22 input  -65.29 | X-H torsion
[ 10718 10713 10712 10709 ] final   14.58 input   66.30 | X-H torsion
[ 10763 10752 10751 10750 ] final   74.55 input  -60.55 | X-H torsion
[ 11005 11000 10999 10996 ] final  -56.59 input  -57.11 | X-H torsion

> <Gold.Protein.ActiveResidues>
 VAL166  LYS551  ARG553  GLY616  TRP617  ASP618  TYR619  PRO620  LYS621  CYS622 
 ASP623  PHE694  ASN695  SER759  ASP760  ASP761  ALA762  ILE779  LEU786  VAL792 
 PHE793  MET794  SER795  GLU796  ALA797  LYS798  CYS799  TRP800  GLU811  SER814 

> <Gold.Protein.RotatedAtoms>
  152.1648  133.4605  159.4878 H   0  0  0  0  0  0  0  0  0  0  0  0  # atno 6907 bound_to 6896
  150.6911  134.2027  159.4337 H   0  0  0  0  0  0  0  0  0  0  0  0  # atno 6908 bound_to 6896
  151.9931  134.9968  160.0613 H   0  0  0  0  0  0  0  0  0  0  0  0  # atno 6909 bound_to 6896
  146.2445  140.0640  142.8366 H   0  0  0  0  0  0  0  0  0  0  0  0  # atno 7974 bound_to 7965
  154.4124  140.1687  156.2029 H   0  0  0  0  0  0  0  0  0  0  0  0  # atno 8008 bound_to 7997
  155.9509  140.3401  155.6383 H   0  0  0  0  0  0  0  0  0  0  0  0  # atno 8009 bound_to 7997
  155.6871  140.0729  157.2453 H   0  0  0  0  0  0  0  0  0  0  0  0  # atno 8010 bound_to 7997
  140.3167  143.3073  152.0091 H   0  0  0  0  0  0  0  0  0  0  0  0  # atno 10167 bound_to 10162
  157.0412  130.6232  149.5751 H   0  0  0  0  0  0  0  0  0  0  0  0  # atno 10718 bound_to 10713
  153.0594  135.5022  154.8058 H   0  0  0  0  0  0  0  0  0  0  0  0  # atno 10763 bound_to 10752
  154.6859  135.2976  154.9551 H   0  0  0  0  0  0  0  0  0  0  0  0  # atno 10764 bound_to 10752
  154.0321  135.6728  153.4834 H   0  0  0  0  0  0  0  0  0  0  0  0  # atno 10765 bound_to 10752
  141.1127  133.6610  156.4643 H   0  0  0  0  0  0  0  0  0  0  0  0  # atno 11005 bound_to 11000
  145.0875  140.9262  143.4789 LP  0  0  0  0  0  0  0  0  0  0  0  0  # atno 17320 bound_to 7965
  145.0805  139.2963  143.5786 LP  0  0  0  0  0  0  0  0  0  0  0  0  # atno 17321 bound_to 7965
  139.4882  144.6343  151.7007 LP  0  0  0  0  0  0  0  0  0  0  0  0  # atno 17342 bound_to 10162
  140.5520  144.0409  150.6131 LP  0  0  0  0  0  0  0  0  0  0  0  0  # atno 17343 bound_to 10162
  156.0037  130.5121  150.7756 LP  0  0  0  0  0  0  0  0  0  0  0  0  # atno 17370 bound_to 10713
  157.5103  131.0925  151.0206 LP  0  0  0  0  0  0  0  0  0  0  0  0  # atno 17371 bound_to 10713
  140.4731  134.6735  157.5138 LP  0  0  0  0  0  0  0  0  0  0  0  0  # atno 17394 bound_to 11000
  140.0030  134.6807  155.9499 LP  0  0  0  0  0  0  0  0  0  0  0  0  # atno 17395 bound_to 11000

$$$$
