#       Name:                AV-unprocessed.smi:1487
#       Creating user name   scv26
#       Creation time:       Fri Mar 27 06:10:45 2020


#       File generated by GOLD software.
#

@<TRIPOS>MOLECULE
AV-unprocessed.smi:1487
    53    55     1
SMALL
NO_CHARGES


@<TRIPOS>ATOM
      1 ****        -2.4554   3.9758  -3.0020 C.3            1 S1                 0.0000
      2 ****        -2.4395   2.6943  -2.1876 C.ar           1 S1                 0.0000
      3 ****        -3.0849   2.6714  -0.9307 C.ar           1 S1                 0.0000
      4 ****        -3.0942   1.5000  -0.1427 C.ar           1 S1                 0.0000
      5 ****        -3.6561   1.2567   1.0986 N.2            1 S1                 0.0000
      6 ****        -3.3264  -0.0157   1.2981 C.2            1 S1                 0.0000
      7 ****        -2.6025  -0.6230   0.3378 N.pl3          1 S1                 0.0000
      8 ****        -2.1216  -1.9933   0.3404 C.3            1 S1                 0.0000
      9 ****        -0.5839  -2.0862   0.4121 C.3            1 S1                 0.0000
     10 ****        -0.2431  -3.4571   0.4641 O.3            1 S1                 0.0000
     11 ****         0.0224  -1.3666   1.6386 C.3            1 S1                 0.0000
     12 ****         1.5044  -1.2934   1.5785 N.4            1 S1                 1.0000
     13 ****         2.1234  -1.2131   2.9261 C.3            1 S1                 0.0000
     14 ****         3.6533  -1.3234   2.8353 C.3            1 S1                 0.0000
     15 ****         4.2303  -0.2410   1.9124 C.3            1 S1                 0.0000
     16 ****         3.5370  -0.2559   0.5396 C.3            1 S1                 0.0000
     17 ****         3.9222  -1.3998  -0.1976 O.3            1 S1                 0.0000
     18 ****         2.0025  -0.2173   0.6773 C.3            1 S1                 0.0000
     19 ****        -2.4336   0.3426  -0.6494 C.ar           1 S1                 0.0000
     20 ****        -1.7913   0.3522  -1.9003 C.ar           1 S1                 0.0000
     21 ****        -1.7895   1.5317  -2.6740 C.ar           1 S1                 0.0000
     22 ****        -1.0906   1.5322  -4.0221 C.3            1 S1                 0.0000
     23 ****        -3.0554   4.7475  -2.5186 H              1 S1                 0.0000
     24 ****        -2.8776   3.7970  -3.9911 H              1 S1                 0.0000
     25 ****        -1.4434   4.3631  -3.1211 H              1 S1                 0.0000
     26 ****        -3.5815   3.5566  -0.5606 H              1 S1                 0.0000
     27 ****        -3.6206  -0.5335   2.1995 H              1 S1                 0.0000
     28 ****        -2.5713  -2.5160   1.1864 H              1 S1                 0.0000
     29 ****        -2.4900  -2.4837  -0.5616 H              1 S1                 0.0000
     30 ****        -0.1726  -1.6796  -0.5103 H              1 S1                 0.0000
     31 ****         0.6899  -3.5485   0.3462 H              1 S1                 0.0000
     32 ****        -0.3649  -0.3518   1.7370 H              1 S1                 0.0000
     33 ****        -0.2949  -1.8953   2.5389 H              1 S1                 0.0000
     34 ****         1.8362  -0.2767   3.4078 H              1 S1                 0.0000
     35 ****         1.7479  -2.0221   3.5539 H              1 S1                 0.0000
     36 ****         4.0930  -1.2360   3.8295 H              1 S1                 0.0000
     37 ****         3.9284  -2.3114   2.4633 H              1 S1                 0.0000
     38 ****         4.0842   0.7357   2.3756 H              1 S1                 0.0000
     39 ****         5.3079  -0.3694   1.8009 H              1 S1                 0.0000
     40 ****         3.8674   0.6124  -0.0315 H              1 S1                 0.0000
     41 ****         3.6180  -1.3037  -1.0876 H              1 S1                 0.0000
     42 ****         1.5472  -0.2940  -0.3099 H              1 S1                 0.0000
     43 ****         1.6984   0.7503   1.0805 H              1 S1                 0.0000
     44 ****        -1.3056  -0.5408  -2.2642 H              1 S1                 0.0000
     45 ****        -0.5813   0.5859  -4.2068 H              1 S1                 0.0000
     46 ****        -0.3452   2.3263  -4.0686 H              1 S1                 0.0000
     47 ****        -1.8127   1.6868  -4.8242 H              1 S1                 0.0000
     48 ****         1.8164  -2.1700   1.1858 H              1 S1                 0.0000
     49 ****        -4.1738   1.8752   1.6897 LP             1 S1                 0.0000
     50 ****        -0.7223  -3.9491  -0.2628 LP             1 S1                 0.0000
     51 ****        -0.5070  -3.8343   1.3518 LP             1 S1                 0.0000
     52 ****         3.5145  -2.2164   0.2110 LP             1 S1                 0.0000
     53 ****         4.9185  -1.4852  -0.1900 LP             1 S1                 0.0000
@<TRIPOS>BOND
    1    1    2 1     
    2    1   23 1     
    3    1   24 1     
    4    1   25 1     
    5    2   21 ar    
    6    2    3 ar    
    7    3    4 ar    
    8    3   26 1     
    9    4   19 ar    
   10    4    5 1     
   11    5    6 2     
   12    6    7 1     
   13    6   27 1     
   14    7    8 1     
   15    7   19 1     
   16    8    9 1     
   17    8   28 1     
   18    8   29 1     
   19    9   10 1     
   20    9   11 1     
   21    9   30 1     
   22   10   31 1     
   23   11   12 1     
   24   11   32 1     
   25   11   33 1     
   26   12   18 1     
   27   12   13 1     
   28   12   48 1     
   29   13   14 1     
   30   13   34 1     
   31   13   35 1     
   32   14   15 1     
   33   14   36 1     
   34   14   37 1     
   35   15   16 1     
   36   15   38 1     
   37   15   39 1     
   38   16   17 1     
   39   16   18 1     
   40   16   40 1     
   41   17   41 1     
   42   18   42 1     
   43   18   43 1     
   44   19   20 ar    
   45   20   21 ar    
   46   20   44 1     
   47   21   22 1     
   48   22   45 1     
   49   22   46 1     
   50   22   47 1     
   51    5   49 1     
   52   10   50 1     
   53   10   51 1     
   54   17   52 1     
   55   17   53 1     
@<TRIPOS>SUBSTRUCTURE
      1 S1             1
@<TRIPOS>SET
LONE_PAIRS      STATIC     ATOMS    <user>   **** ""
5 49 50 51 52 53
DONOR_HYDROGENS      STATIC     ATOMS    <user>   **** ""
3 31 48 41
ATOM$BLUE        STATIC     ATOMS    COLORGROUP SYSTEM
5 49 50 51 52 53
ATOM$RED        STATIC     ATOMS    COLORGROUP SYSTEM
3 31 48 41
