AV-unprocessed.smi:1754|AV-procd|sdf|7067|dock3
  -GOLD-   22720 8283D 1   1.00000     0.00000
 Structure written by MMmdl.
 44 45  0  0  0  0  0  0  0  0  1 V2000
  152.5815  142.8421  161.8518 C   0  0  0  0  0  0  0  0  0  0  0  0
  153.1072  142.7822  160.4102 C   0  0  0  0  0  0  0  0  0  0  0  0
  152.1123  143.2236  159.4311 N   0  0  0  0  0  0  0  0  0  0  0  0
  152.1656  144.6248  159.0108 C   0  0  0  0  0  0  0  0  0  0  0  0
  151.8127  145.6054  160.1404 C   0  0  0  0  0  0  0  0  0  0  0  0
  151.6253  142.2371  158.5398 C   0  0  0  0  0  0  0  0  0  0  0  0
  151.0515  142.5654  157.2858 C   0  0  0  0  0  0  0  0  0  0  0  0
  150.5872  141.5347  156.4461 C   0  0  0  0  0  0  0  0  0  0  0  0
  150.7135  140.1932  156.8736 C   0  0  0  0  0  0  0  0  0  0  0  0
  150.2656  139.0650  156.1365 N   0  0  0  0  0  0  0  0  0  0  0  0
  150.2800  137.7630  156.4827 C   0  0  0  0  0  0  0  0  0  0  0  0
  150.6210  137.3335  157.5824 O   0  0  0  0  0  0  0  0  0  0  0  0
  149.8449  136.9334  155.5165 N   0  0  0  0  0  0  0  0  0  0  0  0
  149.7329  135.4741  155.5622 C   0  0  1  0  0  0  0  0  0  0  0  0
  151.0541  134.7975  155.9864 C   0  0  0  0  0  0  0  0  0  0  0  0
  150.7645  133.3409  156.3693 C   0  0  0  0  0  0  0  0  0  0  0  0
  149.0410  133.3087  156.9933 S   0  0  0  0  0  0  0  0  0  0  0  0
  148.2474  132.4063  156.1454 O   0  0  0  0  0  0  0  0  0  0  0  0
  149.0461  133.1644  158.4567 O   0  0  0  0  0  0  0  0  0  0  0  0
  148.6513  135.0455  156.5619 C   0  0  0  0  0  0  0  0  0  0  0  0
  151.2888  139.9644  158.1381 C   0  0  0  0  0  0  0  0  0  0  0  0
  151.7346  140.9488  158.9447 N   0  0  0  0  0  0  0  0  0  0  0  0
  153.3388  142.4898  162.5520 H   0  0  0  0  0  0  0  0  0  0  0  0
  151.6967  142.2178  161.9791 H   0  0  0  0  0  0  0  0  0  0  0  0
  152.3176  143.8612  162.1358 H   0  0  0  0  0  0  0  0  0  0  0  0
  154.0265  143.3614  160.3237 H   0  0  0  0  0  0  0  0  0  0  0  0
  153.3927  141.7565  160.1752 H   0  0  0  0  0  0  0  0  0  0  0  0
  153.1747  144.8508  158.6647 H   0  0  0  0  0  0  0  0  0  0  0  0
  151.5192  144.7816  158.1474 H   0  0  0  0  0  0  0  0  0  0  0  0
  151.9120  146.6353  159.7976 H   0  0  0  0  0  0  0  0  0  0  0  0
  152.4811  145.4760  160.9921 H   0  0  0  0  0  0  0  0  0  0  0  0
  150.7914  145.4779  160.4977 H   0  0  0  0  0  0  0  0  0  0  0  0
  150.9587  143.5855  156.9475 H   0  0  0  0  0  0  0  0  0  0  0  0
  150.1349  141.7979  155.5028 H   0  0  0  0  0  0  0  0  0  0  0  0
  149.8646  139.2748  155.2343 H   0  0  0  0  0  0  0  0  0  0  0  0
  149.5234  137.3712  154.6651 H   0  0  0  0  0  0  0  0  0  0  0  0
  149.4413  135.0923  154.5820 H   0  0  0  0  0  0  0  0  0  0  0  0
  151.8154  134.8568  155.2081 H   0  0  0  0  0  0  0  0  0  0  0  0
  151.4551  135.3140  156.8598 H   0  0  0  0  0  0  0  0  0  0  0  0
  150.8175  132.6922  155.4947 H   0  0  0  0  0  0  0  0  0  0  0  0
  151.4479  132.9591  157.1280 H   0  0  0  0  0  0  0  0  0  0  0  0
  148.7037  135.6336  157.4788 H   0  0  0  0  0  0  0  0  0  0  0  0
  147.6407  135.1162  156.1591 H   0  0  0  0  0  0  0  0  0  0  0  0
  151.3979  138.9587  158.5171 H   0  0  0  0  0  0  0  0  0  0  0  0
  1  2  1  0  0  0  0
  1 23  1  0  0  0  0
  1 24  1  0  0  0  0
  1 25  1  0  0  0  0
  2  3  1  0  0  0  0
  2 26  1  0  0  0  0
  2 27  1  0  0  0  0
  3  4  1  0  0  0  0
  3  6  1  0  0  0  0
  4  5  1  0  0  0  0
  4 28  1  0  0  0  0
  4 29  1  0  0  0  0
  5 30  1  0  0  0  0
  5 31  1  0  0  0  0
  5 32  1  0  0  0  0
  6 22  1  0  0  0  0
  6  7  2  0  0  0  0
  7  8  1  0  0  0  0
  7 33  1  0  0  0  0
  8  9  2  0  0  0  0
  8 34  1  0  0  0  0
  9 10  1  0  0  0  0
  9 21  1  0  0  0  0
 10 11  1  0  0  0  0
 10 35  1  0  0  0  0
 11 12  2  0  0  0  0
 11 13  1  0  0  0  0
 13 14  1  0  0  0  0
 13 36  1  0  0  0  0
 14 20  1  0  0  0  0
 14 15  1  0  0  0  0
 14 37  1  0  0  0  0
 15 16  1  0  0  0  0
 15 38  1  0  0  0  0
 15 39  1  0  0  0  0
 16 17  1  0  0  0  0
 16 40  1  0  0  0  0
 16 41  1  0  0  0  0
 17 18  2  0  0  0  0
 17 19  2  0  0  0  0
 17 20  1  0  0  0  0
 20 42  1  0  0  0  0
 20 43  1  0  0  0  0
 21 22  2  0  0  0  0
 21 44  1  0  0  0  0
M  END
> <s_m_source_file>
AV-unprocessed.smi

> <i_m_source_file_index>
1754

> <i_lp_mmshare_version>
43012

> <i_f3d_flags>
0

> <s_epik_input>
W0NIM11bQ0gyXU4oW0NIMl1bQ0gzXSljMVtjSF1bY0hdYyhbY0hdbjEpW05IXUMoPU8pW05IXVtDQEBIXShbQ0gyXTIpW0NIMl1bQ0gyXVMyKD1PKT1P

> <s_epik_cmdline>
J2VwaWtfcHl0aG9uJywgJy1waCcsICc3LjAnLCAnLXRuJywgJzgnLCAnLW1hJywgJzIwMCcsICctbWV0YWxfYmluZGluZycsICctaW1hZScsICc8aW5maWxlLm1hZT4nLCAnLW9tYWUnLCAnPG91dGZpbGUubWFlPic=

> <r_lp_tautomer_probability>
1

> <r_epik_Ionization_Penalty>
0.615754

> <r_epik_Ionization_Penalty_Charging>
0

> <r_epik_Ionization_Penalty_Neutral>
0.615754

> <r_epik_State_Penalty>
2.08676

> <r_epik_Charging_Adjusted_Penalty>
2.08676

> <i_epik_Tot_Q>
0

> <i_epik_Tot_abs_Q>
0

> <r_epik_Metal_State_Penalty>
1.53042

> <b_epik_Metal_Only>
0

> <s_lp_Force_Field>
OPLS_2005

> <r_lp_Energy>
21.6605

> <b_lp_Chiralities_Consistent>
1

> <s_lp_Variant>
AV-unprocessed.smi:1754-4

> <Gold.Version>
5.8.1

> <Gold.Id.Protein>
6NUR|6NUR_protein|mol2

> <Gold.PLP.Fitness>
41.7393

> <Gold.PLP.PLP>
-38.9392

> <Gold.PLP.part.hbond>
-1.0000

> <Gold.PLP.part.metal>
0.0000

> <Gold.PLP.part.buried>
-5.6816

> <Gold.PLP.part.nonpolar>
-33.2600

> <Gold.PLP.part.repulsive>
0.0468

> <Gold.PLP.ligand.clash>
0.0000

> <Gold.PLP.ligand.torsion>
0.5518

> <Gold.PLP.Chemscore.Hbond>
1.0000

> <Gold.PLP.Chemscore.CHOScore>
0.0000

> <Gold.PLP.Chemscore.Metal>
0.0000

> <Gold.Chemscore.Hbonds>
donor molecule, donor type, donor heavy atom, donor atom, acceptor molecule, acceptor atom, score
      P1  H  6896  6907       L1    19  1.00

> <Gold.PLP.Chemscore.Internal.Correction>
0.9037

> <Gold.Rescore>
     Score         DG    S(hbond)    S(metal)    S(lipo)     H(rot)  DE(clash)    DE(int)     intcor
     13.62     -16.56       1.00        0.00      96.53       1.39       0.19       2.75       ----

> <Gold.Chemscore.Fitness>
13.6198

> <Gold.Chemscore.DG>
-16.5610

> <Gold.Chemscore.ZeroCoef>
-5.4800

> <Gold.Chemscore.Hbond>
0.9998

> <Gold.Chemscore.Metal>
0.0000

> <Gold.Chemscore.Lipo>
96.5292

> <Gold.Chemscore.Internal_Hbond>
0.0000

> <Gold.Chemscore.DEClash>
0.1940

> <Gold.Chemscore.DEInternal>
2.7472

> <Gold.Chemscore.Rot>
1.3876

> <Gold.Chemscore.Internal.Correction>
   9.000000E+99

> <Gold.Chemscore.Hbonds>
donor molecule, donor type, donor heavy atom, donor atom, acceptor molecule, acceptor atom, score
      P1  H  6896  6907       L1    19  0.81

> <Gold.Chemscore.Hbond.Weighted>
-3.3395

> <Gold.Chemscore.Metal.Weighted>
-0.0000

> <Gold.Chemscore.Lipo.Weighted>
-11.2939

> <Gold.Chemscore.Internal_Hbond.Weighted>
0.0000

> <Gold.Chemscore.DEClash.Weighted>
0.1940

> <Gold.Chemscore.DEInternal.Weighted>
2.7472

> <Gold.Chemscore.Rot.Weighted>
3.5524

> <Gold.Chemscore.Internal.Correction.Weighted>
   9.000000E+99

> <Gold.Protein.RotatedTorsions>
[ 6907 6896 6895 6894 ] final -111.13 input  -60.11 | X-H torsion
[ 7974 7965 7964 7962 ] final  115.04 input  175.53 | X-H torsion
[ 8008 7997 7996 7995 ] final  108.93 input   59.86 | X-H torsion
[ 10167 10162 10161 10158 ] final  142.85 input  -65.29 | X-H torsion
[ 10718 10713 10712 10709 ] final    8.98 input   66.30 | X-H torsion
[ 10763 10752 10751 10750 ] final  -64.77 input  -60.55 | X-H torsion
[ 11005 11000 10999 10996 ] final   45.94 input  -57.11 | X-H torsion

> <Gold.Protein.ActiveResidues>
 VAL166  LYS551  ARG553  GLY616  TRP617  ASP618  TYR619  PRO620  LYS621  CYS622 
 ASP623  PHE694  ASN695  SER759  ASP760  ASP761  ALA762  ILE779  LEU786  VAL792 
 PHE793  MET794  SER795  GLU796  ALA797  LYS798  CYS799  TRP800  GLU811  SER814 

> <Gold.Protein.RotatedAtoms>
  150.7670  133.9280  159.3417 H   0  0  0  0  0  0  0  0  0  0  0  0  # atno 6907 bound_to 6896
  151.7175  135.0899  160.0288 H   0  0  0  0  0  0  0  0  0  0  0  0  # atno 6908 bound_to 6896
  152.3671  133.6332  159.6094 H   0  0  0  0  0  0  0  0  0  0  0  0  # atno 6909 bound_to 6896
  145.1969  139.2971  143.4338 H   0  0  0  0  0  0  0  0  0  0  0  0  # atno 7974 bound_to 7965
  156.1941  140.3067  155.9390 H   0  0  0  0  0  0  0  0  0  0  0  0  # atno 8008 bound_to 7997
  155.3107  140.0451  157.3052 H   0  0  0  0  0  0  0  0  0  0  0  0  # atno 8009 bound_to 7997
  154.5487  140.2284  155.8529 H   0  0  0  0  0  0  0  0  0  0  0  0  # atno 8010 bound_to 7997
  139.4984  144.6080  151.6336 H   0  0  0  0  0  0  0  0  0  0  0  0  # atno 10167 bound_to 10162
  156.9596  130.5928  149.5661 H   0  0  0  0  0  0  0  0  0  0  0  0  # atno 10718 bound_to 10713
  154.3350  135.6168  153.5569 H   0  0  0  0  0  0  0  0  0  0  0  0  # atno 10763 bound_to 10752
  152.9808  135.5756  154.4918 H   0  0  0  0  0  0  0  0  0  0  0  0  # atno 10764 bound_to 10752
  154.4612  135.2856  155.1688 H   0  0  0  0  0  0  0  0  0  0  0  0  # atno 10765 bound_to 10752
  140.1414  134.4579  155.8447 H   0  0  0  0  0  0  0  0  0  0  0  0  # atno 11005 bound_to 11000
  146.3425  140.2201  142.8591 LP  0  0  0  0  0  0  0  0  0  0  0  0  # atno 17320 bound_to 7965
  144.9986  140.8611  143.5296 LP  0  0  0  0  0  0  0  0  0  0  0  0  # atno 17321 bound_to 7965
  140.5746  144.0050  150.6235 LP  0  0  0  0  0  0  0  0  0  0  0  0  # atno 17342 bound_to 10162
  140.3179  143.3156  152.0814 LP  0  0  0  0  0  0  0  0  0  0  0  0  # atno 17343 bound_to 10162
  156.0328  130.5418  150.8577 LP  0  0  0  0  0  0  0  0  0  0  0  0  # atno 17370 bound_to 10713
  157.5667  131.0946  150.9480 LP  0  0  0  0  0  0  0  0  0  0  0  0  # atno 17371 bound_to 10713
  141.2186  133.6834  156.7253 LP  0  0  0  0  0  0  0  0  0  0  0  0  # atno 17394 bound_to 11000
  140.2718  134.8386  157.3854 LP  0  0  0  0  0  0  0  0  0  0  0  0  # atno 17395 bound_to 11000

$$$$
