#       Name:                AV-unprocessed.smi:2032
#       Creating user name   scv26
#       Creation time:       Fri Mar 27 10:53:22 2020


#       File generated by GOLD software.
#

@<TRIPOS>MOLECULE
AV-unprocessed.smi:2032
    48    49     1
SMALL
NO_CHARGES


@<TRIPOS>ATOM
      1 ****        -4.0056   1.5798  -1.8592 C.3            1 S1                 0.0000
      2 ****        -3.4466   0.1499  -1.9707 C.3            1 S1                 0.0000
      3 ****        -1.9072   0.0956  -2.0498 C.3            1 S1                 0.0000
      4 ****        -1.2796   0.3722  -0.7288 N.4            1 S1                 1.0000
      5 ****         0.2187   0.3948  -0.7042 C.3            1 S1                 0.0000
      6 ****         0.8591   0.8705  -2.0308 C.3            1 S1                 0.0000
      7 ****         0.7126   1.2742   0.4741 C.3            1 S1                 0.0000
      8 ****         2.1650   1.2678   0.6177 N.am           1 S1                 0.0000
      9 ****         2.8930   0.2651   1.1290 C.2            1 S1                 0.0000
     10 ****         2.3315  -0.7517   1.5440 O.2            1 S1                 0.0000
     11 ****         4.2238   0.5010   1.1202 N.pl3          1 S1                -1.0000
     12 ****         5.0733  -0.4262   1.5917 C.2            1 S1                 0.0000
     13 ****         5.6074  -0.3701   2.8170 N.2            1 S1                 0.0000
     14 ****         6.4677  -1.4332   3.0968 C.2            1 S1                 0.0000
     15 ****         6.5983  -2.3150   2.0569 C.2            1 S1                 0.0000
     16 ****         5.6388  -1.8333   0.6869 S.3            1 S1                 0.0000
     17 ****        -1.8462  -0.5528   0.2877 C.3            1 S1                 0.0000
     18 ****        -3.3775  -0.4264   0.3547 C.3            1 S1                 0.0000
     19 ****        -3.9930  -1.4190   1.3474 C.3            1 S1                 0.0000
     20 ****        -3.9266  -0.6981  -0.9299 O.3            1 S1                 0.0000
     21 ****        -3.7452   2.1660  -2.7409 H              1 S1                 0.0000
     22 ****        -3.6151   2.1114  -0.9919 H              1 S1                 0.0000
     23 ****        -5.0930   1.5673  -1.7832 H              1 S1                 0.0000
     24 ****        -3.8389  -0.2664  -2.8991 H              1 S1                 0.0000
     25 ****        -1.5901  -0.8901  -2.3941 H              1 S1                 0.0000
     26 ****        -1.5866   0.8179  -2.7999 H              1 S1                 0.0000
     27 ****         0.5576  -0.6305  -0.5480 H              1 S1                 0.0000
     28 ****         1.9470   0.8913  -1.9668 H              1 S1                 0.0000
     29 ****         0.5302   1.8758  -2.2960 H              1 S1                 0.0000
     30 ****         0.6267   0.2020  -2.8599 H              1 S1                 0.0000
     31 ****         0.3988   2.3067   0.3178 H              1 S1                 0.0000
     32 ****         0.2757   0.9703   1.4248 H              1 S1                 0.0000
     33 ****         2.6631   2.0843   0.2942 H              1 S1                 0.0000
     34 ****         6.9459  -1.4826   4.0636 H              1 S1                 0.0000
     35 ****         7.1971  -3.2120   2.0123 H              1 S1                 0.0000
     36 ****        -1.5655  -1.5782   0.0399 H              1 S1                 0.0000
     37 ****        -1.4341  -0.3483   1.2745 H              1 S1                 0.0000
     38 ****        -3.6503   0.5803   0.6717 H              1 S1                 0.0000
     39 ****        -3.6097  -1.2557   2.3549 H              1 S1                 0.0000
     40 ****        -3.7692  -2.4487   1.0671 H              1 S1                 0.0000
     41 ****        -5.0775  -1.3122   1.3839 H              1 S1                 0.0000
     42 ****        -1.5741   1.3045  -0.4758 H              1 S1                 0.0000
     43 ****         1.3354  -0.8266   1.4986 LP             1 S1                 0.0000
     44 ****         2.8724  -1.5010   1.9259 LP             1 S1                 0.0000
     45 ****         4.5759   1.3660   0.7626 LP             1 S1                 0.0000
     46 ****         5.4096   0.3620   3.4689 LP             1 S1                 0.0000
     47 ****        -3.7054  -1.6432  -1.1704 LP             1 S1                 0.0000
     48 ****        -4.9194  -0.5920  -0.8738 LP             1 S1                 0.0000
@<TRIPOS>BOND
    1    1    2 1     
    2    1   21 1     
    3    1   22 1     
    4    1   23 1     
    5    2   20 1     
    6    2    3 1     
    7    2   24 1     
    8    3    4 1     
    9    3   25 1     
   10    3   26 1     
   11    4    5 1     
   12    4   17 1     
   13    4   42 1     
   14    5    6 1     
   15    5    7 1     
   16    5   27 1     
   17    6   28 1     
   18    6   29 1     
   19    6   30 1     
   20    7    8 1     
   21    7   31 1     
   22    7   32 1     
   23    8    9 am    
   24    8   33 1     
   25    9   10 2     
   26    9   11 1     
   27   11   12 1     
   28   12   16 1     
   29   12   13 2     
   30   13   14 1     
   31   14   15 2     
   32   14   34 1     
   33   15   16 1     
   34   15   35 1     
   35   17   18 1     
   36   17   36 1     
   37   17   37 1     
   38   18   19 1     
   39   18   20 1     
   40   18   38 1     
   41   19   39 1     
   42   19   40 1     
   43   19   41 1     
   44   10   43 1     
   45   10   44 1     
   46   11   45 1     
   47   13   46 1     
   48   20   47 1     
   49   20   48 1     
@<TRIPOS>SUBSTRUCTURE
      1 S1             1
@<TRIPOS>SET
LONE_PAIRS      STATIC     ATOMS    <user>   **** ""
6 43 44 45 46 47 48
DONOR_HYDROGENS      STATIC     ATOMS    <user>   **** ""
2 42 33
ATOM$BLUE        STATIC     ATOMS    COLORGROUP SYSTEM
6 43 44 45 46 47 48
ATOM$RED        STATIC     ATOMS    COLORGROUP SYSTEM
2 42 33
