AV-unprocessed.smi:155|AV-procd|sdf|1277|dock3
  -GOLD-   2262018543D 1   1.00000     0.00000
 Structure written by MMmdl.
 63 66  0  0  0  0  0  0  0  0  2 V2000
  145.8581  131.2435  151.5369 C   0  0  0  0  0  0  0  0  0  0  0  0
  147.0468  131.7887  152.2303 N   0  3  0  0  0  0  0  0  0  0  0  0
  147.1481  133.2567  152.0613 C   0  0  0  0  0  0  0  0  0  0  0  0
  147.1130  131.3518  153.6474 C   0  0  0  0  0  0  0  0  0  0  0  0
  148.4573  131.7147  154.3149 C   0  0  0  0  0  0  0  0  0  0  0  0
  148.6057  133.1621  154.4864 N   0  0  0  0  0  0  0  0  0  0  0  0
  147.7627  133.6193  155.5970 C   0  0  0  0  0  0  0  0  0  0  0  0
  147.7190  135.1507  155.7426 C   0  0  0  0  0  0  0  0  0  0  0  0
  148.9387  135.7280  156.4798 C   0  0  0  0  0  0  0  0  0  0  0  0
  150.1433  135.8109  155.6532 N   0  0  0  0  0  0  0  0  0  0  0  0
  150.9128  136.9242  155.7820 C   0  0  0  0  0  0  0  0  0  0  0  0
  151.8319  137.2117  154.8214 N   0  0  0  0  0  0  0  0  0  0  0  0
  152.5900  138.3080  154.9147 C   0  0  0  0  0  0  0  0  0  0  0  0
  152.5976  139.2385  155.8706 N   0  0  0  0  0  0  0  0  0  0  0  0
  151.6858  138.9533  156.8434 C   0  0  0  0  0  0  0  0  0  0  0  0
  150.8113  137.8297  156.8785 C   0  0  0  0  0  0  0  0  0  0  0  0
  150.0359  137.8746  158.0327 N   0  0  0  0  0  0  0  0  0  0  0  0
  150.4211  138.9651  158.6370 C   0  0  0  0  0  0  0  0  0  0  0  0
  151.4067  139.6745  157.9910 N   0  0  0  0  0  0  0  0  0  0  0  0
  152.0132  140.9162  158.4375 C   0  0  0  0  0  0  0  0  0  0  0  0
  151.0245  142.0982  158.4049 C   0  0  2  0  0  0  0  0  0  0  0  0
  150.4704  142.2083  157.1075 O   0  0  0  0  0  0  0  0  0  0  0  0
  151.6991  143.4318  158.7738 C   0  0  1  0  0  0  0  0  0  0  0  0
  150.7480  144.6267  158.8341 C   0  0  0  0  0  0  0  0  0  0  0  0
  151.5302  145.5952  159.6922 C   0  0  0  0  0  0  0  0  0  0  0  0
  152.2246  144.6675  160.6880 C   0  0  0  0  0  0  0  0  0  0  0  0
  152.2358  143.3725  160.0913 O   0  0  0  0  0  0  0  0  0  0  0  0
  150.3109  134.9598  154.4751 C   0  0  0  0  0  0  0  0  0  0  0  0
  150.0094  133.4787  154.7586 C   0  0  0  0  0  0  0  0  0  0  0  0
  144.9376  131.6126  151.9909 H   0  0  0  0  0  0  0  0  0  0  0  0
  145.8482  130.1536  151.5801 H   0  0  0  0  0  0  0  0  0  0  0  0
  145.8590  131.5293  150.4846 H   0  0  0  0  0  0  0  0  0  0  0  0
  146.3357  133.7679  152.5796 H   0  0  0  0  0  0  0  0  0  0  0  0
  147.0990  133.5251  151.0054 H   0  0  0  0  0  0  0  0  0  0  0  0
  148.0940  133.6386  152.4440 H   0  0  0  0  0  0  0  0  0  0  0  0
  146.2812  131.7824  154.2074 H   0  0  0  0  0  0  0  0  0  0  0  0
  146.9663  130.2729  153.6680 H   0  0  0  0  0  0  0  0  0  0  0  0
  148.5730  131.2071  155.2741 H   0  0  0  0  0  0  0  0  0  0  0  0
  149.2553  131.3443  153.6716 H   0  0  0  0  0  0  0  0  0  0  0  0
  146.7393  133.2882  155.4320 H   0  0  0  0  0  0  0  0  0  0  0  0
  148.0805  133.1586  156.5339 H   0  0  0  0  0  0  0  0  0  0  0  0
  147.5637  135.6399  154.7800 H   0  0  0  0  0  0  0  0  0  0  0  0
  146.8384  135.3935  156.3382 H   0  0  0  0  0  0  0  0  0  0  0  0
  148.6705  136.7280  156.8230 H   0  0  0  0  0  0  0  0  0  0  0  0
  149.1548  135.1423  157.3738 H   0  0  0  0  0  0  0  0  0  0  0  0
  153.2901  138.4622  154.1070 H   0  0  0  0  0  0  0  0  0  0  0  0
  149.9930  139.2853  159.5759 H   0  0  0  0  0  0  0  0  0  0  0  0
  152.3863  140.7625  159.4508 H   0  0  0  0  0  0  0  0  0  0  0  0
  152.8838  141.1280  157.8154 H   0  0  0  0  0  0  0  0  0  0  0  0
  150.2087  141.9033  159.1023 H   0  0  0  0  0  0  0  0  0  0  0  0
  151.0785  142.6823  156.5609 H   0  0  0  0  0  0  0  0  0  0  0  0
  152.5166  143.6505  158.0839 H   0  0  0  0  0  0  0  0  0  0  0  0
  150.5050  145.0299  157.8506 H   0  0  0  0  0  0  0  0  0  0  0  0
  149.8168  144.3528  159.3324 H   0  0  0  0  0  0  0  0  0  0  0  0
  152.2727  146.1129  159.0836 H   0  0  0  0  0  0  0  0  0  0  0  0
  150.9022  146.3450  160.1740 H   0  0  0  0  0  0  0  0  0  0  0  0
  153.2373  145.0027  160.9141 H   0  0  0  0  0  0  0  0  0  0  0  0
  151.6686  144.6140  161.6242 H   0  0  0  0  0  0  0  0  0  0  0  0
  149.7140  135.3369  153.6437 H   0  0  0  0  0  0  0  0  0  0  0  0
  151.3517  135.0172  154.1533 H   0  0  0  0  0  0  0  0  0  0  0  0
  150.3124  133.1777  155.7631 H   0  0  0  0  0  0  0  0  0  0  0  0
  150.6317  132.9080  154.0685 H   0  0  0  0  0  0  0  0  0  0  0  0
  147.8488  131.3852  151.7672 H   0  0  0  0  0  0  0  0  0  0  0  0
  1  2  1  0  0  0  0
  1 30  1  0  0  0  0
  1 31  1  0  0  0  0
  1 32  1  0  0  0  0
  2  3  1  0  0  0  0
  2  4  1  0  0  0  0
  2 63  1  0  0  0  0
  3 33  1  0  0  0  0
  3 34  1  0  0  0  0
  3 35  1  0  0  0  0
  4  5  1  0  0  0  0
  4 36  1  0  0  0  0
  4 37  1  0  0  0  0
  5  6  1  0  0  0  0
  5 38  1  0  0  0  0
  5 39  1  0  0  0  0
  6 29  1  0  0  0  0
  6  7  1  0  0  0  0
  7  8  1  0  0  0  0
  7 40  1  0  0  0  0
  7 41  1  0  0  0  0
  8  9  1  0  0  0  0
  8 42  1  0  0  0  0
  8 43  1  0  0  0  0
  9 10  1  0  0  0  0
  9 44  1  0  0  0  0
  9 45  1  0  0  0  0
 10 11  1  0  0  0  0
 10 28  1  0  0  0  0
 11 16  1  0  0  0  0
 11 12  2  0  0  0  0
 12 13  1  0  0  0  0
 13 14  2  0  0  0  0
 13 46  1  0  0  0  0
 14 15  1  0  0  0  0
 15 19  1  0  0  0  0
 15 16  2  0  0  0  0
 16 17  1  0  0  0  0
 17 18  2  0  0  0  0
 18 19  1  0  0  0  0
 18 47  1  0  0  0  0
 19 20  1  0  0  0  0
 20 21  1  0  0  0  0
 20 48  1  0  0  0  0
 20 49  1  0  0  0  0
 21 22  1  0  0  0  0
 21 23  1  0  0  0  0
 21 50  1  0  0  0  0
 22 51  1  0  0  0  0
 23 27  1  0  0  0  0
 23 24  1  0  0  0  0
 23 52  1  0  0  0  0
 24 25  1  0  0  0  0
 24 53  1  0  0  0  0
 24 54  1  0  0  0  0
 25 26  1  0  0  0  0
 25 55  1  0  0  0  0
 25 56  1  0  0  0  0
 26 27  1  0  0  0  0
 26 57  1  0  0  0  0
 26 58  1  0  0  0  0
 28 29  1  0  0  0  0
 28 59  1  0  0  0  0
 28 60  1  0  0  0  0
 29 61  1  0  0  0  0
 29 62  1  0  0  0  0
M  CHG  1   2   1
M  END
> <s_m_source_file>
AV-unprocessed.smi

> <i_m_source_file_index>
155

> <i_lp_mmshare_version>
43012

> <i_f3d_flags>
0

> <s_epik_input>
W0NIM11OKFtDSDNdKVtDSDJdW0NIMl1OMVtDSDJdW0NIMl1bQ0gyXU4oW0NIMl1bQ0gyXTEpYyhuW2NIXW4yKWMoYzIzKW5bY0hdbjNbQ0gyXVtDQEhdKFtPSF0pW0NAQEhdNFtDSDJdW0NIMl1bQ0gyXU80

> <s_epik_cmdline>
J2VwaWtfcHl0aG9uJywgJy1waCcsICc3LjAnLCAnLXRuJywgJzgnLCAnLW1hJywgJzIwMCcsICctbWV0YWxfYmluZGluZycsICctaW1hZScsICc8aW5maWxlLm1hZT4nLCAnLW9tYWUnLCAnPG91dGZpbGUubWFlPic=

> <r_lp_tautomer_probability>
1

> <r_epik_Ionization_Penalty>
0.0599493

> <r_epik_Ionization_Penalty_Charging>
0.00816363

> <r_epik_Ionization_Penalty_Neutral>
0.0517857

> <r_epik_State_Penalty>
0.460607

> <r_epik_Charging_Adjusted_Penalty>
0.468771

> <i_epik_Tot_Q>
1

> <i_epik_Tot_abs_Q>
1

> <r_epik_Metal_State_Penalty>
0.45965

> <b_epik_Metal_Only>
0

> <s_lp_Force_Field>
OPLS_2005

> <r_lp_Energy>
54.9456

> <b_lp_Chiralities_Consistent>
1

> <s_lp_Variant>
AV-unprocessed.smi:155-11

> <Gold.Version>
5.8.1

> <Gold.Id.Protein>
6NUR|6NUR_protein|mol2

> <Gold.PLP.Fitness>
52.2851

> <Gold.PLP.PLP>
-43.7179

> <Gold.PLP.part.hbond>
-3.1245

> <Gold.PLP.part.metal>
0.0000

> <Gold.PLP.part.buried>
-7.7736

> <Gold.PLP.part.nonpolar>
-32.2524

> <Gold.PLP.part.repulsive>
0.2113

> <Gold.PLP.ligand.clash>
0.0000

> <Gold.PLP.ligand.torsion>
0.2965

> <Gold.PLP.Chemscore.Hbond>
2.9760

> <Gold.PLP.Chemscore.CHOScore>
0.0000

> <Gold.PLP.Chemscore.Metal>
0.0000

> <Gold.Chemscore.Hbonds>
donor molecule, donor type, donor heavy atom, donor atom, acceptor molecule, acceptor atom, score
      L1  H     2    63       P1 10747  1.00
      P1  H  7997  8009       L1    14  1.00
      P1  H 10752 10764       L1    12  0.99

> <Gold.PLP.Chemscore.Internal.Correction>
0.2322

> <Gold.Rescore>
     Score         DG    S(hbond)    S(metal)    S(lipo)     H(rot)  DE(clash)    DE(int)     intcor
     16.71     -19.65       2.59        0.00     106.54       2.71       0.08       2.86       ----

> <Gold.Chemscore.Fitness>
16.7140

> <Gold.Chemscore.DG>
-19.6549

> <Gold.Chemscore.ZeroCoef>
-5.4800

> <Gold.Chemscore.Hbond>
2.5876

> <Gold.Chemscore.Metal>
0.0000

> <Gold.Chemscore.Lipo>
106.5377

> <Gold.Chemscore.Internal_Hbond>
0.0000

> <Gold.Chemscore.DEClash>
0.0772

> <Gold.Chemscore.DEInternal>
2.8638

> <Gold.Chemscore.Rot>
2.7080

> <Gold.Chemscore.Internal.Correction>
   9.000000E+99

> <Gold.Chemscore.Hbonds>
donor molecule, donor type, donor heavy atom, donor atom, acceptor molecule, acceptor atom, score
      L1  H     2    63       P1 10747  0.98
      P1  H  7997  8009       L1    14  0.89
      P1  H 10752 10764       L1    12  0.54

> <Gold.Chemscore.Hbond.Weighted>
-8.6426

> <Gold.Chemscore.Metal.Weighted>
-0.0000

> <Gold.Chemscore.Lipo.Weighted>
-12.4649

> <Gold.Chemscore.Internal_Hbond.Weighted>
0.0000

> <Gold.Chemscore.DEClash.Weighted>
0.0772

> <Gold.Chemscore.DEInternal.Weighted>
2.8638

> <Gold.Chemscore.Rot.Weighted>
6.9326

> <Gold.Chemscore.Internal.Correction.Weighted>
   9.000000E+99

> <Gold.Protein.RotatedTorsions>
[ 6907 6896 6895 6894 ] final   80.78 input  -60.11 | X-H torsion
[ 7974 7965 7964 7962 ] final  -81.38 input  175.53 | X-H torsion
[ 8008 7997 7996 7995 ] final -154.93 input   59.86 | X-H torsion
[ 10167 10162 10161 10158 ] final -143.85 input  -65.29 | X-H torsion
[ 10718 10713 10712 10709 ] final -117.28 input   66.30 | X-H torsion
[ 10763 10752 10751 10750 ] final  -70.74 input  -60.55 | X-H torsion
[ 11005 11000 10999 10996 ] final   19.92 input  -57.11 | X-H torsion

> <Gold.Protein.ActiveResidues>
 VAL166  LYS551  ARG553  GLY616  TRP617  ASP618  TYR619  PRO620  LYS621  CYS622 
 ASP623  PHE694  ASN695  SER759  ASP760  ASP761  ALA762  ILE779  LEU786  VAL792 
 PHE793  MET794  SER795  GLU796  ALA797  LYS798  CYS799  TRP800  GLU811  SER814 

> <Gold.Protein.RotatedAtoms>
  152.5246  134.3305  159.9180 H   0  0  0  0  0  0  0  0  0  0  0  0  # atno 6907 bound_to 6896
  151.3254  133.4016  159.2666 H   0  0  0  0  0  0  0  0  0  0  0  0  # atno 6908 bound_to 6896
  150.9924  134.9273  159.7965 H   0  0  0  0  0  0  0  0  0  0  0  0  # atno 6909 bound_to 6896
  145.5475  140.9501  143.1517 H   0  0  0  0  0  0  0  0  0  0  0  0  # atno 7974 bound_to 7965
  155.6939  140.0758  157.2437 H   0  0  0  0  0  0  0  0  0  0  0  0  # atno 8008 bound_to 7997
  154.4084  140.1659  156.2169 H   0  0  0  0  0  0  0  0  0  0  0  0  # atno 8009 bound_to 7997
  155.9427  140.3383  155.6344 H   0  0  0  0  0  0  0  0  0  0  0  0  # atno 8010 bound_to 7997
  139.7954  143.7907  152.2654 H   0  0  0  0  0  0  0  0  0  0  0  0  # atno 10167 bound_to 10162
  156.1023  130.6182  150.9144 H   0  0  0  0  0  0  0  0  0  0  0  0  # atno 10718 bound_to 10713
  154.4219  135.5984  153.6015 H   0  0  0  0  0  0  0  0  0  0  0  0  # atno 10763 bound_to 10752
  152.9794  135.5954  154.3945 H   0  0  0  0  0  0  0  0  0  0  0  0  # atno 10764 bound_to 10752
  154.3771  135.2841  155.2211 H   0  0  0  0  0  0  0  0  0  0  0  0  # atno 10765 bound_to 10752
  140.4084  134.1644  155.7666 H   0  0  0  0  0  0  0  0  0  0  0  0  # atno 11005 bound_to 11000
  144.7546  139.7107  143.7259 LP  0  0  0  0  0  0  0  0  0  0  0  0  # atno 17320 bound_to 7965
  146.1939  139.5195  142.9787 LP  0  0  0  0  0  0  0  0  0  0  0  0  # atno 17321 bound_to 7965
  139.8011  144.7373  150.9824 LP  0  0  0  0  0  0  0  0  0  0  0  0  # atno 17342 bound_to 10162
  140.7820  143.4344  151.0645 LP  0  0  0  0  0  0  0  0  0  0  0  0  # atno 17343 bound_to 10162
  157.6194  131.0931  150.8649 LP  0  0  0  0  0  0  0  0  0  0  0  0  # atno 17370 bound_to 10713
  156.8775  130.5167  149.5293 LP  0  0  0  0  0  0  0  0  0  0  0  0  # atno 17371 bound_to 10713
  141.1830  133.8372  157.1188 LP  0  0  0  0  0  0  0  0  0  0  0  0  # atno 17394 bound_to 11000
  140.0285  134.9912  157.0734 LP  0  0  0  0  0  0  0  0  0  0  0  0  # atno 17395 bound_to 11000

$$$$
