AV-unprocessed.smi:1093|AV-procd|sdf|4744|dock10
  -GOLD-   22720 3283D 1   1.00000     0.00000
 Structure written by MMmdl.
 47 48  0  0  0  0  0  0  0  0  2 V2000
  145.6370  132.3010  150.5273 C   0  0  0  0  0  0  0  0  0  0  0  0
  146.7840  133.3197  150.5918 C   0  0  0  0  0  0  0  0  0  0  0  0
  146.4482  134.4931  151.4358 N   0  3  1  0  0  0  0  0  0  0  0  0
  145.3072  135.2760  150.8938 C   0  0  0  0  0  0  0  0  0  0  0  0
  145.0836  136.5669  151.7012 C   0  0  0  0  0  0  0  0  0  0  0  0
  144.9098  136.2698  153.2003 C   0  0  0  0  0  0  0  0  0  0  0  0
  146.0737  135.4145  153.7319 C   0  0  2  0  0  0  0  0  0  0  0  0
  147.3040  136.2068  153.7568 N   0  0  0  0  0  0  0  0  0  0  0  0
  147.6177  137.1237  154.6834 C   0  0  0  0  0  0  0  0  0  0  0  0
  146.8928  137.3939  155.6404 O   0  0  0  0  0  0  0  0  0  0  0  0
  148.8195  137.6719  154.4372 N   0  0  0  0  0  0  0  0  0  0  0  0
  149.5067  138.6638  155.1871 C   0  0  0  0  0  0  0  0  0  0  0  0
  150.6956  139.3017  154.7650 C   0  0  0  0  0  0  0  0  0  0  0  0
  151.2940  140.2582  155.6075 C   0  0  0  0  0  0  0  0  0  0  0  0
  150.6975  140.5534  156.8586 C   0  0  0  0  0  0  0  0  0  0  0  0
  151.2588  141.5075  157.7379 N   0  0  0  0  0  0  0  0  0  0  0  0
  151.8656  141.0710  158.9912 C   0  0  0  0  0  0  0  0  0  0  0  0
  151.3037  142.9149  157.3611 C   0  0  0  0  0  0  0  0  0  0  0  0
  149.5647  139.9275  157.2617 N   0  0  0  0  0  0  0  0  0  0  0  0
  148.9960  139.0105  156.4528 C   0  0  0  0  0  0  0  0  0  0  0  0
  146.2265  134.1454  152.8646 C   0  0  0  0  0  0  0  0  0  0  0  0
  145.9431  131.4153  149.9706 H   0  0  0  0  0  0  0  0  0  0  0  0
  144.7544  132.7040  150.0311 H   0  0  0  0  0  0  0  0  0  0  0  0
  145.3421  131.9765  151.5256 H   0  0  0  0  0  0  0  0  0  0  0  0
  147.6530  132.8112  151.0115 H   0  0  0  0  0  0  0  0  0  0  0  0
  147.0701  133.6459  149.5908 H   0  0  0  0  0  0  0  0  0  0  0  0
  145.4979  135.5368  149.8522 H   0  0  0  0  0  0  0  0  0  0  0  0
  144.4053  134.6619  150.9072 H   0  0  0  0  0  0  0  0  0  0  0  0
  145.9293  137.2394  151.5536 H   0  0  0  0  0  0  0  0  0  0  0  0
  144.2065  137.0935  151.3237 H   0  0  0  0  0  0  0  0  0  0  0  0
  144.8270  137.1998  153.7641 H   0  0  0  0  0  0  0  0  0  0  0  0
  143.9713  135.7354  153.3537 H   0  0  0  0  0  0  0  0  0  0  0  0
  145.8412  135.1189  154.7565 H   0  0  0  0  0  0  0  0  0  0  0  0
  147.9577  136.0545  153.0024 H   0  0  0  0  0  0  0  0  0  0  0  0
  149.3324  137.2912  153.6555 H   0  0  0  0  0  0  0  0  0  0  0  0
  151.1677  139.0688  153.8231 H   0  0  0  0  0  0  0  0  0  0  0  0
  152.2003  140.7427  155.2776 H   0  0  0  0  0  0  0  0  0  0  0  0
  152.7033  140.4003  158.7970 H   0  0  0  0  0  0  0  0  0  0  0  0
  151.1358  140.5454  159.6077 H   0  0  0  0  0  0  0  0  0  0  0  0
  152.2408  141.9161  159.5684 H   0  0  0  0  0  0  0  0  0  0  0  0
  150.2962  143.3050  157.2139 H   0  0  0  0  0  0  0  0  0  0  0  0
  151.8686  143.0470  156.4380 H   0  0  0  0  0  0  0  0  0  0  0  0
  151.7830  143.5171  158.1330 H   0  0  0  0  0  0  0  0  0  0  0  0
  148.0975  138.5432  156.8286 H   0  0  0  0  0  0  0  0  0  0  0  0
  145.3312  133.5274  152.9500 H   0  0  0  0  0  0  0  0  0  0  0  0
  147.0483  133.5388  153.2427 H   0  0  0  0  0  0  0  0  0  0  0  0
  147.2517  135.1044  151.4033 H   0  0  0  0  0  0  0  0  0  0  0  0
  1  2  1  0  0  0  0
  1 22  1  0  0  0  0
  1 23  1  0  0  0  0
  1 24  1  0  0  0  0
  2  3  1  0  0  0  0
  2 25  1  0  0  0  0
  2 26  1  0  0  0  0
  3 21  1  0  0  0  0
  3  4  1  0  0  0  0
  3 47  1  0  0  0  0
  4  5  1  0  0  0  0
  4 27  1  0  0  0  0
  4 28  1  0  0  0  0
  5  6  1  0  0  0  0
  5 29  1  0  0  0  0
  5 30  1  0  0  0  0
  6  7  1  0  0  0  0
  6 31  1  0  0  0  0
  6 32  1  0  0  0  0
  7  8  1  0  0  0  0
  7 21  1  0  0  0  0
  7 33  1  0  0  0  0
  8  9  1  0  0  0  0
  8 34  1  0  0  0  0
  9 10  2  0  0  0  0
  9 11  1  0  0  0  0
 11 12  1  0  0  0  0
 11 35  1  0  0  0  0
 12 20  1  0  0  0  0
 12 13  2  0  0  0  0
 13 14  1  0  0  0  0
 13 36  1  0  0  0  0
 14 15  2  0  0  0  0
 14 37  1  0  0  0  0
 15 16  1  0  0  0  0
 15 19  1  0  0  0  0
 16 17  1  0  0  0  0
 16 18  1  0  0  0  0
 17 38  1  0  0  0  0
 17 39  1  0  0  0  0
 17 40  1  0  0  0  0
 18 41  1  0  0  0  0
 18 42  1  0  0  0  0
 18 43  1  0  0  0  0
 19 20  2  0  0  0  0
 20 44  1  0  0  0  0
 21 45  1  0  0  0  0
 21 46  1  0  0  0  0
M  CHG  1   3   1
M  END
> <s_m_source_file>
AV-unprocessed.smi

> <i_m_source_file_index>
1093

> <i_lp_mmshare_version>
43012

> <i_f3d_flags>
0

> <s_epik_input>
W0NIM11bQ0gyXU4xW0NIMl1bQ0gyXVtDSDJdW0NASF0oW0NIMl0xKVtOSF1DKD1PKVtOSF1jMltjSF1bY0hdYyhOKFtDSDNdKVtDSDNdKW5bY0hdMg==

> <s_epik_cmdline>
J2VwaWtfcHl0aG9uJywgJy1waCcsICc3LjAnLCAnLXRuJywgJzgnLCAnLW1hJywgJzIwMCcsICctbWV0YWxfYmluZGluZycsICctaW1hZScsICc8aW5maWxlLm1hZT4nLCAnLW9tYWUnLCAnPG91dGZpbGUubWFlPic=

> <r_lp_tautomer_probability>
1

> <r_epik_Ionization_Penalty>
0.489418

> <r_epik_Ionization_Penalty_Charging>
0.00268196

> <r_epik_Ionization_Penalty_Neutral>
0.486736

> <r_epik_State_Penalty>
0.491157

> <r_epik_Charging_Adjusted_Penalty>
0.493839

> <i_epik_Tot_Q>
1

> <i_epik_Tot_abs_Q>
1

> <r_epik_Metal_State_Penalty>
0.266953

> <b_epik_Metal_Only>
0

> <s_lp_Force_Field>
OPLS_2005

> <r_lp_Energy>
27.6013

> <b_lp_Chiralities_Consistent>
1

> <s_lp_Variant>
AV-unprocessed.smi:1093-7

> <Gold.Version>
5.8.1

> <Gold.Id.Protein>
6NUR|6NUR_protein|mol2

> <Gold.PLP.Fitness>
38.5017

> <Gold.PLP.PLP>
-30.6930

> <Gold.PLP.part.hbond>
-2.9528

> <Gold.PLP.part.metal>
0.0000

> <Gold.PLP.part.buried>
-1.7450

> <Gold.PLP.part.nonpolar>
-24.1960

> <Gold.PLP.part.repulsive>
0.0855

> <Gold.PLP.ligand.clash>
0.0000

> <Gold.PLP.ligand.torsion>
1.5635

> <Gold.PLP.Chemscore.Hbond>
3.6368

> <Gold.PLP.Chemscore.CHOScore>
0.0000

> <Gold.PLP.Chemscore.Metal>
0.0000

> <Gold.Chemscore.Hbonds>
donor molecule, donor type, donor heavy atom, donor atom, acceptor molecule, acceptor atom, score
      L1  H     3    47       P1  7948  1.95
      L1  H     8    34       P1  7948  0.98
      L1  H    11    35       P1  7948  0.68

> <Gold.PLP.Chemscore.Internal.Correction>
0.0254

> <Gold.Rescore>
     Score         DG    S(hbond)    S(metal)    S(lipo)     H(rot)  DE(clash)    DE(int)     intcor
     15.90     -18.93       2.37        0.00      73.26       1.18       0.15       2.87       ----

> <Gold.Chemscore.Fitness>
15.9039

> <Gold.Chemscore.DG>
-18.9290

> <Gold.Chemscore.ZeroCoef>
-5.4800

> <Gold.Chemscore.Hbond>
2.3681

> <Gold.Chemscore.Metal>
0.0000

> <Gold.Chemscore.Lipo>
73.2584

> <Gold.Chemscore.Internal_Hbond>
0.0000

> <Gold.Chemscore.DEClash>
0.1521

> <Gold.Chemscore.DEInternal>
2.8729

> <Gold.Chemscore.Rot>
1.1842

> <Gold.Chemscore.Internal.Correction>
   9.000000E+99

> <Gold.Chemscore.Hbonds>
donor molecule, donor type, donor heavy atom, donor atom, acceptor molecule, acceptor atom, score
      L1  H     3    47       P1  7948  0.69
      L1  H     8    34       P1  7948  0.91
      L1  H    11    35       P1  7948  0.64

> <Gold.Chemscore.Hbond.Weighted>
-7.9094

> <Gold.Chemscore.Metal.Weighted>
-0.0000

> <Gold.Chemscore.Lipo.Weighted>
-8.5712

> <Gold.Chemscore.Internal_Hbond.Weighted>
0.0000

> <Gold.Chemscore.DEClash.Weighted>
0.1521

> <Gold.Chemscore.DEInternal.Weighted>
2.8729

> <Gold.Chemscore.Rot.Weighted>
3.0317

> <Gold.Chemscore.Internal.Correction.Weighted>
   9.000000E+99

> <Gold.Protein.RotatedTorsions>
[ 6907 6896 6895 6894 ] final  -53.51 input  -60.11 | X-H torsion
[ 7974 7965 7964 7962 ] final  162.76 input  175.53 | X-H torsion
[ 8008 7997 7996 7995 ] final  -19.78 input   59.86 | X-H torsion
[ 10167 10162 10161 10158 ] final  -77.90 input  -65.29 | X-H torsion
[ 10718 10713 10712 10709 ] final  133.30 input   66.30 | X-H torsion
[ 10763 10752 10751 10750 ] final  120.91 input  -60.55 | X-H torsion
[ 11005 11000 10999 10996 ] final  -27.53 input  -57.11 | X-H torsion

> <Gold.Protein.ActiveResidues>
 VAL166  LYS551  ARG553  GLY616  TRP617  ASP618  TYR619  PRO620  LYS621  CYS622 
 ASP623  PHE694  ASN695  SER759  ASP760  ASP761  ALA762  ILE779  LEU786  VAL792 
 PHE793  MET794  SER795  GLU796  ALA797  LYS798  CYS799  TRP800  GLU811  SER814 

> <Gold.Protein.RotatedAtoms>
  150.8421  134.7716  159.6940 H   0  0  0  0  0  0  0  0  0  0  0  0  # atno 6907 bound_to 6896
  152.4506  134.5399  159.9846 H   0  0  0  0  0  0  0  0  0  0  0  0  # atno 6908 bound_to 6896
  151.5537  133.3376  159.2993 H   0  0  0  0  0  0  0  0  0  0  0  0  # atno 6909 bound_to 6896
  144.7621  139.8085  143.6328 H   0  0  0  0  0  0  0  0  0  0  0  0  # atno 7974 bound_to 7965
  154.4813  140.2079  155.9757 H   0  0  0  0  0  0  0  0  0  0  0  0  # atno 8008 bound_to 7997
  156.1169  140.3220  155.8122 H   0  0  0  0  0  0  0  0  0  0  0  0  # atno 8009 bound_to 7997
  155.4536  140.0519  157.2989 H   0  0  0  0  0  0  0  0  0  0  0  0  # atno 8010 bound_to 7997
  140.4729  143.2422  151.8177 H   0  0  0  0  0  0  0  0  0  0  0  0  # atno 10167 bound_to 10162
  157.4787  131.1084  150.9710 H   0  0  0  0  0  0  0  0  0  0  0  0  # atno 10718 bound_to 10713
  153.6058  135.3439  155.2961 H   0  0  0  0  0  0  0  0  0  0  0  0  # atno 10763 bound_to 10752
  154.8628  135.4238  154.2363 H   0  0  0  0  0  0  0  0  0  0  0  0  # atno 10764 bound_to 10752
  153.3202  135.7037  153.7109 H   0  0  0  0  0  0  0  0  0  0  0  0  # atno 10765 bound_to 10752
  140.9128  133.7450  156.0694 H   0  0  0  0  0  0  0  0  0  0  0  0  # atno 11005 bound_to 11000
  146.1695  139.4839  142.9937 LP  0  0  0  0  0  0  0  0  0  0  0  0  # atno 17320 bound_to 7965
  145.6585  141.0246  143.1722 LP  0  0  0  0  0  0  0  0  0  0  0  0  # atno 17321 bound_to 7965
  139.4821  144.4869  151.9235 LP  0  0  0  0  0  0  0  0  0  0  0  0  # atno 17342 bound_to 10162
  140.3954  144.2561  150.5896 LP  0  0  0  0  0  0  0  0  0  0  0  0  # atno 17343 bound_to 10162
  157.0450  130.5764  149.5362 LP  0  0  0  0  0  0  0  0  0  0  0  0  # atno 17370 bound_to 10713
  156.0110  130.5201  150.7988 LP  0  0  0  0  0  0  0  0  0  0  0  0  # atno 17371 bound_to 10713
  140.8088  134.3423  157.5418 LP  0  0  0  0  0  0  0  0  0  0  0  0  # atno 17394 bound_to 11000
  139.8760  134.9242  156.3343 LP  0  0  0  0  0  0  0  0  0  0  0  0  # atno 17395 bound_to 11000

$$$$
