#       Name:                AV-unprocessed.smi:104
#       Creating user name   scv26
#       Creation time:       Thu Mar 26 17:59:52 2020


#       File generated by GOLD software.
#

@<TRIPOS>MOLECULE
AV-unprocessed.smi:104
    58    60     1
SMALL
NO_CHARGES


@<TRIPOS>ATOM
      1 ****        -4.2546   3.0132  -2.0462 C.3            1 S1                 0.0000
      2 ****        -3.8561   1.9396  -1.0423 C.2            1 S1                 0.0000
      3 ****        -4.0272   2.0972   0.1661 O.2            1 S1                 0.0000
      4 ****        -3.3223   0.8578  -1.6352 O.3            1 S1                 0.0000
      5 ****        -2.8652  -0.2439  -0.8621 C.3            1 S1                 0.0000
      6 ****        -1.3430  -0.1667  -0.6479 C.3            1 S1                 0.0000
      7 ****        -0.7927  -1.4526  -0.3657 O.3            1 S1                 0.0000
      8 ****         0.3396  -1.3094   0.4408 C.3            1 S1                 0.0000
      9 ****         1.5233  -1.9303  -0.2279 N.pl3          1 S1                 0.0000
     10 ****         2.5512  -2.6457   0.3423 C.2            1 S1                 0.0000
     11 ****         2.6435  -2.9740   2.2161 Br             1 S1                 0.0000
     12 ****         3.4869  -3.0829  -0.4528 N.2            1 S1                 0.0000
     13 ****         3.0760  -2.6140  -1.6941 C.ar           1 S1                 0.0000
     14 ****         3.6074  -2.7049  -3.0053 C.ar           1 S1                 0.0000
     15 ****         4.7447  -3.3540  -3.2904 N.pl3          1 S1                 0.0000
     16 ****         2.9382  -2.1062  -4.0180 N.ar           1 S1                 0.0000
     17 ****         1.8029  -1.4497  -3.7603 C.ar           1 S1                 0.0000
     18 ****         1.1830  -1.2807  -2.5895 N.ar           1 S1                 0.0000
     19 ****         1.8554  -1.8872  -1.5679 C.ar           1 S1                 0.0000
     20 ****         0.5720   0.1861   0.6439 C.3            1 S1                 0.0000
     21 ****         1.1678   0.4413   1.9090 O.3            1 S1                 0.0000
     22 ****         1.9133   1.5419   2.0935 C.2            1 S1                 0.0000
     23 ****         2.4656   1.6351   3.5092 C.3            1 S1                 0.0000
     24 ****         2.1474   2.4090   1.2518 O.2            1 S1                 0.0000
     25 ****        -0.8411   0.7317   0.4885 C.3            1 S1                 0.0000
     26 ****        -1.6273   0.5113   1.6588 O.3            1 S1                 0.0000
     27 ****        -1.8233   1.4999   2.5504 C.2            1 S1                 0.0000
     28 ****        -2.7029   1.0639   3.7137 C.3            1 S1                 0.0000
     29 ****        -1.3665   2.6408   2.4815 O.2            1 S1                 0.0000
     30 ****        -3.3753   3.5685  -2.3722 H              1 S1                 0.0000
     31 ****        -4.9595   3.7133  -1.5970 H              1 S1                 0.0000
     32 ****        -4.7256   2.5638  -2.9205 H              1 S1                 0.0000
     33 ****        -3.4085  -0.3522   0.0774 H              1 S1                 0.0000
     34 ****        -3.0883  -1.1391  -1.4427 H              1 S1                 0.0000
     35 ****        -0.8816   0.1660  -1.5786 H              1 S1                 0.0000
     36 ****         0.1906  -1.8634   1.3676 H              1 S1                 0.0000
     37 ****         5.2642  -3.8070  -2.5523 H              1 S1                 0.0000
     38 ****         5.0798  -3.3891  -4.2423 H              1 S1                 0.0000
     39 ****         1.3220  -0.9949  -4.6139 H              1 S1                 0.0000
     40 ****         1.1954   0.5471  -0.1766 H              1 S1                 0.0000
     41 ****         3.0976   0.7738   3.7263 H              1 S1                 0.0000
     42 ****         1.6498   1.6584   4.2318 H              1 S1                 0.0000
     43 ****         3.0604   2.5406   3.6301 H              1 S1                 0.0000
     44 ****        -0.8485   1.7818   0.1926 H              1 S1                 0.0000
     45 ****        -2.2490   0.2223   4.2370 H              1 S1                 0.0000
     46 ****        -3.6850   0.7600   3.3510 H              1 S1                 0.0000
     47 ****        -2.8338   1.8821   4.4225 H              1 S1                 0.0000
     48 ****        -4.4356   2.9440   0.5070 LP             1 S1                 0.0000
     49 ****        -3.7579   1.3785   0.8071 LP             1 S1                 0.0000
     50 ****        -0.5370  -1.9008  -1.2223 LP             1 S1                 0.0000
     51 ****        -1.4733  -2.0088   0.1113 LP             1 S1                 0.0000
     52 ****         4.2983  -3.6215  -0.2258 LP             1 S1                 0.0000
     53 ****         3.2907  -2.1547  -4.9525 LP             1 S1                 0.0000
     54 ****         0.3299  -0.7717  -2.4751 LP             1 S1                 0.0000
     55 ****         1.7672   2.3272   0.3305 LP             1 S1                 0.0000
     56 ****         2.7178   3.1953   1.4893 LP             1 S1                 0.0000
     57 ****        -0.7900   2.9027   1.7075 LP             1 S1                 0.0000
     58 ****        -1.5719   3.3059   3.1995 LP             1 S1                 0.0000
@<TRIPOS>BOND
    1    1    2 1     
    2    1   30 1     
    3    1   31 1     
    4    1   32 1     
    5    2    3 2     
    6    2    4 1     
    7    4    5 1     
    8    5    6 1     
    9    5   33 1     
   10    5   34 1     
   11    6   25 1     
   12    6    7 1     
   13    6   35 1     
   14    7    8 1     
   15    8    9 1     
   16    8   20 1     
   17    8   36 1     
   18    9   19 1     
   19    9   10 1     
   20   10   11 1     
   21   10   12 2     
   22   12   13 1     
   23   13   19 ar    
   24   13   14 ar    
   25   14   15 1     
   26   14   16 ar    
   27   15   37 1     
   28   15   38 1     
   29   16   17 ar    
   30   17   18 ar    
   31   17   39 1     
   32   18   19 ar    
   33   20   21 1     
   34   20   25 1     
   35   20   40 1     
   36   21   22 1     
   37   22   23 1     
   38   22   24 2     
   39   23   41 1     
   40   23   42 1     
   41   23   43 1     
   42   25   26 1     
   43   25   44 1     
   44   26   27 1     
   45   27   28 1     
   46   27   29 2     
   47   28   45 1     
   48   28   46 1     
   49   28   47 1     
   50    3   48 1     
   51    3   49 1     
   52    7   50 1     
   53    7   51 1     
   54   12   52 1     
   55   16   53 1     
   56   18   54 1     
   57   24   55 1     
   58   24   56 1     
   59   29   57 1     
   60   29   58 1     
@<TRIPOS>SUBSTRUCTURE
      1 S1             1
@<TRIPOS>SET
LONE_PAIRS      STATIC     ATOMS    <user>   **** ""
11 48 49 50 51 52 53 54 55 56 57 58
DONOR_HYDROGENS      STATIC     ATOMS    <user>   **** ""
2 37 38
ATOM$BLUE        STATIC     ATOMS    COLORGROUP SYSTEM
11 48 49 50 51 52 53 54 55 56 57 58
ATOM$RED        STATIC     ATOMS    COLORGROUP SYSTEM
2 37 38
