AV-unprocessed.smi:829|AV-procd|sdf|3867|dock2
  -GOLD-   22720 1323D 1   1.00000     0.00000
 Structure written by MMmdl.
 49 51  0  0  0  0  0  0  0  0  2 V2000
  145.1552  133.9938  152.5724 O   0  0  0  0  0  0  0  0  0  0  0  0
  146.2685  134.5133  152.5001 C   0  0  0  0  0  0  0  0  0  0  0  0
  147.4377  133.8878  152.7224 N   0  0  0  0  0  0  0  0  0  0  0  0
  147.6643  132.5304  153.0789 C   0  0  0  0  0  0  0  0  0  0  0  0
  146.6394  131.6009  152.8068 C   0  0  0  0  0  0  0  0  0  0  0  0
  146.8336  130.2513  153.1635 C   0  0  0  0  0  0  0  0  0  0  0  0
  147.9528  129.7971  153.7653 N   0  0  0  0  0  0  0  0  0  0  0  0
  148.9268  130.6909  154.0390 C   0  0  0  0  0  0  0  0  0  0  0  0
  148.8341  132.0615  153.7240 C   0  0  0  0  0  0  0  0  0  0  0  0
  146.4589  135.8082  152.2058 N   0  0  0  0  0  0  0  0  0  0  0  0
  145.3969  136.7741  151.9247 C   0  0  2  0  0  0  0  0  0  0  0  0
  145.9620  137.9987  151.1832 C   0  0  0  0  0  0  0  0  0  0  0  0
  146.8150  138.8943  152.1016 C   0  0  0  0  0  0  0  0  0  0  0  0
  146.0536  139.3078  153.3088 N   0  3  2  0  0  0  0  0  0  0  0  0
  146.7830  140.2967  154.1445 C   0  0  0  0  0  0  0  0  0  0  0  0
  148.3096  140.0926  154.0803 C   0  0  0  0  0  0  0  0  0  0  0  0
  148.7444  138.6767  154.4661 C   0  0  0  0  0  0  0  0  0  0  0  0
  150.2405  138.7965  154.7662 C   0  0  0  0  0  0  0  0  0  0  0  0
  150.4640  140.2433  155.2274 C   0  0  0  0  0  0  0  0  0  0  0  0
  149.1275  140.9705  155.0350 C   0  0  0  0  0  0  0  0  0  0  0  0
  145.5775  138.1294  154.0788 C   0  0  0  0  0  0  0  0  0  0  0  0
  144.6798  137.2316  153.2110 C   0  0  0  0  0  0  0  0  0  0  0  0
  148.2632  134.4679  152.6956 H   0  0  0  0  0  0  0  0  0  0  0  0
  145.7213  131.9089  152.3283 H   0  0  0  0  0  0  0  0  0  0  0  0
  146.0674  129.5175  152.9614 H   0  0  0  0  0  0  0  0  0  0  0  0
  149.8067  130.3031  154.5303 H   0  0  0  0  0  0  0  0  0  0  0  0
  149.6476  132.7173  153.9927 H   0  0  0  0  0  0  0  0  0  0  0  0
  147.4083  136.1492  152.1658 H   0  0  0  0  0  0  0  0  0  0  0  0
  144.6702  136.2890  151.2703 H   0  0  0  0  0  0  0  0  0  0  0  0
  146.5464  137.6822  150.3182 H   0  0  0  0  0  0  0  0  0  0  0  0
  145.1335  138.5878  150.7871 H   0  0  0  0  0  0  0  0  0  0  0  0
  147.7258  138.3748  152.4038 H   0  0  0  0  0  0  0  0  0  0  0  0
  147.1252  139.7780  151.5426 H   0  0  0  0  0  0  0  0  0  0  0  0
  146.5062  141.3165  153.8720 H   0  0  0  0  0  0  0  0  0  0  0  0
  146.4815  140.1809  155.1868 H   0  0  0  0  0  0  0  0  0  0  0  0
  148.6514  140.2774  153.0601 H   0  0  0  0  0  0  0  0  0  0  0  0
  148.2171  138.3560  155.3660 H   0  0  0  0  0  0  0  0  0  0  0  0
  148.5369  137.9462  153.6832 H   0  0  0  0  0  0  0  0  0  0  0  0
  150.5649  138.0701  155.5118 H   0  0  0  0  0  0  0  0  0  0  0  0
  150.8151  138.6112  153.8577 H   0  0  0  0  0  0  0  0  0  0  0  0
  150.7826  140.2869  156.2694 H   0  0  0  0  0  0  0  0  0  0  0  0
  151.2468  140.7104  154.6286 H   0  0  0  0  0  0  0  0  0  0  0  0
  149.2666  141.9826  154.6538 H   0  0  0  0  0  0  0  0  0  0  0  0
  148.6203  141.0458  155.9979 H   0  0  0  0  0  0  0  0  0  0  0  0
  146.4336  137.5632  154.4490 H   0  0  0  0  0  0  0  0  0  0  0  0
  145.0164  138.4499  154.9550 H   0  0  0  0  0  0  0  0  0  0  0  0
  143.7802  137.7861  152.9403 H   0  0  0  0  0  0  0  0  0  0  0  0
  144.3379  136.3735  153.7906 H   0  0  0  0  0  0  0  0  0  0  0  0
  145.2322  139.7852  152.9662 H   0  0  0  0  0  0  0  0  0  0  0  0
  1  2  2  0  0  0  0
  2  3  1  0  0  0  0
  2 10  1  0  0  0  0
  3  4  1  0  0  0  0
  3 23  1  0  0  0  0
  4  9  1  0  0  0  0
  4  5  2  0  0  0  0
  5  6  1  0  0  0  0
  5 24  1  0  0  0  0
  6  7  2  0  0  0  0
  6 25  1  0  0  0  0
  7  8  1  0  0  0  0
  8  9  2  0  0  0  0
  8 26  1  0  0  0  0
  9 27  1  0  0  0  0
 10 11  1  0  0  0  0
 10 28  1  0  0  0  0
 11 22  1  0  0  0  0
 11 12  1  0  0  0  0
 11 29  1  0  0  0  0
 12 13  1  0  0  0  0
 12 30  1  0  0  0  0
 12 31  1  0  0  0  0
 13 14  1  0  0  0  0
 13 32  1  0  0  0  0
 13 33  1  0  0  0  0
 14 15  1  0  0  0  0
 14 21  1  0  0  0  0
 14 49  1  0  0  0  0
 15 16  1  0  0  0  0
 15 34  1  0  0  0  0
 15 35  1  0  0  0  0
 16 20  1  0  0  0  0
 16 17  1  0  0  0  0
 16 36  1  0  0  0  0
 17 18  1  0  0  0  0
 17 37  1  0  0  0  0
 17 38  1  0  0  0  0
 18 19  1  0  0  0  0
 18 39  1  0  0  0  0
 18 40  1  0  0  0  0
 19 20  1  0  0  0  0
 19 41  1  0  0  0  0
 19 42  1  0  0  0  0
 20 43  1  0  0  0  0
 20 44  1  0  0  0  0
 21 22  1  0  0  0  0
 21 45  1  0  0  0  0
 21 46  1  0  0  0  0
 22 47  1  0  0  0  0
 22 48  1  0  0  0  0
M  CHG  1  14   1
M  END
> <s_m_source_file>
AV-unprocessed.smi

> <i_m_source_file_index>
829

> <i_lp_mmshare_version>
43012

> <i_f3d_flags>
0

> <s_epik_input>
W2NIXTFbY0hdbltjSF1bY0hdYzFbTkhdQyg9TylbTkhdW0NIXTJbQ0gyXVtDSDJdTihbQ0gyXVtDSDJdMilbQ0gyXVtDSF0zW0NIMl1bQ0gyXVtDSDJdW0NIMl0z

> <s_epik_cmdline>
J2VwaWtfcHl0aG9uJywgJy1waCcsICc3LjAnLCAnLXRuJywgJzgnLCAnLW1hJywgJzIwMCcsICctbWV0YWxfYmluZGluZycsICctaW1hZScsICc8aW5maWxlLm1hZT4nLCAnLW9tYWUnLCAnPG91dGZpbGUubWFlPic=

> <r_epik_Ionization_Penalty>
0.101981

> <r_epik_Ionization_Penalty_Charging>
0.00207989

> <r_epik_Ionization_Penalty_Neutral>
0.0999008

> <r_epik_State_Penalty>
0.0935668

> <r_epik_Charging_Adjusted_Penalty>
0.0956467

> <i_epik_Tot_Q>
1

> <i_epik_Tot_abs_Q>
1

> <r_epik_Metal_State_Penalty>
0.0787682

> <b_epik_Metal_Only>
0

> <s_lp_Force_Field>
OPLS_2005

> <r_lp_Energy>
43.3749

> <b_lp_Chiralities_Consistent>
1

> <s_lp_Variant>
AV-unprocessed.smi:829-2

> <Gold.Version>
5.8.1

> <Gold.Id.Protein>
6NUR|6NUR_protein|mol2

> <Gold.PLP.Fitness>
45.2852

> <Gold.PLP.PLP>
-35.3213

> <Gold.PLP.part.hbond>
-2.9340

> <Gold.PLP.part.metal>
0.0000

> <Gold.PLP.part.buried>
4.1844

> <Gold.PLP.part.nonpolar>
-36.9157

> <Gold.PLP.part.repulsive>
0.2130

> <Gold.PLP.ligand.clash>
0.0000

> <Gold.PLP.ligand.torsion>
0.7681

> <Gold.PLP.Chemscore.Hbond>
3.8208

> <Gold.PLP.Chemscore.CHOScore>
0.0000

> <Gold.PLP.Chemscore.Metal>
0.0000

> <Gold.Chemscore.Hbonds>
donor molecule, donor type, donor heavy atom, donor atom, acceptor molecule, acceptor atom, score
      L1  H     3    23       P1  7948  0.82
      L1  H    10    28       P1  7948  1.00
      L1  H    14    49       P1 10175  2.00

> <Gold.PLP.Chemscore.Internal.Correction>
0.0376

> <Gold.Rescore>
     Score         DG    S(hbond)    S(metal)    S(lipo)     H(rot)  DE(clash)    DE(int)     intcor
     16.91     -20.67       2.20        0.00      96.39       1.35       1.60       2.15       ----

> <Gold.Chemscore.Fitness>
16.9147

> <Gold.Chemscore.DG>
-20.6665

> <Gold.Chemscore.ZeroCoef>
-5.4800

> <Gold.Chemscore.Hbond>
2.2015

> <Gold.Chemscore.Metal>
0.0000

> <Gold.Chemscore.Lipo>
96.3935

> <Gold.Chemscore.Internal_Hbond>
0.0000

> <Gold.Chemscore.DEClash>
1.6016

> <Gold.Chemscore.DEInternal>
2.1502

> <Gold.Chemscore.Rot>
1.3455

> <Gold.Chemscore.Internal.Correction>
   9.000000E+99

> <Gold.Chemscore.Hbonds>
donor molecule, donor type, donor heavy atom, donor atom, acceptor molecule, acceptor atom, score
      L1  H     3    23       P1  7948  0.23
      L1  H    10    28       P1  7948  0.96
      L1  H    14    49       P1 10175  1.00

> <Gold.Chemscore.Hbond.Weighted>
-7.3529

> <Gold.Chemscore.Metal.Weighted>
-0.0000

> <Gold.Chemscore.Lipo.Weighted>
-11.2780

> <Gold.Chemscore.Internal_Hbond.Weighted>
0.0000

> <Gold.Chemscore.DEClash.Weighted>
1.6016

> <Gold.Chemscore.DEInternal.Weighted>
2.1502

> <Gold.Chemscore.Rot.Weighted>
3.4445

> <Gold.Chemscore.Internal.Correction.Weighted>
   9.000000E+99

> <Gold.Protein.RotatedTorsions>
[ 6907 6896 6895 6894 ] final  -55.27 input  -60.11 | X-H torsion
[ 7974 7965 7964 7962 ] final   78.23 input  175.53 | X-H torsion
[ 8008 7997 7996 7995 ] final   13.24 input   59.86 | X-H torsion
[ 10167 10162 10161 10158 ] final -137.90 input  -65.29 | X-H torsion
[ 10718 10713 10712 10709 ] final -169.58 input   66.30 | X-H torsion
[ 10763 10752 10751 10750 ] final -122.34 input  -60.55 | X-H torsion
[ 11005 11000 10999 10996 ] final   15.52 input  -57.11 | X-H torsion

> <Gold.Protein.ActiveResidues>
 VAL166  LYS551  ARG553  GLY616  TRP617  ASP618  TYR619  PRO620  LYS621  CYS622 
 ASP623  PHE694  ASN695  SER759  ASP760  ASP761  ALA762  ILE779  LEU786  VAL792 
 PHE793  MET794  SER795  GLU796  ALA797  LYS798  CYS799  TRP800  GLU811  SER814 

> <Gold.Protein.RotatedAtoms>
  150.8266  134.7500  159.6817 H   0  0  0  0  0  0  0  0  0  0  0  0  # atno 6907 bound_to 6896
  152.4376  134.5652  159.9915 H   0  0  0  0  0  0  0  0  0  0  0  0  # atno 6908 bound_to 6896
  151.5823  133.3339  159.3047 H   0  0  0  0  0  0  0  0  0  0  0  0  # atno 6909 bound_to 6896
  145.6798  139.2520  143.1820 H   0  0  0  0  0  0  0  0  0  0  0  0  # atno 7974 bound_to 7965
  154.8317  140.2900  155.5718 H   0  0  0  0  0  0  0  0  0  0  0  0  # atno 8008 bound_to 7997
  156.3006  140.2531  156.3174 H   0  0  0  0  0  0  0  0  0  0  0  0  # atno 8009 bound_to 7997
  154.9224  140.0385  157.1994 H   0  0  0  0  0  0  0  0  0  0  0  0  # atno 8010 bound_to 7997
  139.8532  143.7172  152.2656 H   0  0  0  0  0  0  0  0  0  0  0  0  # atno 10167 bound_to 10162
  156.7137  130.9243  151.3091 H   0  0  0  0  0  0  0  0  0  0  0  0  # atno 10718 bound_to 10713
  154.8687  135.4136  154.2766 H   0  0  0  0  0  0  0  0  0  0  0  0  # atno 10763 bound_to 10752
  153.3666  135.7006  153.6676 H   0  0  0  0  0  0  0  0  0  0  0  0  # atno 10764 bound_to 10752
  153.5555  135.3620  155.2749 H   0  0  0  0  0  0  0  0  0  0  0  0  # atno 10765 bound_to 10752
  140.4573  134.1163  155.7711 H   0  0  0  0  0  0  0  0  0  0  0  0  # atno 11005 bound_to 11000
  146.0974  140.7585  142.9566 LP  0  0  0  0  0  0  0  0  0  0  0  0  # atno 17320 bound_to 7965
  144.7029  140.3732  143.7141 LP  0  0  0  0  0  0  0  0  0  0  0  0  # atno 17321 bound_to 7965
  139.7445  144.7551  151.0601 LP  0  0  0  0  0  0  0  0  0  0  0  0  # atno 17342 bound_to 10162
  140.7785  143.4933  150.9865 LP  0  0  0  0  0  0  0  0  0  0  0  0  # atno 17343 bound_to 10162
  157.6926  130.9249  150.0555 LP  0  0  0  0  0  0  0  0  0  0  0  0  # atno 17370 bound_to 10713
  156.1643  130.3644  149.9254 LP  0  0  0  0  0  0  0  0  0  0  0  0  # atno 17371 bound_to 10713
  141.1637  133.8744  157.1776 LP  0  0  0  0  0  0  0  0  0  0  0  0  # atno 17394 bound_to 11000
  139.9968  135.0044  157.0100 LP  0  0  0  0  0  0  0  0  0  0  0  0  # atno 17395 bound_to 11000

$$$$
