AV-unprocessed.smi:98|AV-procd|sdf|863|dock6
  -GOLD-   2262017313D 1   1.00000     0.00000
 Structure written by MMmdl.
 56 59  0  0  0  0  0  0  0  0  1 V2000
  151.3618  136.2495  155.7862 O   0  0  0  0  0  0  0  0  0  0  0  0
  151.3868  137.1614  156.6136 C   0  0  0  0  0  0  0  0  0  0  0  0
  152.4071  138.3039  156.4840 C   0  0  0  0  0  0  0  0  0  0  0  0
  151.7955  139.6511  156.5082 N   0  0  0  0  0  0  0  0  0  0  0  0
  150.7512  139.9350  155.5932 C   0  0  0  0  0  0  0  0  0  0  0  0
  150.3702  139.0934  154.7782 O   0  0  0  0  0  0  0  0  0  0  0  0
  150.1668  141.2669  155.6979 C   0  0  0  0  0  0  0  0  0  0  0  0
  149.1589  141.6183  154.8817 F   0  0  0  0  0  0  0  0  0  0  0  0
  150.6199  142.1539  156.6075 C   0  0  0  0  0  0  0  0  0  0  0  0
  151.6548  141.8737  157.4777 N   0  0  0  0  0  0  0  0  0  0  0  0
  152.0665  142.9141  158.4934 C   0  0  2  0  0  0  0  0  0  0  0  0
  150.9188  143.3600  159.4190 C   0  0  0  0  0  0  0  0  0  0  0  0
  150.8511  144.8593  159.1783 C   0  0  0  0  0  0  0  0  0  0  0  0
  152.2321  145.1760  158.6149 C   0  0  0  0  0  0  0  0  0  0  0  0
  152.5273  144.0418  157.8149 O   0  0  0  0  0  0  0  0  0  0  0  0
  152.2479  140.5899  157.4665 C   0  0  0  0  0  0  0  0  0  0  0  0
  153.1297  140.2913  158.2733 O   0  0  0  0  0  0  0  0  0  0  0  0
  150.5709  137.2462  157.6803 N   0  0  0  0  0  0  0  0  0  0  0  0
  149.5421  136.3546  158.0892 C   0  0  0  0  0  0  0  0  0  0  0  0
  149.4775  135.1053  157.4358 C   0  0  0  0  0  0  0  0  0  0  0  0
  148.4970  134.1600  157.7926 C   0  0  0  0  0  0  0  0  0  0  0  0
  147.5842  134.4588  158.8226 C   0  0  0  0  0  0  0  0  0  0  0  0
  146.3335  133.2618  159.2788 S   0  0  0  0  0  0  0  0  0  0  0  0
  145.0152  133.9062  159.1699 O   0  0  0  0  0  0  0  0  0  0  0  0
  146.6010  132.0121  158.5496 O   0  0  0  0  0  0  0  0  0  0  0  0
  146.6443  132.9700  160.9658 N   0  0  0  0  0  0  0  0  0  0  0  0
  145.5146  132.8167  161.8992 C   0  0  0  0  0  0  0  0  0  0  0  0
  145.2923  134.1024  162.7156 C   0  0  0  0  0  0  0  0  0  0  0  0
  146.4995  134.4867  163.3579 O   0  0  0  0  0  0  0  0  0  0  0  0
  147.5259  134.7800  162.4209 C   0  0  0  0  0  0  0  0  0  0  0  0
  147.8566  133.5268  161.5909 C   0  0  0  0  0  0  0  0  0  0  0  0
  147.6406  135.6986  159.4882 C   0  0  0  0  0  0  0  0  0  0  0  0
  148.6231  136.6411  159.1292 C   0  0  0  0  0  0  0  0  0  0  0  0
  153.1488  138.1913  157.2762 H   0  0  0  0  0  0  0  0  0  0  0  0
  152.9797  138.1603  155.5660 H   0  0  0  0  0  0  0  0  0  0  0  0
  150.1484  143.1249  156.6479 H   0  0  0  0  0  0  0  0  0  0  0  0
  152.8903  142.4744  159.0577 H   0  0  0  0  0  0  0  0  0  0  0  0
  149.9802  142.8501  159.1999 H   0  0  0  0  0  0  0  0  0  0  0  0
  151.1989  143.1397  160.4496 H   0  0  0  0  0  0  0  0  0  0  0  0
  150.0863  145.0865  158.4353 H   0  0  0  0  0  0  0  0  0  0  0  0
  150.6214  145.4256  160.0810 H   0  0  0  0  0  0  0  0  0  0  0  0
  152.2489  146.0968  158.0316 H   0  0  0  0  0  0  0  0  0  0  0  0
  152.9688  145.2598  159.4154 H   0  0  0  0  0  0  0  0  0  0  0  0
  150.7611  138.0065  158.3169 H   0  0  0  0  0  0  0  0  0  0  0  0
  150.1803  134.8678  156.6501 H   0  0  0  0  0  0  0  0  0  0  0  0
  148.4563  133.2093  157.2818 H   0  0  0  0  0  0  0  0  0  0  0  0
  144.6072  132.5399  161.3632 H   0  0  0  0  0  0  0  0  0  0  0  0
  145.7391  131.9927  162.5770 H   0  0  0  0  0  0  0  0  0  0  0  0
  144.9311  134.9159  162.0866 H   0  0  0  0  0  0  0  0  0  0  0  0
  144.5292  133.9327  163.4752 H   0  0  0  0  0  0  0  0  0  0  0  0
  147.2219  135.6101  161.7832 H   0  0  0  0  0  0  0  0  0  0  0  0
  148.4116  135.1105  162.9636 H   0  0  0  0  0  0  0  0  0  0  0  0
  148.2869  132.7654  162.2420 H   0  0  0  0  0  0  0  0  0  0  0  0
  148.6098  133.7524  160.8364 H   0  0  0  0  0  0  0  0  0  0  0  0
  146.9443  135.9258  160.2820 H   0  0  0  0  0  0  0  0  0  0  0  0
  148.6594  137.5709  159.6751 H   0  0  0  0  0  0  0  0  0  0  0  0
  1  2  2  0  0  0  0
  2  3  1  0  0  0  0
  2 18  1  0  0  0  0
  3  4  1  0  0  0  0
  3 34  1  0  0  0  0
  3 35  1  0  0  0  0
  4 16  1  0  0  0  0
  4  5  1  0  0  0  0
  5  6  2  0  0  0  0
  5  7  1  0  0  0  0
  7  8  1  0  0  0  0
  7  9  2  0  0  0  0
  9 10  1  0  0  0  0
  9 36  1  0  0  0  0
 10 11  1  0  0  0  0
 10 16  1  0  0  0  0
 11 15  1  0  0  0  0
 11 12  1  0  0  0  0
 11 37  1  0  0  0  0
 12 13  1  0  0  0  0
 12 38  1  0  0  0  0
 12 39  1  0  0  0  0
 13 14  1  0  0  0  0
 13 40  1  0  0  0  0
 13 41  1  0  0  0  0
 14 15  1  0  0  0  0
 14 42  1  0  0  0  0
 14 43  1  0  0  0  0
 16 17  2  0  0  0  0
 18 19  1  0  0  0  0
 18 44  1  0  0  0  0
 19 33  1  0  0  0  0
 19 20  2  0  0  0  0
 20 21  1  0  0  0  0
 20 45  1  0  0  0  0
 21 22  2  0  0  0  0
 21 46  1  0  0  0  0
 22 23  1  0  0  0  0
 22 32  1  0  0  0  0
 23 24  2  0  0  0  0
 23 25  2  0  0  0  0
 23 26  1  0  0  0  0
 26 31  1  0  0  0  0
 26 27  1  0  0  0  0
 27 28  1  0  0  0  0
 27 47  1  0  0  0  0
 27 48  1  0  0  0  0
 28 29  1  0  0  0  0
 28 49  1  0  0  0  0
 28 50  1  0  0  0  0
 29 30  1  0  0  0  0
 30 31  1  0  0  0  0
 30 51  1  0  0  0  0
 30 52  1  0  0  0  0
 31 53  1  0  0  0  0
 31 54  1  0  0  0  0
 32 33  2  0  0  0  0
 32 55  1  0  0  0  0
 33 56  1  0  0  0  0
M  END
> <s_m_source_file>
AV-unprocessed.smi

> <i_m_source_file_index>
98

> <i_lp_mmshare_version>
43012

> <i_f3d_flags>
0

> <s_epik_input>
TzFbQ0gyXVtDSDJdW0NIMl1bQ0BIXTFuKGMyPU8pW2NIXWMoRiljKD1PKW4yW0NIMl1DKD1PKVtOSF1jM1tjSF1bY0hdYyhbY0hdW2NIXTMpUyg9TykoPU8pTjRbQ0gyXVtDSDJdT1tDSDJdW0NIMl00

> <s_epik_cmdline>
J2VwaWtfcHl0aG9uJywgJy1waCcsICc3LjAnLCAnLXRuJywgJzgnLCAnLW1hJywgJzIwMCcsICctbWV0YWxfYmluZGluZycsICctaW1hZScsICc8aW5maWxlLm1hZT4nLCAnLW9tYWUnLCAnPG91dGZpbGUubWFlPic=

> <r_lp_tautomer_probability>
1

> <r_epik_Ionization_Penalty>
1.9271e-06

> <r_epik_Ionization_Penalty_Charging>
3.88729e-08

> <r_epik_Ionization_Penalty_Neutral>
1.88823e-06

> <r_epik_State_Penalty>
-0

> <r_epik_Charging_Adjusted_Penalty>
3.88729e-08

> <i_epik_Tot_Q>
0

> <i_epik_Tot_abs_Q>
0

> <r_epik_Metal_State_Penalty>
-0

> <b_epik_Metal_Only>
0

> <s_epik_Chemistry_Notes>
This compound contains an acetal/aminal-like group ( X-CH(R)-Y where X, Y are N, S, or O) that may be acid/base labile, releasing an aldehyde.

> <s_lp_Force_Field>
OPLS_2005

> <r_lp_Energy>
27.1293

> <b_lp_Chiralities_Consistent>
1

> <s_lp_Variant>
AV-unprocessed.smi:98-1

> <Gold.Version>
5.8.1

> <Gold.Id.Protein>
6NUR|6NUR_protein|mol2

> <Gold.PLP.Fitness>
56.2967

> <Gold.PLP.PLP>
-48.2084

> <Gold.PLP.part.hbond>
-3.0000

> <Gold.PLP.part.metal>
0.0000

> <Gold.PLP.part.buried>
-4.7624

> <Gold.PLP.part.nonpolar>
-40.3359

> <Gold.PLP.part.repulsive>
0.2765

> <Gold.PLP.ligand.clash>
0.0000

> <Gold.PLP.ligand.torsion>
2.3624

> <Gold.PLP.Chemscore.Hbond>
1.8960

> <Gold.PLP.Chemscore.CHOScore>
1.0000

> <Gold.PLP.Chemscore.Metal>
0.0000

> <Gold.Chemscore.Hbonds>
donor molecule, donor type, donor heavy atom, donor atom, acceptor molecule, acceptor atom, score
      P1  H  7997  8010       L1    17  0.88
      P1  H 10752 10765       L1     1  1.00
      L1  C     9    36       P1  8028  1.00

> <Gold.PLP.Chemscore.Internal.Correction>
4.1252

> <Gold.Rescore>
     Score         DG    S(hbond)    S(metal)    S(lipo)     H(rot)  DE(clash)    DE(int)     intcor
     10.17     -16.11       1.04        0.00      97.68       1.67       0.17       5.76       ----

> <Gold.Chemscore.Fitness>
10.1703

> <Gold.Chemscore.DG>
-16.1072

> <Gold.Chemscore.ZeroCoef>
-5.4800

> <Gold.Chemscore.Hbond>
1.0435

> <Gold.Chemscore.Metal>
0.0000

> <Gold.Chemscore.Lipo>
97.6790

> <Gold.Chemscore.Internal_Hbond>
0.0000

> <Gold.Chemscore.DEClash>
0.1721

> <Gold.Chemscore.DEInternal>
5.7648

> <Gold.Chemscore.Rot>
1.6744

> <Gold.Chemscore.Internal.Correction>
   9.000000E+99

> <Gold.Chemscore.Hbonds>
donor molecule, donor type, donor heavy atom, donor atom, acceptor molecule, acceptor atom, score
      P1  H  7997  8010       L1    17  0.26
      P1  H 10752 10765       L1     1  0.93

> <Gold.Chemscore.Hbond.Weighted>
-3.4852

> <Gold.Chemscore.Metal.Weighted>
-0.0000

> <Gold.Chemscore.Lipo.Weighted>
-11.4284

> <Gold.Chemscore.Internal_Hbond.Weighted>
0.0000

> <Gold.Chemscore.DEClash.Weighted>
0.1721

> <Gold.Chemscore.DEInternal.Weighted>
5.7648

> <Gold.Chemscore.Rot.Weighted>
4.2865

> <Gold.Chemscore.Internal.Correction.Weighted>
   9.000000E+99

> <Gold.Protein.RotatedTorsions>
[ 6907 6896 6895 6894 ] final   24.28 input  -60.11 | X-H torsion
[ 7974 7965 7964 7962 ] final   52.17 input  175.53 | X-H torsion
[ 8008 7997 7996 7995 ] final   28.75 input   59.86 | X-H torsion
[ 10167 10162 10161 10158 ] final -163.14 input  -65.29 | X-H torsion
[ 10718 10713 10712 10709 ] final  -18.45 input   66.30 | X-H torsion
[ 10763 10752 10751 10750 ] final -162.18 input  -60.55 | X-H torsion
[ 11005 11000 10999 10996 ] final  176.14 input  -57.11 | X-H torsion

> <Gold.Protein.ActiveResidues>
 VAL166  LYS551  ARG553  GLY616  TRP617  ASP618  TYR619  PRO620  LYS621  CYS622 
 ASP623  PHE694  ASN695  SER759  ASP760  ASP761  ALA762  ILE779  LEU786  VAL792 
 PHE793  MET794  SER795  GLU796  ALA797  LYS798  CYS799  TRP800  GLU811  SER814 

> <Gold.Protein.RotatedAtoms>
  151.9551  135.0150  160.0544 H   0  0  0  0  0  0  0  0  0  0  0  0  # atno 6907 bound_to 6896
  152.1919  133.4774  159.5020 H   0  0  0  0  0  0  0  0  0  0  0  0  # atno 6908 bound_to 6896
  150.6937  134.1619  159.4222 H   0  0  0  0  0  0  0  0  0  0  0  0  # atno 6909 bound_to 6896
  145.9840  139.4271  143.0114 H   0  0  0  0  0  0  0  0  0  0  0  0  # atno 7974 bound_to 7965
  155.0637  140.3193  155.4652 H   0  0  0  0  0  0  0  0  0  0  0  0  # atno 8008 bound_to 7997
  156.2807  140.2124  156.5708 H   0  0  0  0  0  0  0  0  0  0  0  0  # atno 8009 bound_to 7997
  154.7111  140.0498  157.0539 H   0  0  0  0  0  0  0  0  0  0  0  0  # atno 8010 bound_to 7997
  139.6342  144.0382  152.2040 H   0  0  0  0  0  0  0  0  0  0  0  0  # atno 10167 bound_to 10162
  156.5594  130.4721  149.6414 H   0  0  0  0  0  0  0  0  0  0  0  0  # atno 10718 bound_to 10713
  154.7238  135.3031  154.9005 H   0  0  0  0  0  0  0  0  0  0  0  0  # atno 10763 bound_to 10752
  153.9868  135.6723  153.4756 H   0  0  0  0  0  0  0  0  0  0  0  0  # atno 10764 bound_to 10752
  153.0857  135.4985  154.8510 H   0  0  0  0  0  0  0  0  0  0  0  0  # atno 10765 bound_to 10752
  140.3699  134.7039  157.4385 H   0  0  0  0  0  0  0  0  0  0  0  0  # atno 11005 bound_to 11000
  145.7728  140.9889  143.1140 LP  0  0  0  0  0  0  0  0  0  0  0  0  # atno 17320 bound_to 7965
  144.6869  139.9468  143.7477 LP  0  0  0  0  0  0  0  0  0  0  0  0  # atno 17321 bound_to 7965
  140.0055  144.6262  150.7692 LP  0  0  0  0  0  0  0  0  0  0  0  0  # atno 17342 bound_to 10162
  140.7456  143.2878  151.3415 LP  0  0  0  0  0  0  0  0  0  0  0  0  # atno 17343 bound_to 10162
  156.2813  130.7072  151.1897 LP  0  0  0  0  0  0  0  0  0  0  0  0  # atno 17370 bound_to 10713
  157.7371  131.0555  150.5372 LP  0  0  0  0  0  0  0  0  0  0  0  0  # atno 17371 bound_to 10713
  140.0560  134.6063  155.8804 LP  0  0  0  0  0  0  0  0  0  0  0  0  # atno 17394 bound_to 11000
  141.1958  133.6588  156.5660 LP  0  0  0  0  0  0  0  0  0  0  0  0  # atno 17395 bound_to 11000

$$$$
