AV-unprocessed.smi:836|AV-procd|sdf|3890|dock8
  -GOLD-   22720 1343D 1   1.00000     0.00000
 Structure written by MMmdl.
 38 39  0  0  0  0  0  0  0  0  1 V2000
  151.3809  145.2380  158.9974 C   0  0  0  0  0  0  0  0  0  0  0  0
  151.8132  143.9128  159.6407 C   0  0  2  0  0  0  0  0  0  0  0  0
  151.9941  144.0584  161.1636 C   0  0  0  0  0  0  0  0  0  0  0  0
  152.4285  142.7344  161.8122 C   0  0  0  0  0  0  0  0  0  0  0  0
  153.7153  142.1850  161.1651 C   0  0  1  0  0  0  0  0  0  0  0  0
  154.0657  140.8894  161.7372 N   0  0  0  0  0  0  0  0  0  0  0  0
  155.2247  140.2395  161.5468 C   0  0  0  0  0  0  0  0  0  0  0  0
  156.1488  140.6831  160.8656 O   0  0  0  0  0  0  0  0  0  0  0  0
  155.3673  138.8818  162.2374 C   0  0  0  0  0  0  0  0  0  0  0  0
  155.3697  139.0210  163.6834 N   0  0  0  0  0  0  0  0  0  0  0  0
  155.1740  138.0468  164.6386 C   0  0  0  0  0  0  0  0  0  0  0  0
  155.2546  138.6538  165.8587 C   0  0  0  0  0  0  0  0  0  0  0  0
  155.5059  140.0224  165.5501 C   0  0  0  0  0  0  0  0  0  0  0  0
  155.6858  141.1773  166.4996 C   0  0  0  0  0  0  0  0  0  0  0  0
  155.6730  142.3314  165.8325 F   0  0  0  0  0  0  0  0  0  0  0  0
  154.6991  141.1886  167.3956 F   0  0  0  0  0  0  0  0  0  0  0  0
  156.8510  141.0631  167.1368 F   0  0  0  0  0  0  0  0  0  0  0  0
  155.5745  140.2332  164.2425 N   0  0  0  0  0  0  0  0  0  0  0  0
  153.5399  142.0425  159.6422 C   0  0  0  0  0  0  0  0  0  0  0  0
  153.1029  143.3681  158.9980 C   0  0  0  0  0  0  0  0  0  0  0  0
  152.1333  146.0136  159.1428 H   0  0  0  0  0  0  0  0  0  0  0  0
  150.4455  145.5968  159.4276 H   0  0  0  0  0  0  0  0  0  0  0  0
  151.2259  145.1209  157.9245 H   0  0  0  0  0  0  0  0  0  0  0  0
  151.0173  143.1878  159.4642 H   0  0  0  0  0  0  0  0  0  0  0  0
  152.7397  144.8261  161.3751 H   0  0  0  0  0  0  0  0  0  0  0  0
  151.0638  144.3990  161.6194 H   0  0  0  0  0  0  0  0  0  0  0  0
  152.5798  142.8858  162.8816 H   0  0  0  0  0  0  0  0  0  0  0  0
  151.6244  142.0037  161.7145 H   0  0  0  0  0  0  0  0  0  0  0  0
  154.5312  142.8874  161.3475 H   0  0  0  0  0  0  0  0  0  0  0  0
  153.3663  140.4428  162.3130 H   0  0  0  0  0  0  0  0  0  0  0  0
  154.5424  138.2279  161.9512 H   0  0  0  0  0  0  0  0  0  0  0  0
  156.2894  138.3962  161.9137 H   0  0  0  0  0  0  0  0  0  0  0  0
  154.9929  137.0157  164.3728 H   0  0  0  0  0  0  0  0  0  0  0  0
  155.1482  138.1904  166.8285 H   0  0  0  0  0  0  0  0  0  0  0  0
  154.4729  141.7049  159.1893 H   0  0  0  0  0  0  0  0  0  0  0  0
  152.7959  141.2745  159.4256 H   0  0  0  0  0  0  0  0  0  0  0  0
  152.9533  143.2209  157.9280 H   0  0  0  0  0  0  0  0  0  0  0  0
  153.9038  144.1019  159.0988 H   0  0  0  0  0  0  0  0  0  0  0  0
  1  2  1  0  0  0  0
  1 21  1  0  0  0  0
  1 22  1  0  0  0  0
  1 23  1  0  0  0  0
  2 20  1  0  0  0  0
  2  3  1  0  0  0  0
  2 24  1  0  0  0  0
  3  4  1  0  0  0  0
  3 25  1  0  0  0  0
  3 26  1  0  0  0  0
  4  5  1  0  0  0  0
  4 27  1  0  0  0  0
  4 28  1  0  0  0  0
  5  6  1  0  0  0  0
  5 19  1  0  0  0  0
  5 29  1  0  0  0  0
  6  7  1  0  0  0  0
  6 30  1  0  0  0  0
  7  8  2  0  0  0  0
  7  9  1  0  0  0  0
  9 10  1  0  0  0  0
  9 31  1  0  0  0  0
  9 32  1  0  0  0  0
 10 18  1  0  0  0  0
 10 11  1  0  0  0  0
 11 12  2  0  0  0  0
 11 33  1  0  0  0  0
 12 13  1  0  0  0  0
 12 34  1  0  0  0  0
 13 14  1  0  0  0  0
 13 18  2  0  0  0  0
 14 15  1  0  0  0  0
 14 16  1  0  0  0  0
 14 17  1  0  0  0  0
 19 20  1  0  0  0  0
 19 35  1  0  0  0  0
 19 36  1  0  0  0  0
 20 37  1  0  0  0  0
 20 38  1  0  0  0  0
M  END
> <s_m_source_file>
AV-unprocessed.smi

> <i_m_source_file_index>
836

> <i_lp_mmshare_version>
43012

> <i_f3d_flags>
0

> <s_epik_input>
W0NIM11bQ0BASF0xW0NIMl1bQ0gyXVtDQEhdKFtDSDJdW0NIMl0xKVtOSF1DKD1PKVtDSDJdbjJbY0hdW2NIXWMobjIpQyhGKShGKUY=

> <s_epik_cmdline>
J2VwaWtfcHl0aG9uJywgJy1waCcsICc3LjAnLCAnLXRuJywgJzgnLCAnLW1hJywgJzIwMCcsICctbWV0YWxfYmluZGluZycsICctaW1hZScsICc8aW5maWxlLm1hZT4nLCAnLW9tYWUnLCAnPG91dGZpbGUubWFlPic=

> <r_lp_tautomer_probability>
1

> <r_epik_Ionization_Penalty>
8.28749e-08

> <r_epik_Ionization_Penalty_Charging>
0

> <r_epik_Ionization_Penalty_Neutral>
8.28749e-08

> <r_epik_State_Penalty>
-0

> <r_epik_Charging_Adjusted_Penalty>
0

> <i_epik_Tot_Q>
0

> <i_epik_Tot_abs_Q>
0

> <r_epik_Metal_State_Penalty>
-0

> <b_epik_Metal_Only>
0

> <s_lp_Force_Field>
OPLS_2005

> <r_lp_Energy>
10.955

> <b_lp_Chiralities_Consistent>
1

> <s_lp_Variant>
AV-unprocessed.smi:836-1

> <Gold.Version>
5.8.1

> <Gold.Id.Protein>
6NUR|6NUR_protein|mol2

> <Gold.PLP.Fitness>
45.9960

> <Gold.PLP.PLP>
-47.2664

> <Gold.PLP.part.hbond>
-1.0000

> <Gold.PLP.part.metal>
0.0000

> <Gold.PLP.part.buried>
-6.7726

> <Gold.PLP.part.nonpolar>
-39.0860

> <Gold.PLP.part.repulsive>
0.0051

> <Gold.PLP.ligand.clash>
0.0000

> <Gold.PLP.ligand.torsion>
0.6377

> <Gold.PLP.Chemscore.Hbond>
0.0000

> <Gold.PLP.Chemscore.CHOScore>
0.0000

> <Gold.PLP.Chemscore.Metal>
0.0000

> <Gold.PLP.Chemscore.Internal.Correction>
0.0050

> <Gold.Rescore>
     Score         DG    S(hbond)    S(metal)    S(lipo)     H(rot)  DE(clash)    DE(int)     intcor
     12.50     -14.08       0.00        0.00     107.24       1.54       0.11       1.46       ----

> <Gold.Chemscore.Fitness>
12.5034

> <Gold.Chemscore.DG>
-14.0796

> <Gold.Chemscore.ZeroCoef>
-5.4800

> <Gold.Chemscore.Hbond>
0.0000

> <Gold.Chemscore.Metal>
0.0000

> <Gold.Chemscore.Lipo>
107.2442

> <Gold.Chemscore.Internal_Hbond>
0.0000

> <Gold.Chemscore.DEClash>
0.1124

> <Gold.Chemscore.DEInternal>
1.4638

> <Gold.Chemscore.Rot>
1.5422

> <Gold.Chemscore.Internal.Correction>
   9.000000E+99

> <Gold.Chemscore.Hbond.Weighted>
-0.0000

> <Gold.Chemscore.Metal.Weighted>
-0.0000

> <Gold.Chemscore.Lipo.Weighted>
-12.5476

> <Gold.Chemscore.Internal_Hbond.Weighted>
0.0000

> <Gold.Chemscore.DEClash.Weighted>
0.1124

> <Gold.Chemscore.DEInternal.Weighted>
1.4638

> <Gold.Chemscore.Rot.Weighted>
3.9479

> <Gold.Chemscore.Internal.Correction.Weighted>
   9.000000E+99

> <Gold.Protein.RotatedTorsions>
[ 6907 6896 6895 6894 ] final   82.39 input  -60.11 | X-H torsion
[ 7974 7965 7964 7962 ] final   83.26 input  175.53 | X-H torsion
[ 8008 7997 7996 7995 ] final   60.27 input   59.86 | X-H torsion
[ 10167 10162 10161 10158 ] final  127.61 input  -65.29 | X-H torsion
[ 10718 10713 10712 10709 ] final  -86.16 input   66.30 | X-H torsion
[ 10763 10752 10751 10750 ] final  -72.99 input  -60.55 | X-H torsion
[ 11005 11000 10999 10996 ] final  169.98 input  -57.11 | X-H torsion

> <Gold.Protein.ActiveResidues>
 VAL166  LYS551  ARG553  GLY616  TRP617  ASP618  TYR619  PRO620  LYS621  CYS622 
 ASP623  PHE694  ASN695  SER759  ASP760  ASP761  ALA762  ILE779  LEU786  VAL792 
 PHE793  MET794  SER795  GLU796  ALA797  LYS798  CYS799  TRP800  GLU811  SER814 

> <Gold.Protein.RotatedAtoms>
  152.5298  134.3056  159.9094 H   0  0  0  0  0  0  0  0  0  0  0  0  # atno 6907 bound_to 6896
  151.3006  133.4117  159.2647 H   0  0  0  0  0  0  0  0  0  0  0  0  # atno 6908 bound_to 6896
  151.0122  134.9422  159.8070 H   0  0  0  0  0  0  0  0  0  0  0  0  # atno 6909 bound_to 6896
  145.6143  139.2374  143.2174 H   0  0  0  0  0  0  0  0  0  0  0  0  # atno 7974 bound_to 7965
  155.5796  140.3491  155.4537 H   0  0  0  0  0  0  0  0  0  0  0  0  # atno 8008 bound_to 7997
  156.0383  140.1290  157.0209 H   0  0  0  0  0  0  0  0  0  0  0  0  # atno 8009 bound_to 7997
  154.4381  140.1029  156.6185 H   0  0  0  0  0  0  0  0  0  0  0  0  # atno 8010 bound_to 7997
  139.5569  144.6855  151.4155 H   0  0  0  0  0  0  0  0  0  0  0  0  # atno 10167 bound_to 10162
  155.9991  130.4755  150.4672 H   0  0  0  0  0  0  0  0  0  0  0  0  # atno 10718 bound_to 10713
  154.4533  135.5912  153.6206 H   0  0  0  0  0  0  0  0  0  0  0  0  # atno 10763 bound_to 10752
  152.9816  135.6026  154.3577 H   0  0  0  0  0  0  0  0  0  0  0  0  # atno 10764 bound_to 10752
  154.3441  135.2841  155.2386 H   0  0  0  0  0  0  0  0  0  0  0  0  # atno 10765 bound_to 10752
  140.3035  134.7576  157.3935 H   0  0  0  0  0  0  0  0  0  0  0  0  # atno 11005 bound_to 11000
  146.1480  140.6965  142.9335 LP  0  0  0  0  0  0  0  0  0  0  0  0  # atno 17320 bound_to 7965
  144.7257  140.4516  143.6975 LP  0  0  0  0  0  0  0  0  0  0  0  0  # atno 17321 bound_to 7965
  140.6844  143.8009  150.7165 LP  0  0  0  0  0  0  0  0  0  0  0  0  # atno 17342 bound_to 10162
  140.1472  143.4389  152.2155 LP  0  0  0  0  0  0  0  0  0  0  0  0  # atno 17343 bound_to 10162
  157.2690  131.0583  151.2272 LP  0  0  0  0  0  0  0  0  0  0  0  0  # atno 17370 bound_to 10713
  157.3359  130.7008  149.6352 LP  0  0  0  0  0  0  0  0  0  0  0  0  # atno 17371 bound_to 10713
  140.1088  134.5373  155.8285 LP  0  0  0  0  0  0  0  0  0  0  0  0  # atno 17394 bound_to 11000
  141.2123  133.6718  156.6650 LP  0  0  0  0  0  0  0  0  0  0  0  0  # atno 17395 bound_to 11000

$$$$
