#       Name:                AV-unprocessed.smi:1485
#       Creating user name   scv26
#       Creation time:       Fri Mar 27 06:09:48 2020


#       File generated by GOLD software.
#

@<TRIPOS>MOLECULE
AV-unprocessed.smi:1485
    51    52     1
SMALL
NO_CHARGES


@<TRIPOS>ATOM
      1 ****        -2.8724   3.3523  -2.9672 C.3            1 S1                 0.0000
      2 ****        -2.4752   2.0180  -2.7066 O.3            1 S1                 0.0000
      3 ****        -2.8639   1.1240  -3.7369 C.3            1 S1                 0.0000
      4 ****        -2.3770  -0.2938  -3.3948 C.3            1 S1                 0.0000
      5 ****        -0.9126  -0.3864  -3.4015 N.am           1 S1                 0.0000
      6 ****        -0.3378  -0.3059  -2.1444 N.2            1 S1                 0.0000
      7 ****         0.9476  -0.3685  -2.0109 C.2            1 S1                 0.0000
      8 ****         1.6028  -0.2862  -0.6763 C.2            1 S1                 0.0000
      9 ****         2.8233  -0.3910  -0.5425 O.2            1 S1                 0.0000
     10 ****         0.7679  -0.0933   0.3607 N.am           1 S1                 0.0000
     11 ****         1.1631   0.0176   1.7609 C.3            1 S1                 0.0000
     12 ****         0.1477   0.8975   2.5117 C.3            1 S1                 0.0000
     13 ****         0.4855   0.9876   4.0074 C.3            1 S1                 0.0000
     14 ****         0.5779  -0.4085   4.6427 C.3            1 S1                 0.0000
     15 ****         1.5999  -1.2964   3.9070 C.3            1 S1                 0.0000
     16 ****         1.6904  -2.6913   4.5417 C.3            1 S1                 0.0000
     17 ****         1.2612  -1.3804   2.4056 C.3            1 S1                 0.0000
     18 ****         1.8091  -0.5243  -3.1708 C.2            1 S1                 0.0000
     19 ****         1.2343  -0.5989  -4.3913 C.2            1 S1                 0.0000
     20 ****        -0.2171  -0.5295  -4.5697 C.2            1 S1                 0.0000
     21 ****        -0.7637  -0.5916  -5.6706 O.2            1 S1                 0.0000
     22 ****        -2.5526   3.9960  -2.1480 H              1 S1                 0.0000
     23 ****        -3.9565   3.4317  -3.0550 H              1 S1                 0.0000
     24 ****        -2.4182   3.7258  -3.8858 H              1 S1                 0.0000
     25 ****        -3.9513   1.1241  -3.8257 H              1 S1                 0.0000
     26 ****        -2.4618   1.4488  -4.6978 H              1 S1                 0.0000
     27 ****        -2.7722  -0.5903  -2.4214 H              1 S1                 0.0000
     28 ****        -2.7963  -1.0087  -4.1048 H              1 S1                 0.0000
     29 ****        -0.2191  -0.0179   0.1604 H              1 S1                 0.0000
     30 ****         2.1393   0.5028   1.8213 H              1 S1                 0.0000
     31 ****         0.1283   1.8985   2.0788 H              1 S1                 0.0000
     32 ****        -0.8569   0.4891   2.3925 H              1 S1                 0.0000
     33 ****         1.4329   1.5122   4.1369 H              1 S1                 0.0000
     34 ****        -0.2695   1.5813   4.5231 H              1 S1                 0.0000
     35 ****         0.8541  -0.3134   5.6934 H              1 S1                 0.0000
     36 ****        -0.4046  -0.8821   4.6238 H              1 S1                 0.0000
     37 ****         2.5809  -0.8286   4.0024 H              1 S1                 0.0000
     38 ****         0.7384  -3.2191   4.4774 H              1 S1                 0.0000
     39 ****         1.9642  -2.6259   5.5950 H              1 S1                 0.0000
     40 ****         2.4439  -3.3014   4.0429 H              1 S1                 0.0000
     41 ****         0.3175  -1.9120   2.2740 H              1 S1                 0.0000
     42 ****         2.0205  -1.9712   1.8914 H              1 S1                 0.0000
     43 ****         2.8834  -0.5772  -3.0683 H              1 S1                 0.0000
     44 ****         1.8625  -0.7132  -5.2625 H              1 S1                 0.0000
     45 ****        -2.8943   1.7204  -1.8488 LP             1 S1                 0.0000
     46 ****        -1.4795   1.9914  -2.6178 LP             1 S1                 0.0000
     47 ****        -0.9180  -0.1990  -1.3370 LP             1 S1                 0.0000
     48 ****         3.4036  -0.5358  -1.3439 LP             1 S1                 0.0000
     49 ****         3.2335  -0.3313   0.3676 LP             1 S1                 0.0000
     50 ****        -1.7599  -0.5371  -5.7379 LP             1 S1                 0.0000
     51 ****        -0.2116  -0.6965  -6.4977 LP             1 S1                 0.0000
@<TRIPOS>BOND
    1    1    2 1     
    2    1   22 1     
    3    1   23 1     
    4    1   24 1     
    5    2    3 1     
    6    3    4 1     
    7    3   25 1     
    8    3   26 1     
    9    4    5 1     
   10    4   27 1     
   11    4   28 1     
   12    5   20 am    
   13    5    6 1     
   14    6    7 2     
   15    7    8 1     
   16    7   18 1     
   17    8    9 2     
   18    8   10 am    
   19   10   11 1     
   20   10   29 1     
   21   11   17 1     
   22   11   12 1     
   23   11   30 1     
   24   12   13 1     
   25   12   31 1     
   26   12   32 1     
   27   13   14 1     
   28   13   33 1     
   29   13   34 1     
   30   14   15 1     
   31   14   35 1     
   32   14   36 1     
   33   15   16 1     
   34   15   17 1     
   35   15   37 1     
   36   16   38 1     
   37   16   39 1     
   38   16   40 1     
   39   17   41 1     
   40   17   42 1     
   41   18   19 2     
   42   18   43 1     
   43   19   20 1     
   44   19   44 1     
   45   20   21 2     
   46    2   45 1     
   47    2   46 1     
   48    6   47 1     
   49    9   48 1     
   50    9   49 1     
   51   21   50 1     
   52   21   51 1     
@<TRIPOS>SUBSTRUCTURE
      1 S1             1
@<TRIPOS>SET
LONE_PAIRS      STATIC     ATOMS    <user>   **** ""
7 45 46 47 48 49 50 51
DONOR_HYDROGENS      STATIC     ATOMS    <user>   **** ""
1 29
ATOM$BLUE        STATIC     ATOMS    COLORGROUP SYSTEM
7 45 46 47 48 49 50 51
ATOM$RED        STATIC     ATOMS    COLORGROUP SYSTEM
1 29
