AV-unprocessed.smi:2960|AV-procd|sdf|11312|dock6
  -GOLD-   2272016213D 1   1.00000     0.00000
 Structure written by MMmdl.
 49 51  0  0  0  0  0  0  0  0  2 V2000
  148.4628  136.2283  158.2084 C   0  0  0  0  0  0  0  0  0  0  0  0
  149.9045  136.5053  157.7960 C   0  0  0  0  0  0  0  0  0  0  0  0
  150.7829  136.6131  158.6514 O   0  0  0  0  0  0  0  0  0  0  0  0
  150.1345  136.6178  156.4793 N   0  0  0  0  0  0  0  0  0  0  0  0
  151.4343  136.8923  155.8786 C   0  0  0  0  0  0  0  0  0  0  0  0
  151.2976  137.4252  154.4427 C   0  0  0  0  0  0  0  0  0  0  0  0
  150.2501  138.4875  154.3481 C   0  0  0  0  0  0  0  0  0  0  0  0
  149.1582  138.4498  153.5326 N   0  3  0  0  0  0  0  0  0  0  0  0
  148.4034  139.6118  153.6965 C   0  0  0  0  0  0  0  0  0  0  0  0
  147.2190  140.0232  153.0929 C   0  0  0  0  0  0  0  0  0  0  0  0
  146.7095  141.2775  153.4888 C   0  0  0  0  0  0  0  0  0  0  0  0
  147.3727  142.0701  154.4484 C   0  0  0  0  0  0  0  0  0  0  0  0
  148.5731  141.6422  155.0530 C   0  0  0  0  0  0  0  0  0  0  0  0
  149.0696  140.4009  154.6560 C   0  0  0  0  0  0  0  0  0  0  0  0
  150.2057  139.6721  155.0259 N   0  0  0  0  0  0  0  0  0  0  0  0
  151.1233  140.2454  156.0206 C   0  0  0  0  0  0  0  0  0  0  0  0
  150.6189  140.0451  157.4560 C   0  0  0  0  0  0  0  0  0  0  0  0
  151.6362  140.4631  158.3542 O   0  0  0  0  0  0  0  0  0  0  0  0
  151.6372  141.7773  158.7708 C   0  0  0  0  0  0  0  0  0  0  0  0
  152.6008  142.1437  159.7327 C   0  0  0  0  0  0  0  0  0  0  0  0
  152.6759  143.4655  160.2118 C   0  0  0  0  0  0  0  0  0  0  0  0
  151.7830  144.4433  159.7320 C   0  0  0  0  0  0  0  0  0  0  0  0
  151.8698  145.8646  160.2487 C   0  0  0  0  0  0  0  0  0  0  0  0
  150.8145  144.0888  158.7718 C   0  0  0  0  0  0  0  0  0  0  0  0
  150.7395  142.7660  158.2937 C   0  0  0  0  0  0  0  0  0  0  0  0
  148.1086  135.3004  157.7578 H   0  0  0  0  0  0  0  0  0  0  0  0
  147.8114  137.0406  157.8844 H   0  0  0  0  0  0  0  0  0  0  0  0
  148.3799  136.1348  159.2921 H   0  0  0  0  0  0  0  0  0  0  0  0
  149.3511  136.5166  155.8497 H   0  0  0  0  0  0  0  0  0  0  0  0
  151.9419  137.6262  156.5033 H   0  0  0  0  0  0  0  0  0  0  0  0
  152.0494  135.9907  155.8962 H   0  0  0  0  0  0  0  0  0  0  0  0
  152.2457  137.8432  154.1022 H   0  0  0  0  0  0  0  0  0  0  0  0
  151.0554  136.6141  153.7559 H   0  0  0  0  0  0  0  0  0  0  0  0
  146.7093  139.4183  152.3574 H   0  0  0  0  0  0  0  0  0  0  0  0
  145.7918  141.6390  153.0479 H   0  0  0  0  0  0  0  0  0  0  0  0
  146.9528  143.0260  154.7264 H   0  0  0  0  0  0  0  0  0  0  0  0
  149.0745  142.2567  155.7863 H   0  0  0  0  0  0  0  0  0  0  0  0
  152.1085  139.7978  155.8851 H   0  0  0  0  0  0  0  0  0  0  0  0
  151.2357  141.3084  155.8084 H   0  0  0  0  0  0  0  0  0  0  0  0
  149.7127  140.6309  157.6131 H   0  0  0  0  0  0  0  0  0  0  0  0
  150.3780  138.9950  157.6277 H   0  0  0  0  0  0  0  0  0  0  0  0
  153.2913  141.4024  160.1076 H   0  0  0  0  0  0  0  0  0  0  0  0
  153.4216  143.7270  160.9484 H   0  0  0  0  0  0  0  0  0  0  0  0
  151.1298  146.5080  159.7716 H   0  0  0  0  0  0  0  0  0  0  0  0
  152.8586  146.2789  160.0506 H   0  0  0  0  0  0  0  0  0  0  0  0
  151.6970  145.8868  161.3251 H   0  0  0  0  0  0  0  0  0  0  0  0
  150.1241  144.8300  158.3964 H   0  0  0  0  0  0  0  0  0  0  0  0
  149.9833  142.5367  157.5587 H   0  0  0  0  0  0  0  0  0  0  0  0
  148.9468  137.6807  152.9095 H   0  0  0  0  0  0  0  0  0  0  0  0
  1  2  1  0  0  0  0
  1 26  1  0  0  0  0
  1 27  1  0  0  0  0
  1 28  1  0  0  0  0
  2  3  2  0  0  0  0
  2  4  1  0  0  0  0
  4  5  1  0  0  0  0
  4 29  1  0  0  0  0
  5  6  1  0  0  0  0
  5 30  1  0  0  0  0
  5 31  1  0  0  0  0
  6  7  1  0  0  0  0
  6 32  1  0  0  0  0
  6 33  1  0  0  0  0
  7 15  1  0  0  0  0
  7  8  2  0  0  0  0
  8  9  1  0  0  0  0
  8 49  1  0  0  0  0
  9 14  2  0  0  0  0
  9 10  1  0  0  0  0
 10 11  2  0  0  0  0
 10 34  1  0  0  0  0
 11 12  1  0  0  0  0
 11 35  1  0  0  0  0
 12 13  2  0  0  0  0
 12 36  1  0  0  0  0
 13 14  1  0  0  0  0
 13 37  1  0  0  0  0
 14 15  1  0  0  0  0
 15 16  1  0  0  0  0
 16 17  1  0  0  0  0
 16 38  1  0  0  0  0
 16 39  1  0  0  0  0
 17 18  1  0  0  0  0
 17 40  1  0  0  0  0
 17 41  1  0  0  0  0
 18 19  1  0  0  0  0
 19 25  1  0  0  0  0
 19 20  2  0  0  0  0
 20 21  1  0  0  0  0
 20 42  1  0  0  0  0
 21 22  2  0  0  0  0
 21 43  1  0  0  0  0
 22 23  1  0  0  0  0
 22 24  1  0  0  0  0
 23 44  1  0  0  0  0
 23 45  1  0  0  0  0
 23 46  1  0  0  0  0
 24 25  2  0  0  0  0
 24 47  1  0  0  0  0
 25 48  1  0  0  0  0
M  CHG  1   8   1
M  END
> <s_m_source_file>
AV-unprocessed.smi

> <i_m_source_file_index>
2960

> <i_lp_mmshare_version>
43012

> <i_f3d_flags>
0

> <s_epik_input>
W0NIM11DKD1PKVtOSF1bQ0gyXVtDSDJdYyhuMSluKGMoYzEyKVtjSF1bY0hdW2NIXVtjSF0yKVtDSDJdW0NIMl1PYzNbY0hdW2NIXWMoW0NIM10pW2NIXVtjSF0z

> <s_epik_cmdline>
J2VwaWtfcHl0aG9uJywgJy1waCcsICc3LjAnLCAnLXRuJywgJzgnLCAnLW1hJywgJzIwMCcsICctbWV0YWxfYmluZGluZycsICctaW1hZScsICc8aW5maWxlLm1hZT4nLCAnLW9tYWUnLCAnPG91dGZpbGUubWFlPic=

> <r_lp_tautomer_probability>
1

> <r_epik_Ionization_Penalty>
1.10884

> <r_epik_Ionization_Penalty_Charging>
1.10884

> <r_epik_Ionization_Penalty_Neutral>
3.05925e-07

> <r_epik_State_Penalty>
1.16664

> <r_epik_Charging_Adjusted_Penalty>
2.27548

> <i_epik_Tot_Q>
1

> <i_epik_Tot_abs_Q>
1

> <r_epik_Metal_State_Penalty>
1.2527

> <b_epik_Metal_Only>
0

> <s_lp_Force_Field>
OPLS_2005

> <r_lp_Energy>
19.8643

> <b_lp_Chiralities_Consistent>
1

> <s_lp_Variant>
AV-unprocessed.smi:2960-2

> <Gold.Version>
5.8.1

> <Gold.Id.Protein>
6NUR|6NUR_protein|mol2

> <Gold.PLP.Fitness>
59.7503

> <Gold.PLP.PLP>
-52.2999

> <Gold.PLP.part.hbond>
-3.0000

> <Gold.PLP.part.metal>
0.0000

> <Gold.PLP.part.buried>
-1.1777

> <Gold.PLP.part.nonpolar>
-49.5044

> <Gold.PLP.part.repulsive>
0.1167

> <Gold.PLP.ligand.clash>
0.0000

> <Gold.PLP.ligand.torsion>
0.7018

> <Gold.PLP.Chemscore.Hbond>
2.9280

> <Gold.PLP.Chemscore.CHOScore>
0.0000

> <Gold.PLP.Chemscore.Metal>
0.0000

> <Gold.Chemscore.Hbonds>
donor molecule, donor type, donor heavy atom, donor atom, acceptor molecule, acceptor atom, score
      L1  H     8    49       P1  7948  2.00
      P1  H  6896  6909       L1     3  0.94

> <Gold.PLP.Chemscore.Internal.Correction>
0.0700

> <Gold.Rescore>
     Score         DG    S(hbond)    S(metal)    S(lipo)     H(rot)  DE(clash)    DE(int)     intcor
     21.25     -22.32       1.91        0.00     137.04       2.18       0.36       0.71       ----

> <Gold.Chemscore.Fitness>
21.2464

> <Gold.Chemscore.DG>
-22.3196

> <Gold.Chemscore.ZeroCoef>
-5.4800

> <Gold.Chemscore.Hbond>
1.9115

> <Gold.Chemscore.Metal>
0.0000

> <Gold.Chemscore.Lipo>
137.0449

> <Gold.Chemscore.Internal_Hbond>
0.0000

> <Gold.Chemscore.DEClash>
0.3648

> <Gold.Chemscore.DEInternal>
0.7084

> <Gold.Chemscore.Rot>
2.1793

> <Gold.Chemscore.Internal.Correction>
   9.000000E+99

> <Gold.Chemscore.Hbonds>
donor molecule, donor type, donor heavy atom, donor atom, acceptor molecule, acceptor atom, score
      L1  H     8    49       P1  7948  1.00
      P1  H  6896  6909       L1     3  0.84

> <Gold.Chemscore.Hbond.Weighted>
-6.3845

> <Gold.Chemscore.Metal.Weighted>
-0.0000

> <Gold.Chemscore.Lipo.Weighted>
-16.0343

> <Gold.Chemscore.Internal_Hbond.Weighted>
0.0000

> <Gold.Chemscore.DEClash.Weighted>
0.3648

> <Gold.Chemscore.DEInternal.Weighted>
0.7084

> <Gold.Chemscore.Rot.Weighted>
5.5791

> <Gold.Chemscore.Internal.Correction.Weighted>
   9.000000E+99

> <Gold.Protein.RotatedTorsions>
[ 6907 6896 6895 6894 ] final   88.76 input  -60.11 | X-H torsion
[ 7974 7965 7964 7962 ] final  -18.22 input  175.53 | X-H torsion
[ 8008 7997 7996 7995 ] final  170.99 input   59.86 | X-H torsion
[ 10167 10162 10161 10158 ] final   78.34 input  -65.29 | X-H torsion
[ 10718 10713 10712 10709 ] final   16.56 input   66.30 | X-H torsion
[ 10763 10752 10751 10750 ] final -169.61 input  -60.55 | X-H torsion
[ 11005 11000 10999 10996 ] final  110.79 input  -57.11 | X-H torsion

> <Gold.Protein.ActiveResidues>
 VAL166  LYS551  ARG553  GLY616  TRP617  ASP618  TYR619  PRO620  LYS621  CYS622 
 ASP623  PHE694  ASN695  SER759  ASP760  ASP761  ALA762  ILE779  LEU786  VAL792 
 PHE793  MET794  SER795  GLU796  ALA797  LYS798  CYS799  TRP800  GLU811  SER814 

> <Gold.Protein.RotatedAtoms>
  152.5429  134.2071  159.8735 H   0  0  0  0  0  0  0  0  0  0  0  0  # atno 6907 bound_to 6896
  151.2056  133.4578  159.2604 H   0  0  0  0  0  0  0  0  0  0  0  0  # atno 6908 bound_to 6896
  151.0946  134.9949  159.8475 H   0  0  0  0  0  0  0  0  0  0  0  0  # atno 6909 bound_to 6896
  146.1903  140.3890  142.8460 H   0  0  0  0  0  0  0  0  0  0  0  0  # atno 7974 bound_to 7965
  156.1314  140.1523  156.9060 H   0  0  0  0  0  0  0  0  0  0  0  0  # atno 8008 bound_to 7997
  154.4912  140.0851  156.7638 H   0  0  0  0  0  0  0  0  0  0  0  0  # atno 8009 bound_to 7997
  155.4249  140.3424  155.4277 H   0  0  0  0  0  0  0  0  0  0  0  0  # atno 8010 bound_to 7997
  139.9719  144.5888  150.7977 H   0  0  0  0  0  0  0  0  0  0  0  0  # atno 10167 bound_to 10162
  157.0695  130.6342  149.5803 H   0  0  0  0  0  0  0  0  0  0  0  0  # atno 10718 bound_to 10713
  154.6504  135.2910  154.9994 H   0  0  0  0  0  0  0  0  0  0  0  0  # atno 10763 bound_to 10752
  154.1089  135.6565  153.4885 H   0  0  0  0  0  0  0  0  0  0  0  0  # atno 10764 bound_to 10752
  153.0373  135.5260  154.7409 H   0  0  0  0  0  0  0  0  0  0  0  0  # atno 10765 bound_to 10752
  139.8889  134.9492  156.6333 H   0  0  0  0  0  0  0  0  0  0  0  0  # atno 11005 bound_to 11000
  144.8474  140.6950  143.6190 LP  0  0  0  0  0  0  0  0  0  0  0  0  # atno 17320 bound_to 7965
  145.3813  139.1636  143.4279 LP  0  0  0  0  0  0  0  0  0  0  0  0  # atno 17321 bound_to 7965
  140.7519  143.2980  151.3153 LP  0  0  0  0  0  0  0  0  0  0  0  0  # atno 17342 bound_to 10162
  139.6474  144.0425  152.2601 LP  0  0  0  0  0  0  0  0  0  0  0  0  # atno 17343 bound_to 10162
  155.9954  130.5021  150.7459 LP  0  0  0  0  0  0  0  0  0  0  0  0  # atno 17370 bound_to 10713
  157.4889  131.0909  151.0450 LP  0  0  0  0  0  0  0  0  0  0  0  0  # atno 17371 bound_to 10713
  140.7650  133.8786  155.8447 LP  0  0  0  0  0  0  0  0  0  0  0  0  # atno 17394 bound_to 11000
  140.9890  134.1304  157.4425 LP  0  0  0  0  0  0  0  0  0  0  0  0  # atno 17395 bound_to 11000

$$$$
