AV-unprocessed.smi:196|AV-procd|sdf|1543|dock3
  -GOLD-   2262019403D 1   1.00000     0.00000
 Structure written by MMmdl.
 47 50  0  0  0  0  0  0  0  0  1 V2000
  152.7262  141.8024  159.6515 C   0  0  0  0  0  0  0  0  0  0  0  0
  151.7539  142.9773  159.4623 C   0  0  1  0  0  0  0  0  0  0  0  0
  152.4304  144.1626  159.8748 O   0  0  0  0  0  0  0  0  0  0  0  0
  151.9554  145.2544  159.1077 C   0  0  0  0  0  0  0  0  0  0  0  0
  151.8182  144.6447  157.7213 C   0  0  0  0  0  0  0  0  0  0  0  0
  151.2629  143.2534  158.0126 C   0  0  2  0  0  0  0  0  0  0  0  0
  149.8488  143.3536  158.0469 O   0  0  0  0  0  0  0  0  0  0  0  0
  151.6364  142.1943  156.9424 C   0  0  0  0  0  0  0  0  0  0  0  0
  150.9263  140.9344  157.1045 N   0  0  0  0  0  0  0  0  0  0  0  0
  150.4246  140.4142  158.2772 C   0  0  0  0  0  0  0  0  0  0  0  0
  149.8181  139.2640  158.1628 N   0  0  0  0  0  0  0  0  0  0  0  0
  149.9232  138.9637  156.8113 C   0  0  0  0  0  0  0  0  0  0  0  0
  149.4975  137.8750  156.0080 C   0  0  0  0  0  0  0  0  0  0  0  0
  148.8210  136.8275  156.5292 N   0  0  0  0  0  0  0  0  0  0  0  0
  148.1394  135.9779  155.5579 C   0  0  0  0  0  0  0  0  0  0  0  0
  148.3835  134.5341  156.0056 C   0  0  1  0  0  0  0  0  0  0  0  0
  149.4231  134.0335  155.3362 F   0  0  0  0  0  0  0  0  0  0  0  0
  148.7493  134.6758  157.4799 C   0  0  0  0  0  0  0  0  0  0  0  0
  149.5177  136.0027  157.5180 C   0  0  2  0  0  0  0  0  0  0  0  0
  149.5037  136.6378  158.9161 C   0  0  0  0  0  0  0  0  0  0  0  0
  148.3062  136.9037  159.4426 N   0  0  0  0  0  0  0  0  0  0  0  0
  150.5505  136.8964  159.5085 O   0  0  0  0  0  0  0  0  0  0  0  0
  149.7797  137.9124  154.6793 N   0  0  0  0  0  0  0  0  0  0  0  0
  150.4475  138.9523  154.1702 C   0  0  0  0  0  0  0  0  0  0  0  0
  150.9110  140.0355  154.7984 N   0  0  0  0  0  0  0  0  0  0  0  0
  150.6211  139.9993  156.1310 C   0  0  0  0  0  0  0  0  0  0  0  0
  147.5319  133.8764  155.8303 H   0  0  0  0  0  0  0  0  0  0  0  0
  150.5488  135.8256  157.2060 H   0  0  0  0  0  0  0  0  0  0  0  0
  152.2691  140.8561  159.3617 H   0  0  0  0  0  0  0  0  0  0  0  0
  153.0226  141.7149  160.6969 H   0  0  0  0  0  0  0  0  0  0  0  0
  153.6360  141.9374  159.0659 H   0  0  0  0  0  0  0  0  0  0  0  0
  150.9034  142.8314  160.1312 H   0  0  0  0  0  0  0  0  0  0  0  0
  150.9890  145.5846  159.4915 H   0  0  0  0  0  0  0  0  0  0  0  0
  152.6465  146.0971  159.1334 H   0  0  0  0  0  0  0  0  0  0  0  0
  151.1969  145.2381  157.0488 H   0  0  0  0  0  0  0  0  0  0  0  0
  152.8105  144.5677  157.2761 H   0  0  0  0  0  0  0  0  0  0  0  0
  149.5566  143.7267  157.2294 H   0  0  0  0  0  0  0  0  0  0  0  0
  151.4200  142.5677  155.9414 H   0  0  0  0  0  0  0  0  0  0  0  0
  152.7069  141.9863  156.9691 H   0  0  0  0  0  0  0  0  0  0  0  0
  150.5174  140.9218  159.2264 H   0  0  0  0  0  0  0  0  0  0  0  0
  147.0750  136.2103  155.6060 H   0  0  0  0  0  0  0  0  0  0  0  0
  148.4631  136.1429  154.5281 H   0  0  0  0  0  0  0  0  0  0  0  0
  147.8378  134.7359  158.0776 H   0  0  0  0  0  0  0  0  0  0  0  0
  149.3374  133.8350  157.8495 H   0  0  0  0  0  0  0  0  0  0  0  0
  148.2398  137.3232  160.3585 H   0  0  0  0  0  0  0  0  0  0  0  0
  147.4703  136.6852  158.9201 H   0  0  0  0  0  0  0  0  0  0  0  0
  150.6373  138.9109  153.1079 H   0  0  0  0  0  0  0  0  0  0  0  0
  1  2  1  0  0  0  0
  1 29  1  0  0  0  0
  1 30  1  0  0  0  0
  1 31  1  0  0  0  0
  2  6  1  0  0  0  0
  2  3  1  0  0  0  0
  2 32  1  0  0  0  0
  3  4  1  0  0  0  0
  4  5  1  0  0  0  0
  4 33  1  0  0  0  0
  4 34  1  0  0  0  0
  5  6  1  0  0  0  0
  5 35  1  0  0  0  0
  5 36  1  0  0  0  0
  6  7  1  0  0  0  0
  6  8  1  0  0  0  0
  7 37  1  0  0  0  0
  8  9  1  0  0  0  0
  8 38  1  0  0  0  0
  8 39  1  0  0  0  0
  9 26  1  0  0  0  0
  9 10  1  0  0  0  0
 10 11  2  0  0  0  0
 10 40  1  0  0  0  0
 11 12  1  0  0  0  0
 12 26  2  0  0  0  0
 12 13  1  0  0  0  0
 13 14  1  0  0  0  0
 13 23  2  0  0  0  0
 14 19  1  0  0  0  0
 14 15  1  0  0  0  0
 15 16  1  0  0  0  0
 15 41  1  0  0  0  0
 15 42  1  0  0  0  0
 16 27  1  0  0  0  0
 16 17  1  0  0  0  0
 16 18  1  0  0  0  0
 18 19  1  0  0  0  0
 18 43  1  0  0  0  0
 18 44  1  0  0  0  0
 19 28  1  0  0  0  0
 19 20  1  0  0  0  0
 20 21  1  0  0  0  0
 20 22  2  0  0  0  0
 21 45  1  0  0  0  0
 21 46  1  0  0  0  0
 23 24  1  0  0  0  0
 24 25  2  0  0  0  0
 24 47  1  0  0  0  0
 25 26  1  0  0  0  0
M  END
> <s_m_source_file>
AV-unprocessed.smi

> <i_m_source_file_index>
196

> <i_lp_mmshare_version>
43012

> <i_f3d_flags>
0

> <s_epik_input>
W0NIMl0xW0NIMl1PW0NAQEhdKFtDSDNdKVtDQEBdMShbT0hdKVtDSDJdbihbY0hdbjIpYyhjMjMpbltjSF1uYzNONFtDSDJdW0NASF0oRilbQ0gyXVtDQEhdNEMoPU8pW05IMl0=

> <s_epik_cmdline>
J2VwaWtfcHl0aG9uJywgJy1waCcsICc3LjAnLCAnLXRuJywgJzgnLCAnLW1hJywgJzIwMCcsICctbWV0YWxfYmluZGluZycsICctaW1hZScsICc8aW5maWxlLm1hZT4nLCAnLW9tYWUnLCAnPG91dGZpbGUubWFlPic=

> <r_lp_tautomer_probability>
1

> <r_epik_Ionization_Penalty>
0.000857933

> <r_epik_Ionization_Penalty_Charging>
0

> <r_epik_Ionization_Penalty_Neutral>
0.000857933

> <r_epik_State_Penalty>
0.000462053

> <r_epik_Charging_Adjusted_Penalty>
0.000462053

> <i_epik_Tot_Q>
0

> <i_epik_Tot_abs_Q>
0

> <r_epik_Metal_State_Penalty>
-0

> <b_epik_Metal_Only>
0

> <s_lp_Force_Field>
OPLS_2005

> <r_lp_Energy>
44.4191

> <b_lp_Chiralities_Consistent>
1

> <s_lp_Variant>
AV-unprocessed.smi:196-16

> <Gold.Version>
5.8.1

> <Gold.Id.Protein>
6NUR|6NUR_protein|mol2

> <Gold.PLP.Fitness>
46.8009

> <Gold.PLP.PLP>
-35.9244

> <Gold.PLP.part.hbond>
-3.0000

> <Gold.PLP.part.metal>
0.0000

> <Gold.PLP.part.buried>
-7.3676

> <Gold.PLP.part.nonpolar>
-26.4234

> <Gold.PLP.part.repulsive>
0.4795

> <Gold.PLP.ligand.clash>
0.0000

> <Gold.PLP.ligand.torsion>
0.6570

> <Gold.PLP.Chemscore.Hbond>
3.0000

> <Gold.PLP.Chemscore.CHOScore>
1.0000

> <Gold.PLP.Chemscore.Metal>
0.0000

> <Gold.Chemscore.Hbonds>
donor molecule, donor type, donor heavy atom, donor atom, acceptor molecule, acceptor atom, score
      L1  H     7    37       P1  8028  1.00
      P1  H  6896  6908       L1    22  1.00
      P1  H  7989  7998       L1    25  1.00
      L1  C    24    47       P1  7957  1.00

> <Gold.PLP.Chemscore.Internal.Correction>
0.1906

> <Gold.Rescore>
     Score         DG    S(hbond)    S(metal)    S(lipo)     H(rot)  DE(clash)    DE(int)     intcor
     10.29     -15.45       2.82        0.00      71.30       3.04       0.58       4.58       ----

> <Gold.Chemscore.Fitness>
10.2896

> <Gold.Chemscore.DG>
-15.4498

> <Gold.Chemscore.ZeroCoef>
-5.4800

> <Gold.Chemscore.Hbond>
2.8182

> <Gold.Chemscore.Metal>
0.0000

> <Gold.Chemscore.Lipo>
71.3034

> <Gold.Chemscore.Internal_Hbond>
0.0000

> <Gold.Chemscore.DEClash>
0.5801

> <Gold.Chemscore.DEInternal>
4.5801

> <Gold.Chemscore.Rot>
3.0413

> <Gold.Chemscore.Internal.Correction>
   9.000000E+99

> <Gold.Chemscore.Hbonds>
donor molecule, donor type, donor heavy atom, donor atom, acceptor molecule, acceptor atom, score
      L1  H     7    37       P1  8028  0.73
      P1  H  6896  6908       L1    22  0.25
      P1  H  7989  7998       L1    25  0.30

> <Gold.Chemscore.Hbond.Weighted>
-9.4129

> <Gold.Chemscore.Metal.Weighted>
-0.0000

> <Gold.Chemscore.Lipo.Weighted>
-8.3425

> <Gold.Chemscore.Internal_Hbond.Weighted>
0.0000

> <Gold.Chemscore.DEClash.Weighted>
0.5801

> <Gold.Chemscore.DEInternal.Weighted>
4.5801

> <Gold.Chemscore.Rot.Weighted>
7.7856

> <Gold.Chemscore.Internal.Correction.Weighted>
   9.000000E+99

> <Gold.Protein.RotatedTorsions>
[ 6907 6896 6895 6894 ] final -144.34 input  -60.11 | X-H torsion
[ 7974 7965 7964 7962 ] final  -34.02 input  175.53 | X-H torsion
[ 8008 7997 7996 7995 ] final   20.57 input   59.86 | X-H torsion
[ 10167 10162 10161 10158 ] final  -38.04 input  -65.29 | X-H torsion
[ 10718 10713 10712 10709 ] final  170.91 input   66.30 | X-H torsion
[ 10763 10752 10751 10750 ] final  128.80 input  -60.55 | X-H torsion
[ 11005 11000 10999 10996 ] final -149.09 input  -57.11 | X-H torsion

> <Gold.Protein.ActiveResidues>
 VAL166  LYS551  ARG553  GLY616  TRP617  ASP618  TYR619  PRO620  LYS621  CYS622 
 ASP623  PHE694  ASN695  SER759  ASP760  ASP761  ALA762  ILE779  LEU786  VAL792 
 PHE793  MET794  SER795  GLU796  ALA797  LYS798  CYS799  TRP800  GLU811  SER814 

> <Gold.Protein.RotatedAtoms>
  151.1128  133.5160  159.2604 H   0  0  0  0  0  0  0  0  0  0  0  0  # atno 6907 bound_to 6896
  151.1948  135.0417  159.8857 H   0  0  0  0  0  0  0  0  0  0  0  0  # atno 6908 bound_to 6896
  152.5451  134.0964  159.8352 H   0  0  0  0  0  0  0  0  0  0  0  0  # atno 6909 bound_to 6896
  146.0863  140.5988  142.8885 H   0  0  0  0  0  0  0  0  0  0  0  0  # atno 7974 bound_to 7965
  154.9375  140.3048  155.5137 H   0  0  0  0  0  0  0  0  0  0  0  0  # atno 8008 bound_to 7997
  156.2998  140.2342  156.4378 H   0  0  0  0  0  0  0  0  0  0  0  0  # atno 8009 bound_to 7997
  154.8177  140.0425  157.1377 H   0  0  0  0  0  0  0  0  0  0  0  0  # atno 8010 bound_to 7997
  140.7103  143.3303  151.2585 H   0  0  0  0  0  0  0  0  0  0  0  0  # atno 10167 bound_to 10162
  157.0012  131.0176  151.2830 H   0  0  0  0  0  0  0  0  0  0  0  0  # atno 10718 bound_to 10713
  153.7314  135.3238  155.3286 H   0  0  0  0  0  0  0  0  0  0  0  0  # atno 10763 bound_to 10752
  154.8325  135.4523  154.1118 H   0  0  0  0  0  0  0  0  0  0  0  0  # atno 10764 bound_to 10752
  153.2266  135.6955  153.8018 H   0  0  0  0  0  0  0  0  0  0  0  0  # atno 10765 bound_to 10752
  140.7544  134.3370  157.5118 H   0  0  0  0  0  0  0  0  0  0  0  0  # atno 11005 bound_to 11000
  144.7328  140.4722  143.6925 LP  0  0  0  0  0  0  0  0  0  0  0  0  # atno 17320 bound_to 7965
  145.6123  139.1514  143.3069 LP  0  0  0  0  0  0  0  0  0  0  0  0  # atno 17321 bound_to 7965
  139.6783  143.9899  152.2794 LP  0  0  0  0  0  0  0  0  0  0  0  0  # atno 17342 bound_to 10162
  139.9521  144.6614  150.8162 LP  0  0  0  0  0  0  0  0  0  0  0  0  # atno 17343 bound_to 10162
  157.5389  130.8107  149.8005 LP  0  0  0  0  0  0  0  0  0  0  0  0  # atno 17370 bound_to 10713
  156.0170  130.3809  150.2078 LP  0  0  0  0  0  0  0  0  0  0  0  0  # atno 17371 bound_to 10713
  139.8782  134.9162  156.3149 LP  0  0  0  0  0  0  0  0  0  0  0  0  # atno 17394 bound_to 11000
  140.9721  133.7320  156.0550 LP  0  0  0  0  0  0  0  0  0  0  0  0  # atno 17395 bound_to 11000

$$$$
