AV-unprocessed.smi:2682|AV-procd|sdf|10374|dock7
  -GOLD-   2272014403D 1   1.00000     0.00000
 Structure written by MMmdl.
 30 30  0  0  0  0  0  0  0  0  1 V2000
  153.0612  142.8851  162.8188 C   0  0  0  0  0  0  0  0  0  0  0  0
  152.3558  142.7982  161.5932 O   0  0  0  0  0  0  0  0  0  0  0  0
  153.2195  142.6173  160.4836 C   0  0  0  0  0  0  0  0  0  0  0  0
  152.6048  143.2903  159.2532 C   0  0  0  0  0  0  0  0  0  0  0  0
  151.7402  142.3711  158.6069 O   0  0  0  0  0  0  0  0  0  0  0  0
  151.1653  142.9011  157.4228 C   0  0  0  0  0  0  0  0  0  0  0  0
  150.3695  141.8024  156.7206 C   0  0  0  0  0  0  0  0  0  0  0  0
  150.4540  140.6463  157.1324 O   0  0  0  0  0  0  0  0  0  0  0  0
  149.6206  142.2091  155.6759 N   0  0  0  0  0  0  0  0  0  0  0  0
  148.8100  141.4625  154.8033 C   0  0  0  0  0  0  0  0  0  0  0  0
  147.5524  141.8058  154.4177 C   0  0  0  0  0  0  0  0  0  0  0  0
  146.7889  140.9633  153.5216 C   0  0  0  0  0  0  0  0  0  0  0  0
  147.3508  139.8266  153.0847 C   0  0  0  0  0  0  0  0  0  0  0  0
  148.6403  139.4680  153.4847 N   0  0  0  0  0  0  0  0  0  0  0  0
  149.4125  140.2066  154.3167 C   0  0  0  0  0  0  0  0  0  0  0  0
  150.5394  139.8178  154.6223 O   0  0  0  0  0  0  0  0  0  0  0  0
  152.3564  143.0232  163.6384 H   0  0  0  0  0  0  0  0  0  0  0  0
  153.7485  143.7321  162.8192 H   0  0  0  0  0  0  0  0  0  0  0  0
  153.6284  141.9736  163.0120 H   0  0  0  0  0  0  0  0  0  0  0  0
  154.1852  143.0750  160.7039 H   0  0  0  0  0  0  0  0  0  0  0  0
  153.3948  141.5576  160.2910 H   0  0  0  0  0  0  0  0  0  0  0  0
  152.0695  144.1967  159.5400 H   0  0  0  0  0  0  0  0  0  0  0  0
  153.3991  143.5821  158.5647 H   0  0  0  0  0  0  0  0  0  0  0  0
  150.4966  143.7306  157.6580 H   0  0  0  0  0  0  0  0  0  0  0  0
  151.9452  143.2778  156.7585 H   0  0  0  0  0  0  0  0  0  0  0  0
  149.6165  143.2038  155.4994 H   0  0  0  0  0  0  0  0  0  0  0  0
  147.0712  142.7027  154.7706 H   0  0  0  0  0  0  0  0  0  0  0  0
  145.7922  141.2432  153.2137 H   0  0  0  0  0  0  0  0  0  0  0  0
  146.8744  139.1243  152.4166 H   0  0  0  0  0  0  0  0  0  0  0  0
  149.0082  138.5998  153.1230 H   0  0  0  0  0  0  0  0  0  0  0  0
  1  2  1  0  0  0  0
  1 17  1  0  0  0  0
  1 18  1  0  0  0  0
  1 19  1  0  0  0  0
  2  3  1  0  0  0  0
  3  4  1  0  0  0  0
  3 20  1  0  0  0  0
  3 21  1  0  0  0  0
  4  5  1  0  0  0  0
  4 22  1  0  0  0  0
  4 23  1  0  0  0  0
  5  6  1  0  0  0  0
  6  7  1  0  0  0  0
  6 24  1  0  0  0  0
  6 25  1  0  0  0  0
  7  8  2  0  0  0  0
  7  9  1  0  0  0  0
  9 26  1  0  0  0  0
  9 10  1  0  0  0  0
 10 11  2  0  0  0  0
 10 15  1  0  0  0  0
 11 12  1  0  0  0  0
 11 27  1  0  0  0  0
 12 13  2  0  0  0  0
 12 28  1  0  0  0  0
 13 14  1  0  0  0  0
 13 29  1  0  0  0  0
 14 15  1  0  0  0  0
 14 30  1  0  0  0  0
 15 16  2  0  0  0  0
M  END
> <s_m_source_file>
AV-unprocessed.smi

> <i_m_source_file_index>
2682

> <i_lp_mmshare_version>
43012

> <i_f3d_flags>
0

> <s_epik_input>
W0NIM11PW0NIMl1bQ0gyXU9bQ0gyXUMoPU8pW05IXWMxW2NIXVtjSF1bY0hdbmMxW09IXQ==

> <s_epik_cmdline>
J2VwaWtfcHl0aG9uJywgJy1waCcsICc3LjAnLCAnLXRuJywgJzgnLCAnLW1hJywgJzIwMCcsICctbWV0YWxfYmluZGluZycsICctaW1hZScsICc8aW5maWxlLm1hZT4nLCAnLW9tYWUnLCAnPG91dGZpbGUubWFlPic=

> <r_lp_tautomer_probability>
1

> <r_epik_Ionization_Penalty>
0.000101939

> <r_epik_Ionization_Penalty_Charging>
0.000101884

> <r_epik_Ionization_Penalty_Neutral>
5.41789e-08

> <r_epik_State_Penalty>
-0

> <r_epik_Charging_Adjusted_Penalty>
0.000101884

> <i_epik_Tot_Q>
0

> <i_epik_Tot_abs_Q>
0

> <r_epik_Metal_State_Penalty>
0.0807852

> <b_epik_Metal_Only>
0

> <s_lp_Force_Field>
OPLS_2005

> <r_lp_Energy>
15.1735

> <b_lp_Chiralities_Consistent>
1

> <s_lp_Variant>
AV-unprocessed.smi:2682-1

> <Gold.Version>
5.8.1

> <Gold.Id.Protein>
6NUR|6NUR_protein|mol2

> <Gold.PLP.Fitness>
40.3258

> <Gold.PLP.PLP>
-35.9597

> <Gold.PLP.part.hbond>
-3.0000

> <Gold.PLP.part.metal>
0.0000

> <Gold.PLP.part.buried>
-4.4012

> <Gold.PLP.part.nonpolar>
-29.7291

> <Gold.PLP.part.repulsive>
0.4650

> <Gold.PLP.ligand.clash>
0.0000

> <Gold.PLP.ligand.torsion>
0.8204

> <Gold.PLP.Chemscore.Hbond>
1.9760

> <Gold.PLP.Chemscore.CHOScore>
0.0000

> <Gold.PLP.Chemscore.Metal>
0.0000

> <Gold.Chemscore.Hbonds>
donor molecule, donor type, donor heavy atom, donor atom, acceptor molecule, acceptor atom, score
      L1  H     9    26       P1  8028  1.00
      P1  H  7989  7998       L1    16  1.00

> <Gold.PLP.Chemscore.Internal.Correction>
0.0789

> <Gold.Rescore>
     Score         DG    S(hbond)    S(metal)    S(lipo)     H(rot)  DE(clash)    DE(int)     intcor
     14.36     -15.32       2.36        0.00      64.26       2.17       0.00       0.96       ----

> <Gold.Chemscore.Fitness>
14.3631

> <Gold.Chemscore.DG>
-15.3200

> <Gold.Chemscore.ZeroCoef>
-5.4800

> <Gold.Chemscore.Hbond>
2.3620

> <Gold.Chemscore.Metal>
0.0000

> <Gold.Chemscore.Lipo>
64.2557

> <Gold.Chemscore.Internal_Hbond>
0.0000

> <Gold.Chemscore.DEClash>
0.0009

> <Gold.Chemscore.DEInternal>
0.9560

> <Gold.Chemscore.Rot>
2.1746

> <Gold.Chemscore.Internal.Correction>
   9.000000E+99

> <Gold.Chemscore.Hbonds>
donor molecule, donor type, donor heavy atom, donor atom, acceptor molecule, acceptor atom, score
      L1  H     9    26       P1  8028  0.95
      P1  H  7989  7998       L1    16  0.35

> <Gold.Chemscore.Hbond.Weighted>
-7.8890

> <Gold.Chemscore.Metal.Weighted>
-0.0000

> <Gold.Chemscore.Lipo.Weighted>
-7.5179

> <Gold.Chemscore.Internal_Hbond.Weighted>
0.0000

> <Gold.Chemscore.DEClash.Weighted>
0.0009

> <Gold.Chemscore.DEInternal.Weighted>
0.9560

> <Gold.Chemscore.Rot.Weighted>
5.5669

> <Gold.Chemscore.Internal.Correction.Weighted>
   9.000000E+99

> <Gold.Protein.RotatedTorsions>
[ 6907 6896 6895 6894 ] final -165.55 input  -60.11 | X-H torsion
[ 7974 7965 7964 7962 ] final  140.92 input  175.53 | X-H torsion
[ 8008 7997 7996 7995 ] final -177.60 input   59.86 | X-H torsion
[ 10167 10162 10161 10158 ] final  -44.87 input  -65.29 | X-H torsion
[ 10718 10713 10712 10709 ] final  102.14 input   66.30 | X-H torsion
[ 10763 10752 10751 10750 ] final  -99.44 input  -60.55 | X-H torsion
[ 11005 11000 10999 10996 ] final -115.85 input  -57.11 | X-H torsion

> <Gold.Protein.ActiveResidues>
 VAL166  LYS551  ARG553  GLY616  TRP617  ASP618  TYR619  PRO620  LYS621  CYS622 
 ASP623  PHE694  ASN695  SER759  ASP760  ASP761  ALA762  ILE779  LEU786  VAL792 
 PHE793  MET794  SER795  GLU796  ALA797  LYS798  CYS799  TRP800  GLU811  SER814 

> <Gold.Protein.RotatedAtoms>
  151.4295  133.3674  159.2766 H   0  0  0  0  0  0  0  0  0  0  0  0  # atno 6907 bound_to 6896
  150.9235  134.8654  159.7515 H   0  0  0  0  0  0  0  0  0  0  0  0  # atno 6908 bound_to 6896
  152.4993  134.4235  159.9540 H   0  0  0  0  0  0  0  0  0  0  0  0  # atno 6909 bound_to 6896
  144.9143  139.5251  143.5694 H   0  0  0  0  0  0  0  0  0  0  0  0  # atno 7974 bound_to 7965
  156.0089  140.1236  157.0474 H   0  0  0  0  0  0  0  0  0  0  0  0  # atno 8008 bound_to 7997
  154.4268  140.1092  156.5870 H   0  0  0  0  0  0  0  0  0  0  0  0  # atno 8009 bound_to 7997
  155.6108  140.3471  155.4624 H   0  0  0  0  0  0  0  0  0  0  0  0  # atno 8010 bound_to 7997
  140.6880  143.2908  151.3557 H   0  0  0  0  0  0  0  0  0  0  0  0  # atno 10167 bound_to 10162
  157.6810  131.0745  150.5359 H   0  0  0  0  0  0  0  0  0  0  0  0  # atno 10718 bound_to 10713
  154.7498  135.4972  153.9268 H   0  0  0  0  0  0  0  0  0  0  0  0  # atno 10763 bound_to 10752
  153.1131  135.6714  153.9474 H   0  0  0  0  0  0  0  0  0  0  0  0  # atno 10764 bound_to 10752
  153.9227  135.3086  155.3426 H   0  0  0  0  0  0  0  0  0  0  0  0  # atno 10765 bound_to 10752
  141.0461  133.9761  157.2916 H   0  0  0  0  0  0  0  0  0  0  0  0  # atno 11005 bound_to 11000
  146.3174  139.7973  142.8973 LP  0  0  0  0  0  0  0  0  0  0  0  0  # atno 17320 bound_to 7965
  145.3402  141.0286  143.3397 LP  0  0  0  0  0  0  0  0  0  0  0  0  # atno 17321 bound_to 7965
  139.6256  144.0820  152.2431 LP  0  0  0  0  0  0  0  0  0  0  0  0  # atno 17342 bound_to 10162
  140.0279  144.6103  150.7512 LP  0  0  0  0  0  0  0  0  0  0  0  0  # atno 17343 bound_to 10162
  156.5667  130.4269  149.6038 LP  0  0  0  0  0  0  0  0  0  0  0  0  # atno 17370 bound_to 10713
  156.2775  130.7052  151.1867 LP  0  0  0  0  0  0  0  0  0  0  0  0  # atno 17371 bound_to 10713
  139.9312  135.0200  156.8408 LP  0  0  0  0  0  0  0  0  0  0  0  0  # atno 17394 bound_to 11000
  140.6145  134.0052  155.7591 LP  0  0  0  0  0  0  0  0  0  0  0  0  # atno 17395 bound_to 11000

$$$$
