AV-unprocessed.smi:1376|AV-procd|sdf|5593|dock3
  -GOLD-   22720 5193D 1   1.00000     0.00000
 Structure written by MMmdl.
 42 43  0  0  0  0  0  0  0  0  1 V2000
  149.8011  136.9837  159.8043 O   0  0  0  0  0  0  0  0  0  0  0  0
  148.8078  137.3213  159.1582 C   0  0  0  0  0  0  0  0  0  0  0  0
  147.4667  136.5908  159.3214 C   0  0  0  0  0  0  0  0  0  0  0  0
  147.4583  135.6088  160.4187 N   0  0  0  0  0  0  0  0  0  0  0  0
  147.4486  134.2470  160.0555 C   0  0  0  0  0  0  0  0  0  0  0  0
  147.4333  133.2673  160.9730 C   0  0  0  0  0  0  0  0  0  0  0  0
  147.4272  133.6391  162.3680 C   0  0  0  0  0  0  0  0  0  0  0  0
  147.4340  134.9385  162.7265 C   0  0  0  0  0  0  0  0  0  0  0  0
  147.4478  136.0130  161.7266 C   0  0  0  0  0  0  0  0  0  0  0  0
  147.4482  137.2022  162.0453 O   0  0  0  0  0  0  0  0  0  0  0  0
  148.8141  138.3383  158.2828 N   0  0  0  0  0  0  0  0  0  0  0  0
  149.9728  139.1665  157.9626 C   0  0  1  0  0  0  0  0  0  0  0  0
  151.0495  138.3090  157.2723 C   0  0  0  0  0  0  0  0  0  0  0  0
  152.2713  139.1531  156.8754 C   0  0  0  0  0  0  0  0  0  0  0  0
  151.8681  140.3550  156.0033 C   0  0  0  0  0  0  0  0  0  0  0  0
  150.7935  141.2205  156.6855 C   0  0  2  0  0  0  0  0  0  0  0  0
  151.3939  141.8258  157.8261 O   0  0  0  0  0  0  0  0  0  0  0  0
  150.6926  142.9388  158.3633 C   0  0  0  0  0  0  0  0  0  0  0  0
  151.6946  143.8827  159.0385 C   0  0  0  0  0  0  0  0  0  0  0  0
  151.0309  144.8129  159.7240 F   0  0  0  0  0  0  0  0  0  0  0  0
  152.4715  143.2024  159.8810 F   0  0  0  0  0  0  0  0  0  0  0  0
  152.4499  144.4860  158.1208 F   0  0  0  0  0  0  0  0  0  0  0  0
  149.5719  140.3561  157.0642 C   0  0  0  0  0  0  0  0  0  0  0  0
  146.6854  137.3358  159.4795 H   0  0  0  0  0  0  0  0  0  0  0  0
  147.2118  136.1092  158.3756 H   0  0  0  0  0  0  0  0  0  0  0  0
  147.4473  134.0549  158.9923 H   0  0  0  0  0  0  0  0  0  0  0  0
  147.4223  132.2292  160.6757 H   0  0  0  0  0  0  0  0  0  0  0  0
  147.4158  132.8716  163.1279 H   0  0  0  0  0  0  0  0  0  0  0  0
  147.4281  135.1975  163.7752 H   0  0  0  0  0  0  0  0  0  0  0  0
  147.9554  138.5488  157.7948 H   0  0  0  0  0  0  0  0  0  0  0  0
  150.3903  139.5510  158.8953 H   0  0  0  0  0  0  0  0  0  0  0  0
  151.3635  137.4992  157.9320 H   0  0  0  0  0  0  0  0  0  0  0  0
  150.6319  137.8376  156.3813 H   0  0  0  0  0  0  0  0  0  0  0  0
  152.7768  139.5065  157.7750 H   0  0  0  0  0  0  0  0  0  0  0  0
  152.9925  138.5334  156.3421 H   0  0  0  0  0  0  0  0  0  0  0  0
  152.7459  140.9605  155.7743 H   0  0  0  0  0  0  0  0  0  0  0  0
  151.4881  139.9934  155.0469 H   0  0  0  0  0  0  0  0  0  0  0  0
  150.4880  142.0015  155.9874 H   0  0  0  0  0  0  0  0  0  0  0  0
  150.1616  143.4684  157.5710 H   0  0  0  0  0  0  0  0  0  0  0  0
  149.9534  142.6140  159.0952 H   0  0  0  0  0  0  0  0  0  0  0  0
  149.1116  139.9770  156.1508 H   0  0  0  0  0  0  0  0  0  0  0  0
  148.8056  140.9625  157.5454 H   0  0  0  0  0  0  0  0  0  0  0  0
  1  2  2  0  0  0  0
  2  3  1  0  0  0  0
  2 11  1  0  0  0  0
  3  4  1  0  0  0  0
  3 24  1  0  0  0  0
  3 25  1  0  0  0  0
  4  9  1  0  0  0  0
  4  5  1  0  0  0  0
  5  6  2  0  0  0  0
  5 26  1  0  0  0  0
  6  7  1  0  0  0  0
  6 27  1  0  0  0  0
  7  8  2  0  0  0  0
  7 28  1  0  0  0  0
  8  9  1  0  0  0  0
  8 29  1  0  0  0  0
  9 10  2  0  0  0  0
 11 12  1  0  0  0  0
 11 30  1  0  0  0  0
 12 23  1  0  0  0  0
 12 13  1  0  0  0  0
 12 31  1  0  0  0  0
 13 14  1  0  0  0  0
 13 32  1  0  0  0  0
 13 33  1  0  0  0  0
 14 15  1  0  0  0  0
 14 34  1  0  0  0  0
 14 35  1  0  0  0  0
 15 16  1  0  0  0  0
 15 36  1  0  0  0  0
 15 37  1  0  0  0  0
 16 17  1  0  0  0  0
 16 23  1  0  0  0  0
 16 38  1  0  0  0  0
 17 18  1  0  0  0  0
 18 19  1  0  0  0  0
 18 39  1  0  0  0  0
 18 40  1  0  0  0  0
 19 20  1  0  0  0  0
 19 21  1  0  0  0  0
 19 22  1  0  0  0  0
 23 41  1  0  0  0  0
 23 42  1  0  0  0  0
M  END
> <s_m_source_file>
AV-unprocessed.smi

> <i_m_source_file_index>
1376

> <i_lp_mmshare_version>
43012

> <i_f3d_flags>
0

> <s_epik_input>
Tz1jMVtjSF1bY0hdW2NIXVtjSF1uMVtDSDJdQyg9TylbTkhdW0NAQEhdMltDSDJdW0NIMl1bQ0gyXVtDQEhdKFtDSDJdMilPW0NIMl1DKEYpKEYpRg==

> <s_epik_cmdline>
J2VwaWtfcHl0aG9uJywgJy1waCcsICc3LjAnLCAnLXRuJywgJzgnLCAnLW1hJywgJzIwMCcsICctbWV0YWxfYmluZGluZycsICctaW1hZScsICc8aW5maWxlLm1hZT4nLCAnLW9tYWUnLCAnPG91dGZpbGUubWFlPic=

> <r_lp_tautomer_probability>
1

> <r_epik_Ionization_Penalty>
4.08567e-07

> <r_epik_Ionization_Penalty_Charging>
3.90028e-07

> <r_epik_Ionization_Penalty_Neutral>
1.85393e-08

> <r_epik_State_Penalty>
-0

> <r_epik_Charging_Adjusted_Penalty>
3.90028e-07

> <i_epik_Tot_Q>
0

> <i_epik_Tot_abs_Q>
0

> <r_epik_Metal_State_Penalty>
-0

> <b_epik_Metal_Only>
0

> <s_lp_Force_Field>
OPLS_2005

> <r_lp_Energy>
20.214

> <b_lp_Chiralities_Consistent>
1

> <s_lp_Variant>
AV-unprocessed.smi:1376-4

> <Gold.Version>
5.8.1

> <Gold.Id.Protein>
6NUR|6NUR_protein|mol2

> <Gold.PLP.Fitness>
52.7707

> <Gold.PLP.PLP>
-49.5481

> <Gold.PLP.part.hbond>
-3.0000

> <Gold.PLP.part.metal>
0.0000

> <Gold.PLP.part.buried>
-6.0735

> <Gold.PLP.part.nonpolar>
-40.9202

> <Gold.PLP.part.repulsive>
0.1943

> <Gold.PLP.ligand.clash>
0.0000

> <Gold.PLP.ligand.torsion>
0.6053

> <Gold.PLP.Chemscore.Hbond>
1.4560

> <Gold.PLP.Chemscore.CHOScore>
0.0000

> <Gold.PLP.Chemscore.Metal>
0.0000

> <Gold.Chemscore.Hbonds>
donor molecule, donor type, donor heavy atom, donor atom, acceptor molecule, acceptor atom, score
      P1  H  6931  6943       L1    10  0.90
      P1  H  6934  6947       L1    10  0.49

> <Gold.PLP.Chemscore.Internal.Correction>
0.0652

> <Gold.Rescore>
     Score         DG    S(hbond)    S(metal)    S(lipo)     H(rot)  DE(clash)    DE(int)     intcor
     13.35     -13.82       1.60        0.00      73.26       2.18       0.11       0.36       ----

> <Gold.Chemscore.Fitness>
13.3502

> <Gold.Chemscore.DG>
-13.8249

> <Gold.Chemscore.ZeroCoef>
-5.4800

> <Gold.Chemscore.Hbond>
1.6028

> <Gold.Chemscore.Metal>
0.0000

> <Gold.Chemscore.Lipo>
73.2625

> <Gold.Chemscore.Internal_Hbond>
0.0000

> <Gold.Chemscore.DEClash>
0.1103

> <Gold.Chemscore.DEInternal>
0.3645

> <Gold.Chemscore.Rot>
2.1797

> <Gold.Chemscore.Internal.Correction>
   9.000000E+99

> <Gold.Chemscore.Hbonds>
donor molecule, donor type, donor heavy atom, donor atom, acceptor molecule, acceptor atom, score
      P1  H  6931  6943       L1    10  0.87
      P1  H  6934  6947       L1    10  0.49

> <Gold.Chemscore.Hbond.Weighted>
-5.3534

> <Gold.Chemscore.Metal.Weighted>
-0.0000

> <Gold.Chemscore.Lipo.Weighted>
-8.5717

> <Gold.Chemscore.Internal_Hbond.Weighted>
0.0000

> <Gold.Chemscore.DEClash.Weighted>
0.1103

> <Gold.Chemscore.DEInternal.Weighted>
0.3645

> <Gold.Chemscore.Rot.Weighted>
5.5802

> <Gold.Chemscore.Internal.Correction.Weighted>
   9.000000E+99

> <Gold.Protein.RotatedTorsions>
[ 6907 6896 6895 6894 ] final  165.41 input  -60.11 | X-H torsion
[ 7974 7965 7964 7962 ] final  102.81 input  175.53 | X-H torsion
[ 8008 7997 7996 7995 ] final  -74.52 input   59.86 | X-H torsion
[ 10167 10162 10161 10158 ] final  -17.09 input  -65.29 | X-H torsion
[ 10718 10713 10712 10709 ] final   85.10 input   66.30 | X-H torsion
[ 10763 10752 10751 10750 ] final -136.67 input  -60.55 | X-H torsion
[ 11005 11000 10999 10996 ] final   64.40 input  -57.11 | X-H torsion

> <Gold.Protein.ActiveResidues>
 VAL166  LYS551  ARG553  GLY616  TRP617  ASP618  TYR619  PRO620  LYS621  CYS622 
 ASP623  PHE694  ASN695  SER759  ASP760  ASP761  ALA762  ILE779  LEU786  VAL792 
 PHE793  MET794  SER795  GLU796  ALA797  LYS798  CYS799  TRP800  GLU811  SER814 

> <Gold.Protein.RotatedAtoms>
  151.8948  133.3524  159.3810 H   0  0  0  0  0  0  0  0  0  0  0  0  # atno 6907 bound_to 6896
  150.7094  134.4888  159.5515 H   0  0  0  0  0  0  0  0  0  0  0  0  # atno 6908 bound_to 6896
  152.2465  134.8177  160.0503 H   0  0  0  0  0  0  0  0  0  0  0  0  # atno 6909 bound_to 6896
  145.3541  139.2432  143.3542 H   0  0  0  0  0  0  0  0  0  0  0  0  # atno 7974 bound_to 7965
  154.5338  140.0760  156.8392 H   0  0  0  0  0  0  0  0  0  0  0  0  # atno 8008 bound_to 7997
  155.3320  140.3402  155.4221 H   0  0  0  0  0  0  0  0  0  0  0  0  # atno 8009 bound_to 7997
  156.1808  140.1651  156.8264 H   0  0  0  0  0  0  0  0  0  0  0  0  # atno 8010 bound_to 7997
  140.7242  143.5050  150.9821 H   0  0  0  0  0  0  0  0  0  0  0  0  # atno 10167 bound_to 10162
  157.6909  131.0161  150.2772 H   0  0  0  0  0  0  0  0  0  0  0  0  # atno 10718 bound_to 10713
  154.8679  135.3665  154.5099 H   0  0  0  0  0  0  0  0  0  0  0  0  # atno 10763 bound_to 10752
  153.5734  135.7020  153.5499 H   0  0  0  0  0  0  0  0  0  0  0  0  # atno 10764 bound_to 10752
  153.3521  135.4069  155.1617 H   0  0  0  0  0  0  0  0  0  0  0  0  # atno 10765 bound_to 10752
  139.9961  134.6515  156.0008 H   0  0  0  0  0  0  0  0  0  0  0  0  # atno 11005 bound_to 11000
  146.2955  140.4163  142.8723 LP  0  0  0  0  0  0  0  0  0  0  0  0  # atno 17320 bound_to 7965
  144.8695  140.7253  143.6056 LP  0  0  0  0  0  0  0  0  0  0  0  0  # atno 17321 bound_to 7965
  139.8761  143.7131  152.3162 LP  0  0  0  0  0  0  0  0  0  0  0  0  # atno 17342 bound_to 10162
  139.7397  144.7562  151.0672 LP  0  0  0  0  0  0  0  0  0  0  0  0  # atno 17343 bound_to 10162
  156.3325  130.3802  149.7479 LP  0  0  0  0  0  0  0  0  0  0  0  0  # atno 17370 bound_to 10713
  156.5014  130.8130  151.3134 LP  0  0  0  0  0  0  0  0  0  0  0  0  # atno 17371 bound_to 10713
  141.1605  133.6539  156.4304 LP  0  0  0  0  0  0  0  0  0  0  0  0  # atno 17394 bound_to 11000
  140.4815  134.6660  157.5173 LP  0  0  0  0  0  0  0  0  0  0  0  0  # atno 17395 bound_to 11000

$$$$
