AV-unprocessed.smi:1221|AV-procd|sdf|5118|dock5
  -GOLD-   22720 4173D 1   1.00000     0.00000
 Structure written by MMmdl.
 40 41  0  0  0  0  0  0  0  0  1 V2000
  143.8303  132.4187  149.9299 C   0  0  0  0  0  0  0  0  0  0  0  0
  144.3164  133.5304  150.7952 C   0  0  0  0  0  0  0  0  0  0  0  0
  145.5047  134.2016  150.8671 C   0  0  0  0  0  0  0  0  0  0  0  0
  145.2806  135.1367  151.9125 C   0  0  0  0  0  0  0  0  0  0  0  0
  146.2962  136.0447  152.3066 N   0  0  0  0  0  0  0  0  0  0  0  0
  146.2191  136.9983  153.2504 C   0  0  0  0  0  0  0  0  0  0  0  0
  145.2258  137.2369  153.9380 O   0  0  0  0  0  0  0  0  0  0  0  0
  147.3739  137.6708  153.3605 N   0  0  0  0  0  0  0  0  0  0  0  0
  147.6142  138.7616  154.2969 C   0  0  0  0  0  0  0  0  0  0  0  0
  148.8090  139.6289  153.8584 C   0  0  0  0  0  0  0  0  0  0  0  0
  149.0605  140.7096  154.8196 N   0  0  0  0  0  0  0  0  0  0  0  0
  147.9032  141.5439  155.1833 C   0  0  0  0  0  0  0  0  0  0  0  0
  147.4119  141.3272  156.6340 C   0  0  0  0  0  0  0  0  0  0  0  0
  148.4813  140.9095  157.6629 C   0  0  0  0  0  0  0  0  0  0  0  0
  149.7291  141.8156  157.7113 C   0  0  0  0  0  0  0  0  0  0  0  0
  150.4656  142.0484  156.3706 C   0  0  0  0  0  0  0  0  0  0  0  0
  150.2927  140.9139  155.3479 C   0  0  0  0  0  0  0  0  0  0  0  0
  151.2729  140.2304  155.0508 O   0  0  0  0  0  0  0  0  0  0  0  0
  144.0658  135.0444  152.4315 N   0  0  0  0  0  0  0  0  0  0  0  0
  143.4410  134.0156  151.7171 O   0  0  0  0  0  0  0  0  0  0  0  0
  144.6655  131.8836  149.4778 H   0  0  0  0  0  0  0  0  0  0  0  0
  143.1999  132.8028  149.1279 H   0  0  0  0  0  0  0  0  0  0  0  0
  143.2450  131.7037  150.5083 H   0  0  0  0  0  0  0  0  0  0  0  0
  146.3892  134.0466  150.2675 H   0  0  0  0  0  0  0  0  0  0  0  0
  147.1756  135.9568  151.8196 H   0  0  0  0  0  0  0  0  0  0  0  0
  148.1400  137.4098  152.7573 H   0  0  0  0  0  0  0  0  0  0  0  0
  146.7123  139.3726  154.3468 H   0  0  0  0  0  0  0  0  0  0  0  0
  147.7700  138.3597  155.2996 H   0  0  0  0  0  0  0  0  0  0  0  0
  149.7046  139.0133  153.7551 H   0  0  0  0  0  0  0  0  0  0  0  0
  148.6264  140.0297  152.8609 H   0  0  0  0  0  0  0  0  0  0  0  0
  148.1578  142.5933  155.0326 H   0  0  0  0  0  0  0  0  0  0  0  0
  147.0655  141.3768  154.5057 H   0  0  0  0  0  0  0  0  0  0  0  0
  146.9106  142.2335  156.9752 H   0  0  0  0  0  0  0  0  0  0  0  0
  146.6434  140.5536  156.6257 H   0  0  0  0  0  0  0  0  0  0  0  0
  148.0251  140.8856  158.6528 H   0  0  0  0  0  0  0  0  0  0  0  0
  148.7863  139.8802  157.4695 H   0  0  0  0  0  0  0  0  0  0  0  0
  149.4461  142.7848  158.1233 H   0  0  0  0  0  0  0  0  0  0  0  0
  150.4321  141.3886  158.4275 H   0  0  0  0  0  0  0  0  0  0  0  0
  150.1372  142.9846  155.9196 H   0  0  0  0  0  0  0  0  0  0  0  0
  151.5287  142.1929  156.5672 H   0  0  0  0  0  0  0  0  0  0  0  0
  1  2  1  0  0  0  0
  1 21  1  0  0  0  0
  1 22  1  0  0  0  0
  1 23  1  0  0  0  0
  2 20  1  0  0  0  0
  2  3  2  0  0  0  0
  3  4  1  0  0  0  0
  3 24  1  0  0  0  0
  4  5  1  0  0  0  0
  4 19  2  0  0  0  0
  5  6  1  0  0  0  0
  5 25  1  0  0  0  0
  6  7  2  0  0  0  0
  6  8  1  0  0  0  0
  8  9  1  0  0  0  0
  8 26  1  0  0  0  0
  9 10  1  0  0  0  0
  9 27  1  0  0  0  0
  9 28  1  0  0  0  0
 10 11  1  0  0  0  0
 10 29  1  0  0  0  0
 10 30  1  0  0  0  0
 11 17  1  0  0  0  0
 11 12  1  0  0  0  0
 12 13  1  0  0  0  0
 12 31  1  0  0  0  0
 12 32  1  0  0  0  0
 13 14  1  0  0  0  0
 13 33  1  0  0  0  0
 13 34  1  0  0  0  0
 14 15  1  0  0  0  0
 14 35  1  0  0  0  0
 14 36  1  0  0  0  0
 15 16  1  0  0  0  0
 15 37  1  0  0  0  0
 15 38  1  0  0  0  0
 16 17  1  0  0  0  0
 16 39  1  0  0  0  0
 16 40  1  0  0  0  0
 17 18  2  0  0  0  0
 19 20  1  0  0  0  0
M  END
> <s_m_source_file>
AV-unprocessed.smi

> <i_m_source_file_index>
1221

> <i_lp_mmshare_version>
43012

> <i_f3d_flags>
0

> <s_epik_input>
W0NIM11jMVtjSF1jKG5vMSlbTkhdQyg9TylbTkhdW0NIMl1bQ0gyXU4yW0NIMl1bQ0gyXVtDSDJdW0NIMl1bQ0gyXUMyPU8=

> <s_epik_cmdline>
J2VwaWtfcHl0aG9uJywgJy1waCcsICc3LjAnLCAnLXRuJywgJzgnLCAnLW1hJywgJzIwMCcsICctbWV0YWxfYmluZGluZycsICctaW1hZScsICc8aW5maWxlLm1hZT4nLCAnLW9tYWUnLCAnPG91dGZpbGUubWFlPic=

> <r_lp_tautomer_probability>
1

> <r_epik_Ionization_Penalty>
2.943e-05

> <r_epik_Ionization_Penalty_Charging>
0

> <r_epik_Ionization_Penalty_Neutral>
2.943e-05

> <r_epik_State_Penalty>
-0

> <r_epik_Charging_Adjusted_Penalty>
0

> <i_epik_Tot_Q>
0

> <i_epik_Tot_abs_Q>
0

> <r_epik_Metal_State_Penalty>
0.0104721

> <b_epik_Metal_Only>
0

> <s_lp_Force_Field>
OPLS_2005

> <r_lp_Energy>
18.1231

> <b_lp_Chiralities_Consistent>
1

> <s_lp_Variant>
AV-unprocessed.smi:1221-1

> <Gold.Version>
5.8.1

> <Gold.Id.Protein>
6NUR|6NUR_protein|mol2

> <Gold.PLP.Fitness>
37.4358

> <Gold.PLP.PLP>
-28.9630

> <Gold.PLP.part.hbond>
-3.0000

> <Gold.PLP.part.metal>
0.0000

> <Gold.PLP.part.buried>
-2.0747

> <Gold.PLP.part.nonpolar>
-24.4473

> <Gold.PLP.part.repulsive>
0.4965

> <Gold.PLP.ligand.clash>
0.0000

> <Gold.PLP.ligand.torsion>
0.2080

> <Gold.PLP.Chemscore.Hbond>
2.9600

> <Gold.PLP.Chemscore.CHOScore>
0.0000

> <Gold.PLP.Chemscore.Metal>
0.0000

> <Gold.Chemscore.Hbonds>
donor molecule, donor type, donor heavy atom, donor atom, acceptor molecule, acceptor atom, score
      L1  H     5    25       P1  7948  0.98
      L1  H     8    26       P1  7948  1.00
      P1  H  7989  7998       L1    18  1.00

> <Gold.PLP.Chemscore.Internal.Correction>
0.0089

> <Gold.Rescore>
     Score         DG    S(hbond)    S(metal)    S(lipo)     H(rot)  DE(clash)    DE(int)     intcor
     14.76     -16.38       2.80        0.00      48.89       1.63       0.06       1.55       ----

> <Gold.Chemscore.Fitness>
14.7636

> <Gold.Chemscore.DG>
-16.3793

> <Gold.Chemscore.ZeroCoef>
-5.4800

> <Gold.Chemscore.Hbond>
2.7972

> <Gold.Chemscore.Metal>
0.0000

> <Gold.Chemscore.Lipo>
48.8943

> <Gold.Chemscore.Internal_Hbond>
0.0000

> <Gold.Chemscore.DEClash>
0.0646

> <Gold.Chemscore.DEInternal>
1.5510

> <Gold.Chemscore.Rot>
1.6266

> <Gold.Chemscore.Internal.Correction>
   9.000000E+99

> <Gold.Chemscore.Hbonds>
donor molecule, donor type, donor heavy atom, donor atom, acceptor molecule, acceptor atom, score
      L1  H     5    25       P1  7948  0.93
      L1  H     8    26       P1  7948  0.95
      P1  H  7989  7998       L1    18  0.25

> <Gold.Chemscore.Hbond.Weighted>
-9.3427

> <Gold.Chemscore.Metal.Weighted>
-0.0000

> <Gold.Chemscore.Lipo.Weighted>
-5.7206

> <Gold.Chemscore.Internal_Hbond.Weighted>
0.0000

> <Gold.Chemscore.DEClash.Weighted>
0.0646

> <Gold.Chemscore.DEInternal.Weighted>
1.5510

> <Gold.Chemscore.Rot.Weighted>
4.1641

> <Gold.Chemscore.Internal.Correction.Weighted>
   9.000000E+99

> <Gold.Protein.RotatedTorsions>
[ 6907 6896 6895 6894 ] final   68.14 input  -60.11 | X-H torsion
[ 7974 7965 7964 7962 ] final   50.84 input  175.53 | X-H torsion
[ 8008 7997 7996 7995 ] final   48.50 input   59.86 | X-H torsion
[ 10167 10162 10161 10158 ] final -173.46 input  -65.29 | X-H torsion
[ 10718 10713 10712 10709 ] final    9.77 input   66.30 | X-H torsion
[ 10763 10752 10751 10750 ] final  -36.86 input  -60.55 | X-H torsion
[ 11005 11000 10999 10996 ] final  -83.61 input  -57.11 | X-H torsion

> <Gold.Protein.ActiveResidues>
 VAL166  LYS551  ARG553  GLY616  TRP617  ASP618  TYR619  PRO620  LYS621  CYS622 
 ASP623  PHE694  ASN695  SER759  ASP760  ASP761  ALA762  ILE779  LEU786  VAL792 
 PHE793  MET794  SER795  GLU796  ALA797  LYS798  CYS799  TRP800  GLU811  SER814 

> <Gold.Protein.RotatedAtoms>
  152.4600  134.5206  159.9781 H   0  0  0  0  0  0  0  0  0  0  0  0  # atno 6907 bound_to 6896
  151.5257  133.3452  159.2917 H   0  0  0  0  0  0  0  0  0  0  0  0  # atno 6908 bound_to 6896
  150.8559  134.7927  159.7107 H   0  0  0  0  0  0  0  0  0  0  0  0  # atno 6909 bound_to 6896
  145.9972  139.4401  143.0037 H   0  0  0  0  0  0  0  0  0  0  0  0  # atno 7974 bound_to 7965
  155.3867  140.3431  155.4249 H   0  0  0  0  0  0  0  0  0  0  0  0  # atno 8008 bound_to 7997
  156.1580  140.1592  156.8692 H   0  0  0  0  0  0  0  0  0  0  0  0  # atno 8009 bound_to 7997
  154.5113  140.0789  156.7977 H   0  0  0  0  0  0  0  0  0  0  0  0  # atno 8010 bound_to 7997
  139.5687  144.1693  152.1351 H   0  0  0  0  0  0  0  0  0  0  0  0  # atno 10167 bound_to 10162
  156.9712  130.5970  149.5669 H   0  0  0  0  0  0  0  0  0  0  0  0  # atno 10718 bound_to 10713
  153.8868  135.6816  153.4763 H   0  0  0  0  0  0  0  0  0  0  0  0  # atno 10763 bound_to 10752
  153.1203  135.4743  154.9182 H   0  0  0  0  0  0  0  0  0  0  0  0  # atno 10764 bound_to 10752
  154.7642  135.3219  154.8271 H   0  0  0  0  0  0  0  0  0  0  0  0  # atno 10765 bound_to 10752
  141.1656  133.7303  156.8746 H   0  0  0  0  0  0  0  0  0  0  0  0  # atno 11005 bound_to 11000
  145.7542  140.9961  143.1234 LP  0  0  0  0  0  0  0  0  0  0  0  0  # atno 17320 bound_to 7965
  144.6907  139.9251  143.7469 LP  0  0  0  0  0  0  0  0  0  0  0  0  # atno 17321 bound_to 7965
  140.1222  144.5363  150.6856 LP  0  0  0  0  0  0  0  0  0  0  0  0  # atno 17342 bound_to 10162
  140.6971  143.2411  151.4969 LP  0  0  0  0  0  0  0  0  0  0  0  0  # atno 17343 bound_to 10162
  156.0282  130.5374  150.8463 LP  0  0  0  0  0  0  0  0  0  0  0  0  # atno 17370 bound_to 10713
  157.5591  131.0945  150.9585 LP  0  0  0  0  0  0  0  0  0  0  0  0  # atno 17371 bound_to 10713
  140.1757  134.9068  157.2888 LP  0  0  0  0  0  0  0  0  0  0  0  0  # atno 17394 bound_to 11000
  140.2451  134.3749  155.7464 LP  0  0  0  0  0  0  0  0  0  0  0  0  # atno 17395 bound_to 11000

$$$$
