AV-unprocessed.smi:245|AV-procd|sdf|1878|dock2
  -GOLD-   2262020523D 1   1.00000     0.00000
 Structure written by MMmdl.
 54 58  0  0  0  0  0  0  0  0  1 V2000
  149.8439  141.9359  154.6986 O   0  0  0  0  0  0  0  0  0  0  0  0
  150.4486  141.9646  155.7678 C   0  0  0  0  0  0  0  0  0  0  0  0
  150.7878  140.6441  156.4815 C   0  0  0  0  0  0  0  0  0  0  0  0
  151.4742  140.7833  157.7774 N   0  0  0  0  0  0  0  0  0  0  0  0
  151.4273  139.6191  158.4686 C   0  0  0  0  0  0  0  0  0  0  0  0
  150.2697  138.9090  158.5345 N   0  0  0  0  0  0  0  0  0  0  0  0
  150.2349  137.7472  159.1944 C   0  0  0  0  0  0  0  0  0  0  0  0
  151.2243  137.1207  159.8354 N   0  0  0  0  0  0  0  0  0  0  0  0
  152.3902  137.8250  159.7569 C   0  0  0  0  0  0  0  0  0  0  0  0
  152.5761  139.0732  159.1003 C   0  0  0  0  0  0  0  0  0  0  0  0
  153.8917  139.4956  159.2404 N   0  0  0  0  0  0  0  0  0  0  0  0
  154.4519  138.5521  159.9473 C   0  0  0  0  0  0  0  0  0  0  0  0
  153.6296  137.4975  160.2779 N   0  0  0  0  0  0  0  0  0  0  0  0
  153.9687  136.3508  161.0683 C   0  0  0  0  0  0  0  0  0  0  0  0
  153.3065  136.0851  162.4231 C   0  0  0  0  0  0  0  0  0  0  0  0
  154.6172  135.4386  162.9270 C   0  0  0  0  0  0  0  0  0  0  0  0
  154.9827  135.7897  164.3803 C   0  0  0  0  0  0  0  0  0  0  0  0
  154.0947  135.1992  165.3068 O   0  0  0  0  0  0  0  0  0  0  0  0
  154.6676  133.9067  162.7449 C   0  0  0  0  0  0  0  0  0  0  0  0
  153.7955  133.2333  163.6288 O   0  0  0  0  0  0  0  0  0  0  0  0
  155.2956  136.2859  161.8258 C   0  0  0  0  0  0  0  0  0  0  0  0
  151.2929  142.0378  158.5182 C   0  0  1  0  0  0  0  0  0  0  0  0
  152.1990  142.1639  159.7688 C   0  0  0  0  0  0  0  0  0  0  0  0
  151.9723  143.5066  160.4854 C   0  0  0  0  0  0  0  0  0  0  0  0
  152.1865  144.6975  159.5378 C   0  0  0  0  0  0  0  0  0  0  0  0
  151.3214  144.5697  158.2739 C   0  0  0  0  0  0  0  0  0  0  0  0
  151.5799  143.2253  157.5725 C   0  0  2  0  0  0  0  0  0  0  0  0
  150.8070  143.1237  156.3411 N   0  0  0  0  0  0  0  0  0  0  0  0
  149.8546  140.0910  156.6080 H   0  0  0  0  0  0  0  0  0  0  0  0
  151.4152  140.0534  155.8128 H   0  0  0  0  0  0  0  0  0  0  0  0
  149.2784  137.2458  159.2083 H   0  0  0  0  0  0  0  0  0  0  0  0
  155.4902  138.5998  160.2418 H   0  0  0  0  0  0  0  0  0  0  0  0
  153.8604  135.4884  160.4083 H   0  0  0  0  0  0  0  0  0  0  0  0
  153.0526  137.0062  162.9509 H   0  0  0  0  0  0  0  0  0  0  0  0
  152.4483  135.4134  162.3810 H   0  0  0  0  0  0  0  0  0  0  0  0
  155.9854  135.4370  164.6237 H   0  0  0  0  0  0  0  0  0  0  0  0
  154.9921  136.8687  164.5377 H   0  0  0  0  0  0  0  0  0  0  0  0
  153.2421  135.5919  165.1992 H   0  0  0  0  0  0  0  0  0  0  0  0
  154.4155  133.6237  161.7227 H   0  0  0  0  0  0  0  0  0  0  0  0
  155.6720  133.5225  162.9232 H   0  0  0  0  0  0  0  0  0  0  0  0
  152.9675  133.1016  163.1930 H   0  0  0  0  0  0  0  0  0  0  0  0
  156.0993  135.7864  161.2843 H   0  0  0  0  0  0  0  0  0  0  0  0
  155.6189  137.2655  162.1834 H   0  0  0  0  0  0  0  0  0  0  0  0
  150.2493  142.0897  158.8366 H   0  0  0  0  0  0  0  0  0  0  0  0
  152.0121  141.3596  160.4793 H   0  0  0  0  0  0  0  0  0  0  0  0
  153.2465  142.0766  159.4769 H   0  0  0  0  0  0  0  0  0  0  0  0
  150.9578  143.5376  160.8848 H   0  0  0  0  0  0  0  0  0  0  0  0
  152.6430  143.5890  161.3412 H   0  0  0  0  0  0  0  0  0  0  0  0
  151.9577  145.6304  160.0537 H   0  0  0  0  0  0  0  0  0  0  0  0
  153.2385  144.7513  159.2545 H   0  0  0  0  0  0  0  0  0  0  0  0
  150.2667  144.6540  158.5399 H   0  0  0  0  0  0  0  0  0  0  0  0
  151.5390  145.3964  157.5966 H   0  0  0  0  0  0  0  0  0  0  0  0
  152.6301  143.1909  157.2764 H   0  0  0  0  0  0  0  0  0  0  0  0
  150.5643  143.9849  155.8731 H   0  0  0  0  0  0  0  0  0  0  0  0
  1  2  2  0  0  0  0
  2 28  1  0  0  0  0
  2  3  1  0  0  0  0
  3  4  1  0  0  0  0
  3 29  1  0  0  0  0
  3 30  1  0  0  0  0
  4  5  1  0  0  0  0
  4 22  1  0  0  0  0
  5 10  1  0  0  0  0
  5  6  2  0  0  0  0
  6  7  1  0  0  0  0
  7  8  2  0  0  0  0
  7 31  1  0  0  0  0
  8  9  1  0  0  0  0
  9 13  1  0  0  0  0
  9 10  2  0  0  0  0
 10 11  1  0  0  0  0
 11 12  2  0  0  0  0
 12 13  1  0  0  0  0
 12 32  1  0  0  0  0
 13 14  1  0  0  0  0
 14 21  1  0  0  0  0
 14 15  1  0  0  0  0
 14 33  1  0  0  0  0
 15 16  1  0  0  0  0
 15 34  1  0  0  0  0
 15 35  1  0  0  0  0
 16 17  1  0  0  0  0
 16 19  1  0  0  0  0
 16 21  1  0  0  0  0
 17 18  1  0  0  0  0
 17 36  1  0  0  0  0
 17 37  1  0  0  0  0
 18 38  1  0  0  0  0
 19 20  1  0  0  0  0
 19 39  1  0  0  0  0
 19 40  1  0  0  0  0
 20 41  1  0  0  0  0
 21 42  1  0  0  0  0
 21 43  1  0  0  0  0
 22 27  1  0  0  0  0
 22 23  1  0  0  0  0
 22 44  1  0  0  0  0
 23 24  1  0  0  0  0
 23 45  1  0  0  0  0
 23 46  1  0  0  0  0
 24 25  1  0  0  0  0
 24 47  1  0  0  0  0
 24 48  1  0  0  0  0
 25 26  1  0  0  0  0
 25 49  1  0  0  0  0
 25 50  1  0  0  0  0
 26 27  1  0  0  0  0
 26 51  1  0  0  0  0
 26 52  1  0  0  0  0
 27 28  1  0  0  0  0
 27 53  1  0  0  0  0
 28 54  1  0  0  0  0
M  END
> <s_m_source_file>
AV-unprocessed.smi

> <i_m_source_file_index>
245

> <i_lp_mmshare_version>
43012

> <i_f3d_flags>
0

> <s_epik_input>
W0NIMl0xW0NIMl1bQ0gyXVtDSDJdW0NASF0oW0NASF0xMilbTkhdQyg9TylbQ0gyXU4yYyhuW2NIXW4zKWMoYzM0KW5bY0hdbjRbQ0hdKFtDSDJdNSlbQ0gyXUM1KFtDSDJdW09IXSlbQ0gyXVtPSF0=

> <s_epik_cmdline>
J2VwaWtfcHl0aG9uJywgJy1waCcsICc3LjAnLCAnLXRuJywgJzgnLCAnLW1hJywgJzIwMCcsICctbWV0YWxfYmluZGluZycsICctaW1hZScsICc8aW5maWxlLm1hZT4nLCAnLW9tYWUnLCAnPG91dGZpbGUubWFlPic=

> <r_lp_tautomer_probability>
1

> <r_epik_Ionization_Penalty>
0.000702616

> <r_epik_Ionization_Penalty_Charging>
0

> <r_epik_Ionization_Penalty_Neutral>
0.000702616

> <r_epik_State_Penalty>
0.000343985

> <r_epik_Charging_Adjusted_Penalty>
0.000343985

> <i_epik_Tot_Q>
0

> <i_epik_Tot_abs_Q>
0

> <r_epik_Metal_State_Penalty>
-0

> <b_epik_Metal_Only>
0

> <s_lp_Force_Field>
OPLS_2005

> <r_lp_Energy>
49.1986

> <b_lp_Chiralities_Consistent>
1

> <s_lp_Variant>
AV-unprocessed.smi:245-3

> <Gold.Version>
5.8.1

> <Gold.Id.Protein>
6NUR|6NUR_protein|mol2

> <Gold.PLP.Fitness>
51.8456

> <Gold.PLP.PLP>
-43.9373

> <Gold.PLP.part.hbond>
-5.1655

> <Gold.PLP.part.metal>
0.0000

> <Gold.PLP.part.buried>
-6.7327

> <Gold.PLP.part.nonpolar>
-33.1968

> <Gold.PLP.part.repulsive>
0.2466

> <Gold.PLP.ligand.clash>
0.0000

> <Gold.PLP.ligand.torsion>
0.8067

> <Gold.PLP.Chemscore.Hbond>
2.8800

> <Gold.PLP.Chemscore.CHOScore>
0.0000

> <Gold.PLP.Chemscore.Metal>
0.0000

> <Gold.Chemscore.Hbonds>
donor molecule, donor type, donor heavy atom, donor atom, acceptor molecule, acceptor atom, score
      L1  H    28    54       P1  8028  0.59
      P1  H  6896  6907       L1     8  1.00
      P1  H  7989  7998       L1     1  0.03
      P1  H  7997  8008       L1    11  0.37
      P1  H  8011  8017       L1     1  0.02

> <Gold.PLP.Chemscore.Internal.Correction>
0.8817

> <Gold.Rescore>
     Score         DG    S(hbond)    S(metal)    S(lipo)     H(rot)  DE(clash)    DE(int)     intcor
     16.87     -17.60       2.80        0.00      95.34       3.28       0.01       0.72       ----

> <Gold.Chemscore.Fitness>
16.8723

> <Gold.Chemscore.DG>
-17.5971

> <Gold.Chemscore.ZeroCoef>
-5.4800

> <Gold.Chemscore.Hbond>
2.7989

> <Gold.Chemscore.Metal>
0.0000

> <Gold.Chemscore.Lipo>
95.3391

> <Gold.Chemscore.Internal_Hbond>
0.0000

> <Gold.Chemscore.DEClash>
0.0077

> <Gold.Chemscore.DEInternal>
0.7170

> <Gold.Chemscore.Rot>
3.2758

> <Gold.Chemscore.Internal.Correction>
   9.000000E+99

> <Gold.Chemscore.Hbonds>
donor molecule, donor type, donor heavy atom, donor atom, acceptor molecule, acceptor atom, score
      L1  H    28    54       P1  8028  0.58
      P1  H  6896  6907       L1     8  0.80
      P1  H  7997  8008       L1    11  0.30
      P1  H  8011  8017       L1     1  0.03

> <Gold.Chemscore.Hbond.Weighted>
-9.3484

> <Gold.Chemscore.Metal.Weighted>
-0.0000

> <Gold.Chemscore.Lipo.Weighted>
-11.1547

> <Gold.Chemscore.Internal_Hbond.Weighted>
0.0000

> <Gold.Chemscore.DEClash.Weighted>
0.0077

> <Gold.Chemscore.DEInternal.Weighted>
0.7170

> <Gold.Chemscore.Rot.Weighted>
8.3859

> <Gold.Chemscore.Internal.Correction.Weighted>
   9.000000E+99

> <Gold.Protein.RotatedTorsions>
[ 6907 6896 6895 6894 ] final   -0.44 input  -60.11 | X-H torsion
[ 7974 7965 7964 7962 ] final   93.95 input  175.53 | X-H torsion
[ 8008 7997 7996 7995 ] final -104.82 input   59.86 | X-H torsion
[ 10167 10162 10161 10158 ] final -134.04 input  -65.29 | X-H torsion
[ 10718 10713 10712 10709 ] final  109.56 input   66.30 | X-H torsion
[ 10763 10752 10751 10750 ] final  125.05 input  -60.55 | X-H torsion
[ 11005 11000 10999 10996 ] final  -19.12 input  -57.11 | X-H torsion

> <Gold.Protein.ActiveResidues>
 VAL166  LYS551  ARG553  GLY616  TRP617  ASP618  TYR619  PRO620  LYS621  CYS622 
 ASP623  PHE694  ASN695  SER759  ASP760  ASP761  ALA762  ILE779  LEU786  VAL792 
 PHE793  MET794  SER795  GLU796  ALA797  LYS798  CYS799  TRP800  GLU811  SER814 

> <Gold.Protein.RotatedAtoms>
  151.5622  135.1065  159.9975 H   0  0  0  0  0  0  0  0  0  0  0  0  # atno 6907 bound_to 6896
  152.4441  133.7499  159.6698 H   0  0  0  0  0  0  0  0  0  0  0  0  # atno 6908 bound_to 6896
  150.8353  133.7956  159.3106 H   0  0  0  0  0  0  0  0  0  0  0  0  # atno 6909 bound_to 6896
  145.4721  139.2281  143.2929 H   0  0  0  0  0  0  0  0  0  0  0  0  # atno 7974 bound_to 7965
  154.8908  140.0416  157.1837 H   0  0  0  0  0  0  0  0  0  0  0  0  # atno 8008 bound_to 7997
  154.8543  140.2934  155.5558 H   0  0  0  0  0  0  0  0  0  0  0  0  # atno 8009 bound_to 7997
  156.2997  140.2459  156.3507 H   0  0  0  0  0  0  0  0  0  0  0  0  # atno 8010 bound_to 7997
  139.8921  143.6709  152.2610 H   0  0  0  0  0  0  0  0  0  0  0  0  # atno 10167 bound_to 10162
  157.6535  131.0916  150.6472 H   0  0  0  0  0  0  0  0  0  0  0  0  # atno 10718 bound_to 10713
  153.6711  135.3330  155.3153 H   0  0  0  0  0  0  0  0  0  0  0  0  # atno 10763 bound_to 10752
  154.8490  135.4386  154.1704 H   0  0  0  0  0  0  0  0  0  0  0  0  # atno 10764 bound_to 10752
  153.2695  135.6999  153.7571 H   0  0  0  0  0  0  0  0  0  0  0  0  # atno 10765 bound_to 10752
  140.8336  133.7978  155.9785 H   0  0  0  0  0  0  0  0  0  0  0  0  # atno 11005 bound_to 11000
  146.2390  140.5500  142.8942 LP  0  0  0  0  0  0  0  0  0  0  0  0  # atno 17320 bound_to 7965
  144.7939  140.6085  143.6523 LP  0  0  0  0  0  0  0  0  0  0  0  0  # atno 17321 bound_to 7965
  139.7100  144.7622  151.1128 LP  0  0  0  0  0  0  0  0  0  0  0  0  # atno 17342 bound_to 10162
  140.7724  143.5343  150.9386 LP  0  0  0  0  0  0  0  0  0  0  0  0  # atno 17343 bound_to 10162
  156.6781  130.4559  149.5636 LP  0  0  0  0  0  0  0  0  0  0  0  0  # atno 17370 bound_to 10713
  156.1949  130.6583  151.1103 LP  0  0  0  0  0  0  0  0  0  0  0  0  # atno 17371 bound_to 10713
  140.8972  134.2423  157.5062 LP  0  0  0  0  0  0  0  0  0  0  0  0  # atno 17394 bound_to 11000
  139.8704  134.9689  156.4648 LP  0  0  0  0  0  0  0  0  0  0  0  0  # atno 17395 bound_to 11000

$$$$
