AV-unprocessed.smi:109|AV-procd|sdf|1058|dock8
  -GOLD-   2262018133D 1   1.00000     0.00000
 Structure written by MMmdl.
 58 61  0  0  0  0  0  0  0  0  1 V2000
  144.0023  142.8893  154.7059 O   0  0  0  0  0  0  0  0  0  0  0  0
  145.3617  143.2305  154.8707 C   0  0  0  0  0  0  0  0  0  0  0  0
  146.2452  142.2530  154.0793 C   0  0  0  0  0  0  0  0  0  0  0  0
  146.4477  140.9025  154.8020 C   0  0  1  0  0  0  0  0  0  0  0  0
  145.9428  139.8138  153.9657 N   0  0  0  0  0  0  0  0  0  0  0  0
  146.1735  138.5173  154.2705 C   0  0  0  0  0  0  0  0  0  0  0  0
  146.6605  138.1500  155.4849 N   0  0  0  0  0  0  0  0  0  0  0  0
  146.8725  136.8592  155.7593 C   0  0  0  0  0  0  0  0  0  0  0  0
  146.6667  135.7952  154.9793 N   0  0  0  0  0  0  0  0  0  0  0  0
  146.1771  136.1608  153.7593 C   0  0  0  0  0  0  0  0  0  0  0  0
  145.9062  137.4891  153.3305 C   0  0  0  0  0  0  0  0  0  0  0  0
  145.4141  137.4716  152.0318 N   0  0  0  0  0  0  0  0  0  0  0  0
  145.3935  136.2036  151.7181 C   0  0  0  0  0  0  0  0  0  0  0  0
  145.8467  135.3457  152.6993 N   0  0  0  0  0  0  0  0  0  0  0  0
  145.9528  133.8523  152.6888 C   0  0  1  0  0  0  0  0  0  0  0  0
  144.6769  133.3302  152.4542 O   0  0  0  0  0  0  0  0  0  0  0  0
  144.5759  132.9662  151.0850 C   0  0  2  0  0  0  0  0  0  0  0  0
  143.3137  132.1372  150.7651 C   0  0  0  0  0  0  0  0  0  0  0  0
  143.1114  131.9187  149.3847 O   0  0  0  0  0  0  0  0  0  0  0  0
  145.9716  132.4309  150.7388 C   0  0  2  0  0  0  0  0  0  0  0  0
  146.1457  131.0892  151.1604 O   0  0  0  0  0  0  0  0  0  0  0  0
  146.8597  133.4023  151.5209 C   0  0  2  0  0  0  0  0  0  0  0  0
  148.0753  132.8182  151.9502 O   0  0  0  0  0  0  0  0  0  0  0  0
  147.9142  140.6317  155.2396 C   0  0  0  0  0  0  0  0  0  0  0  0
  148.4463  141.6899  156.2309 C   0  0  0  0  0  0  0  0  0  0  0  0
  149.8611  141.3400  156.7211 C   0  0  0  0  0  0  0  0  0  0  0  0
  150.8314  141.1660  155.5424 C   0  0  0  0  0  0  0  0  0  0  0  0
  150.3121  140.1158  154.5482 C   0  0  0  0  0  0  0  0  0  0  0  0
  148.8968  140.4636  154.0581 C   0  0  0  0  0  0  0  0  0  0  0  0
  146.3135  133.5862  153.6833 H   0  0  0  0  0  0  0  0  0  0  0  0
  144.4577  133.9035  150.5377 H   0  0  0  0  0  0  0  0  0  0  0  0
  146.1652  132.4789  149.6667 H   0  0  0  0  0  0  0  0  0  0  0  0
  147.0886  134.2623  150.8892 H   0  0  0  0  0  0  0  0  0  0  0  0
  143.7649  143.0304  153.8021 H   0  0  0  0  0  0  0  0  0  0  0  0
  145.5154  144.2532  154.5255 H   0  0  0  0  0  0  0  0  0  0  0  0
  145.6026  143.2051  155.9338 H   0  0  0  0  0  0  0  0  0  0  0  0
  145.8105  142.0892  153.0924 H   0  0  0  0  0  0  0  0  0  0  0  0
  147.2086  142.7325  153.9113 H   0  0  0  0  0  0  0  0  0  0  0  0
  145.8400  140.9456  155.7067 H   0  0  0  0  0  0  0  0  0  0  0  0
  145.4014  140.0970  153.1616 H   0  0  0  0  0  0  0  0  0  0  0  0
  147.2616  136.6492  156.7446 H   0  0  0  0  0  0  0  0  0  0  0  0
  145.0430  135.8644  150.7545 H   0  0  0  0  0  0  0  0  0  0  0  0
  143.3663  131.1718  151.2688 H   0  0  0  0  0  0  0  0  0  0  0  0
  142.4326  132.6477  151.1548 H   0  0  0  0  0  0  0  0  0  0  0  0
  143.2277  132.7387  148.9294 H   0  0  0  0  0  0  0  0  0  0  0  0
  147.0283  130.8220  150.9529 H   0  0  0  0  0  0  0  0  0  0  0  0
  148.3128  132.1393  151.3371 H   0  0  0  0  0  0  0  0  0  0  0  0
  147.9137  139.6873  155.7859 H   0  0  0  0  0  0  0  0  0  0  0  0
  148.4700  142.6745  155.7647 H   0  0  0  0  0  0  0  0  0  0  0  0
  147.7753  141.7691  157.0868 H   0  0  0  0  0  0  0  0  0  0  0  0
  150.2256  142.1198  157.3905 H   0  0  0  0  0  0  0  0  0  0  0  0
  149.8285  140.4204  157.3066 H   0  0  0  0  0  0  0  0  0  0  0  0
  150.9612  142.1209  155.0313 H   0  0  0  0  0  0  0  0  0  0  0  0
  151.8160  140.8759  155.9103 H   0  0  0  0  0  0  0  0  0  0  0  0
  150.9910  140.0412  153.6983 H   0  0  0  0  0  0  0  0  0  0  0  0
  150.3040  139.1343  155.0239 H   0  0  0  0  0  0  0  0  0  0  0  0
  148.5468  139.6826  153.3826 H   0  0  0  0  0  0  0  0  0  0  0  0
  148.9432  141.3821  153.4727 H   0  0  0  0  0  0  0  0  0  0  0  0
  1  2  1  0  0  0  0
  1 34  1  0  0  0  0
  2  3  1  0  0  0  0
  2 35  1  0  0  0  0
  2 36  1  0  0  0  0
  3  4  1  0  0  0  0
  3 37  1  0  0  0  0
  3 38  1  0  0  0  0
  4  5  1  0  0  0  0
  4 24  1  0  0  0  0
  4 39  1  0  0  0  0
  5  6  1  0  0  0  0
  5 40  1  0  0  0  0
  6 11  1  0  0  0  0
  6  7  2  0  0  0  0
  7  8  1  0  0  0  0
  8  9  2  0  0  0  0
  8 41  1  0  0  0  0
  9 10  1  0  0  0  0
 10 14  1  0  0  0  0
 10 11  2  0  0  0  0
 11 12  1  0  0  0  0
 12 13  2  0  0  0  0
 13 14  1  0  0  0  0
 13 42  1  0  0  0  0
 14 15  1  0  0  0  0
 15 30  1  0  0  0  0
 15 22  1  0  0  0  0
 15 16  1  0  0  0  0
 16 17  1  0  0  0  0
 17 31  1  0  0  0  0
 17 18  1  0  0  0  0
 17 20  1  0  0  0  0
 18 19  1  0  0  0  0
 18 43  1  0  0  0  0
 18 44  1  0  0  0  0
 19 45  1  0  0  0  0
 20 32  1  0  0  0  0
 20 21  1  0  0  0  0
 20 22  1  0  0  0  0
 21 46  1  0  0  0  0
 22 33  1  0  0  0  0
 22 23  1  0  0  0  0
 23 47  1  0  0  0  0
 24 29  1  0  0  0  0
 24 25  1  0  0  0  0
 24 48  1  0  0  0  0
 25 26  1  0  0  0  0
 25 49  1  0  0  0  0
 25 50  1  0  0  0  0
 26 27  1  0  0  0  0
 26 51  1  0  0  0  0
 26 52  1  0  0  0  0
 27 28  1  0  0  0  0
 27 53  1  0  0  0  0
 27 54  1  0  0  0  0
 28 29  1  0  0  0  0
 28 55  1  0  0  0  0
 28 56  1  0  0  0  0
 29 57  1  0  0  0  0
 29 58  1  0  0  0  0
M  END
> <s_m_source_file>
AV-unprocessed.smi

> <i_m_source_file_index>
109

> <i_lp_mmshare_version>
43012

> <i_f3d_flags>
0

> <s_epik_input>
W0NIMl0xW0NIMl1bQ0gyXVtDSDJdW0NIMl1bQ0hdMVtDQEhdKFtDSDJdW0NIMl1bT0hdKVtOSF1jKG5bY0hdbjIpYyhjMjMpbltjSF1uM1tDQEBIXTRPW0NASF0oW0NIMl1bT0hdKVtDQEBIXShbT0hdKVtDQEhdNFtPSF0=

> <s_epik_cmdline>
J2VwaWtfcHl0aG9uJywgJy1waCcsICc3LjAnLCAnLXRuJywgJzgnLCAnLW1hJywgJzIwMCcsICctbWV0YWxfYmluZGluZycsICctaW1hZScsICc8aW5maWxlLm1hZT4nLCAnLW9tYWUnLCAnPG91dGZpbGUubWFlPic=

> <r_lp_tautomer_probability>
1

> <r_epik_Ionization_Penalty>
0.000793976

> <r_epik_Ionization_Penalty_Charging>
0

> <r_epik_Ionization_Penalty_Neutral>
0.000793976

> <r_epik_State_Penalty>
-0

> <r_epik_Charging_Adjusted_Penalty>
0

> <i_epik_Tot_Q>
0

> <i_epik_Tot_abs_Q>
0

> <r_epik_Metal_State_Penalty>
-0

> <b_epik_Metal_Only>
0

> <s_epik_Chemistry_Notes>
This compound contains an acetal/aminal-like group ( X-CH(R)-Y where X, Y are N, S, or O) that may be acid/base labile, releasing an aldehyde.

> <s_lp_Force_Field>
OPLS_2005

> <r_lp_Energy>
57.9674

> <b_lp_Chiralities_Consistent>
1

> <s_lp_Variant>
AV-unprocessed.smi:109-28

> <Gold.Version>
5.8.1

> <Gold.Id.Protein>
6NUR|6NUR_protein|mol2

> <Gold.PLP.Fitness>
55.2177

> <Gold.PLP.PLP>
-42.7297

> <Gold.PLP.part.hbond>
-6.3259

> <Gold.PLP.part.metal>
0.0000

> <Gold.PLP.part.buried>
-6.3328

> <Gold.PLP.part.nonpolar>
-31.6757

> <Gold.PLP.part.repulsive>
1.4147

> <Gold.PLP.ligand.clash>
0.0000

> <Gold.PLP.ligand.torsion>
1.0628

> <Gold.PLP.Chemscore.Hbond>
4.8000

> <Gold.PLP.Chemscore.CHOScore>
0.0000

> <Gold.PLP.Chemscore.Metal>
0.0000

> <Gold.Chemscore.Hbonds>
donor molecule, donor type, donor heavy atom, donor atom, acceptor molecule, acceptor atom, score
      L1  H     1    34       P1 10174  0.86
      L1  H     5    40       P1 10175  0.93
      L1  H    21    46       P1 10747  0.93
      L1  H    23    47       P1 10747  1.00
      P1  H 10785 10796       L1    19  1.00

> <Gold.PLP.Chemscore.Internal.Correction>
0.2136

> <Gold.Rescore>
     Score         DG    S(hbond)    S(metal)    S(lipo)     H(rot)  DE(clash)    DE(int)     intcor
     12.29     -14.88       4.17        0.00      80.87       5.47       0.03       2.56       ----

> <Gold.Chemscore.Fitness>
12.2867

> <Gold.Chemscore.DG>
-14.8761

> <Gold.Chemscore.ZeroCoef>
-5.4800

> <Gold.Chemscore.Hbond>
4.1699

> <Gold.Chemscore.Metal>
0.0000

> <Gold.Chemscore.Lipo>
80.8743

> <Gold.Chemscore.Internal_Hbond>
0.0000

> <Gold.Chemscore.DEClash>
0.0288

> <Gold.Chemscore.DEInternal>
2.5607

> <Gold.Chemscore.Rot>
5.4662

> <Gold.Chemscore.Internal.Correction>
   9.000000E+99

> <Gold.Chemscore.Hbonds>
donor molecule, donor type, donor heavy atom, donor atom, acceptor molecule, acceptor atom, score
      L1  H     1    34       P1 10174  0.18
      L1  H     5    40       P1 10175  0.91
      L1  H    21    46       P1 10747  0.88
      L1  H    23    47       P1 10747  1.00
      P1  H 10785 10796       L1    19  0.95

> <Gold.Chemscore.Hbond.Weighted>
-13.9273

> <Gold.Chemscore.Metal.Weighted>
-0.0000

> <Gold.Chemscore.Lipo.Weighted>
-9.4623

> <Gold.Chemscore.Internal_Hbond.Weighted>
0.0000

> <Gold.Chemscore.DEClash.Weighted>
0.0288

> <Gold.Chemscore.DEInternal.Weighted>
2.5607

> <Gold.Chemscore.Rot.Weighted>
13.9935

> <Gold.Chemscore.Internal.Correction.Weighted>
   9.000000E+99

> <Gold.Protein.RotatedTorsions>
[ 6907 6896 6895 6894 ] final  169.10 input  -60.11 | X-H torsion
[ 7974 7965 7964 7962 ] final   70.40 input  175.53 | X-H torsion
[ 8008 7997 7996 7995 ] final   57.49 input   59.86 | X-H torsion
[ 10167 10162 10161 10158 ] final  -14.76 input  -65.29 | X-H torsion
[ 10718 10713 10712 10709 ] final   79.00 input   66.30 | X-H torsion
[ 10763 10752 10751 10750 ] final   18.28 input  -60.55 | X-H torsion
[ 11005 11000 10999 10996 ] final -128.62 input  -57.11 | X-H torsion

> <Gold.Protein.ActiveResidues>
 VAL166  LYS551  ARG553  GLY616  TRP617  ASP618  TYR619  PRO620  LYS621  CYS622 
 ASP623  PHE694  ASN695  SER759  ASP760  ASP761  ALA762  ILE779  LEU786  VAL792 
 PHE793  MET794  SER795  GLU796  ALA797  LYS798  CYS799  TRP800  GLU811  SER814 

> <Gold.Protein.RotatedAtoms>
  151.8372  133.3418  159.3631 H   0  0  0  0  0  0  0  0  0  0  0  0  # atno 6907 bound_to 6896
  150.7246  134.5426  159.5764 H   0  0  0  0  0  0  0  0  0  0  0  0  # atno 6908 bound_to 6896
  152.2892  134.7742  160.0432 H   0  0  0  0  0  0  0  0  0  0  0  0  # atno 6909 bound_to 6896
  145.7786  139.2877  143.1279 H   0  0  0  0  0  0  0  0  0  0  0  0  # atno 7974 bound_to 7965
  155.5346  140.3483  155.4433 H   0  0  0  0  0  0  0  0  0  0  0  0  # atno 8008 bound_to 7997
  156.0694  140.1359  156.9873 H   0  0  0  0  0  0  0  0  0  0  0  0  # atno 8009 bound_to 7997
  154.4520  140.0969  156.6621 H   0  0  0  0  0  0  0  0  0  0  0  0  # atno 8010 bound_to 7997
  140.7207  143.5288  150.9545 H   0  0  0  0  0  0  0  0  0  0  0  0  # atno 10167 bound_to 10162
  157.6763  130.9894  150.1868 H   0  0  0  0  0  0  0  0  0  0  0  0  # atno 10718 bound_to 10713
  153.1264  135.6730  153.9251 H   0  0  0  0  0  0  0  0  0  0  0  0  # atno 10763 bound_to 10752
  153.8750  135.3065  155.3444 H   0  0  0  0  0  0  0  0  0  0  0  0  # atno 10764 bound_to 10752
  154.7668  135.4960  153.9651 H   0  0  0  0  0  0  0  0  0  0  0  0  # atno 10765 bound_to 10752
  140.9501  134.1077  157.4070 H   0  0  0  0  0  0  0  0  0  0  0  0  # atno 11005 bound_to 11000
  146.0097  140.8447  142.9977 LP  0  0  0  0  0  0  0  0  0  0  0  0  # atno 17320 bound_to 7965
  144.6800  140.2471  143.7336 LP  0  0  0  0  0  0  0  0  0  0  0  0  # atno 17321 bound_to 7965
  139.9008  143.6838  152.3131 LP  0  0  0  0  0  0  0  0  0  0  0  0  # atno 17342 bound_to 10162
  139.7187  144.7607  151.0991 LP  0  0  0  0  0  0  0  0  0  0  0  0  # atno 17343 bound_to 10162
  156.2588  130.3708  149.8152 LP  0  0  0  0  0  0  0  0  0  0  0  0  # atno 17370 bound_to 10713
  156.5903  130.8503  151.3406 LP  0  0  0  0  0  0  0  0  0  0  0  0  # atno 17371 bound_to 10713
  139.8845  135.0063  156.6371 LP  0  0  0  0  0  0  0  0  0  0  0  0  # atno 17394 bound_to 11000
  140.7615  133.8814  155.8422 LP  0  0  0  0  0  0  0  0  0  0  0  0  # atno 17395 bound_to 11000

$$$$
