#       Name:                AV-unprocessed.smi:102
#       Creating user name   scv26
#       Creation time:       Thu Mar 26 17:50:20 2020


#       File generated by GOLD software.
#

@<TRIPOS>MOLECULE
AV-unprocessed.smi:102
    56    57     1
SMALL
NO_CHARGES


@<TRIPOS>ATOM
      1 ****        -1.7474   4.1660  -2.7358 C.3            1 S1                 0.0000
      2 ****        -1.3849   2.6885  -2.6667 C.2            1 S1                 0.0000
      3 ****        -1.3267   1.9928  -3.6809 O.2            1 S1                 0.0000
      4 ****        -1.1444   2.2780  -1.4091 O.3            1 S1                 0.0000
      5 ****        -0.7783   0.9298  -1.1464 C.3            1 S1                 0.0000
      6 ****         0.7423   0.7263  -1.3289 C.3            1 S1                 0.0000
      7 ****         1.4384   1.3769  -0.2664 O.3            1 S1                 0.0000
      8 ****         1.7965   0.4722   0.7440 C.3            1 S1                 0.0000
      9 ****         1.1811   0.9038   2.0613 N.am           1 S1                 0.0000
     10 ****         0.2075   1.8876   2.1221 C.2            1 S1                 0.0000
     11 ****        -0.3358   2.2615   3.2983 C.2            1 S1                 0.0000
     12 ****        -1.2799   3.2180   3.3247 F              1 S1                 0.0000
     13 ****         0.1088   1.6242   4.5360 C.2            1 S1                 0.0000
     14 ****        -0.3958   1.9649   5.6046 O.2            1 S1                 0.0000
     15 ****         1.0780   0.6678   4.4484 N.pl3          1 S1                -1.0000
     16 ****         1.6319   0.2872   3.2602 C.2            1 S1                 0.0000
     17 ****         2.5065  -0.5745   3.1689 O.2            1 S1                 0.0000
     18 ****         1.3429  -0.9331   0.2922 C.3            1 S1                 0.0000
     19 ****         0.0971  -1.2889   0.8939 O.3            1 S1                 0.0000
     20 ****        -0.1379  -2.5483   1.2997 C.2            1 S1                 0.0000
     21 ****        -1.5076  -2.6991   1.9468 C.3            1 S1                 0.0000
     22 ****         0.6256  -3.5063   1.1805 O.2            1 S1                 0.0000
     23 ****         1.2126  -0.7244  -1.2102 C.3            1 S1                 0.0000
     24 ****         0.3545  -1.6553  -1.8621 O.3            1 S1                 0.0000
     25 ****         0.8320  -2.8391  -2.2831 C.2            1 S1                 0.0000
     26 ****        -0.2399  -3.6932  -2.9463 C.3            1 S1                 0.0000
     27 ****         1.9896  -3.2395  -2.1611 O.2            1 S1                 0.0000
     28 ****        -2.4457   4.4253  -1.9398 H              1 S1                 0.0000
     29 ****        -2.2126   4.4021  -3.6931 H              1 S1                 0.0000
     30 ****        -0.8524   4.7783  -2.6254 H              1 S1                 0.0000
     31 ****        -1.0835   0.6822  -0.1308 H              1 S1                 0.0000
     32 ****        -1.3386   0.2629  -1.8030 H              1 S1                 0.0000
     33 ****         1.0585   1.1365  -2.2882 H              1 S1                 0.0000
     34 ****         2.8754   0.5447   0.8910 H              1 S1                 0.0000
     35 ****        -0.1352   2.3771   1.2239 H              1 S1                 0.0000
     36 ****         2.1257  -1.6529   0.5355 H              1 S1                 0.0000
     37 ****        -2.2647  -2.1754   1.3629 H              1 S1                 0.0000
     38 ****        -1.4953  -2.2818   2.9537 H              1 S1                 0.0000
     39 ****        -1.7869  -3.7509   2.0103 H              1 S1                 0.0000
     40 ****         2.2110  -0.7717  -1.6488 H              1 S1                 0.0000
     41 ****        -0.7939  -3.1078  -3.6802 H              1 S1                 0.0000
     42 ****        -0.9400  -4.0656  -2.1982 H              1 S1                 0.0000
     43 ****         0.2103  -4.5465  -3.4539 H              1 S1                 0.0000
     44 ****        -1.5197   2.3959  -4.5755 LP             1 S1                 0.0000
     45 ****        -1.0864   1.0247  -3.6100 LP             1 S1                 0.0000
     46 ****         0.8481   2.0832   0.1242 LP             1 S1                 0.0000
     47 ****         2.2673   1.8001  -0.6322 LP             1 S1                 0.0000
     48 ****        -1.1031   2.6716   5.6207 LP             1 S1                 0.0000
     49 ****        -0.0988   1.5352   6.4573 LP             1 S1                 0.0000
     50 ****         1.3954   0.2279   5.2885 LP             1 S1                 0.0000
     51 ****         2.8756  -0.8193   2.2723 LP             1 S1                 0.0000
     52 ****         2.8479  -1.0296   3.9913 LP             1 S1                 0.0000
     53 ****         1.5179  -3.3835   0.7461 LP             1 S1                 0.0000
     54 ****         0.3536  -4.4075   1.5180 LP             1 S1                 0.0000
     55 ****         2.6733  -2.6635  -1.7131 LP             1 S1                 0.0000
     56 ****         2.2463  -4.1408  -2.5100 LP             1 S1                 0.0000
@<TRIPOS>BOND
    1    1    2 1     
    2    1   28 1     
    3    1   29 1     
    4    1   30 1     
    5    2    3 2     
    6    2    4 1     
    7    4    5 1     
    8    5    6 1     
    9    5   31 1     
   10    5   32 1     
   11    6   23 1     
   12    6    7 1     
   13    6   33 1     
   14    7    8 1     
   15    8    9 1     
   16    8   18 1     
   17    8   34 1     
   18    9   16 am    
   19    9   10 1     
   20   10   11 2     
   21   10   35 1     
   22   11   12 1     
   23   11   13 1     
   24   13   14 2     
   25   13   15 1     
   26   15   16 1     
   27   16   17 2     
   28   18   19 1     
   29   18   23 1     
   30   18   36 1     
   31   19   20 1     
   32   20   21 1     
   33   20   22 2     
   34   21   37 1     
   35   21   38 1     
   36   21   39 1     
   37   23   24 1     
   38   23   40 1     
   39   24   25 1     
   40   25   26 1     
   41   25   27 2     
   42   26   41 1     
   43   26   42 1     
   44   26   43 1     
   45    3   44 1     
   46    3   45 1     
   47    7   46 1     
   48    7   47 1     
   49   14   48 1     
   50   14   49 1     
   51   15   50 1     
   52   17   51 1     
   53   17   52 1     
   54   22   53 1     
   55   22   54 1     
   56   27   55 1     
   57   27   56 1     
@<TRIPOS>SUBSTRUCTURE
      1 S1             1
@<TRIPOS>SET
LONE_PAIRS      STATIC     ATOMS    <user>   **** ""
13 44 45 46 47 48 49 50 51 52 53 54 55 56
ATOM$BLUE        STATIC     ATOMS    COLORGROUP SYSTEM
13 44 45 46 47 48 49 50 51 52 53 54 55 56
