AV-unprocessed.smi:2296|AV-procd|sdf|9220|dock1
  -GOLD-   2272012443D 1   1.00000     0.00000
 Structure written by MMmdl.
 24 24  0  0  0  0  0  0  0  0  2 V2000
  145.1958  136.5300  149.7133 N   0  3  0  0  0  0  0  0  0  0  0  0
  145.3010  136.0837  151.1161 C   0  0  2  0  0  0  0  0  0  0  0  0
  145.8352  137.2246  151.9988 C   0  0  0  0  0  0  0  0  0  0  0  0
  147.0417  137.7299  151.4665 O   0  0  0  0  0  0  0  0  0  0  0  0
  146.1902  134.8293  151.2210 C   0  0  0  0  0  0  0  0  0  0  0  0
  145.4307  133.5367  150.9773 C   0  0  0  0  0  0  0  0  0  0  0  0
  146.0885  132.2904  151.0342 C   0  0  0  0  0  0  0  0  0  0  0  0
  145.3365  131.1222  150.7953 C   0  0  0  0  0  0  0  0  0  0  0  0
  144.0167  131.1357  150.5110 N   0  0  0  0  0  0  0  0  0  0  0  0
  143.3925  132.3321  150.4604 C   0  0  0  0  0  0  0  0  0  0  0  0
  144.0515  133.5579  150.6841 C   0  0  0  0  0  0  0  0  0  0  0  0
  145.1009  135.7271  149.1083 H   0  0  0  0  0  0  0  0  0  0  0  0
  146.0310  137.0411  149.4652 H   0  0  0  0  0  0  0  0  0  0  0  0
  144.2979  135.8231  151.4576 H   0  0  0  0  0  0  0  0  0  0  0  0
  145.1161  138.0436  152.0382 H   0  0  0  0  0  0  0  0  0  0  0  0
  145.9982  136.8895  153.0240 H   0  0  0  0  0  0  0  0  0  0  0  0
  147.7629  137.3872  151.9733 H   0  0  0  0  0  0  0  0  0  0  0  0
  147.0240  134.8991  150.5207 H   0  0  0  0  0  0  0  0  0  0  0  0
  146.6354  134.7744  152.2155 H   0  0  0  0  0  0  0  0  0  0  0  0
  147.1435  132.2244  151.2573 H   0  0  0  0  0  0  0  0  0  0  0  0
  145.8089  130.1518  150.8309 H   0  0  0  0  0  0  0  0  0  0  0  0
  142.3369  132.3125  150.2332 H   0  0  0  0  0  0  0  0  0  0  0  0
  143.5072  134.4896  150.6311 H   0  0  0  0  0  0  0  0  0  0  0  0
  144.3894  137.1295  149.6094 H   0  0  0  0  0  0  0  0  0  0  0  0
  1  2  1  0  0  0  0
  1 12  1  0  0  0  0
  1 13  1  0  0  0  0
  1 24  1  0  0  0  0
  2  3  1  0  0  0  0
  2  5  1  0  0  0  0
  2 14  1  0  0  0  0
  3  4  1  0  0  0  0
  3 15  1  0  0  0  0
  3 16  1  0  0  0  0
  4 17  1  0  0  0  0
  5  6  1  0  0  0  0
  5 18  1  0  0  0  0
  5 19  1  0  0  0  0
  6 11  1  0  0  0  0
  6  7  2  0  0  0  0
  7  8  1  0  0  0  0
  7 20  1  0  0  0  0
  8  9  2  0  0  0  0
  8 21  1  0  0  0  0
  9 10  1  0  0  0  0
 10 11  2  0  0  0  0
 10 22  1  0  0  0  0
 11 23  1  0  0  0  0
M  CHG  1   1   1
M  END
> <s_m_source_file>
AV-unprocessed.smi

> <i_m_source_file_index>
2296

> <i_lp_mmshare_version>
43012

> <i_f3d_flags>
0

> <s_epik_input>
W09IXVtDSDJdW0NAQEhdKFtOSDJdKVtDSDJdYzFbY0hdW2NIXW5bY0hdW2NIXTE=

> <s_epik_cmdline>
J2VwaWtfcHl0aG9uJywgJy1waCcsICc3LjAnLCAnLXRuJywgJzgnLCAnLW1hJywgJzIwMCcsICctbWV0YWxfYmluZGluZycsICctaW1hZScsICc8aW5maWxlLm1hZT4nLCAnLW9tYWUnLCAnPG91dGZpbGUubWFlPic=

> <r_epik_Ionization_Penalty>
0.0199414

> <r_epik_Ionization_Penalty_Charging>
0.0188044

> <r_epik_Ionization_Penalty_Neutral>
0.00113699

> <r_epik_State_Penalty>
0.00788343

> <r_epik_Charging_Adjusted_Penalty>
0.0266878

> <i_epik_Tot_Q>
1

> <i_epik_Tot_abs_Q>
1

> <r_epik_Metal_State_Penalty>
-0

> <b_epik_Metal_Only>
0

> <s_lp_Force_Field>
OPLS_2005

> <r_lp_Energy>
8.03463

> <b_lp_Chiralities_Consistent>
1

> <s_lp_Variant>
AV-unprocessed.smi:2296-1

> <Gold.Version>
5.8.1

> <Gold.Id.Protein>
6NUR|6NUR_protein|mol2

> <Gold.PLP.Fitness>
39.2313

> <Gold.PLP.PLP>
-22.5111

> <Gold.PLP.part.hbond>
-4.3612

> <Gold.PLP.part.metal>
0.0000

> <Gold.PLP.part.buried>
-1.2766

> <Gold.PLP.part.nonpolar>
-18.1231

> <Gold.PLP.part.repulsive>
0.3017

> <Gold.PLP.ligand.clash>
0.0000

> <Gold.PLP.ligand.torsion>
0.3469

> <Gold.PLP.Chemscore.Hbond>
4.0229

> <Gold.PLP.Chemscore.CHOScore>
1.7783

> <Gold.PLP.Chemscore.Metal>
0.0000

> <Gold.Chemscore.Hbonds>
donor molecule, donor type, donor heavy atom, donor atom, acceptor molecule, acceptor atom, score
      L1  H     1    12       P1  7921  0.75
      L1  H     1    24       P1 10171  0.89
      L1  H     4    17       P1  7948  0.77
      P1  H  7954  7966       L1     4  0.55
      P1  H 10785 10796       L1     9  0.36
      L1  C    10    22       P1 10186  0.78
      L1  C    10    22       P1 10952  0.93

> <Gold.PLP.Chemscore.Internal.Correction>
0.0104

> <Gold.Rescore>
     Score         DG    S(hbond)    S(metal)    S(lipo)     H(rot)  DE(clash)    DE(int)     intcor
     17.32     -18.01       3.22        0.00      61.91       2.14       0.13       0.56       ----

> <Gold.Chemscore.Fitness>
17.3210

> <Gold.Chemscore.DG>
-18.0131

> <Gold.Chemscore.ZeroCoef>
-5.4800

> <Gold.Chemscore.Hbond>
3.2243

> <Gold.Chemscore.Metal>
0.0000

> <Gold.Chemscore.Lipo>
61.9121

> <Gold.Chemscore.Internal_Hbond>
0.0000

> <Gold.Chemscore.DEClash>
0.1345

> <Gold.Chemscore.DEInternal>
0.5577

> <Gold.Chemscore.Rot>
2.1405

> <Gold.Chemscore.Internal.Correction>
   9.000000E+99

> <Gold.Chemscore.Hbonds>
donor molecule, donor type, donor heavy atom, donor atom, acceptor molecule, acceptor atom, score
      L1  H     1    12       P1  7921  0.72
      L1  H     1    24       P1 10171  0.82
      L1  H     4    17       P1  7948  0.75
      P1  H  7954  7966       L1     4  0.03
      P1  H 10785 10796       L1     9  0.14

> <Gold.Chemscore.Hbond.Weighted>
-10.7692

> <Gold.Chemscore.Metal.Weighted>
-0.0000

> <Gold.Chemscore.Lipo.Weighted>
-7.2437

> <Gold.Chemscore.Internal_Hbond.Weighted>
0.0000

> <Gold.Chemscore.DEClash.Weighted>
0.1345

> <Gold.Chemscore.DEInternal.Weighted>
0.5577

> <Gold.Chemscore.Rot.Weighted>
5.4797

> <Gold.Chemscore.Internal.Correction.Weighted>
   9.000000E+99

> <Gold.Protein.RotatedTorsions>
[ 6907 6896 6895 6894 ] final   31.30 input  -60.11 | X-H torsion
[ 7974 7965 7964 7962 ] final  -64.83 input  175.53 | X-H torsion
[ 8008 7997 7996 7995 ] final -142.95 input   59.86 | X-H torsion
[ 10167 10162 10161 10158 ] final   65.64 input  -65.29 | X-H torsion
[ 10718 10713 10712 10709 ] final   62.53 input   66.30 | X-H torsion
[ 10763 10752 10751 10750 ] final   11.44 input  -60.55 | X-H torsion
[ 11005 11000 10999 10996 ] final    8.60 input  -57.11 | X-H torsion

> <Gold.Protein.ActiveResidues>
 VAL166  LYS551  ARG553  GLY616  TRP617  ASP618  TYR619  PRO620  LYS621  CYS622 
 ASP623  PHE694  ASN695  SER759  ASP760  ASP761  ALA762  ILE779  LEU786  VAL792 
 PHE793  MET794  SER795  GLU796  ALA797  LYS798  CYS799  TRP800  GLU811  SER814 

> <Gold.Protein.RotatedAtoms>
  152.0583  134.9610  160.0574 H   0  0  0  0  0  0  0  0  0  0  0  0  # atno 6907 bound_to 6896
  152.0984  133.4232  159.4584 H   0  0  0  0  0  0  0  0  0  0  0  0  # atno 6908 bound_to 6896
  150.6838  134.2708  159.4631 H   0  0  0  0  0  0  0  0  0  0  0  0  # atno 6909 bound_to 6896
  145.7619  140.8857  143.0425 H   0  0  0  0  0  0  0  0  0  0  0  0  # atno 7974 bound_to 7965
  155.5026  140.0577  157.2936 H   0  0  0  0  0  0  0  0  0  0  0  0  # atno 8008 bound_to 7997
  154.4581  140.1983  156.0270 H   0  0  0  0  0  0  0  0  0  0  0  0  # atno 8009 bound_to 7997
  156.0839  140.3243  155.7732 H   0  0  0  0  0  0  0  0  0  0  0  0  # atno 8010 bound_to 7997
  140.1091  144.4834  150.6989 H   0  0  0  0  0  0  0  0  0  0  0  0  # atno 10167 bound_to 10162
  157.5907  130.9055  149.9599 H   0  0  0  0  0  0  0  0  0  0  0  0  # atno 10718 bound_to 10713
  153.1926  135.6844  153.8333 H   0  0  0  0  0  0  0  0  0  0  0  0  # atno 10763 bound_to 10752
  153.7627  135.3207  155.3341 H   0  0  0  0  0  0  0  0  0  0  0  0  # atno 10764 bound_to 10752
  154.8126  135.4707  154.0655 H   0  0  0  0  0  0  0  0  0  0  0  0  # atno 10765 bound_to 10752
  140.5351  134.0428  155.7886 H   0  0  0  0  0  0  0  0  0  0  0  0  # atno 11005 bound_to 11000
  144.6829  139.9734  143.7482 LP  0  0  0  0  0  0  0  0  0  0  0  0  # atno 17320 bound_to 7965
  146.0256  139.3289  143.0786 LP  0  0  0  0  0  0  0  0  0  0  0  0  # atno 17321 bound_to 7965
  140.6935  143.2390  151.5064 LP  0  0  0  0  0  0  0  0  0  0  0  0  # atno 17342 bound_to 10162
  139.5629  144.2113  152.1719 LP  0  0  0  0  0  0  0  0  0  0  0  0  # atno 17343 bound_to 10162
  156.0961  130.3659  150.0303 LP  0  0  0  0  0  0  0  0  0  0  0  0  # atno 17370 bound_to 10713
  156.8426  130.9431  151.3631 LP  0  0  0  0  0  0  0  0  0  0  0  0  # atno 17371 bound_to 10713
  141.1259  133.9383  157.2636 LP  0  0  0  0  0  0  0  0  0  0  0  0  # atno 17394 bound_to 11000
  139.9533  135.0171  156.9057 LP  0  0  0  0  0  0  0  0  0  0  0  0  # atno 17395 bound_to 11000

$$$$
