AV-unprocessed.smi:2451|AV-procd|sdf|9675|dock8
  -GOLD-   2272013313D 1   1.00000     0.00000
 Structure written by MMmdl.
 38 39  0  0  0  0  0  0  0  0  1 V2000
  151.5748  145.7123  160.1287 C   0  0  0  0  0  0  0  0  0  0  0  0
  151.5757  144.2193  159.7616 C   0  0  2  0  0  0  0  0  0  0  0  0
  152.8217  143.4941  160.3141 C   0  0  0  0  0  0  0  0  0  0  0  0
  152.7724  141.9827  160.0327 C   0  0  0  0  0  0  0  0  0  0  0  0
  152.5611  141.6878  158.5395 C   0  0  0  0  0  0  0  0  0  0  0  0
  151.3166  142.4218  158.0094 C   0  0  2  0  0  0  0  0  0  0  0  0
  151.0986  142.1078  156.5947 N   0  0  0  0  0  0  0  0  0  0  0  0
  151.1829  140.4620  156.0894 S   0  0  0  0  0  0  0  0  0  0  0  0
  150.6575  140.3954  154.7171 O   0  0  0  0  0  0  0  0  0  0  0  0
  152.5415  139.9776  156.3792 O   0  0  0  0  0  0  0  0  0  0  0  0
  150.0037  139.6302  157.2339 C   0  0  0  0  0  0  0  0  0  0  0  0
  150.7348  138.6050  158.0526 C   0  0  0  0  0  0  0  0  0  0  0  0
  151.8372  138.7959  158.9313 C   0  0  0  0  0  0  0  0  0  0  0  0
  152.0924  137.5396  159.4004 C   0  0  0  0  0  0  0  0  0  0  0  0
  151.2222  136.6468  158.8648 O   0  0  0  0  0  0  0  0  0  0  0  0
  150.3585  137.3367  158.0068 N   0  0  0  0  0  0  0  0  0  0  0  0
  151.3863  143.9516  158.2441 C   0  0  2  0  0  0  0  0  0  0  0  0
  152.4471  144.6533  157.3637 C   0  0  0  0  0  0  0  0  0  0  0  0
  152.4614  146.2240  159.7543 H   0  0  0  0  0  0  0  0  0  0  0  0
  151.5581  145.8443  161.2110 H   0  0  0  0  0  0  0  0  0  0  0  0
  150.6972  146.2171  159.7241 H   0  0  0  0  0  0  0  0  0  0  0  0
  150.7095  143.7879  160.2660 H   0  0  0  0  0  0  0  0  0  0  0  0
  153.7279  143.9189  159.8815 H   0  0  0  0  0  0  0  0  0  0  0  0
  152.8970  143.6558  161.3899 H   0  0  0  0  0  0  0  0  0  0  0  0
  153.6916  141.5096  160.3792 H   0  0  0  0  0  0  0  0  0  0  0  0
  151.9603  141.5348  160.6067 H   0  0  0  0  0  0  0  0  0  0  0  0
  153.4462  141.9842  157.9758 H   0  0  0  0  0  0  0  0  0  0  0  0
  152.4508  140.6128  158.3931 H   0  0  0  0  0  0  0  0  0  0  0  0
  150.4592  142.0428  158.5683 H   0  0  0  0  0  0  0  0  0  0  0  0
  151.6576  142.7110  155.9916 H   0  0  0  0  0  0  0  0  0  0  0  0
  149.5469  140.3884  157.8694 H   0  0  0  0  0  0  0  0  0  0  0  0
  149.2126  139.1736  156.6385 H   0  0  0  0  0  0  0  0  0  0  0  0
  152.3603  139.7089  159.1735 H   0  0  0  0  0  0  0  0  0  0  0  0
  152.8227  137.1374  160.0868 H   0  0  0  0  0  0  0  0  0  0  0  0
  150.4186  144.3666  157.9578 H   0  0  0  0  0  0  0  0  0  0  0  0
  153.4589  144.3191  157.5898 H   0  0  0  0  0  0  0  0  0  0  0  0
  152.4208  145.7348  157.4933 H   0  0  0  0  0  0  0  0  0  0  0  0
  152.2717  144.4687  156.3039 H   0  0  0  0  0  0  0  0  0  0  0  0
  1  2  1  0  0  0  0
  1 19  1  0  0  0  0
  1 20  1  0  0  0  0
  1 21  1  0  0  0  0
  2 17  1  0  0  0  0
  2  3  1  0  0  0  0
  2 22  1  0  0  0  0
  3  4  1  0  0  0  0
  3 23  1  0  0  0  0
  3 24  1  0  0  0  0
  4  5  1  0  0  0  0
  4 25  1  0  0  0  0
  4 26  1  0  0  0  0
  5  6  1  0  0  0  0
  5 27  1  0  0  0  0
  5 28  1  0  0  0  0
  6  7  1  0  0  0  0
  6 17  1  0  0  0  0
  6 29  1  0  0  0  0
  7  8  1  0  0  0  0
  7 30  1  0  0  0  0
  8  9  2  0  0  0  0
  8 10  2  0  0  0  0
  8 11  1  0  0  0  0
 11 12  1  0  0  0  0
 11 31  1  0  0  0  0
 11 32  1  0  0  0  0
 12 16  2  0  0  0  0
 12 13  1  0  0  0  0
 13 14  2  0  0  0  0
 13 33  1  0  0  0  0
 14 15  1  0  0  0  0
 14 34  1  0  0  0  0
 15 16  1  0  0  0  0
 17 18  1  0  0  0  0
 17 35  1  0  0  0  0
 18 36  1  0  0  0  0
 18 37  1  0  0  0  0
 18 38  1  0  0  0  0
M  END
> <s_m_source_file>
AV-unprocessed.smi

> <i_m_source_file_index>
2451

> <i_lp_mmshare_version>
43012

> <i_f3d_flags>
0

> <s_epik_input>
W0NIM11bQ0BASF0xW0NIMl1bQ0gyXVtDSDJdW0NASF0oW0NASF0xW0NIM10pW05IXVMoPU8pKD1PKVtDSDJdYzJbY0hdW2NIXW9uMg==

> <s_epik_cmdline>
J2VwaWtfcHl0aG9uJywgJy1waCcsICc3LjAnLCAnLXRuJywgJzgnLCAnLW1hJywgJzIwMCcsICctbWV0YWxfYmluZGluZycsICctaW1hZScsICc8aW5maWxlLm1hZT4nLCAnLW9tYWUnLCAnPG91dGZpbGUubWFlPic=

> <r_lp_tautomer_probability>
1

> <r_epik_Ionization_Penalty>
8.73668e-05

> <r_epik_Ionization_Penalty_Charging>
0

> <r_epik_Ionization_Penalty_Neutral>
8.73668e-05

> <r_epik_State_Penalty>
-0

> <r_epik_Charging_Adjusted_Penalty>
0

> <i_epik_Tot_Q>
0

> <i_epik_Tot_abs_Q>
0

> <r_epik_Metal_State_Penalty>
0.0716439

> <b_epik_Metal_Only>
0

> <s_lp_Force_Field>
OPLS_2005

> <r_lp_Energy>
8.89421

> <b_lp_Chiralities_Consistent>
1

> <s_lp_Variant>
AV-unprocessed.smi:2451-7

> <Gold.Version>
5.8.1

> <Gold.Id.Protein>
6NUR|6NUR_protein|mol2

> <Gold.PLP.Fitness>
45.7522

> <Gold.PLP.PLP>
-36.9784

> <Gold.PLP.part.hbond>
-3.0000

> <Gold.PLP.part.metal>
0.0000

> <Gold.PLP.part.buried>
-5.8940

> <Gold.PLP.part.nonpolar>
-28.0556

> <Gold.PLP.part.repulsive>
0.0715

> <Gold.PLP.ligand.clash>
0.0000

> <Gold.PLP.ligand.torsion>
0.1860

> <Gold.PLP.Chemscore.Hbond>
3.0000

> <Gold.PLP.Chemscore.CHOScore>
0.0000

> <Gold.PLP.Chemscore.Metal>
0.0000

> <Gold.Chemscore.Hbonds>
donor molecule, donor type, donor heavy atom, donor atom, acceptor molecule, acceptor atom, score
      P1  H  6896  6909       L1    15  0.91
      P1  H  7989  7998       L1     9  1.00
      P1  H  7997  8010       L1    10  1.00

> <Gold.PLP.Chemscore.Internal.Correction>
0.1458

> <Gold.Rescore>
     Score         DG    S(hbond)    S(metal)    S(lipo)     H(rot)  DE(clash)    DE(int)     intcor
     20.76     -23.69       2.94        0.00     107.94       1.66       0.16       2.77       ----

> <Gold.Chemscore.Fitness>
20.7640

> <Gold.Chemscore.DG>
-23.6950

> <Gold.Chemscore.ZeroCoef>
-5.4800

> <Gold.Chemscore.Hbond>
2.9438

> <Gold.Chemscore.Metal>
0.0000

> <Gold.Chemscore.Lipo>
107.9420

> <Gold.Chemscore.Internal_Hbond>
0.0000

> <Gold.Chemscore.DEClash>
0.1613

> <Gold.Chemscore.DEInternal>
2.7697

> <Gold.Chemscore.Rot>
1.6588

> <Gold.Chemscore.Internal.Correction>
   9.000000E+99

> <Gold.Chemscore.Hbonds>
donor molecule, donor type, donor heavy atom, donor atom, acceptor molecule, acceptor atom, score
      P1  H  6896  6909       L1    15  0.67
      P1  H  7989  7998       L1     9  0.94
      P1  H  7997  8010       L1    10  0.99

> <Gold.Chemscore.Hbond.Weighted>
-9.8323

> <Gold.Chemscore.Metal.Weighted>
-0.0000

> <Gold.Chemscore.Lipo.Weighted>
-12.6292

> <Gold.Chemscore.Internal_Hbond.Weighted>
0.0000

> <Gold.Chemscore.DEClash.Weighted>
0.1613

> <Gold.Chemscore.DEInternal.Weighted>
2.7697

> <Gold.Chemscore.Rot.Weighted>
4.2466

> <Gold.Chemscore.Internal.Correction.Weighted>
   9.000000E+99

> <Gold.Protein.RotatedTorsions>
[ 6907 6896 6895 6894 ] final   98.03 input  -60.11 | X-H torsion
[ 7974 7965 7964 7962 ] final  -89.47 input  175.53 | X-H torsion
[ 8008 7997 7996 7995 ] final   85.76 input   59.86 | X-H torsion
[ 10167 10162 10161 10158 ] final   62.32 input  -65.29 | X-H torsion
[ 10718 10713 10712 10709 ] final -112.35 input   66.30 | X-H torsion
[ 10763 10752 10751 10750 ] final  129.08 input  -60.55 | X-H torsion
[ 11005 11000 10999 10996 ] final  -46.49 input  -57.11 | X-H torsion

> <Gold.Protein.ActiveResidues>
 VAL166  LYS551  ARG553  GLY616  TRP617  ASP618  TYR619  PRO620  LYS621  CYS622 
 ASP623  PHE694  ASN695  SER759  ASP760  ASP761  ALA762  ILE779  LEU786  VAL792 
 PHE793  MET794  SER795  GLU796  ALA797  LYS798  CYS799  TRP800  GLU811  SER814 

> <Gold.Protein.RotatedAtoms>
  152.5415  134.0642  159.8165 H   0  0  0  0  0  0  0  0  0  0  0  0  # atno 6907 bound_to 6896
  151.0766  133.5416  159.2630 H   0  0  0  0  0  0  0  0  0  0  0  0  # atno 6908 bound_to 6896
  151.2259  135.0544  159.9022 H   0  0  0  0  0  0  0  0  0  0  0  0  # atno 6909 bound_to 6896
  145.4394  140.9558  143.2083 H   0  0  0  0  0  0  0  0  0  0  0  0  # atno 7974 bound_to 7965
  155.9541  140.3398  155.6433 H   0  0  0  0  0  0  0  0  0  0  0  0  # atno 8008 bound_to 7997
  155.6882  140.0746  157.2477 H   0  0  0  0  0  0  0  0  0  0  0  0  # atno 8009 bound_to 7997
  154.4128  140.1662  156.2044 H   0  0  0  0  0  0  0  0  0  0  0  0  # atno 8010 bound_to 7997
  140.1452  144.4515  150.6789 H   0  0  0  0  0  0  0  0  0  0  0  0  # atno 10167 bound_to 10162
  156.0700  130.5915  150.8497 H   0  0  0  0  0  0  0  0  0  0  0  0  # atno 10718 bound_to 10713
  153.7360  135.3231  155.3295 H   0  0  0  0  0  0  0  0  0  0  0  0  # atno 10763 bound_to 10752
  154.8310  135.4533  154.1074 H   0  0  0  0  0  0  0  0  0  0  0  0  # atno 10764 bound_to 10752
  153.2235  135.6951  153.8053 H   0  0  0  0  0  0  0  0  0  0  0  0  # atno 10765 bound_to 10752
  141.0582  133.6718  156.3162 H   0  0  0  0  0  0  0  0  0  0  0  0  # atno 11005 bound_to 11000
  144.8131  139.5925  143.7020 LP  0  0  0  0  0  0  0  0  0  0  0  0  # atno 17320 bound_to 7965
  146.2564  139.6313  142.9392 LP  0  0  0  0  0  0  0  0  0  0  0  0  # atno 17321 bound_to 7965
  140.6736  143.2296  151.5563 LP  0  0  0  0  0  0  0  0  0  0  0  0  # atno 17342 bound_to 10162
  139.5452  144.2540  152.1429 LP  0  0  0  0  0  0  0  0  0  0  0  0  # atno 17343 bound_to 10162
  157.5766  131.0946  150.9336 LP  0  0  0  0  0  0  0  0  0  0  0  0  # atno 17370 bound_to 10713
  156.9541  130.5430  149.5283 LP  0  0  0  0  0  0  0  0  0  0  0  0  # atno 17371 bound_to 10713
  140.5922  134.5639  157.5502 LP  0  0  0  0  0  0  0  0  0  0  0  0  # atno 17394 bound_to 11000
  139.9408  134.7790  156.0682 LP  0  0  0  0  0  0  0  0  0  0  0  0  # atno 17395 bound_to 11000

$$$$
