AV-unprocessed.smi:2493|AV-procd|sdf|9820|dock5
  -GOLD-   2272013453D 1   1.00000     0.00000
 Structure written by MMmdl.
 41 42  0  0  0  0  0  0  0  0  1 V2000
  150.4855  139.9465  158.5313 C   0  0  0  0  0  0  0  0  0  0  0  0
  151.1847  141.1557  157.8674 C   0  0  0  0  0  0  0  0  0  0  0  0
  151.1321  140.9969  156.3209 C   0  0  0  0  0  0  0  0  0  0  0  0
  149.7941  140.7115  155.8041 N   0  0  0  0  0  0  0  0  0  0  0  0
  149.3338  141.0442  154.5876 C   0  0  0  0  0  0  0  0  0  0  0  0
  149.9984  141.6556  153.7510 O   0  0  0  0  0  0  0  0  0  0  0  0
  147.8979  140.6286  154.2669 C   0  0  0  0  0  0  0  0  0  0  0  0
  147.8809  139.6821  153.0968 C   0  0  0  0  0  0  0  0  0  0  0  0
  147.2244  139.8511  151.8413 C   0  0  0  0  0  0  0  0  0  0  0  0
  147.5267  138.7125  151.1506 C   0  0  0  0  0  0  0  0  0  0  0  0
  148.3093  137.9467  151.9818 N   0  0  0  0  0  0  0  0  0  0  0  0
  148.5309  138.5278  153.1757 N   0  0  0  0  0  0  0  0  0  0  0  0
  150.3845  142.4292  158.2575 C   0  0  0  0  0  0  0  0  0  0  0  0
  151.1230  143.7742  158.1223 C   0  0  0  0  0  0  0  0  0  0  0  0
  151.8849  144.1655  159.4002 C   0  0  0  0  0  0  0  0  0  0  0  0
  153.1539  143.3431  159.6652 C   0  0  0  0  0  0  0  0  0  0  0  0
  152.9333  141.8215  159.7193 C   0  0  0  0  0  0  0  0  0  0  0  0
  152.6677  141.2048  158.3331 C   0  0  0  0  0  0  0  0  0  0  0  0
  148.6918  137.0402  151.7525 H   0  0  0  0  0  0  0  0  0  0  0  0
  149.4559  139.8469  158.1854 H   0  0  0  0  0  0  0  0  0  0  0  0
  150.4557  140.0451  159.6165 H   0  0  0  0  0  0  0  0  0  0  0  0
  150.9943  139.0073  158.3144 H   0  0  0  0  0  0  0  0  0  0  0  0
  151.5458  141.8809  155.8322 H   0  0  0  0  0  0  0  0  0  0  0  0
  151.7709  140.1695  156.0117 H   0  0  0  0  0  0  0  0  0  0  0  0
  149.1706  140.2084  156.4189 H   0  0  0  0  0  0  0  0  0  0  0  0
  147.4419  140.1730  155.1475 H   0  0  0  0  0  0  0  0  0  0  0  0
  147.3093  141.5185  154.0413 H   0  0  0  0  0  0  0  0  0  0  0  0
  146.6264  140.6839  151.5021 H   0  0  0  0  0  0  0  0  0  0  0  0
  147.2546  138.3894  150.1566 H   0  0  0  0  0  0  0  0  0  0  0  0
  149.4782  142.4703  157.6518 H   0  0  0  0  0  0  0  0  0  0  0  0
  150.0176  142.3428  159.2811 H   0  0  0  0  0  0  0  0  0  0  0  0
  151.7816  143.7857  157.2536 H   0  0  0  0  0  0  0  0  0  0  0  0
  150.3773  144.5482  157.9369 H   0  0  0  0  0  0  0  0  0  0  0  0
  152.1683  145.2163  159.3304 H   0  0  0  0  0  0  0  0  0  0  0  0
  151.2183  144.0984  160.2611 H   0  0  0  0  0  0  0  0  0  0  0  0
  153.9071  143.5792  158.9127 H   0  0  0  0  0  0  0  0  0  0  0  0
  153.5774  143.6684  160.6160 H   0  0  0  0  0  0  0  0  0  0  0  0
  153.8459  141.3739  160.1143 H   0  0  0  0  0  0  0  0  0  0  0  0
  152.1478  141.5632  160.4296 H   0  0  0  0  0  0  0  0  0  0  0  0
  153.0687  140.1903  158.3296 H   0  0  0  0  0  0  0  0  0  0  0  0
  153.2706  141.7383  157.5968 H   0  0  0  0  0  0  0  0  0  0  0  0
  1  2  1  0  0  0  0
  1 20  1  0  0  0  0
  1 21  1  0  0  0  0
  1 22  1  0  0  0  0
  2 18  1  0  0  0  0
  2  3  1  0  0  0  0
  2 13  1  0  0  0  0
  3  4  1  0  0  0  0
  3 23  1  0  0  0  0
  3 24  1  0  0  0  0
  4  5  1  0  0  0  0
  4 25  1  0  0  0  0
  5  6  2  0  0  0  0
  5  7  1  0  0  0  0
  7 26  1  0  0  0  0
  7 27  1  0  0  0  0
  7  8  1  0  0  0  0
  8 12  2  0  0  0  0
  8  9  1  0  0  0  0
  9 10  2  0  0  0  0
  9 28  1  0  0  0  0
 10 11  1  0  0  0  0
 10 29  1  0  0  0  0
 11 12  1  0  0  0  0
 11 19  1  0  0  0  0
 13 14  1  0  0  0  0
 13 30  1  0  0  0  0
 13 31  1  0  0  0  0
 14 15  1  0  0  0  0
 14 32  1  0  0  0  0
 14 33  1  0  0  0  0
 15 16  1  0  0  0  0
 15 34  1  0  0  0  0
 15 35  1  0  0  0  0
 16 17  1  0  0  0  0
 16 36  1  0  0  0  0
 16 37  1  0  0  0  0
 17 18  1  0  0  0  0
 17 38  1  0  0  0  0
 17 39  1  0  0  0  0
 18 40  1  0  0  0  0
 18 41  1  0  0  0  0
M  END
> <s_m_source_file>
AV-unprocessed.smi

> <i_m_source_file_index>
2493

> <i_lp_mmshare_version>
43012

> <i_f3d_flags>
0

> <s_epik_input>
W0NIMl0xW0NIMl1bQ0gyXVtDSDJdW0NIMl1bQ0gyXUMxKFtDSDNdKVtDSDJdW05IXUMoPU8pW0NIMl1jMltjSF1bY0hdbltuSF0y

> <s_epik_cmdline>
J2VwaWtfcHl0aG9uJywgJy1waCcsICc3LjAnLCAnLXRuJywgJzgnLCAnLW1hJywgJzIwMCcsICctbWV0YWxfYmluZGluZycsICctaW1hZScsICc8aW5maWxlLm1hZT4nLCAnLW9tYWUnLCAnPG91dGZpbGUubWFlPic=

> <r_lp_tautomer_probability>
0.5

> <r_epik_Ionization_Penalty>
1.58956e-05

> <r_epik_Ionization_Penalty_Charging>
0

> <r_epik_Ionization_Penalty_Neutral>
1.58956e-05

> <r_epik_State_Penalty>
0.41068

> <r_epik_Charging_Adjusted_Penalty>
0.41068

> <i_epik_Tot_Q>
0

> <i_epik_Tot_abs_Q>
0

> <r_epik_Metal_State_Penalty>
0.410685

> <b_epik_Metal_Only>
0

> <s_lp_Force_Field>
OPLS_2005

> <r_lp_Energy>
20.7964

> <b_lp_Chiralities_Consistent>
1

> <s_lp_Variant>
AV-unprocessed.smi:2493-2

> <Gold.Version>
5.8.1

> <Gold.Id.Protein>
6NUR|6NUR_protein|mol2

> <Gold.PLP.Fitness>
39.8641

> <Gold.PLP.PLP>
-32.9115

> <Gold.PLP.part.hbond>
-3.3314

> <Gold.PLP.part.metal>
0.0000

> <Gold.PLP.part.buried>
3.6009

> <Gold.PLP.part.nonpolar>
-34.4791

> <Gold.PLP.part.repulsive>
0.6180

> <Gold.PLP.ligand.clash>
0.0000

> <Gold.PLP.ligand.torsion>
0.2478

> <Gold.PLP.Chemscore.Hbond>
1.5617

> <Gold.PLP.Chemscore.CHOScore>
0.9154

> <Gold.PLP.Chemscore.Metal>
0.0000

> <Gold.Chemscore.Hbonds>
donor molecule, donor type, donor heavy atom, donor atom, acceptor molecule, acceptor atom, score
      P1  H  7989  7998       L1     6  0.03
      P1  H  8011  8017       L1     6  0.58

> <Gold.PLP.Chemscore.Internal.Correction>
0.0166

> <Gold.Rescore>
     Score         DG    S(hbond)    S(metal)    S(lipo)     H(rot)  DE(clash)    DE(int)     intcor
     15.92     -17.75       1.20        0.00     106.88       1.66       1.25       0.57       ----

> <Gold.Chemscore.Fitness>
15.9221

> <Gold.Chemscore.DG>
-17.7466

> <Gold.Chemscore.ZeroCoef>
-5.4800

> <Gold.Chemscore.Hbond>
1.2005

> <Gold.Chemscore.Metal>
0.0000

> <Gold.Chemscore.Lipo>
106.8750

> <Gold.Chemscore.Internal_Hbond>
0.0000

> <Gold.Chemscore.DEClash>
1.2504

> <Gold.Chemscore.DEInternal>
0.5741

> <Gold.Chemscore.Rot>
1.6592

> <Gold.Chemscore.Internal.Correction>
   9.000000E+99

> <Gold.Chemscore.Hbonds>
donor molecule, donor type, donor heavy atom, donor atom, acceptor molecule, acceptor atom, score
      P1  H  7989  7998       L1     6  0.07
      P1  H  8011  8017       L1     6  0.57

> <Gold.Chemscore.Hbond.Weighted>
-4.0097

> <Gold.Chemscore.Metal.Weighted>
-0.0000

> <Gold.Chemscore.Lipo.Weighted>
-12.5044

> <Gold.Chemscore.Internal_Hbond.Weighted>
0.0000

> <Gold.Chemscore.DEClash.Weighted>
1.2504

> <Gold.Chemscore.DEInternal.Weighted>
0.5741

> <Gold.Chemscore.Rot.Weighted>
4.2475

> <Gold.Chemscore.Internal.Correction.Weighted>
   9.000000E+99

> <Gold.Protein.RotatedTorsions>
[ 6907 6896 6895 6894 ] final  151.24 input  -60.11 | X-H torsion
[ 7974 7965 7964 7962 ] final    6.84 input  175.53 | X-H torsion
[ 8008 7997 7996 7995 ] final  -95.35 input   59.86 | X-H torsion
[ 10167 10162 10161 10158 ] final   32.53 input  -65.29 | X-H torsion
[ 10718 10713 10712 10709 ] final   76.05 input   66.30 | X-H torsion
[ 10763 10752 10751 10750 ] final  133.25 input  -60.55 | X-H torsion
[ 11005 11000 10999 10996 ] final -155.46 input  -57.11 | X-H torsion

> <Gold.Protein.ActiveResidues>
 VAL166  LYS551  ARG553  GLY616  TRP617  ASP618  TYR619  PRO620  LYS621  CYS622 
 ASP623  PHE694  ASN695  SER759  ASP760  ASP761  ALA762  ILE779  LEU786  VAL792 
 PHE793  MET794  SER795  GLU796  ALA797  LYS798  CYS799  TRP800  GLU811  SER814 

> <Gold.Protein.RotatedAtoms>
  152.1033  133.4261  159.4596 H   0  0  0  0  0  0  0  0  0  0  0  0  # atno 6907 bound_to 6896
  150.6865  134.2735  159.4607 H   0  0  0  0  0  0  0  0  0  0  0  0  # atno 6908 bound_to 6896
  152.0597  134.9602  160.0625 H   0  0  0  0  0  0  0  0  0  0  0  0  # atno 6909 bound_to 6896
  146.2431  140.0173  142.8401 H   0  0  0  0  0  0  0  0  0  0  0  0  # atno 7974 bound_to 7965
  154.7602  140.0481  157.0967 H   0  0  0  0  0  0  0  0  0  0  0  0  # atno 8008 bound_to 7997
  154.9947  140.3117  155.4872 H   0  0  0  0  0  0  0  0  0  0  0  0  # atno 8009 bound_to 7997
  156.2903  140.2212  156.5053 H   0  0  0  0  0  0  0  0  0  0  0  0  # atno 8010 bound_to 7997
  140.4490  144.1076  150.6188 H   0  0  0  0  0  0  0  0  0  0  0  0  # atno 10167 bound_to 10162
  157.6658  130.9756  150.1441 H   0  0  0  0  0  0  0  0  0  0  0  0  # atno 10718 bound_to 10713
  153.8040  135.3138  155.3393 H   0  0  0  0  0  0  0  0  0  0  0  0  # atno 10763 bound_to 10752
  154.8077  135.4687  154.0439 H   0  0  0  0  0  0  0  0  0  0  0  0  # atno 10764 bound_to 10752
  153.1796  135.6891  153.8584 H   0  0  0  0  0  0  0  0  0  0  0  0  # atno 10765 bound_to 10752
  140.6862  134.4090  157.5223 H   0  0  0  0  0  0  0  0  0  0  0  0  # atno 11005 bound_to 11000
  145.1273  140.9497  143.4565 LP  0  0  0  0  0  0  0  0  0  0  0  0  # atno 17320 bound_to 7965
  145.0422  139.3250  143.5971 LP  0  0  0  0  0  0  0  0  0  0  0  0  # atno 17321 bound_to 7965
  140.4229  143.2603  151.9692 LP  0  0  0  0  0  0  0  0  0  0  0  0  # atno 17342 bound_to 10162
  139.4795  144.5814  151.7926 LP  0  0  0  0  0  0  0  0  0  0  0  0  # atno 17343 bound_to 10162
  156.2257  130.3677  149.8504 LP  0  0  0  0  0  0  0  0  0  0  0  0  # atno 17370 bound_to 10713
  156.6345  130.8679  151.3502 LP  0  0  0  0  0  0  0  0  0  0  0  0  # atno 17371 bound_to 10713
  139.8937  134.8725  156.2212 LP  0  0  0  0  0  0  0  0  0  0  0  0  # atno 17394 bound_to 11000
  141.0278  133.7005  156.1377 LP  0  0  0  0  0  0  0  0  0  0  0  0  # atno 17395 bound_to 11000

$$$$
