AV-unprocessed.smi:2784|AV-procd|sdf|10735|dock6
  -GOLD-   2272015173D 1   1.00000     0.00000
 Structure written by MMmdl.
 31 32  0  0  0  0  0  0  0  0  1 V2000
  154.2655  141.3930  160.6638 C   0  0  0  0  0  0  0  0  0  0  0  0
  153.4541  141.6361  159.5263 O   0  0  0  0  0  0  0  0  0  0  0  0
  152.2636  142.3648  159.8144 C   0  0  1  0  0  0  0  0  0  0  0  0
  152.6836  143.8185  160.0397 C   0  0  0  0  0  0  0  0  0  0  0  0
  152.7883  144.4024  158.6339 C   0  0  0  0  0  0  0  0  0  0  0  0
  151.6443  143.7450  157.8584 C   0  0  0  0  0  0  0  0  0  0  0  0
  151.3270  142.4222  158.5839 C   0  0  1  0  0  0  0  0  0  0  0  0
  151.4901  141.2809  157.6847 N   0  0  0  0  0  0  0  0  0  0  0  0
  151.4759  139.9908  158.0508 C   0  0  0  0  0  0  0  0  0  0  0  0
  151.3143  139.6562  159.2287 O   0  0  0  0  0  0  0  0  0  0  0  0
  151.6753  139.1813  156.9414 N   0  0  0  0  0  0  0  0  0  0  0  0
  150.8718  139.2591  155.9249 C   0  0  0  0  0  0  0  0  0  0  0  0
  149.7499  140.0395  155.6583 N   0  0  0  0  0  0  0  0  0  0  0  0
  149.2842  139.7072  154.4170 C   0  0  0  0  0  0  0  0  0  0  0  0
  150.0735  138.7591  153.9213 C   0  0  0  0  0  0  0  0  0  0  0  0
  151.0535  138.4643  154.8211 O   0  0  0  0  0  0  0  0  0  0  0  0
  155.1343  140.8020  160.3743 H   0  0  0  0  0  0  0  0  0  0  0  0
  153.7225  140.8404  161.4309 H   0  0  0  0  0  0  0  0  0  0  0  0
  154.6231  142.3290  161.0946 H   0  0  0  0  0  0  0  0  0  0  0  0
  151.7497  141.9713  160.6939 H   0  0  0  0  0  0  0  0  0  0  0  0
  151.9038  144.3427  160.5937 H   0  0  0  0  0  0  0  0  0  0  0  0
  153.6107  143.9107  160.6066 H   0  0  0  0  0  0  0  0  0  0  0  0
  152.7304  145.4910  158.6254 H   0  0  0  0  0  0  0  0  0  0  0  0
  153.7433  144.1173  158.1906 H   0  0  0  0  0  0  0  0  0  0  0  0
  150.7659  144.3909  157.8812 H   0  0  0  0  0  0  0  0  0  0  0  0
  151.9097  143.6058  156.8093 H   0  0  0  0  0  0  0  0  0  0  0  0
  150.2924  142.4767  158.9279 H   0  0  0  0  0  0  0  0  0  0  0  0
  151.6389  141.4911  156.7083 H   0  0  0  0  0  0  0  0  0  0  0  0
  149.3239  140.7415  156.2466 H   0  0  0  0  0  0  0  0  0  0  0  0
  148.4132  140.1991  154.0098 H   0  0  0  0  0  0  0  0  0  0  0  0
  150.0721  138.2176  152.9870 H   0  0  0  0  0  0  0  0  0  0  0  0
  1  2  1  0  0  0  0
  1 17  1  0  0  0  0
  1 18  1  0  0  0  0
  1 19  1  0  0  0  0
  2  3  1  0  0  0  0
  3  7  1  0  0  0  0
  3  4  1  0  0  0  0
  3 20  1  0  0  0  0
  4  5  1  0  0  0  0
  4 21  1  0  0  0  0
  4 22  1  0  0  0  0
  5  6  1  0  0  0  0
  5 23  1  0  0  0  0
  5 24  1  0  0  0  0
  6  7  1  0  0  0  0
  6 25  1  0  0  0  0
  6 26  1  0  0  0  0
  7  8  1  0  0  0  0
  7 27  1  0  0  0  0
  8 28  1  0  0  0  0
  8  9  1  0  0  0  0
  9 11  1  0  0  0  0
  9 10  2  0  0  0  0
 11 12  2  0  0  0  0
 12 16  1  0  0  0  0
 12 13  1  0  0  0  0
 13 29  1  0  0  0  0
 13 14  1  0  0  0  0
 14 30  1  0  0  0  0
 14 15  2  0  0  0  0
 15 31  1  0  0  0  0
 15 16  1  0  0  0  0
M  END
> <s_m_source_file>
AV-unprocessed.smi

> <i_m_source_file_index>
2784

> <i_lp_mmshare_version>
43012

> <i_f3d_flags>
0

> <s_epik_input>
W0NIM11PW0NAQEhdMVtDSDJdW0NIMl1bQ0gyXVtDQEhdMVtOSF1DKD1PKVtOSF1jMm5bY0hdW2NIXW8y

> <s_epik_cmdline>
J2VwaWtfcHl0aG9uJywgJy1waCcsICc3LjAnLCAnLXRuJywgJzgnLCAnLW1hJywgJzIwMCcsICctbWV0YWxfYmluZGluZycsICctaW1hZScsICc8aW5maWxlLm1hZT4nLCAnLW9tYWUnLCAnPG91dGZpbGUubWFlPic=

> <r_lp_tautomer_probability>
0.107061

> <r_epik_Ionization_Penalty>
1.29244

> <r_epik_Ionization_Penalty_Charging>
1.29208

> <r_epik_Ionization_Penalty_Neutral>
0.000359742

> <r_epik_State_Penalty>
2.59896

> <r_epik_Charging_Adjusted_Penalty>
3.89105

> <i_epik_Tot_Q>
0

> <i_epik_Tot_abs_Q>
0

> <r_epik_Metal_State_Penalty>
3.62496

> <b_epik_Metal_Only>
0

> <s_lp_Force_Field>
OPLS_2005

> <r_lp_Energy>
46.0915

> <b_lp_Chiralities_Consistent>
1

> <s_lp_Variant>
AV-unprocessed.smi:2784-10

> <Gold.Version>
5.8.1

> <Gold.Id.Protein>
6NUR|6NUR_protein|mol2

> <Gold.PLP.Fitness>
32.9623

> <Gold.PLP.PLP>
-29.7000

> <Gold.PLP.part.hbond>
0.0000

> <Gold.PLP.part.metal>
0.0000

> <Gold.PLP.part.buried>
-3.1177

> <Gold.PLP.part.nonpolar>
-26.9702

> <Gold.PLP.part.repulsive>
0.2570

> <Gold.PLP.ligand.clash>
0.0000

> <Gold.PLP.ligand.torsion>
0.6933

> <Gold.PLP.Chemscore.Hbond>
0.0000

> <Gold.PLP.Chemscore.CHOScore>
1.5456

> <Gold.PLP.Chemscore.Metal>
0.0000

> <Gold.Chemscore.Hbonds>
donor molecule, donor type, donor heavy atom, donor atom, acceptor molecule, acceptor atom, score
      L1  C    15    31       P1  7948  1.00
      L1  C    15    31       P1  7949  0.01
      L1  C    15    31       P1  7957  0.43

> <Gold.PLP.Chemscore.Internal.Correction>
0.0122

> <Gold.Rescore>
     Score         DG    S(hbond)    S(metal)    S(lipo)     H(rot)  DE(clash)    DE(int)     intcor
     10.92     -11.62       0.00        0.00      81.48       1.32       0.03       0.68       ----

> <Gold.Chemscore.Fitness>
10.9164

> <Gold.Chemscore.DG>
-11.6250

> <Gold.Chemscore.ZeroCoef>
-5.4800

> <Gold.Chemscore.Hbond>
0.0000

> <Gold.Chemscore.Metal>
0.0000

> <Gold.Chemscore.Lipo>
81.4800

> <Gold.Chemscore.Internal_Hbond>
0.0000

> <Gold.Chemscore.DEClash>
0.0298

> <Gold.Chemscore.DEInternal>
0.6788

> <Gold.Chemscore.Rot>
1.3235

> <Gold.Chemscore.Internal.Correction>
   9.000000E+99

> <Gold.Chemscore.Hbond.Weighted>
-0.0000

> <Gold.Chemscore.Metal.Weighted>
-0.0000

> <Gold.Chemscore.Lipo.Weighted>
-9.5332

> <Gold.Chemscore.Internal_Hbond.Weighted>
0.0000

> <Gold.Chemscore.DEClash.Weighted>
0.0298

> <Gold.Chemscore.DEInternal.Weighted>
0.6788

> <Gold.Chemscore.Rot.Weighted>
3.3882

> <Gold.Chemscore.Internal.Correction.Weighted>
   9.000000E+99

> <Gold.Protein.RotatedTorsions>
[ 6907 6896 6895 6894 ] final  131.91 input  -60.11 | X-H torsion
[ 7974 7965 7964 7962 ] final  172.69 input  175.53 | X-H torsion
[ 8008 7997 7996 7995 ] final   32.59 input   59.86 | X-H torsion
[ 10167 10162 10161 10158 ] final   17.50 input  -65.29 | X-H torsion
[ 10718 10713 10712 10709 ] final   16.38 input   66.30 | X-H torsion
[ 10763 10752 10751 10750 ] final -140.45 input  -60.55 | X-H torsion
[ 11005 11000 10999 10996 ] final  -73.84 input  -57.11 | X-H torsion

> <Gold.Protein.ActiveResidues>
 VAL166  LYS551  ARG553  GLY616  TRP617  ASP618  TYR619  PRO620  LYS621  CYS622 
 ASP623  PHE694  ASN695  SER759  ASP760  ASP761  ALA762  ILE779  LEU786  VAL792 
 PHE793  MET794  SER795  GLU796  ALA797  LYS798  CYS799  TRP800  GLU811  SER814 

> <Gold.Protein.RotatedAtoms>
  152.3378  133.6031  159.5854 H   0  0  0  0  0  0  0  0  0  0  0  0  # atno 6907 bound_to 6896
  150.7460  133.9769  159.3572 H   0  0  0  0  0  0  0  0  0  0  0  0  # atno 6908 bound_to 6896
  151.7637  135.0804  160.0400 H   0  0  0  0  0  0  0  0  0  0  0  0  # atno 6909 bound_to 6896
  144.7262  139.9536  143.6432 H   0  0  0  0  0  0  0  0  0  0  0  0  # atno 7974 bound_to 7965
  155.1250  140.3252  155.4488 H   0  0  0  0  0  0  0  0  0  0  0  0  # atno 8008 bound_to 7997
  156.2652  140.2020  156.6319 H   0  0  0  0  0  0  0  0  0  0  0  0  # atno 8009 bound_to 7997
  154.6655  140.0542  157.0096 H   0  0  0  0  0  0  0  0  0  0  0  0  # atno 8010 bound_to 7997
  140.5721  143.9141  150.6721 H   0  0  0  0  0  0  0  0  0  0  0  0  # atno 10167 bound_to 10162
  157.0670  130.6332  149.5797 H   0  0  0  0  0  0  0  0  0  0  0  0  # atno 10718 bound_to 10713
  154.8578  135.3553  154.5709 H   0  0  0  0  0  0  0  0  0  0  0  0  # atno 10763 bound_to 10752
  153.6322  135.7002  153.5276 H   0  0  0  0  0  0  0  0  0  0  0  0  # atno 10764 bound_to 10752
  153.3040  135.4198  155.1237 H   0  0  0  0  0  0  0  0  0  0  0  0  # atno 10765 bound_to 10752
  141.1628  133.6891  156.7273 H   0  0  0  0  0  0  0  0  0  0  0  0  # atno 11005 bound_to 11000
  146.0692  139.3682  143.0533 LP  0  0  0  0  0  0  0  0  0  0  0  0  # atno 17320 bound_to 7965
  145.7990  140.9779  143.1009 LP  0  0  0  0  0  0  0  0  0  0  0  0  # atno 17321 bound_to 7965
  140.2619  143.3518  152.1315 LP  0  0  0  0  0  0  0  0  0  0  0  0  # atno 17342 bound_to 10162
  139.5123  144.6914  151.5748 LP  0  0  0  0  0  0  0  0  0  0  0  0  # atno 17343 bound_to 10162
  155.9961  130.5030  150.7486 LP  0  0  0  0  0  0  0  0  0  0  0  0  # atno 17370 bound_to 10713
  157.4909  131.0911  151.0428 LP  0  0  0  0  0  0  0  0  0  0  0  0  # atno 17371 bound_to 10713
  140.2771  134.8346  157.3900 LP  0  0  0  0  0  0  0  0  0  0  0  0  # atno 17394 bound_to 11000
  140.1467  134.4902  155.7991 LP  0  0  0  0  0  0  0  0  0  0  0  0  # atno 17395 bound_to 11000

$$$$
