AV-unprocessed.smi:1175|AV-procd|sdf|4951|dock3
  -GOLD-   22720 3543D 1   1.00000     0.00000
 Structure written by MMmdl.
 36 37  0  0  0  0  0  0  0  0  1 V2000
  152.5442  139.5978  156.2445 O   0  0  0  0  0  0  0  0  0  0  0  0
  151.5445  139.7751  156.9422 C   0  0  0  0  0  0  0  0  0  0  0  0
  151.6014  139.5779  158.4639 C   0  0  0  0  0  0  0  0  0  0  0  0
  152.1892  140.7232  159.1794 N   0  0  0  0  0  0  0  0  0  0  0  0
  151.5817  141.9799  158.9882 C   0  0  0  0  0  0  0  0  0  0  0  0
  152.0265  143.1064  159.5777 C   0  0  0  0  0  0  0  0  0  0  0  0
  151.3139  144.4382  159.3999 C   0  0  0  0  0  0  0  0  0  0  0  0
  151.3292  144.8240  158.1240 F   0  0  0  0  0  0  0  0  0  0  0  0
  150.0431  144.3262  159.7837 F   0  0  0  0  0  0  0  0  0  0  0  0
  151.8863  145.3935  160.1333 F   0  0  0  0  0  0  0  0  0  0  0  0
  153.1646  142.9641  160.4644 C   0  0  0  0  0  0  0  0  0  0  0  0
  153.7499  141.7677  160.6676 C   0  0  0  0  0  0  0  0  0  0  0  0
  153.2664  140.5550  160.0038 C   0  0  0  0  0  0  0  0  0  0  0  0
  153.7955  139.4569  160.1787 O   0  0  0  0  0  0  0  0  0  0  0  0
  150.3502  140.1254  156.4409 N   0  0  0  0  0  0  0  0  0  0  0  0
  150.0591  140.3632  155.0307 C   0  0  0  0  0  0  0  0  0  0  0  0
  148.9371  141.4014  154.8417 C   0  0  1  0  0  0  0  0  0  0  0  0
  147.9444  141.0373  153.7565 C   0  0  0  0  0  0  0  0  0  0  0  0
  146.7538  141.9306  154.0957 C   0  0  0  0  0  0  0  0  0  0  0  0
  146.8036  142.1353  155.5054 O   0  0  0  0  0  0  0  0  0  0  0  0
  147.9996  141.5754  156.0375 C   0  0  0  0  0  0  0  0  0  0  0  0
  150.5968  139.3769  158.8406 H   0  0  0  0  0  0  0  0  0  0  0  0
  152.1682  138.6682  158.6674 H   0  0  0  0  0  0  0  0  0  0  0  0
  150.7202  141.9676  158.3364 H   0  0  0  0  0  0  0  0  0  0  0  0
  153.5574  143.8323  160.9727 H   0  0  0  0  0  0  0  0  0  0  0  0
  154.5967  141.6994  161.3348 H   0  0  0  0  0  0  0  0  0  0  0  0
  149.5839  140.2437  157.0878 H   0  0  0  0  0  0  0  0  0  0  0  0
  150.9737  140.7295  154.5639 H   0  0  0  0  0  0  0  0  0  0  0  0
  149.8122  139.4301  154.5214 H   0  0  0  0  0  0  0  0  0  0  0  0
  149.3764  142.3699  154.5959 H   0  0  0  0  0  0  0  0  0  0  0  0
  148.3275  141.2059  152.7495 H   0  0  0  0  0  0  0  0  0  0  0  0
  147.6573  139.9882  153.8405 H   0  0  0  0  0  0  0  0  0  0  0  0
  146.8498  142.8984  153.6024 H   0  0  0  0  0  0  0  0  0  0  0  0
  145.8048  141.4883  153.7911 H   0  0  0  0  0  0  0  0  0  0  0  0
  147.7580  140.6095  156.4831 H   0  0  0  0  0  0  0  0  0  0  0  0
  148.4234  142.2104  156.8157 H   0  0  0  0  0  0  0  0  0  0  0  0
  1  2  2  0  0  0  0
  2  3  1  0  0  0  0
  2 15  1  0  0  0  0
  3  4  1  0  0  0  0
  3 22  1  0  0  0  0
  3 23  1  0  0  0  0
  4 13  1  0  0  0  0
  4  5  1  0  0  0  0
  5  6  2  0  0  0  0
  5 24  1  0  0  0  0
  6  7  1  0  0  0  0
  6 11  1  0  0  0  0
  7  8  1  0  0  0  0
  7  9  1  0  0  0  0
  7 10  1  0  0  0  0
 11 12  2  0  0  0  0
 11 25  1  0  0  0  0
 12 13  1  0  0  0  0
 12 26  1  0  0  0  0
 13 14  2  0  0  0  0
 15 16  1  0  0  0  0
 15 27  1  0  0  0  0
 16 17  1  0  0  0  0
 16 28  1  0  0  0  0
 16 29  1  0  0  0  0
 17 21  1  0  0  0  0
 17 18  1  0  0  0  0
 17 30  1  0  0  0  0
 18 19  1  0  0  0  0
 18 31  1  0  0  0  0
 18 32  1  0  0  0  0
 19 20  1  0  0  0  0
 19 33  1  0  0  0  0
 19 34  1  0  0  0  0
 20 21  1  0  0  0  0
 21 35  1  0  0  0  0
 21 36  1  0  0  0  0
M  END
> <s_m_source_file>
AV-unprocessed.smi

> <i_m_source_file_index>
1175

> <i_lp_mmshare_version>
43012

> <i_f3d_flags>
0

> <s_epik_input>
W0NIMl0xT1tDSDJdW0NIMl1bQ0BIXTFbQ0gyXVtOSF1DKD1PKVtDSDJdbjJbY0hdYyhDKEYpKEYpRilbY0hdW2NIXWMyPU8=

> <s_epik_cmdline>
J2VwaWtfcHl0aG9uJywgJy1waCcsICc3LjAnLCAnLXRuJywgJzgnLCAnLW1hJywgJzIwMCcsICctbWV0YWxfYmluZGluZycsICctaW1hZScsICc8aW5maWxlLm1hZT4nLCAnLW9tYWUnLCAnPG91dGZpbGUubWFlPic=

> <r_lp_tautomer_probability>
1

> <r_epik_Ionization_Penalty>
3.67963e-08

> <r_epik_Ionization_Penalty_Charging>
1.809e-08

> <r_epik_Ionization_Penalty_Neutral>
1.87063e-08

> <r_epik_State_Penalty>
-0

> <r_epik_Charging_Adjusted_Penalty>
1.809e-08

> <i_epik_Tot_Q>
0

> <i_epik_Tot_abs_Q>
0

> <r_epik_Metal_State_Penalty>
-0

> <b_epik_Metal_Only>
0

> <s_lp_Force_Field>
OPLS_2005

> <r_lp_Energy>
29.657

> <b_lp_Chiralities_Consistent>
1

> <s_lp_Variant>
AV-unprocessed.smi:1175-2

> <Gold.Version>
5.8.1

> <Gold.Id.Protein>
6NUR|6NUR_protein|mol2

> <Gold.PLP.Fitness>
50.0622

> <Gold.PLP.PLP>
-49.0842

> <Gold.PLP.part.hbond>
-1.0000

> <Gold.PLP.part.metal>
0.0000

> <Gold.PLP.part.buried>
-5.6510

> <Gold.PLP.part.nonpolar>
-42.5048

> <Gold.PLP.part.repulsive>
0.1938

> <Gold.PLP.ligand.clash>
0.0000

> <Gold.PLP.ligand.torsion>
1.0396

> <Gold.PLP.Chemscore.Hbond>
1.0000

> <Gold.PLP.Chemscore.CHOScore>
0.0000

> <Gold.PLP.Chemscore.Metal>
0.0000

> <Gold.Chemscore.Hbonds>
donor molecule, donor type, donor heavy atom, donor atom, acceptor molecule, acceptor atom, score
      P1  H  7997  8010       L1     1  1.00

> <Gold.PLP.Chemscore.Internal.Correction>
0.0573

> <Gold.Rescore>
     Score         DG    S(hbond)    S(metal)    S(lipo)     H(rot)  DE(clash)    DE(int)     intcor
     13.43     -14.77       1.00        0.00      91.76       1.87       0.18       1.17       ----

> <Gold.Chemscore.Fitness>
13.4299

> <Gold.Chemscore.DG>
-14.7742

> <Gold.Chemscore.ZeroCoef>
-5.4800

> <Gold.Chemscore.Hbond>
1.0000

> <Gold.Chemscore.Metal>
0.0000

> <Gold.Chemscore.Lipo>
91.7644

> <Gold.Chemscore.Internal_Hbond>
0.0000

> <Gold.Chemscore.DEClash>
0.1764

> <Gold.Chemscore.DEInternal>
1.1679

> <Gold.Chemscore.Rot>
1.8681

> <Gold.Chemscore.Internal.Correction>
   9.000000E+99

> <Gold.Chemscore.Hbonds>
donor molecule, donor type, donor heavy atom, donor atom, acceptor molecule, acceptor atom, score
      P1  H  7997  8010       L1     1  1.00

> <Gold.Chemscore.Hbond.Weighted>
-3.3400

> <Gold.Chemscore.Metal.Weighted>
-0.0000

> <Gold.Chemscore.Lipo.Weighted>
-10.7364

> <Gold.Chemscore.Internal_Hbond.Weighted>
0.0000

> <Gold.Chemscore.DEClash.Weighted>
0.1764

> <Gold.Chemscore.DEInternal.Weighted>
1.1679

> <Gold.Chemscore.Rot.Weighted>
4.7822

> <Gold.Chemscore.Internal.Correction.Weighted>
   9.000000E+99

> <Gold.Protein.RotatedTorsions>
[ 6907 6896 6895 6894 ] final   76.08 input  -60.11 | X-H torsion
[ 7974 7965 7964 7962 ] final -115.59 input  175.53 | X-H torsion
[ 8008 7997 7996 7995 ] final   70.83 input   59.86 | X-H torsion
[ 10167 10162 10161 10158 ] final  144.47 input  -65.29 | X-H torsion
[ 10718 10713 10712 10709 ] final   31.33 input   66.30 | X-H torsion
[ 10763 10752 10751 10750 ] final  -78.98 input  -60.55 | X-H torsion
[ 11005 11000 10999 10996 ] final   52.46 input  -57.11 | X-H torsion

> <Gold.Protein.ActiveResidues>
 VAL166  LYS551  ARG553  GLY616  TRP617  ASP618  TYR619  PRO620  LYS621  CYS622 
 ASP623  PHE694  ASN695  SER759  ASP760  ASP761  ALA762  ILE779  LEU786  VAL792 
 PHE793  MET794  SER795  GLU796  ALA797  LYS798  CYS799  TRP800  GLU811  SER814 

> <Gold.Protein.RotatedAtoms>
  152.5056  134.4023  159.9420 H   0  0  0  0  0  0  0  0  0  0  0  0  # atno 6907 bound_to 6896
  151.3987  133.3758  159.2737 H   0  0  0  0  0  0  0  0  0  0  0  0  # atno 6908 bound_to 6896
  150.9378  134.8810  159.7651 H   0  0  0  0  0  0  0  0  0  0  0  0  # atno 6909 bound_to 6896
  145.1066  140.8585  143.3894 H   0  0  0  0  0  0  0  0  0  0  0  0  # atno 7974 bound_to 7965
  155.7447  140.3489  155.5121 H   0  0  0  0  0  0  0  0  0  0  0  0  # atno 8008 bound_to 7997
  155.9061  140.1042  157.1335 H   0  0  0  0  0  0  0  0  0  0  0  0  # atno 8009 bound_to 7997
  154.4050  140.1277  156.4484 H   0  0  0  0  0  0  0  0  0  0  0  0  # atno 8010 bound_to 7997
  139.4946  144.5969  151.6563 H   0  0  0  0  0  0  0  0  0  0  0  0  # atno 10167 bound_to 10162
  157.2711  130.7208  149.6505 H   0  0  0  0  0  0  0  0  0  0  0  0  # atno 10718 bound_to 10713
  154.5327  135.5711  153.6773 H   0  0  0  0  0  0  0  0  0  0  0  0  # atno 10763 bound_to 10752
  152.9943  135.6209  154.2607 H   0  0  0  0  0  0  0  0  0  0  0  0  # atno 10764 bound_to 10752
  154.2534  135.2858  155.2787 H   0  0  0  0  0  0  0  0  0  0  0  0  # atno 10765 bound_to 10752
  140.0848  134.5290  155.8910 H   0  0  0  0  0  0  0  0  0  0  0  0  # atno 11005 bound_to 11000
  145.0894  139.2901  143.5742 LP  0  0  0  0  0  0  0  0  0  0  0  0  # atno 17320 bound_to 7965
  146.3528  140.0426  142.8642 LP  0  0  0  0  0  0  0  0  0  0  0  0  # atno 17321 bound_to 7965
  140.5610  144.0269  150.6169 LP  0  0  0  0  0  0  0  0  0  0  0  0  # atno 17342 bound_to 10162
  140.3355  143.3051  152.0643 LP  0  0  0  0  0  0  0  0  0  0  0  0  # atno 17343 bound_to 10162
  155.9663  130.4367  150.5145 LP  0  0  0  0  0  0  0  0  0  0  0  0  # atno 17370 bound_to 10713
  157.3070  131.0656  151.2028 LP  0  0  0  0  0  0  0  0  0  0  0  0  # atno 17371 bound_to 10713
  141.2059  133.6650  156.6207 LP  0  0  0  0  0  0  0  0  0  0  0  0  # atno 17394 bound_to 11000
  140.3436  134.7828  157.4416 LP  0  0  0  0  0  0  0  0  0  0  0  0  # atno 17395 bound_to 11000

$$$$
