AV-unprocessed.smi:1207|AV-procd|sdf|5053|dock9
  -GOLD-   22720 4 83D 1   1.00000     0.00000
 Structure written by MMmdl.
 52 54  0  0  0  0  0  0  0  0  2 V2000
  152.8505  142.5817  161.9227 C   0  0  0  0  0  0  0  0  0  0  0  0
  152.3470  142.3056  160.5167 C   0  0  0  0  0  0  0  0  0  0  0  0
  152.7715  141.1324  159.8534 C   0  0  0  0  0  0  0  0  0  0  0  0
  152.3262  140.8378  158.5465 C   0  0  0  0  0  0  0  0  0  0  0  0
  152.6035  139.7594  157.7244 N   0  0  0  0  0  0  0  0  0  0  0  0
  151.8918  140.0568  156.6417 C   0  0  0  0  0  0  0  0  0  0  0  0
  151.1784  141.1990  156.6675 N   0  0  0  0  0  0  0  0  0  0  0  0
  150.3259  141.7152  155.6126 C   0  0  0  0  0  0  0  0  0  0  0  0
  149.4468  140.6183  154.9823 C   0  0  2  0  0  0  0  0  0  0  0  0
  150.2033  139.9829  153.9719 O   0  0  0  0  0  0  0  0  0  0  0  0
  148.1387  141.1549  154.3594 C   0  0  0  0  0  0  0  0  0  0  0  0
  147.0788  141.3538  155.3794 N   0  3  2  0  0  0  0  0  0  0  0  0
  146.3583  140.0965  155.6892 C   0  0  0  0  0  0  0  0  0  0  0  0
  146.1615  142.4752  155.0485 C   0  0  0  0  0  0  0  0  0  0  0  0
  145.3403  142.8812  156.2438 C   0  0  0  0  0  0  0  0  0  0  0  0
  145.7279  142.9096  157.6150 C   0  0  0  0  0  0  0  0  0  0  0  0
  147.0493  142.5426  158.2276 C   0  0  0  0  0  0  0  0  0  0  0  0
  144.7433  143.3196  158.3959 N   0  0  0  0  0  0  0  0  0  0  0  0
  143.6604  143.5738  157.5492 O   0  0  0  0  0  0  0  0  0  0  0  0
  144.0393  143.3034  156.2752 C   0  0  0  0  0  0  0  0  0  0  0  0
  143.0100  143.5139  155.2164 C   0  0  0  0  0  0  0  0  0  0  0  0
  151.4388  141.7576  157.9147 C   0  0  0  0  0  0  0  0  0  0  0  0
  151.0101  142.9291  158.5639 C   0  0  0  0  0  0  0  0  0  0  0  0
  151.4636  143.2072  159.8704 C   0  0  0  0  0  0  0  0  0  0  0  0
  150.9956  144.4744  160.5638 C   0  0  0  0  0  0  0  0  0  0  0  0
  153.4936  141.7771  162.2802 H   0  0  0  0  0  0  0  0  0  0  0  0
  152.0161  142.6750  162.6181 H   0  0  0  0  0  0  0  0  0  0  0  0
  153.4271  143.5064  161.9463 H   0  0  0  0  0  0  0  0  0  0  0  0
  153.4446  140.4457  160.3454 H   0  0  0  0  0  0  0  0  0  0  0  0
  151.8824  139.4036  155.7812 H   0  0  0  0  0  0  0  0  0  0  0  0
  149.7095  142.5177  156.0195 H   0  0  0  0  0  0  0  0  0  0  0  0
  150.9656  142.1683  154.8535 H   0  0  0  0  0  0  0  0  0  0  0  0
  149.2279  139.8730  155.7466 H   0  0  0  0  0  0  0  0  0  0  0  0
  149.7175  140.0179  153.1616 H   0  0  0  0  0  0  0  0  0  0  0  0
  148.3009  142.1015  153.8431 H   0  0  0  0  0  0  0  0  0  0  0  0
  147.8051  140.4508  153.5952 H   0  0  0  0  0  0  0  0  0  0  0  0
  145.8030  139.7397  154.8206 H   0  0  0  0  0  0  0  0  0  0  0  0
  145.6564  140.2360  156.5112 H   0  0  0  0  0  0  0  0  0  0  0  0
  147.0563  139.3157  155.9933 H   0  0  0  0  0  0  0  0  0  0  0  0
  146.7355  143.3323  154.6975 H   0  0  0  0  0  0  0  0  0  0  0  0
  145.5320  142.1885  154.2051 H   0  0  0  0  0  0  0  0  0  0  0  0
  147.8750  142.7622  157.5514 H   0  0  0  0  0  0  0  0  0  0  0  0
  147.0872  141.4790  158.4634 H   0  0  0  0  0  0  0  0  0  0  0  0
  147.2288  143.0941  159.1513 H   0  0  0  0  0  0  0  0  0  0  0  0
  143.4348  143.3812  154.2217 H   0  0  0  0  0  0  0  0  0  0  0  0
  142.5977  144.5214  155.2734 H   0  0  0  0  0  0  0  0  0  0  0  0
  142.1896  142.8053  155.3302 H   0  0  0  0  0  0  0  0  0  0  0  0
  150.3368  143.6080  158.0621 H   0  0  0  0  0  0  0  0  0  0  0  0
  150.3318  145.0570  159.9246 H   0  0  0  0  0  0  0  0  0  0  0  0
  151.8468  145.1039  160.8239 H   0  0  0  0  0  0  0  0  0  0  0  0
  150.4524  144.2315  161.4771 H   0  0  0  0  0  0  0  0  0  0  0  0
  147.5644  141.6146  156.2262 H   0  0  0  0  0  0  0  0  0  0  0  0
  1  2  1  0  0  0  0
  1 26  1  0  0  0  0
  1 27  1  0  0  0  0
  1 28  1  0  0  0  0
  2 24  1  0  0  0  0
  2  3  2  0  0  0  0
  3  4  1  0  0  0  0
  3 29  1  0  0  0  0
  4 22  2  0  0  0  0
  4  5  1  0  0  0  0
  5  6  2  0  0  0  0
  6  7  1  0  0  0  0
  6 30  1  0  0  0  0
  7  8  1  0  0  0  0
  7 22  1  0  0  0  0
  8  9  1  0  0  0  0
  8 31  1  0  0  0  0
  8 32  1  0  0  0  0
  9 10  1  0  0  0  0
  9 11  1  0  0  0  0
  9 33  1  0  0  0  0
 10 34  1  0  0  0  0
 11 12  1  0  0  0  0
 11 35  1  0  0  0  0
 11 36  1  0  0  0  0
 12 13  1  0  0  0  0
 12 14  1  0  0  0  0
 12 52  1  0  0  0  0
 13 37  1  0  0  0  0
 13 38  1  0  0  0  0
 13 39  1  0  0  0  0
 14 15  1  0  0  0  0
 14 40  1  0  0  0  0
 14 41  1  0  0  0  0
 15 20  2  0  0  0  0
 15 16  1  0  0  0  0
 16 17  1  0  0  0  0
 16 18  2  0  0  0  0
 17 42  1  0  0  0  0
 17 43  1  0  0  0  0
 17 44  1  0  0  0  0
 18 19  1  0  0  0  0
 19 20  1  0  0  0  0
 20 21  1  0  0  0  0
 21 45  1  0  0  0  0
 21 46  1  0  0  0  0
 21 47  1  0  0  0  0
 22 23  1  0  0  0  0
 23 24  2  0  0  0  0
 23 48  1  0  0  0  0
 24 25  1  0  0  0  0
 25 49  1  0  0  0  0
 25 50  1  0  0  0  0
 25 51  1  0  0  0  0
M  CHG  1  12   1
M  END
> <s_m_source_file>
AV-unprocessed.smi

> <i_m_source_file_index>
1207

> <i_lp_mmshare_version>
43012

> <i_f3d_flags>
0

> <s_epik_input>
W0NIM11jKFtjSF0xKWMoW0NIM10pW2NIXWMoYzEyKW4oW2NIXW4yKVtDSDJdW0NASF0oW09IXSlbQ0gyXU4oW0NIM10pW0NIMl1jM2MoW0NIM10pbm9jM1tDSDNd

> <s_epik_cmdline>
J2VwaWtfcHl0aG9uJywgJy1waCcsICc3LjAnLCAnLXRuJywgJzgnLCAnLW1hJywgJzIwMCcsICctbWV0YWxfYmluZGluZycsICctaW1hZScsICc8aW5maWxlLm1hZT4nLCAnLW9tYWUnLCAnPG91dGZpbGUubWFlPic=

> <r_epik_Ionization_Penalty>
0.646518

> <r_epik_Ionization_Penalty_Charging>
0.559419

> <r_epik_Ionization_Penalty_Neutral>
0.0870981

> <r_epik_State_Penalty>
0.661677

> <r_epik_Charging_Adjusted_Penalty>
1.2211

> <i_epik_Tot_Q>
1

> <i_epik_Tot_abs_Q>
1

> <r_epik_Metal_State_Penalty>
0.649158

> <b_epik_Metal_Only>
0

> <s_lp_Force_Field>
OPLS_2005

> <r_lp_Energy>
8.09653

> <b_lp_Chiralities_Consistent>
1

> <s_lp_Variant>
AV-unprocessed.smi:1207-5

> <Gold.Version>
5.8.1

> <Gold.Id.Protein>
6NUR|6NUR_protein|mol2

> <Gold.PLP.Fitness>
52.7437

> <Gold.PLP.PLP>
-46.1173

> <Gold.PLP.part.hbond>
-3.0000

> <Gold.PLP.part.metal>
0.0000

> <Gold.PLP.part.buried>
-6.9054

> <Gold.PLP.part.nonpolar>
-36.5972

> <Gold.PLP.part.repulsive>
0.1143

> <Gold.PLP.ligand.clash>
0.0000

> <Gold.PLP.ligand.torsion>
1.4496

> <Gold.PLP.Chemscore.Hbond>
2.9680

> <Gold.PLP.Chemscore.CHOScore>
0.0000

> <Gold.PLP.Chemscore.Metal>
0.0000

> <Gold.Chemscore.Hbonds>
donor molecule, donor type, donor heavy atom, donor atom, acceptor molecule, acceptor atom, score
      L1  H    10    34       P1  7957  1.00
      P1  H  7989  7998       L1    10  0.86
      P1  H  7997  8009       L1     5  0.80

> <Gold.PLP.Chemscore.Internal.Correction>
0.6217

> <Gold.Rescore>
     Score         DG    S(hbond)    S(metal)    S(lipo)     H(rot)  DE(clash)    DE(int)     intcor
     16.34     -18.18       1.63        0.00     115.83       2.46       0.49       1.36       ----

> <Gold.Chemscore.Fitness>
16.3365

> <Gold.Chemscore.DG>
-18.1844

> <Gold.Chemscore.ZeroCoef>
-5.4800

> <Gold.Chemscore.Hbond>
1.6292

> <Gold.Chemscore.Metal>
0.0000

> <Gold.Chemscore.Lipo>
115.8259

> <Gold.Chemscore.Internal_Hbond>
0.0000

> <Gold.Chemscore.DEClash>
0.4917

> <Gold.Chemscore.DEInternal>
1.3561

> <Gold.Chemscore.Rot>
2.4565

> <Gold.Chemscore.Internal.Correction>
   9.000000E+99

> <Gold.Chemscore.Hbonds>
donor molecule, donor type, donor heavy atom, donor atom, acceptor molecule, acceptor atom, score
      L1  H    10    34       P1  7957  0.92
      P1  H  7989  7998       L1    10  0.15
      P1  H  7997  8009       L1     5  0.11

> <Gold.Chemscore.Hbond.Weighted>
-5.4414

> <Gold.Chemscore.Metal.Weighted>
-0.0000

> <Gold.Chemscore.Lipo.Weighted>
-13.5516

> <Gold.Chemscore.Internal_Hbond.Weighted>
0.0000

> <Gold.Chemscore.DEClash.Weighted>
0.4917

> <Gold.Chemscore.DEInternal.Weighted>
1.3561

> <Gold.Chemscore.Rot.Weighted>
6.2887

> <Gold.Chemscore.Internal.Correction.Weighted>
   9.000000E+99

> <Gold.Protein.RotatedTorsions>
[ 6907 6896 6895 6894 ] final  147.94 input  -60.11 | X-H torsion
[ 7974 7965 7964 7962 ] final   25.46 input  175.53 | X-H torsion
[ 8008 7997 7996 7995 ] final  159.98 input   59.86 | X-H torsion
[ 10167 10162 10161 10158 ] final  125.09 input  -65.29 | X-H torsion
[ 10718 10713 10712 10709 ] final  118.41 input   66.30 | X-H torsion
[ 10763 10752 10751 10750 ] final  -78.24 input  -60.55 | X-H torsion
[ 11005 11000 10999 10996 ] final  123.04 input  -57.11 | X-H torsion

> <Gold.Protein.ActiveResidues>
 VAL166  LYS551  ARG553  GLY616  TRP617  ASP618  TYR619  PRO620  LYS621  CYS622 
 ASP623  PHE694  ASN695  SER759  ASP760  ASP761  ALA762  ILE779  LEU786  VAL792 
 PHE793  MET794  SER795  GLU796  ALA797  LYS798  CYS799  TRP800  GLU811  SER814 

> <Gold.Protein.RotatedAtoms>
  152.1481  133.4505  159.4799 H   0  0  0  0  0  0  0  0  0  0  0  0  # atno 6907 bound_to 6896
  150.6893  134.2222  159.4410 H   0  0  0  0  0  0  0  0  0  0  0  0  # atno 6908 bound_to 6896
  152.0117  134.9872  160.0619 H   0  0  0  0  0  0  0  0  0  0  0  0  # atno 6909 bound_to 6896
  146.1887  139.7463  142.8847 H   0  0  0  0  0  0  0  0  0  0  0  0  # atno 7974 bound_to 7965
  156.2203  140.1816  156.7493 H   0  0  0  0  0  0  0  0  0  0  0  0  # atno 8008 bound_to 7997
  154.5854  140.0659  156.9193 H   0  0  0  0  0  0  0  0  0  0  0  0  # atno 8009 bound_to 7997
  155.2428  140.3323  155.4293 H   0  0  0  0  0  0  0  0  0  0  0  0  # atno 8010 bound_to 7997
  139.5705  144.6936  151.3792 H   0  0  0  0  0  0  0  0  0  0  0  0  # atno 10167 bound_to 10162
  157.6032  131.1047  150.7752 H   0  0  0  0  0  0  0  0  0  0  0  0  # atno 10718 bound_to 10713
  154.5233  135.5737  153.6698 H   0  0  0  0  0  0  0  0  0  0  0  0  # atno 10763 bound_to 10752
  152.9922  135.6187  154.2726 H   0  0  0  0  0  0  0  0  0  0  0  0  # atno 10764 bound_to 10752
  154.2648  135.2855  155.2742 H   0  0  0  0  0  0  0  0  0  0  0  0  # atno 10765 bound_to 10752
  139.9295  134.9641  156.8199 H   0  0  0  0  0  0  0  0  0  0  0  0  # atno 11005 bound_to 11000
  145.3858  141.0365  143.3152 LP  0  0  0  0  0  0  0  0  0  0  0  0  # atno 17320 bound_to 7965
  144.8446  139.5417  143.6884 LP  0  0  0  0  0  0  0  0  0  0  0  0  # atno 17321 bound_to 7965
  140.6989  143.7680  150.7371 LP  0  0  0  0  0  0  0  0  0  0  0  0  # atno 17342 bound_to 10162
  140.1185  143.4634  152.2327 LP  0  0  0  0  0  0  0  0  0  0  0  0  # atno 17343 bound_to 10162
  156.8146  130.4963  149.5351 LP  0  0  0  0  0  0  0  0  0  0  0  0  # atno 17370 bound_to 10713
  156.1111  130.6041  151.0048 LP  0  0  0  0  0  0  0  0  0  0  0  0  # atno 17371 bound_to 10713
  140.6243  133.9965  155.7632 LP  0  0  0  0  0  0  0  0  0  0  0  0  # atno 17394 bound_to 11000
  141.0874  133.9969  157.3291 LP  0  0  0  0  0  0  0  0  0  0  0  0  # atno 17395 bound_to 11000

$$$$
