AV-unprocessed.smi:2150|AV-procd|sdf|8757|dock4
  -GOLD-   2272011533D 1   1.00000     0.00000
 Structure written by MMmdl.
 35 36  0  0  0  0  0  0  0  0  1 V2000
  149.9142  140.4291  158.0691 O   0  0  0  0  0  0  0  0  0  0  0  0
  150.7404  140.9359  157.3089 C   0  0  0  0  0  0  0  0  0  0  0  0
  152.0571  141.5135  157.8471 C   0  0  0  0  0  0  0  0  0  0  0  0
  151.8784  142.7600  158.6092 N   0  0  0  0  0  0  0  0  0  0  0  0
  151.1737  143.8050  157.9886 C   0  0  0  0  0  0  0  0  0  0  0  0
  150.9746  144.9710  158.6198 C   0  0  0  0  0  0  0  0  0  0  0  0
  151.5295  145.0827  159.9750 C   0  0  0  0  0  0  0  0  0  0  0  0
  152.1760  144.1335  160.5422 N   0  0  0  0  0  0  0  0  0  0  0  0
  152.3878  142.9117  159.8751 C   0  0  0  0  0  0  0  0  0  0  0  0
  153.0145  141.9976  160.4112 O   0  0  0  0  0  0  0  0  0  0  0  0
  150.5709  141.0040  155.9788 N   0  0  0  0  0  0  0  0  0  0  0  0
  149.4102  140.4990  155.2419 C   0  0  1  0  0  0  0  0  0  0  0  0
  148.8138  141.6817  154.4447 C   0  0  0  0  0  0  0  0  0  0  0  0
  147.3368  141.4891  154.0593 C   0  0  0  0  0  0  0  0  0  0  0  0
  147.0652  140.3350  153.0825 C   0  0  0  0  0  0  0  0  0  0  0  0
  147.4418  138.9514  153.6393 C   0  0  0  0  0  0  0  0  0  0  0  0
  148.8783  138.7129  153.5893 N   0  0  0  0  0  0  0  0  0  0  0  0
  149.8305  139.3832  154.2561 C   0  0  0  0  0  0  0  0  0  0  0  0
  151.0188  139.1145  154.0794 O   0  0  0  0  0  0  0  0  0  0  0  0
  152.5314  140.7522  158.4681 H   0  0  0  0  0  0  0  0  0  0  0  0
  152.7483  141.6786  157.0186 H   0  0  0  0  0  0  0  0  0  0  0  0
  150.8219  143.6008  156.9877 H   0  0  0  0  0  0  0  0  0  0  0  0
  150.4462  145.8139  158.2001 H   0  0  0  0  0  0  0  0  0  0  0  0
  151.3542  146.0388  160.4745 H   0  0  0  0  0  0  0  0  0  0  0  0
  151.3073  141.4242  155.4308 H   0  0  0  0  0  0  0  0  0  0  0  0
  148.6754  140.1154  155.9522 H   0  0  0  0  0  0  0  0  0  0  0  0
  148.8669  142.5842  155.0560 H   0  0  0  0  0  0  0  0  0  0  0  0
  149.4112  141.8969  153.5569 H   0  0  0  0  0  0  0  0  0  0  0  0
  146.7431  141.3460  154.9629 H   0  0  0  0  0  0  0  0  0  0  0  0
  146.9728  142.4137  153.6103 H   0  0  0  0  0  0  0  0  0  0  0  0
  146.0000  140.3345  152.8487 H   0  0  0  0  0  0  0  0  0  0  0  0
  147.5780  140.5130  152.1361 H   0  0  0  0  0  0  0  0  0  0  0  0
  147.0659  138.8171  154.6546 H   0  0  0  0  0  0  0  0  0  0  0  0
  146.9681  138.1797  153.0323 H   0  0  0  0  0  0  0  0  0  0  0  0
  149.1866  137.9840  152.9620 H   0  0  0  0  0  0  0  0  0  0  0  0
  1  2  2  0  0  0  0
  2  3  1  0  0  0  0
  2 11  1  0  0  0  0
  3  4  1  0  0  0  0
  3 20  1  0  0  0  0
  3 21  1  0  0  0  0
  4  9  1  0  0  0  0
  4  5  1  0  0  0  0
  5  6  2  0  0  0  0
  5 22  1  0  0  0  0
  6  7  1  0  0  0  0
  6 23  1  0  0  0  0
  7  8  2  0  0  0  0
  7 24  1  0  0  0  0
  8  9  1  0  0  0  0
  9 10  2  0  0  0  0
 11 12  1  0  0  0  0
 11 25  1  0  0  0  0
 12 18  1  0  0  0  0
 12 13  1  0  0  0  0
 12 26  1  0  0  0  0
 13 14  1  0  0  0  0
 13 27  1  0  0  0  0
 13 28  1  0  0  0  0
 14 15  1  0  0  0  0
 14 29  1  0  0  0  0
 14 30  1  0  0  0  0
 15 16  1  0  0  0  0
 15 31  1  0  0  0  0
 15 32  1  0  0  0  0
 16 17  1  0  0  0  0
 16 33  1  0  0  0  0
 16 34  1  0  0  0  0
 17 18  1  0  0  0  0
 17 35  1  0  0  0  0
 18 19  2  0  0  0  0
M  END
> <s_m_source_file>
AV-unprocessed.smi

> <i_m_source_file_index>
2150

> <i_lp_mmshare_version>
43012

> <i_f3d_flags>
0

> <s_epik_input>
Tz1jMW5bY0hdW2NIXVtjSF1uMVtDSDJdQyg9TylbTkhdW0NAQEhdMltDSDJdW0NIMl1bQ0gyXVtDSDJdW05IXUMyPU8=

> <s_epik_cmdline>
J2VwaWtfcHl0aG9uJywgJy1waCcsICc3LjAnLCAnLXRuJywgJzgnLCAnLW1hJywgJzIwMCcsICctbWV0YWxfYmluZGluZycsICctaW1hZScsICc8aW5maWxlLm1hZT4nLCAnLW9tYWUnLCAnPG91dGZpbGUubWFlPic=

> <r_lp_tautomer_probability>
1

> <r_epik_Ionization_Penalty>
6.25431e-06

> <r_epik_Ionization_Penalty_Charging>
1.47848e-08

> <r_epik_Ionization_Penalty_Neutral>
6.23953e-06

> <r_epik_State_Penalty>
-0

> <r_epik_Charging_Adjusted_Penalty>
1.47848e-08

> <i_epik_Tot_Q>
0

> <i_epik_Tot_abs_Q>
0

> <r_epik_Metal_State_Penalty>
-0

> <b_epik_Metal_Only>
0

> <s_lp_Force_Field>
OPLS_2005

> <r_lp_Energy>
14.2725

> <b_lp_Chiralities_Consistent>
1

> <s_lp_Variant>
AV-unprocessed.smi:2150-2

> <Gold.Version>
5.8.1

> <Gold.Id.Protein>
6NUR|6NUR_protein|mol2

> <Gold.PLP.Fitness>
45.5693

> <Gold.PLP.PLP>
-37.6541

> <Gold.PLP.part.hbond>
-3.0000

> <Gold.PLP.part.metal>
0.0000

> <Gold.PLP.part.buried>
-3.8049

> <Gold.PLP.part.nonpolar>
-31.4038

> <Gold.PLP.part.repulsive>
0.4412

> <Gold.PLP.ligand.clash>
0.0000

> <Gold.PLP.ligand.torsion>
0.1598

> <Gold.PLP.Chemscore.Hbond>
1.9250

> <Gold.PLP.Chemscore.CHOScore>
0.8194

> <Gold.PLP.Chemscore.Metal>
0.0000

> <Gold.Chemscore.Hbonds>
donor molecule, donor type, donor heavy atom, donor atom, acceptor molecule, acceptor atom, score
      L1  H    17    35       P1  7948  0.96
      P1  H  7989  7998       L1    19  0.95
      L1  C     5    22       P1  8028  0.84

> <Gold.PLP.Chemscore.Internal.Correction>
0.0018

> <Gold.Rescore>
     Score         DG    S(hbond)    S(metal)    S(lipo)     H(rot)  DE(clash)    DE(int)     intcor
     13.44     -13.92       1.32        0.00      71.62       1.69       0.34       0.14       ----

> <Gold.Chemscore.Fitness>
13.4370

> <Gold.Chemscore.DG>
-13.9179

> <Gold.Chemscore.ZeroCoef>
-5.4800

> <Gold.Chemscore.Hbond>
1.3164

> <Gold.Chemscore.Metal>
0.0000

> <Gold.Chemscore.Lipo>
71.6205

> <Gold.Chemscore.Internal_Hbond>
0.0000

> <Gold.Chemscore.DEClash>
0.3428

> <Gold.Chemscore.DEInternal>
0.1381

> <Gold.Chemscore.Rot>
1.6947

> <Gold.Chemscore.Internal.Correction>
   9.000000E+99

> <Gold.Chemscore.Hbonds>
donor molecule, donor type, donor heavy atom, donor atom, acceptor molecule, acceptor atom, score
      L1  H    17    35       P1  7948  0.87
      P1  H  7989  7998       L1    19  0.21

> <Gold.Chemscore.Hbond.Weighted>
-4.3968

> <Gold.Chemscore.Metal.Weighted>
-0.0000

> <Gold.Chemscore.Lipo.Weighted>
-8.3796

> <Gold.Chemscore.Internal_Hbond.Weighted>
0.0000

> <Gold.Chemscore.DEClash.Weighted>
0.3428

> <Gold.Chemscore.DEInternal.Weighted>
0.1381

> <Gold.Chemscore.Rot.Weighted>
4.3385

> <Gold.Chemscore.Internal.Correction.Weighted>
   9.000000E+99

> <Gold.Protein.RotatedTorsions>
[ 6907 6896 6895 6894 ] final  120.28 input  -60.11 | X-H torsion
[ 7974 7965 7964 7962 ] final  -80.85 input  175.53 | X-H torsion
[ 8008 7997 7996 7995 ] final   32.60 input   59.86 | X-H torsion
[ 10167 10162 10161 10158 ] final -149.24 input  -65.29 | X-H torsion
[ 10718 10713 10712 10709 ] final   12.87 input   66.30 | X-H torsion
[ 10763 10752 10751 10750 ] final  -75.09 input  -60.55 | X-H torsion
[ 11005 11000 10999 10996 ] final   61.01 input  -57.11 | X-H torsion

> <Gold.Protein.ActiveResidues>
 VAL166  LYS551  ARG553  GLY616  TRP617  ASP618  TYR619  PRO620  LYS621  CYS622 
 ASP623  PHE694  ASN695  SER759  ASP760  ASP761  ALA762  ILE779  LEU786  VAL792 
 PHE793  MET794  SER795  GLU796  ALA797  LYS798  CYS799  TRP800  GLU811  SER814 

> <Gold.Protein.RotatedAtoms>
  152.4409  133.7447  159.6660 H   0  0  0  0  0  0  0  0  0  0  0  0  # atno 6907 bound_to 6896
  150.8300  133.8096  159.3108 H   0  0  0  0  0  0  0  0  0  0  0  0  # atno 6908 bound_to 6896
  151.5753  135.1063  160.0056 H   0  0  0  0  0  0  0  0  0  0  0  0  # atno 6909 bound_to 6896
  145.5545  140.9491  143.1481 H   0  0  0  0  0  0  0  0  0  0  0  0  # atno 7974 bound_to 7965
  155.1251  140.3252  155.4487 H   0  0  0  0  0  0  0  0  0  0  0  0  # atno 8008 bound_to 7997
  156.2651  140.2020  156.6321 H   0  0  0  0  0  0  0  0  0  0  0  0  # atno 8009 bound_to 7997
  154.6654  140.0542  157.0095 H   0  0  0  0  0  0  0  0  0  0  0  0  # atno 8010 bound_to 7997
  139.7460  143.8590  152.2574 H   0  0  0  0  0  0  0  0  0  0  0  0  # atno 10167 bound_to 10162
  157.0164  130.6137  149.5715 H   0  0  0  0  0  0  0  0  0  0  0  0  # atno 10718 bound_to 10713
  154.4819  135.5842  153.6396 H   0  0  0  0  0  0  0  0  0  0  0  0  # atno 10763 bound_to 10752
  152.9849  135.6092  154.3235 H   0  0  0  0  0  0  0  0  0  0  0  0  # atno 10764 bound_to 10752
  154.3127  135.2845  155.2537 H   0  0  0  0  0  0  0  0  0  0  0  0  # atno 10765 bound_to 10752
  140.0191  134.6180  155.9665 H   0  0  0  0  0  0  0  0  0  0  0  0  # atno 11005 bound_to 11000
  144.7513  139.7187  143.7272 LP  0  0  0  0  0  0  0  0  0  0  0  0  # atno 17320 bound_to 7965
  146.1894  139.5126  142.9815 LP  0  0  0  0  0  0  0  0  0  0  0  0  # atno 17321 bound_to 7965
  139.8555  144.7143  150.9162 LP  0  0  0  0  0  0  0  0  0  0  0  0  # atno 17342 bound_to 10162
  140.7792  143.3862  151.1389 LP  0  0  0  0  0  0  0  0  0  0  0  0  # atno 17343 bound_to 10162
  156.0117  130.5209  150.8010 LP  0  0  0  0  0  0  0  0  0  0  0  0  # atno 17370 bound_to 10713
  157.5282  131.0935  150.9990 LP  0  0  0  0  0  0  0  0  0  0  0  0  # atno 17371 bound_to 10713
  141.1762  133.6541  156.4839 LP  0  0  0  0  0  0  0  0  0  0  0  0  # atno 17394 bound_to 11000
  140.4418  134.7008  157.4995 LP  0  0  0  0  0  0  0  0  0  0  0  0  # atno 17395 bound_to 11000

$$$$
