#       Name:                AV-unprocessed.smi:3303
#       Creating user name   scv26
#       Creation time:       Fri Mar 27 19:00:09 2020


#       File generated by GOLD software.
#

@<TRIPOS>MOLECULE
AV-unprocessed.smi:3303
    46    47     1
SMALL
NO_CHARGES


@<TRIPOS>ATOM
      1 ****        -1.3794  -0.1182   2.5056 C.3            1 S1                 0.0000
      2 ****        -1.8129  -0.8065   1.2003 C.3            1 S1                 0.0000
      3 ****        -1.4460  -2.3029   1.1807 C.3            1 S1                 0.0000
      4 ****        -1.9514  -2.9812  -0.0422 N.4            1 S1                 1.0000
      5 ****        -1.7108  -4.4433   0.0274 C.3            1 S1                 0.0000
      6 ****        -1.4444  -2.3417  -1.2944 C.3            1 S1                 0.0000
      7 ****        -2.0048  -3.0067  -2.5668 C.3            1 S1                 0.0000
      8 ****        -1.7819  -0.8328  -1.3123 C.3            1 S1                 0.0000
      9 ****        -1.2897  -0.0875  -0.0605 C.3            1 S1                 0.0000
     10 ****         0.1892   0.0289  -0.0670 N.4            1 S1                 1.0000
     11 ****         0.7010   1.4139  -0.0511 C.3            1 S1                 0.0000
     12 ****         2.2350   1.4349  -0.0267 C.3            1 S1                 0.0000
     13 ****         2.7866   2.8477  -0.0228 C.ar           1 S1                 0.0000
     14 ****         3.2526   3.4383   1.1710 C.ar           1 S1                 0.0000
     15 ****         3.7483   4.7555   1.1176 C.ar           1 S1                 0.0000
     16 ****         3.7574   5.4272  -0.1200 C.ar           1 S1                 0.0000
     17 ****         3.2679   4.7498  -1.2544 C.ar           1 S1                 0.0000
     18 ****         2.7894   3.4870  -1.2138 N.ar           1 S1                 0.0000
     19 ****        -0.2997  -0.1651   2.6498 H              1 S1                 0.0000
     20 ****        -1.8456  -0.5917   3.3701 H              1 S1                 0.0000
     21 ****        -1.6718   0.9322   2.5114 H              1 S1                 0.0000
     22 ****        -2.9025  -0.7469   1.1713 H              1 S1                 0.0000
     23 ****        -0.3649  -2.4340   1.2517 H              1 S1                 0.0000
     24 ****        -1.8769  -2.7852   2.0593 H              1 S1                 0.0000
     25 ****        -0.6504  -4.6720  -0.0880 H              1 S1                 0.0000
     26 ****        -2.2675  -4.9781  -0.7414 H              1 S1                 0.0000
     27 ****        -2.0407  -4.8455   0.9859 H              1 S1                 0.0000
     28 ****        -0.3590  -2.4530  -1.3108 H              1 S1                 0.0000
     29 ****        -1.6972  -2.4601  -3.4590 H              1 S1                 0.0000
     30 ****        -3.0950  -3.0316  -2.5567 H              1 S1                 0.0000
     31 ****        -1.6435  -4.0273  -2.6910 H              1 S1                 0.0000
     32 ****        -1.3659  -0.3643  -2.2056 H              1 S1                 0.0000
     33 ****        -2.8636  -0.7122  -1.3895 H              1 S1                 0.0000
     34 ****        -1.7194   0.9157  -0.0836 H              1 S1                 0.0000
     35 ****         0.5527  -0.4517   0.7437 H              1 S1                 0.0000
     36 ****         0.3326   1.9395  -0.9335 H              1 S1                 0.0000
     37 ****         0.3094   1.9334   0.8246 H              1 S1                 0.0000
     38 ****         2.6017   0.9042   0.8530 H              1 S1                 0.0000
     39 ****         2.6323   0.9040  -0.8933 H              1 S1                 0.0000
     40 ****         3.2329   2.8990   2.1066 H              1 S1                 0.0000
     41 ****         4.1145   5.2418   2.0096 H              1 S1                 0.0000
     42 ****         4.1309   6.4375  -0.1986 H              1 S1                 0.0000
     43 ****         3.2592   5.2348  -2.2192 H              1 S1                 0.0000
     44 ****         0.5448  -0.4253  -0.8963 H              1 S1                 0.0000
     45 ****        -2.9547  -2.8609  -0.0407 H              1 S1                 0.0000
     46 ****         2.4477   3.0388  -2.0398 LP             1 S1                 0.0000
@<TRIPOS>BOND
    1    1    2 1     
    2    1   19 1     
    3    1   20 1     
    4    1   21 1     
    5    2    9 1     
    6    2    3 1     
    7    2   22 1     
    8    3    4 1     
    9    3   23 1     
   10    3   24 1     
   11    4    5 1     
   12    4    6 1     
   13    4   45 1     
   14    5   25 1     
   15    5   26 1     
   16    5   27 1     
   17    6    7 1     
   18    6    8 1     
   19    6   28 1     
   20    7   29 1     
   21    7   30 1     
   22    7   31 1     
   23    8    9 1     
   24    8   32 1     
   25    8   33 1     
   26    9   10 1     
   27    9   34 1     
   28   10   11 1     
   29   10   35 1     
   30   10   44 1     
   31   11   12 1     
   32   11   36 1     
   33   11   37 1     
   34   12   13 1     
   35   12   38 1     
   36   12   39 1     
   37   13   18 ar    
   38   13   14 ar    
   39   14   15 ar    
   40   14   40 1     
   41   15   16 ar    
   42   15   41 1     
   43   16   17 ar    
   44   16   42 1     
   45   17   18 ar    
   46   17   43 1     
   47   18   46 1     
@<TRIPOS>SUBSTRUCTURE
      1 S1             1
@<TRIPOS>SET
LONE_PAIRS      STATIC     ATOMS    <user>   **** ""
1 46
DONOR_HYDROGENS      STATIC     ATOMS    <user>   **** ""
3 45 35 44
ATOM$BLUE        STATIC     ATOMS    COLORGROUP SYSTEM
1 46
ATOM$RED        STATIC     ATOMS    COLORGROUP SYSTEM
3 45 35 44
