AV-unprocessed.smi:3287|AV-procd|sdf|12598|dock4
  -GOLD-   2272018523D 1   1.00000     0.00000
 Structure written by MMmdl.
 43 44  0  0  0  0  0  0  0  0  2 V2000
  152.8310  142.0146  160.7421 C   0  0  0  0  0  0  0  0  0  0  0  0
  151.8866  141.9385  159.5312 C   0  0  2  0  0  0  0  0  0  0  0  0
  152.4808  141.0860  158.3930 C   0  0  0  0  0  0  0  0  0  0  0  0
  151.4964  140.9414  157.2215 C   0  0  0  0  0  0  0  0  0  0  0  0
  151.0344  142.3142  156.6908 C   0  0  1  0  0  0  0  0  0  0  0  0
  150.0273  142.1708  155.6163 N   0  3  0  0  0  0  0  0  0  0  0  0
  148.9017  141.2595  155.9170 C   0  0  0  0  0  0  0  0  0  0  0  0
  147.9942  141.0663  154.6895 C   0  0  2  0  0  0  0  0  0  0  0  0
  148.7588  141.2858  153.5198 O   0  0  0  0  0  0  0  0  0  0  0  0
  146.7834  141.9840  154.7495 C   0  0  0  0  0  0  0  0  0  0  0  0
  145.8648  141.8884  155.8157 C   0  0  0  0  0  0  0  0  0  0  0  0
  144.7592  142.7622  155.8336 C   0  0  0  0  0  0  0  0  0  0  0  0
  144.5340  143.6926  154.8817 N   0  0  0  0  0  0  0  0  0  0  0  0
  145.4170  143.7821  153.8644 C   0  0  0  0  0  0  0  0  0  0  0  0
  146.5532  142.9560  153.7516 C   0  0  0  0  0  0  0  0  0  0  0  0
  150.4481  143.1605  157.8388 C   0  0  0  0  0  0  0  0  0  0  0  0
  151.4269  143.3279  159.0205 C   0  0  2  0  0  0  0  0  0  0  0  0
  152.5821  144.2890  158.6738 C   0  0  0  0  0  0  0  0  0  0  0  0
  153.7984  142.4409  160.4759 H   0  0  0  0  0  0  0  0  0  0  0  0
  153.0158  141.0217  161.1533 H   0  0  0  0  0  0  0  0  0  0  0  0
  152.4023  142.6236  161.5385 H   0  0  0  0  0  0  0  0  0  0  0  0
  150.9910  141.4208  159.8787 H   0  0  0  0  0  0  0  0  0  0  0  0
  153.4130  141.5269  158.0386 H   0  0  0  0  0  0  0  0  0  0  0  0
  152.7393  140.0955  158.7698 H   0  0  0  0  0  0  0  0  0  0  0  0
  151.9737  140.3628  156.4309 H   0  0  0  0  0  0  0  0  0  0  0  0
  150.6311  140.3623  157.5472 H   0  0  0  0  0  0  0  0  0  0  0  0
  151.8922  142.8448  156.2758 H   0  0  0  0  0  0  0  0  0  0  0  0
  149.6577  143.0832  155.3893 H   0  0  0  0  0  0  0  0  0  0  0  0
  149.3088  140.2952  156.2244 H   0  0  0  0  0  0  0  0  0  0  0  0
  148.3191  141.6428  156.7549 H   0  0  0  0  0  0  0  0  0  0  0  0
  147.6436  140.0334  154.6598 H   0  0  0  0  0  0  0  0  0  0  0  0
  148.7168  140.5076  152.9841 H   0  0  0  0  0  0  0  0  0  0  0  0
  145.9982  141.1638  156.6053 H   0  0  0  0  0  0  0  0  0  0  0  0
  144.0369  142.7126  156.6349 H   0  0  0  0  0  0  0  0  0  0  0  0
  145.2133  144.5356  153.1180 H   0  0  0  0  0  0  0  0  0  0  0  0
  147.2293  143.0710  152.9168 H   0  0  0  0  0  0  0  0  0  0  0  0
  150.1473  144.1405  157.4659 H   0  0  0  0  0  0  0  0  0  0  0  0
  149.5352  142.6868  158.2034 H   0  0  0  0  0  0  0  0  0  0  0  0
  150.8682  143.8030  159.8282 H   0  0  0  0  0  0  0  0  0  0  0  0
  153.2480  143.8786  157.9154 H   0  0  0  0  0  0  0  0  0  0  0  0
  153.1852  144.5209  159.5514 H   0  0  0  0  0  0  0  0  0  0  0  0
  152.1988  145.2370  158.2953 H   0  0  0  0  0  0  0  0  0  0  0  0
  150.4983  141.8066  154.8006 H   0  0  0  0  0  0  0  0  0  0  0  0
  1  2  1  0  0  0  0
  1 19  1  0  0  0  0
  1 20  1  0  0  0  0
  1 21  1  0  0  0  0
  2 17  1  0  0  0  0
  2  3  1  0  0  0  0
  2 22  1  0  0  0  0
  3  4  1  0  0  0  0
  3 23  1  0  0  0  0
  3 24  1  0  0  0  0
  4  5  1  0  0  0  0
  4 25  1  0  0  0  0
  4 26  1  0  0  0  0
  5  6  1  0  0  0  0
  5 16  1  0  0  0  0
  5 27  1  0  0  0  0
  6  7  1  0  0  0  0
  6 28  1  0  0  0  0
  6 43  1  0  0  0  0
  7  8  1  0  0  0  0
  7 29  1  0  0  0  0
  7 30  1  0  0  0  0
  8  9  1  0  0  0  0
  8 10  1  0  0  0  0
  8 31  1  0  0  0  0
  9 32  1  0  0  0  0
 10 15  1  0  0  0  0
 10 11  2  0  0  0  0
 11 12  1  0  0  0  0
 11 33  1  0  0  0  0
 12 13  2  0  0  0  0
 12 34  1  0  0  0  0
 13 14  1  0  0  0  0
 14 15  2  0  0  0  0
 14 35  1  0  0  0  0
 15 36  1  0  0  0  0
 16 17  1  0  0  0  0
 16 37  1  0  0  0  0
 16 38  1  0  0  0  0
 17 18  1  0  0  0  0
 17 39  1  0  0  0  0
 18 40  1  0  0  0  0
 18 41  1  0  0  0  0
 18 42  1  0  0  0  0
M  CHG  1   6   1
M  END
> <s_m_source_file>
AV-unprocessed.smi

> <i_m_source_file_index>
3287

> <i_lp_mmshare_version>
43012

> <i_f3d_flags>
0

> <s_epik_input>
W0NIM11bQ0BASF0xW0NIMl1bQ0gyXVtDQEhdKFtDSDJdW0NASF0xW0NIM10pW05IXVtDSDJdW0NASF0oW09IXSljMltjSF1bY0hdbltjSF1bY0hdMg==

> <s_epik_cmdline>
J2VwaWtfcHl0aG9uJywgJy1waCcsICc3LjAnLCAnLXRuJywgJzgnLCAnLW1hJywgJzIwMCcsICctbWV0YWxfYmluZGluZycsICctaW1hZScsICc8aW5maWxlLm1hZT4nLCAnLW9tYWUnLCAnPG91dGZpbGUubWFlPic=

> <r_lp_tautomer_probability>
1

> <r_epik_Ionization_Penalty>
0.00537262

> <r_epik_Ionization_Penalty_Charging>
0.00321624

> <r_epik_Ionization_Penalty_Neutral>
0.00215638

> <r_epik_State_Penalty>
-0

> <r_epik_Charging_Adjusted_Penalty>
0.00321624

> <i_epik_Tot_Q>
1

> <i_epik_Tot_abs_Q>
1

> <r_epik_Metal_State_Penalty>
-0

> <b_epik_Metal_Only>
0

> <s_lp_Force_Field>
OPLS_2005

> <r_lp_Energy>
18.5341

> <b_lp_Chiralities_Consistent>
1

> <s_lp_Variant>
AV-unprocessed.smi:3287-9

> <Gold.Version>
5.8.1

> <Gold.Id.Protein>
6NUR|6NUR_protein|mol2

> <Gold.PLP.Fitness>
48.4035

> <Gold.PLP.PLP>
-38.8694

> <Gold.PLP.part.hbond>
-3.1563

> <Gold.PLP.part.metal>
0.0000

> <Gold.PLP.part.buried>
-4.8657

> <Gold.PLP.part.nonpolar>
-30.5864

> <Gold.PLP.part.repulsive>
0.3463

> <Gold.PLP.ligand.clash>
0.0000

> <Gold.PLP.ligand.torsion>
0.5717

> <Gold.PLP.Chemscore.Hbond>
3.5520

> <Gold.PLP.Chemscore.CHOScore>
0.0000

> <Gold.PLP.Chemscore.Metal>
0.0000

> <Gold.Chemscore.Hbonds>
donor molecule, donor type, donor heavy atom, donor atom, acceptor molecule, acceptor atom, score
      L1  H     6    28       P1  8028  2.00
      L1  H     9    32       P1  7957  0.55
      P1  H  8011  8017       L1     9  0.84

> <Gold.PLP.Chemscore.Internal.Correction>
0.0216

> <Gold.Rescore>
     Score         DG    S(hbond)    S(metal)    S(lipo)     H(rot)  DE(clash)    DE(int)     intcor
     19.09     -19.96       1.96        0.00     109.59       1.90       0.28       0.59       ----

> <Gold.Chemscore.Fitness>
19.0884

> <Gold.Chemscore.DG>
-19.9591

> <Gold.Chemscore.ZeroCoef>
-5.4800

> <Gold.Chemscore.Hbond>
1.9550

> <Gold.Chemscore.Metal>
0.0000

> <Gold.Chemscore.Lipo>
109.5909

> <Gold.Chemscore.Internal_Hbond>
0.0000

> <Gold.Chemscore.DEClash>
0.2802

> <Gold.Chemscore.DEInternal>
0.5905

> <Gold.Chemscore.Rot>
1.9035

> <Gold.Chemscore.Internal.Correction>
   9.000000E+99

> <Gold.Chemscore.Hbonds>
donor molecule, donor type, donor heavy atom, donor atom, acceptor molecule, acceptor atom, score
      L1  H     6    28       P1  8028  0.99
      L1  H     9    32       P1  7957  0.53
      P1  H  8011  8017       L1     9  0.19

> <Gold.Chemscore.Hbond.Weighted>
-6.5298

> <Gold.Chemscore.Metal.Weighted>
-0.0000

> <Gold.Chemscore.Lipo.Weighted>
-12.8221

> <Gold.Chemscore.Internal_Hbond.Weighted>
0.0000

> <Gold.Chemscore.DEClash.Weighted>
0.2802

> <Gold.Chemscore.DEInternal.Weighted>
0.5905

> <Gold.Chemscore.Rot.Weighted>
4.8729

> <Gold.Chemscore.Internal.Correction.Weighted>
   9.000000E+99

> <Gold.Protein.RotatedTorsions>
[ 6907 6896 6895 6894 ] final   37.90 input  -60.11 | X-H torsion
[ 7974 7965 7964 7962 ] final -118.90 input  175.53 | X-H torsion
[ 8008 7997 7996 7995 ] final   43.52 input   59.86 | X-H torsion
[ 10167 10162 10161 10158 ] final   22.41 input  -65.29 | X-H torsion
[ 10718 10713 10712 10709 ] final   47.47 input   66.30 | X-H torsion
[ 10763 10752 10751 10750 ] final    3.98 input  -60.55 | X-H torsion
[ 11005 11000 10999 10996 ] final  115.09 input  -57.11 | X-H torsion

> <Gold.Protein.ActiveResidues>
 VAL166  LYS551  ARG553  GLY616  TRP617  ASP618  TYR619  PRO620  LYS621  CYS622 
 ASP623  PHE694  ASN695  SER759  ASP760  ASP761  ALA762  ILE779  LEU786  VAL792 
 PHE793  MET794  SER795  GLU796  ALA797  LYS798  CYS799  TRP800  GLU811  SER814 

> <Gold.Protein.RotatedAtoms>
  152.1493  134.9001  160.0548 H   0  0  0  0  0  0  0  0  0  0  0  0  # atno 6907 bound_to 6896
  152.0039  133.3831  159.4201 H   0  0  0  0  0  0  0  0  0  0  0  0  # atno 6908 bound_to 6896
  150.6874  134.3726  159.5042 H   0  0  0  0  0  0  0  0  0  0  0  0  # atno 6909 bound_to 6896
  145.0686  140.8342  143.4109 H   0  0  0  0  0  0  0  0  0  0  0  0  # atno 7974 bound_to 7965
  155.3040  140.3387  155.4246 H   0  0  0  0  0  0  0  0  0  0  0  0  # atno 8008 bound_to 7997
  156.1987  140.1725  156.7983 H   0  0  0  0  0  0  0  0  0  0  0  0  # atno 8009 bound_to 7997
  154.5532  140.0701  156.8685 H   0  0  0  0  0  0  0  0  0  0  0  0  # atno 8010 bound_to 7997
  140.5351  143.9775  150.6487 H   0  0  0  0  0  0  0  0  0  0  0  0  # atno 10167 bound_to 10162
  157.4588  130.8184  149.7865 H   0  0  0  0  0  0  0  0  0  0  0  0  # atno 10718 bound_to 10713
  153.2768  135.6937  153.7425 H   0  0  0  0  0  0  0  0  0  0  0  0  # atno 10763 bound_to 10752
  153.6428  135.3390  155.3077 H   0  0  0  0  0  0  0  0  0  0  0  0  # atno 10764 bound_to 10752
  154.8482  135.4436  154.1808 H   0  0  0  0  0  0  0  0  0  0  0  0  # atno 10765 bound_to 10752
  139.8999  134.9578  156.6992 H   0  0  0  0  0  0  0  0  0  0  0  0  # atno 11005 bound_to 11000
  145.1320  139.2626  143.5534 LP  0  0  0  0  0  0  0  0  0  0  0  0  # atno 17320 bound_to 7965
  146.3528  140.0974  142.8609 LP  0  0  0  0  0  0  0  0  0  0  0  0  # atno 17321 bound_to 7965
  140.3160  143.3167  152.0832 LP  0  0  0  0  0  0  0  0  0  0  0  0  # atno 17342 bound_to 10162
  139.4968  144.6605  151.6475 LP  0  0  0  0  0  0  0  0  0  0  0  0  # atno 17343 bound_to 10162
  156.0019  130.3875  150.2572 LP  0  0  0  0  0  0  0  0  0  0  0  0  # atno 17370 bound_to 10713
  157.0749  131.0127  151.3177 LP  0  0  0  0  0  0  0  0  0  0  0  0  # atno 17371 bound_to 10713
  140.7164  133.9179  155.8118 LP  0  0  0  0  0  0  0  0  0  0  0  0  # atno 17394 bound_to 11000
  141.0261  134.0821  157.4067 LP  0  0  0  0  0  0  0  0  0  0  0  0  # atno 17395 bound_to 11000

$$$$
