#       Name:                AV-unprocessed.smi:3314
#       Creating user name   scv26
#       Creation time:       Fri Mar 27 19:08:19 2020


#       File generated by GOLD software.
#

@<TRIPOS>MOLECULE
AV-unprocessed.smi:3314
    43    44     1
SMALL
NO_CHARGES


@<TRIPOS>ATOM
      1 ****        -4.9081   1.7663   0.5463 C.3            1 S1                 0.0000
      2 ****        -4.0091   0.5482   0.4958 C.ar           1 S1                 0.0000
      3 ****        -4.5573  -0.7513   0.4932 C.ar           1 S1                 0.0000
      4 ****        -3.6887  -1.8605   0.4553 C.ar           1 S1                 0.0000
      5 ****        -4.1968  -3.2868   0.4595 C.3            1 S1                 0.0000
      6 ****        -2.3523  -1.6625   0.4167 N.pl3          1 S1                 1.0000
      7 ****        -1.7722  -0.4399   0.4061 C.ar           1 S1                 0.0000
      8 ****        -0.3512  -0.4044   0.3813 N.am           1 S1                 0.0000
      9 ****         0.4689   0.6165   0.0691 C.2            1 S1                 0.0000
     10 ****         0.0915   1.7349  -0.2811 O.2            1 S1                 0.0000
     11 ****         1.9664   0.2999   0.1717 C.3            1 S1                 0.0000
     12 ****         2.8741   1.4716  -0.2672 C.3            1 S1                 0.0000
     13 ****         4.2836   1.1078  -0.2128 N.3            1 S1                 0.0000
     14 ****         5.1395   2.2118  -0.6197 C.3            1 S1                 0.0000
     15 ****         4.5139  -0.0787  -1.0255 C.3            1 S1                 0.0000
     16 ****         3.6076  -1.2448  -0.5956 C.3            1 S1                 0.0000
     17 ****         2.2430  -0.8369  -0.6459 O.3            1 S1                 0.0000
     18 ****        -2.6072   0.7055   0.4564 C.ar           1 S1                 0.0000
     19 ****        -5.9615   1.4846   0.5522 H              1 S1                 0.0000
     20 ****        -4.7314   2.4030  -0.3211 H              1 S1                 0.0000
     21 ****        -4.7062   2.3479   1.4461 H              1 S1                 0.0000
     22 ****        -5.6276  -0.8961   0.5247 H              1 S1                 0.0000
     23 ****        -5.2868  -3.3156   0.4605 H              1 S1                 0.0000
     24 ****        -3.8417  -3.8138   1.3455 H              1 S1                 0.0000
     25 ****        -3.8434  -3.8198  -0.4236 H              1 S1                 0.0000
     26 ****         0.1072  -1.2815   0.5818 H              1 S1                 0.0000
     27 ****         2.1799   0.0467   1.2119 H              1 S1                 0.0000
     28 ****         2.6142   1.7797  -1.2817 H              1 S1                 0.0000
     29 ****         2.6961   2.3341   0.3766 H              1 S1                 0.0000
     30 ****         6.1911   1.9351  -0.5382 H              1 S1                 0.0000
     31 ****         4.9756   3.0825   0.0160 H              1 S1                 0.0000
     32 ****         4.9435   2.5029  -1.6525 H              1 S1                 0.0000
     33 ****         4.3307   0.1517  -2.0763 H              1 S1                 0.0000
     34 ****         5.5585  -0.3828  -0.9498 H              1 S1                 0.0000
     35 ****         3.7496  -2.0993  -1.2572 H              1 S1                 0.0000
     36 ****         3.8574  -1.5758   0.4135 H              1 S1                 0.0000
     37 ****        -2.2017   1.7051   0.4782 H              1 S1                 0.0000
     38 ****        -1.7489  -2.4849   0.3915 H              1 S1                 0.0000
     39 ****        -0.8861   1.9341  -0.3494 LP             1 S1                 0.0000
     40 ****         0.7626   2.4441  -0.4974 LP             1 S1                 0.0000
     41 ****         4.5232   0.8978   0.7350 LP             1 S1                 0.0000
     42 ****         2.0133  -0.6112  -1.5927 LP             1 S1                 0.0000
     43 ****         1.6721  -1.5975  -0.3367 LP             1 S1                 0.0000
@<TRIPOS>BOND
    1    1    2 1     
    2    1   19 1     
    3    1   20 1     
    4    1   21 1     
    5    2   18 ar    
    6    2    3 ar    
    7    3    4 ar    
    8    3   22 1     
    9    4    5 1     
   10    4    6 ar    
   11    5   23 1     
   12    5   24 1     
   13    5   25 1     
   14    6    7 ar    
   15    6   38 1     
   16    7    8 1     
   17    7   18 ar    
   18    8    9 am    
   19    8   26 1     
   20    9   10 2     
   21    9   11 1     
   22   11   17 1     
   23   11   12 1     
   24   11   27 1     
   25   12   13 1     
   26   12   28 1     
   27   12   29 1     
   28   13   14 1     
   29   13   15 1     
   30   14   30 1     
   31   14   31 1     
   32   14   32 1     
   33   15   16 1     
   34   15   33 1     
   35   15   34 1     
   36   16   17 1     
   37   16   35 1     
   38   16   36 1     
   39   18   37 1     
   40   10   39 1     
   41   10   40 1     
   42   13   41 1     
   43   17   42 1     
   44   17   43 1     
@<TRIPOS>SUBSTRUCTURE
      1 S1             1
@<TRIPOS>SET
LONE_PAIRS      STATIC     ATOMS    <user>   **** ""
5 39 40 41 42 43
DONOR_HYDROGENS      STATIC     ATOMS    <user>   **** ""
2 38 26
ATOM$BLUE        STATIC     ATOMS    COLORGROUP SYSTEM
5 39 40 41 42 43
ATOM$RED        STATIC     ATOMS    COLORGROUP SYSTEM
2 38 26
