AV-unprocessed.smi:16|AV-procd|sdf|93|dock7
  -GOLD-   2262015233D 1   1.00000     0.00000
 Structure written by MMmdl.
 60 64  0  0  0  0  0  0  0  0  2 V2000
  150.9094  137.9767  158.7604 C   0  0  0  0  0  0  0  0  0  0  0  0
  150.9692  137.8129  157.2320 C   0  0  0  0  0  0  0  0  0  0  0  0
  150.2888  138.8943  156.4751 N   0  3  1  0  0  0  0  0  0  0  0  0
  150.8214  140.2544  156.7391 C   0  0  0  0  0  0  0  0  0  0  0  0
  149.8874  141.3179  156.1417 C   0  0  0  0  0  0  0  0  0  0  0  0
  149.6609  141.0747  154.6326 C   0  0  2  0  0  0  0  0  0  0  0  0
  148.7696  142.0276  154.0499 O   0  0  0  0  0  0  0  0  0  0  0  0
  147.4071  141.8931  154.4498 C   0  0  0  0  0  0  0  0  0  0  0  0
  146.9083  140.4728  154.1488 C   0  0  0  0  0  0  0  0  0  0  0  0
  147.7813  139.4871  154.7764 N   0  0  0  0  0  0  0  0  0  0  0  0
  147.2849  138.2313  154.7197 C   0  0  0  0  0  0  0  0  0  0  0  0
  147.3025  137.4378  155.8223 N   0  0  0  0  0  0  0  0  0  0  0  0
  146.7755  136.2106  155.7658 C   0  0  0  0  0  0  0  0  0  0  0  0
  146.1897  135.6002  154.7326 N   0  0  0  0  0  0  0  0  0  0  0  0
  146.1734  136.3979  153.6258 C   0  0  0  0  0  0  0  0  0  0  0  0
  146.6927  137.7186  153.5369 C   0  0  0  0  0  0  0  0  0  0  0  0
  146.4762  138.2366  152.2667 N   0  0  0  0  0  0  0  0  0  0  0  0
  145.8630  137.2718  151.6361 C   0  0  0  0  0  0  0  0  0  0  0  0
  145.6625  136.1231  152.3690 N   0  0  0  0  0  0  0  0  0  0  0  0
  144.9739  134.9435  151.9345 C   0  0  0  0  0  0  0  0  0  0  0  0
  145.6410  133.5668  151.9800 C   0  0  0  0  0  0  0  0  0  0  0  0
  144.8430  133.1474  150.7251 C   0  0  0  0  0  0  0  0  0  0  0  0
  145.6471  132.3156  149.7109 C   0  0  0  0  0  0  0  0  0  0  0  0
  146.3376  131.2496  150.3292 O   0  0  0  0  0  0  0  0  0  0  0  0
  143.5179  132.4222  151.0424 C   0  0  0  0  0  0  0  0  0  0  0  0
  142.6474  132.3876  149.9304 O   0  0  0  0  0  0  0  0  0  0  0  0
  144.7489  134.6656  150.4472 C   0  0  0  0  0  0  0  0  0  0  0  0
  149.1788  139.6307  154.3543 C   0  0  2  0  0  0  0  0  0  0  0  0
  150.1514  138.6246  155.0211 C   0  0  0  0  0  0  0  0  0  0  0  0
  150.6206  141.2122  154.1326 H   0  0  0  0  0  0  0  0  0  0  0  0
  149.2076  139.4633  153.2763 H   0  0  0  0  0  0  0  0  0  0  0  0
  151.4190  137.1466  159.2501 H   0  0  0  0  0  0  0  0  0  0  0  0
  149.8840  137.9874  159.1289 H   0  0  0  0  0  0  0  0  0  0  0  0
  151.3987  138.8929  159.0903 H   0  0  0  0  0  0  0  0  0  0  0  0
  152.0110  137.7686  156.9115 H   0  0  0  0  0  0  0  0  0  0  0  0
  150.5279  136.8565  156.9494 H   0  0  0  0  0  0  0  0  0  0  0  0
  150.9129  140.4129  157.8142 H   0  0  0  0  0  0  0  0  0  0  0  0
  151.8205  140.3560  156.3138 H   0  0  0  0  0  0  0  0  0  0  0  0
  148.9454  141.2881  156.6882 H   0  0  0  0  0  0  0  0  0  0  0  0
  150.3044  142.3127  156.3003 H   0  0  0  0  0  0  0  0  0  0  0  0
  147.2858  142.1329  155.5057 H   0  0  0  0  0  0  0  0  0  0  0  0
  146.8090  142.6204  153.9007 H   0  0  0  0  0  0  0  0  0  0  0  0
  145.8865  140.3536  154.5119 H   0  0  0  0  0  0  0  0  0  0  0  0
  146.8877  140.3139  153.0695 H   0  0  0  0  0  0  0  0  0  0  0  0
  146.8275  135.6366  156.6793 H   0  0  0  0  0  0  0  0  0  0  0  0
  145.5396  137.3712  150.6099 H   0  0  0  0  0  0  0  0  0  0  0  0
  144.0263  134.9325  152.4757 H   0  0  0  0  0  0  0  0  0  0  0  0
  146.7177  133.6227  151.8086 H   0  0  0  0  0  0  0  0  0  0  0  0
  145.4215  132.9901  152.8794 H   0  0  0  0  0  0  0  0  0  0  0  0
  144.9882  131.8812  148.9585 H   0  0  0  0  0  0  0  0  0  0  0  0
  146.3630  132.9343  149.1690 H   0  0  0  0  0  0  0  0  0  0  0  0
  147.2637  131.4345  150.3003 H   0  0  0  0  0  0  0  0  0  0  0  0
  143.6996  131.3999  151.3757 H   0  0  0  0  0  0  0  0  0  0  0  0
  142.9857  132.9132  151.8571 H   0  0  0  0  0  0  0  0  0  0  0  0
  142.2939  131.5147  149.8515 H   0  0  0  0  0  0  0  0  0  0  0  0
  143.7874  135.0093  150.0651 H   0  0  0  0  0  0  0  0  0  0  0  0
  145.5677  135.0321  149.8249 H   0  0  0  0  0  0  0  0  0  0  0  0
  151.1300  138.7102  154.5474 H   0  0  0  0  0  0  0  0  0  0  0  0
  149.8306  137.5955  154.8563 H   0  0  0  0  0  0  0  0  0  0  0  0
  149.3444  138.9019  156.8348 H   0  0  0  0  0  0  0  0  0  0  0  0
  1  2  1  0  0  0  0
  1 32  1  0  0  0  0
  1 33  1  0  0  0  0
  1 34  1  0  0  0  0
  2  3  1  0  0  0  0
  2 35  1  0  0  0  0
  2 36  1  0  0  0  0
  3 29  1  0  0  0  0
  3  4  1  0  0  0  0
  3 60  1  0  0  0  0
  4  5  1  0  0  0  0
  4 37  1  0  0  0  0
  4 38  1  0  0  0  0
  5  6  1  0  0  0  0
  5 39  1  0  0  0  0
  5 40  1  0  0  0  0
  6 30  1  0  0  0  0
  6 28  1  0  0  0  0
  6  7  1  0  0  0  0
  7  8  1  0  0  0  0
  8  9  1  0  0  0  0
  8 41  1  0  0  0  0
  8 42  1  0  0  0  0
  9 10  1  0  0  0  0
  9 43  1  0  0  0  0
  9 44  1  0  0  0  0
 10 11  1  0  0  0  0
 10 28  1  0  0  0  0
 11 16  1  0  0  0  0
 11 12  2  0  0  0  0
 12 13  1  0  0  0  0
 13 14  2  0  0  0  0
 13 45  1  0  0  0  0
 14 15  1  0  0  0  0
 15 19  1  0  0  0  0
 15 16  2  0  0  0  0
 16 17  1  0  0  0  0
 17 18  2  0  0  0  0
 18 19  1  0  0  0  0
 18 46  1  0  0  0  0
 19 20  1  0  0  0  0
 20 27  1  0  0  0  0
 20 21  1  0  0  0  0
 20 47  1  0  0  0  0
 21 22  1  0  0  0  0
 21 48  1  0  0  0  0
 21 49  1  0  0  0  0
 22 23  1  0  0  0  0
 22 25  1  0  0  0  0
 22 27  1  0  0  0  0
 23 24  1  0  0  0  0
 23 50  1  0  0  0  0
 23 51  1  0  0  0  0
 24 52  1  0  0  0  0
 25 26  1  0  0  0  0
 25 53  1  0  0  0  0
 25 54  1  0  0  0  0
 26 55  1  0  0  0  0
 27 56  1  0  0  0  0
 27 57  1  0  0  0  0
 28 31  1  0  0  0  0
 28 29  1  0  0  0  0
 29 58  1  0  0  0  0
 29 59  1  0  0  0  0
M  CHG  1   3   1
M  END
> <s_m_source_file>
AV-unprocessed.smi

> <i_m_source_file_index>
16

> <i_lp_mmshare_version>
43012

> <i_f3d_flags>
0

> <s_epik_input>
W0NIM11bQ0gyXU4oW0NIMl1bQ0gyXTEpW0NIMl1bQ0BASF0oW0NAQEhdMTIpTihbQ0gyXVtDSDJdTzIpYyhuW2NIXW4zKWMoYzM0KW5bY0hdbjRbQ0hdKFtDSDJdNSlbQ0gyXUM1KFtDSDJdW09IXSlbQ0gyXVtPSF0=

> <s_epik_cmdline>
J2VwaWtfcHl0aG9uJywgJy1waCcsICc3LjAnLCAnLXRuJywgJzgnLCAnLW1hJywgJzIwMCcsICctbWV0YWxfYmluZGluZycsICctaW1hZScsICc8aW5maWxlLm1hZT4nLCAnLW9tYWUnLCAnPG91dGZpbGUubWFlPic=

> <r_lp_tautomer_probability>
1

> <r_epik_Ionization_Penalty>
0.0135603

> <r_epik_Ionization_Penalty_Charging>
0.0131385

> <r_epik_Ionization_Penalty_Neutral>
0.000421734

> <r_epik_State_Penalty>
0.0102091

> <r_epik_Charging_Adjusted_Penalty>
0.0233476

> <i_epik_Tot_Q>
1

> <i_epik_Tot_abs_Q>
1

> <r_epik_Metal_State_Penalty>
0.0103746

> <b_epik_Metal_Only>
0

> <s_lp_Force_Field>
OPLS_2005

> <r_lp_Energy>
64.3007

> <b_lp_Chiralities_Consistent>
1

> <s_lp_Variant>
AV-unprocessed.smi:16-7

> <Gold.Version>
5.8.1

> <Gold.Id.Protein>
6NUR|6NUR_protein|mol2

> <Gold.PLP.Fitness>
49.2573

> <Gold.PLP.PLP>
-41.0924

> <Gold.PLP.part.hbond>
-4.0000

> <Gold.PLP.part.metal>
0.0000

> <Gold.PLP.part.buried>
-4.5343

> <Gold.PLP.part.nonpolar>
-34.1664

> <Gold.PLP.part.repulsive>
0.7778

> <Gold.PLP.ligand.clash>
0.0000

> <Gold.PLP.ligand.torsion>
1.2605

> <Gold.PLP.Chemscore.Hbond>
2.4000

> <Gold.PLP.Chemscore.CHOScore>
0.9343

> <Gold.PLP.Chemscore.Metal>
0.0000

> <Gold.Chemscore.Hbonds>
donor molecule, donor type, donor heavy atom, donor atom, acceptor molecule, acceptor atom, score
      L1  H    24    52       P1 10747  0.99
      L1  H    26    55       P1 10952  0.99
      P1  H  8011  8017       L1     7  0.40
      L1  C    18    46       P1 10171  0.98

> <Gold.PLP.Chemscore.Internal.Correction>
0.6831

> <Gold.Rescore>
     Score         DG    S(hbond)    S(metal)    S(lipo)     H(rot)  DE(clash)    DE(int)     intcor
     12.01     -15.70       2.18        0.00      97.72       3.33       1.35       2.34       ----

> <Gold.Chemscore.Fitness>
12.0102

> <Gold.Chemscore.DG>
-15.6972

> <Gold.Chemscore.ZeroCoef>
-5.4800

> <Gold.Chemscore.Hbond>
2.1844

> <Gold.Chemscore.Metal>
0.0000

> <Gold.Chemscore.Lipo>
97.7235

> <Gold.Chemscore.Internal_Hbond>
0.0000

> <Gold.Chemscore.DEClash>
1.3468

> <Gold.Chemscore.DEInternal>
2.3403

> <Gold.Chemscore.Rot>
3.3251

> <Gold.Chemscore.Internal.Correction>
   9.000000E+99

> <Gold.Chemscore.Hbonds>
donor molecule, donor type, donor heavy atom, donor atom, acceptor molecule, acceptor atom, score
      L1  H    24    52       P1 10747  0.94
      L1  H    26    55       P1 10952  0.92
      P1  H  8011  8017       L1     7  0.10

> <Gold.Chemscore.Hbond.Weighted>
-7.2957

> <Gold.Chemscore.Metal.Weighted>
-0.0000

> <Gold.Chemscore.Lipo.Weighted>
-11.4337

> <Gold.Chemscore.Internal_Hbond.Weighted>
0.0000

> <Gold.Chemscore.DEClash.Weighted>
1.3468

> <Gold.Chemscore.DEInternal.Weighted>
2.3403

> <Gold.Chemscore.Rot.Weighted>
8.5122

> <Gold.Chemscore.Internal.Correction.Weighted>
   9.000000E+99

> <Gold.Protein.RotatedTorsions>
[ 6907 6896 6895 6894 ] final   -8.71 input  -60.11 | X-H torsion
[ 7974 7965 7964 7962 ] final   35.77 input  175.53 | X-H torsion
[ 8008 7997 7996 7995 ] final  166.13 input   59.86 | X-H torsion
[ 10167 10162 10161 10158 ] final  -92.80 input  -65.29 | X-H torsion
[ 10718 10713 10712 10709 ] final  -78.98 input   66.30 | X-H torsion
[ 10763 10752 10751 10750 ] final -117.93 input  -60.55 | X-H torsion
[ 11005 11000 10999 10996 ] final  -54.49 input  -57.11 | X-H torsion

> <Gold.Protein.ActiveResidues>
 VAL166  LYS551  ARG553  GLY616  TRP617  ASP618  TYR619  PRO620  LYS621  CYS622 
 ASP623  PHE694  ASN695  SER759  ASP760  ASP761  ALA762  ILE779  LEU786  VAL792 
 PHE793  MET794  SER795  GLU796  ALA797  LYS798  CYS799  TRP800  GLU811  SER814 

> <Gold.Protein.RotatedAtoms>
  151.4292  135.1007  159.9636 H   0  0  0  0  0  0  0  0  0  0  0  0  # atno 6907 bound_to 6896
  152.4962  133.8633  159.7272 H   0  0  0  0  0  0  0  0  0  0  0  0  # atno 6908 bound_to 6896
  150.9167  133.6872  159.2869 H   0  0  0  0  0  0  0  0  0  0  0  0  # atno 6909 bound_to 6896
  146.1259  139.6100  142.9259 H   0  0  0  0  0  0  0  0  0  0  0  0  # atno 7974 bound_to 7965
  156.1743  140.1651  156.8390 H   0  0  0  0  0  0  0  0  0  0  0  0  # atno 8008 bound_to 7997
  154.5290  140.0761  156.8345 H   0  0  0  0  0  0  0  0  0  0  0  0  # atno 8009 bound_to 7997
  155.3446  140.3386  155.4241 H   0  0  0  0  0  0  0  0  0  0  0  0  # atno 8010 bound_to 7997
  140.3311  143.2994  151.9940 H   0  0  0  0  0  0  0  0  0  0  0  0  # atno 10167 bound_to 10162
  156.0104  130.4533  150.3578 H   0  0  0  0  0  0  0  0  0  0  0  0  # atno 10718 bound_to 10713
  154.8571  135.4292  154.2058 H   0  0  0  0  0  0  0  0  0  0  0  0  # atno 10763 bound_to 10752
  153.3094  135.6974  153.7135 H   0  0  0  0  0  0  0  0  0  0  0  0  # atno 10764 bound_to 10752
  153.6233  135.3498  155.2992 H   0  0  0  0  0  0  0  0  0  0  0  0  # atno 10765 bound_to 10752
  141.1028  133.6616  156.4328 H   0  0  0  0  0  0  0  0  0  0  0  0  # atno 11005 bound_to 11000
  145.5366  141.0423  143.2353 LP  0  0  0  0  0  0  0  0  0  0  0  0  # atno 17320 bound_to 7965
  144.7642  139.6885  143.7222 LP  0  0  0  0  0  0  0  0  0  0  0  0  # atno 17321 bound_to 7965
  139.4856  144.6234  151.7212 LP  0  0  0  0  0  0  0  0  0  0  0  0  # atno 17342 bound_to 10162
  140.5396  144.0601  150.6083 LP  0  0  0  0  0  0  0  0  0  0  0  0  # atno 17343 bound_to 10162
  157.1668  131.0359  151.2815 LP  0  0  0  0  0  0  0  0  0  0  0  0  # atno 17370 bound_to 10713
  157.4264  130.7466  149.6954 LP  0  0  0  0  0  0  0  0  0  0  0  0  # atno 17371 bound_to 10713
  140.4978  134.6514  157.5237 LP  0  0  0  0  0  0  0  0  0  0  0  0  # atno 17394 bound_to 11000
  139.9886  134.7021  155.9729 LP  0  0  0  0  0  0  0  0  0  0  0  0  # atno 17395 bound_to 11000

$$$$
