AV-unprocessed.smi:1907|AV-procd|sdf|7731|dock9
  -GOLD-   22720 9473D 1   1.00000     0.00000
 Structure written by MMmdl.
 32 33  0  0  0  0  0  0  0  0  1 V2000
  152.7334  139.0614  154.8563 N   0  0  0  0  0  0  0  0  0  0  0  0
  151.8173  138.0900  154.9035 C   0  0  0  0  0  0  0  0  0  0  0  0
  151.9790  137.0654  155.5625 O   0  0  0  0  0  0  0  0  0  0  0  0
  150.5372  138.2957  154.0914 C   0  0  0  0  0  0  0  0  0  0  0  0
  149.8982  139.6061  154.4481 C   0  0  0  0  0  0  0  0  0  0  0  0
  148.6317  140.0262  154.1195 C   0  0  0  0  0  0  0  0  0  0  0  0
  148.2934  141.6248  154.7283 S   0  0  0  0  0  0  0  0  0  0  0  0
  149.8979  141.6499  155.4421 C   0  0  0  0  0  0  0  0  0  0  0  0
  150.3956  142.7759  156.1470 N   0  0  0  0  0  0  0  0  0  0  0  0
  151.3163  142.8404  157.1299 C   0  0  0  0  0  0  0  0  0  0  0  0
  151.8676  141.8099  157.5151 O   0  0  0  0  0  0  0  0  0  0  0  0
  151.7118  144.1953  157.7632 C   0  0  0  0  0  0  0  0  0  0  0  0
  152.9352  144.0884  158.6922 C   0  0  0  0  0  0  0  0  0  0  0  0
  152.3999  143.8301  160.1093 C   0  0  0  0  0  0  0  0  0  0  0  0
  150.8906  144.1018  160.0638 C   0  0  0  0  0  0  0  0  0  0  0  0
  150.6182  144.7350  158.6966 C   0  0  0  0  0  0  0  0  0  0  0  0
  150.6177  140.5540  155.1824 N   0  0  0  0  0  0  0  0  0  0  0  0
  153.5896  138.9692  155.3833 H   0  0  0  0  0  0  0  0  0  0  0  0
  152.5638  139.8870  154.3004 H   0  0  0  0  0  0  0  0  0  0  0  0
  150.7704  138.2542  153.0265 H   0  0  0  0  0  0  0  0  0  0  0  0
  149.8530  137.4691  154.2872 H   0  0  0  0  0  0  0  0  0  0  0  0
  147.8805  139.4933  153.5556 H   0  0  0  0  0  0  0  0  0  0  0  0
  150.0022  143.6621  155.8656 H   0  0  0  0  0  0  0  0  0  0  0  0
  151.9496  144.9085  156.9746 H   0  0  0  0  0  0  0  0  0  0  0  0
  153.6458  143.3215  158.3798 H   0  0  0  0  0  0  0  0  0  0  0  0
  153.4763  145.0353  158.6794 H   0  0  0  0  0  0  0  0  0  0  0  0
  152.5889  142.8005  160.4152 H   0  0  0  0  0  0  0  0  0  0  0  0
  152.8971  144.4797  160.8303 H   0  0  0  0  0  0  0  0  0  0  0  0
  150.3481  143.1592  160.1464 H   0  0  0  0  0  0  0  0  0  0  0  0
  150.5594  144.7405  160.8832 H   0  0  0  0  0  0  0  0  0  0  0  0
  150.7096  145.8197  158.7674 H   0  0  0  0  0  0  0  0  0  0  0  0
  149.6077  144.5211  158.3454 H   0  0  0  0  0  0  0  0  0  0  0  0
  1  2  1  0  0  0  0
  1 18  1  0  0  0  0
  1 19  1  0  0  0  0
  2  3  2  0  0  0  0
  2  4  1  0  0  0  0
  4  5  1  0  0  0  0
  4 20  1  0  0  0  0
  4 21  1  0  0  0  0
  5 17  1  0  0  0  0
  5  6  2  0  0  0  0
  6  7  1  0  0  0  0
  6 22  1  0  0  0  0
  7  8  1  0  0  0  0
  8  9  1  0  0  0  0
  8 17  2  0  0  0  0
  9 10  1  0  0  0  0
  9 23  1  0  0  0  0
 10 11  2  0  0  0  0
 10 12  1  0  0  0  0
 12 16  1  0  0  0  0
 12 13  1  0  0  0  0
 12 24  1  0  0  0  0
 13 14  1  0  0  0  0
 13 25  1  0  0  0  0
 13 26  1  0  0  0  0
 14 15  1  0  0  0  0
 14 27  1  0  0  0  0
 14 28  1  0  0  0  0
 15 16  1  0  0  0  0
 15 29  1  0  0  0  0
 15 30  1  0  0  0  0
 16 31  1  0  0  0  0
 16 32  1  0  0  0  0
M  END
> <s_m_source_file>
AV-unprocessed.smi

> <i_m_source_file_index>
1907

> <i_lp_mmshare_version>
43012

> <i_f3d_flags>
0

> <s_epik_input>
W05IMl1DKD1PKVtDSDJdYzFbY0hdc2MobjEpW05IXUMoPU8pW0NIXTJbQ0gyXVtDSDJdW0NIMl1bQ0gyXTI=

> <s_epik_cmdline>
J2VwaWtfcHl0aG9uJywgJy1waCcsICc3LjAnLCAnLXRuJywgJzgnLCAnLW1hJywgJzIwMCcsICctbWV0YWxfYmluZGluZycsICctaW1hZScsICc8aW5maWxlLm1hZT4nLCAnLW9tYWUnLCAnPG91dGZpbGUubWFlPic=

> <r_lp_tautomer_probability>
1

> <r_epik_Ionization_Penalty>
0.00017492

> <r_epik_Ionization_Penalty_Charging>
0

> <r_epik_Ionization_Penalty_Neutral>
0.00017492

> <r_epik_State_Penalty>
-0

> <r_epik_Charging_Adjusted_Penalty>
0

> <i_epik_Tot_Q>
0

> <i_epik_Tot_abs_Q>
0

> <r_epik_Metal_State_Penalty>
0.109333

> <b_epik_Metal_Only>
0

> <s_lp_Force_Field>
OPLS_2005

> <r_lp_Energy>
23.3326

> <b_lp_Chiralities_Consistent>
1

> <s_lp_Variant>
AV-unprocessed.smi:1907-1

> <Gold.Version>
5.8.1

> <Gold.Id.Protein>
6NUR|6NUR_protein|mol2

> <Gold.PLP.Fitness>
43.9341

> <Gold.PLP.PLP>
-37.9627

> <Gold.PLP.part.hbond>
-2.9239

> <Gold.PLP.part.metal>
0.0000

> <Gold.PLP.part.buried>
-2.8619

> <Gold.PLP.part.nonpolar>
-32.5678

> <Gold.PLP.part.repulsive>
0.4900

> <Gold.PLP.ligand.clash>
0.0000

> <Gold.PLP.ligand.torsion>
0.6013

> <Gold.PLP.Chemscore.Hbond>
2.3824

> <Gold.PLP.Chemscore.CHOScore>
0.0000

> <Gold.PLP.Chemscore.Metal>
0.0000

> <Gold.Chemscore.Hbonds>
donor molecule, donor type, donor heavy atom, donor atom, acceptor molecule, acceptor atom, score
      L1  H     9    23       P1  8028  1.00
      P1  H  7989  7998       L1    17  0.29
      P1  H 10752 10763       L1     3  0.99

> <Gold.PLP.Chemscore.Internal.Correction>
0.0269

> <Gold.Rescore>
     Score         DG    S(hbond)    S(metal)    S(lipo)     H(rot)  DE(clash)    DE(int)     intcor
     12.54     -17.21       1.91        0.00      87.33       1.90       1.28       3.40       ----

> <Gold.Chemscore.Fitness>
12.5351

> <Gold.Chemscore.DG>
-17.2094

> <Gold.Chemscore.ZeroCoef>
-5.4800

> <Gold.Chemscore.Hbond>
1.9110

> <Gold.Chemscore.Metal>
0.0000

> <Gold.Chemscore.Lipo>
87.3303

> <Gold.Chemscore.Internal_Hbond>
0.0000

> <Gold.Chemscore.DEClash>
1.2790

> <Gold.Chemscore.DEInternal>
3.3952

> <Gold.Chemscore.Rot>
1.9028

> <Gold.Chemscore.Internal.Correction>
   9.000000E+99

> <Gold.Chemscore.Hbonds>
donor molecule, donor type, donor heavy atom, donor atom, acceptor molecule, acceptor atom, score
      L1  H     9    23       P1  8028  0.93
      P1  H 10752 10763       L1     3  0.87

> <Gold.Chemscore.Hbond.Weighted>
-6.3828

> <Gold.Chemscore.Metal.Weighted>
-0.0000

> <Gold.Chemscore.Lipo.Weighted>
-10.2176

> <Gold.Chemscore.Internal_Hbond.Weighted>
0.0000

> <Gold.Chemscore.DEClash.Weighted>
1.2790

> <Gold.Chemscore.DEInternal.Weighted>
3.3952

> <Gold.Chemscore.Rot.Weighted>
4.8711

> <Gold.Chemscore.Internal.Correction.Weighted>
   9.000000E+99

> <Gold.Protein.RotatedTorsions>
[ 6907 6896 6895 6894 ] final  -39.28 input  -60.11 | X-H torsion
[ 7974 7965 7964 7962 ] final   59.66 input  175.53 | X-H torsion
[ 8008 7997 7996 7995 ] final  109.13 input   59.86 | X-H torsion
[ 10167 10162 10161 10158 ] final -123.57 input  -65.29 | X-H torsion
[ 10718 10713 10712 10709 ] final  -33.67 input   66.30 | X-H torsion
[ 10763 10752 10751 10750 ] final   68.17 input  -60.55 | X-H torsion
[ 11005 11000 10999 10996 ] final  164.08 input  -57.11 | X-H torsion

> <Gold.Protein.ActiveResidues>
 VAL166  LYS551  ARG553  GLY616  TRP617  ASP618  TYR619  PRO620  LYS621  CYS622 
 ASP623  PHE694  ASN695  SER759  ASP760  ASP761  ALA762  ILE779  LEU786  VAL792 
 PHE793  MET794  SER795  GLU796  ALA797  LYS798  CYS799  TRP800  GLU811  SER814 

> <Gold.Protein.RotatedAtoms>
  150.9922  134.9254  159.7905 H   0  0  0  0  0  0  0  0  0  0  0  0  # atno 6907 bound_to 6896
  152.5254  134.3266  159.9178 H   0  0  0  0  0  0  0  0  0  0  0  0  # atno 6908 bound_to 6896
  151.3272  133.3974  159.2694 H   0  0  0  0  0  0  0  0  0  0  0  0  # atno 6909 bound_to 6896
  145.9047  139.3608  143.0571 H   0  0  0  0  0  0  0  0  0  0  0  0  # atno 7974 bound_to 7965
  156.1956  140.3063  155.9421 H   0  0  0  0  0  0  0  0  0  0  0  0  # atno 8008 bound_to 7997
  155.3073  140.0449  157.3050 H   0  0  0  0  0  0  0  0  0  0  0  0  # atno 8009 bound_to 7997
  154.5506  140.2290  155.8501 H   0  0  0  0  0  0  0  0  0  0  0  0  # atno 8010 bound_to 7997
  140.0021  143.5529  152.2299 H   0  0  0  0  0  0  0  0  0  0  0  0  # atno 10167 bound_to 10162
  156.3599  130.4322  149.7633 H   0  0  0  0  0  0  0  0  0  0  0  0  # atno 10718 bound_to 10713
  153.0222  135.5257  154.7093 H   0  0  0  0  0  0  0  0  0  0  0  0  # atno 10763 bound_to 10752
  154.6180  135.2885  155.0360 H   0  0  0  0  0  0  0  0  0  0  0  0  # atno 10764 bound_to 10752
  154.1357  135.6586  153.4984 H   0  0  0  0  0  0  0  0  0  0  0  0  # atno 10765 bound_to 10752
  140.2423  134.8041  157.3422 H   0  0  0  0  0  0  0  0  0  0  0  0  # atno 11005 bound_to 11000
  145.8747  140.9399  143.0632 LP  0  0  0  0  0  0  0  0  0  0  0  0  # atno 17320 bound_to 7965
  144.6738  140.0701  143.7473 LP  0  0  0  0  0  0  0  0  0  0  0  0  # atno 17321 bound_to 7965
  139.6264  144.7638  151.2629 LP  0  0  0  0  0  0  0  0  0  0  0  0  # atno 17342 bound_to 10162
  140.7414  143.6556  150.8209 LP  0  0  0  0  0  0  0  0  0  0  0  0  # atno 17343 bound_to 10162
  156.4801  130.8037  151.3051 LP  0  0  0  0  0  0  0  0  0  0  0  0  # atno 17370 bound_to 10713
  157.7472  131.0008  150.2941 LP  0  0  0  0  0  0  0  0  0  0  0  0  # atno 17371 bound_to 10713
  140.1641  134.4691  155.7875 LP  0  0  0  0  0  0  0  0  0  0  0  0  # atno 17394 bound_to 11000
  141.2209  133.6913  156.7595 LP  0  0  0  0  0  0  0  0  0  0  0  0  # atno 17395 bound_to 11000

$$$$
