AV-unprocessed.smi:2499|AV-procd|sdf|9833|dock4
  -GOLD-   2272013463D 1   1.00000     0.00000
 Structure written by MMmdl.
 28 29  0  0  0  0  0  0  0  0  2 V2000
  151.8499  145.4213  158.1846 C   0  0  0  0  0  0  0  0  0  0  0  0
  151.8786  143.8958  158.0187 C   0  0  2  0  0  0  0  0  0  0  0  0
  150.8795  143.5145  157.0249 N   0  0  0  0  0  0  0  0  0  0  0  0
  150.7059  142.2771  156.5365 C   0  0  0  0  0  0  0  0  0  0  0  0
  151.3855  141.3067  156.8727 O   0  0  0  0  0  0  0  0  0  0  0  0
  149.7056  142.2329  155.6434 N   0  0  0  0  0  0  0  0  0  0  0  0
  149.2733  141.0799  154.9483 C   0  0  0  0  0  0  0  0  0  0  0  0
  148.0095  140.8518  154.5948 N   0  3  0  0  0  0  0  0  0  0  0  0
  147.9461  139.6472  153.9390 C   0  0  0  0  0  0  0  0  0  0  0  0
  149.2331  139.1658  153.9165 C   0  0  0  0  0  0  0  0  0  0  0  0
  150.0789  140.0554  154.5479 O   0  0  0  0  0  0  0  0  0  0  0  0
  151.6950  143.2024  159.3583 C   0  0  0  0  0  0  0  0  0  0  0  0
  151.6259  143.9983  160.6403 C   0  0  0  0  0  0  0  0  0  0  0  0
  152.8202  143.1147  160.3624 C   0  0  0  0  0  0  0  0  0  0  0  0
  152.6187  145.7545  158.8826 H   0  0  0  0  0  0  0  0  0  0  0  0
  150.8866  145.7623  158.5656 H   0  0  0  0  0  0  0  0  0  0  0  0
  152.0312  145.9252  157.2344 H   0  0  0  0  0  0  0  0  0  0  0  0
  152.8666  143.6324  157.6354 H   0  0  0  0  0  0  0  0  0  0  0  0
  150.2746  144.2507  156.6904 H   0  0  0  0  0  0  0  0  0  0  0  0
  147.2029  141.4405  154.7614 H   0  0  0  0  0  0  0  0  0  0  0  0
  147.0108  139.2597  153.5610 H   0  0  0  0  0  0  0  0  0  0  0  0
  149.6885  138.2698  153.5202 H   0  0  0  0  0  0  0  0  0  0  0  0
  151.0340  142.3387  159.3118 H   0  0  0  0  0  0  0  0  0  0  0  0
  151.7748  145.0747  160.5791 H   0  0  0  0  0  0  0  0  0  0  0  0
  150.9221  143.6670  161.4011 H   0  0  0  0  0  0  0  0  0  0  0  0
  152.9101  142.1944  160.9356 H   0  0  0  0  0  0  0  0  0  0  0  0
  153.7601  143.6075  160.1215 H   0  0  0  0  0  0  0  0  0  0  0  0
  149.2147  143.0918  155.4443 H   0  0  0  0  0  0  0  0  0  0  0  0
  1  2  1  0  0  0  0
  1 15  1  0  0  0  0
  1 16  1  0  0  0  0
  1 17  1  0  0  0  0
  2  3  1  0  0  0  0
  2 12  1  0  0  0  0
  2 18  1  0  0  0  0
  3 19  1  0  0  0  0
  3  4  1  0  0  0  0
  4  6  1  0  0  0  0
  4  5  2  0  0  0  0
  6  7  1  0  0  0  0
  6 28  1  0  0  0  0
  7 11  1  0  0  0  0
  7  8  2  0  0  0  0
  8 20  1  0  0  0  0
  8  9  1  0  0  0  0
  9 21  1  0  0  0  0
  9 10  2  0  0  0  0
 10 22  1  0  0  0  0
 10 11  1  0  0  0  0
 12 14  1  0  0  0  0
 12 13  1  0  0  0  0
 12 23  1  0  0  0  0
 13 14  1  0  0  0  0
 13 24  1  0  0  0  0
 13 25  1  0  0  0  0
 14 26  1  0  0  0  0
 14 27  1  0  0  0  0
M  CHG  1   8   1
M  END
> <s_m_source_file>
AV-unprocessed.smi

> <i_m_source_file_index>
2499

> <i_lp_mmshare_version>
43012

> <i_f3d_flags>
0

> <s_epik_input>
W0NIMl0xW0NIMl1bQ0hdMVtDQEhdKFtDSDNdKVtOSF1DKD1PKVtOSF1jMm5bY0hdW2NIXW8y

> <s_epik_cmdline>
J2VwaWtfcHl0aG9uJywgJy1waCcsICc3LjAnLCAnLXRuJywgJzgnLCAnLW1hJywgJzIwMCcsICctbWV0YWxfYmluZGluZycsICctaW1hZScsICc8aW5maWxlLm1hZT4nLCAnLW9tYWUnLCAnPG91dGZpbGUubWFlPic=

> <r_epik_Ionization_Penalty>
6.56099

> <r_epik_Ionization_Penalty_Charging>
6.51293

> <r_epik_Ionization_Penalty_Neutral>
0.0480564

> <r_epik_State_Penalty>
1.72359

> <r_epik_Charging_Adjusted_Penalty>
8.23652

> <i_epik_Tot_Q>
1

> <i_epik_Tot_abs_Q>
1

> <r_epik_Metal_State_Penalty>
1.73747

> <b_epik_Metal_Only>
0

> <s_lp_Force_Field>
OPLS_2005

> <r_lp_Energy>
20.6817

> <b_lp_Chiralities_Consistent>
1

> <s_lp_Variant>
AV-unprocessed.smi:2499-3

> <Gold.Version>
5.8.1

> <Gold.Id.Protein>
6NUR|6NUR_protein|mol2

> <Gold.PLP.Fitness>
40.3456

> <Gold.PLP.PLP>
-29.5382

> <Gold.PLP.part.hbond>
-3.0000

> <Gold.PLP.part.metal>
0.0000

> <Gold.PLP.part.buried>
-2.0653

> <Gold.PLP.part.nonpolar>
-24.6749

> <Gold.PLP.part.repulsive>
0.3657

> <Gold.PLP.ligand.clash>
0.0000

> <Gold.PLP.ligand.torsion>
1.1300

> <Gold.PLP.Chemscore.Hbond>
3.0000

> <Gold.PLP.Chemscore.CHOScore>
1.0002

> <Gold.PLP.Chemscore.Metal>
0.0000

> <Gold.Chemscore.Hbonds>
donor molecule, donor type, donor heavy atom, donor atom, acceptor molecule, acceptor atom, score
      L1  H     3    19       P1  8028  0.99
      L1  H     6    28       P1  8028  1.00
      P1  H  7989  7998       L1    11  0.98
      L1  C    10    22       P1  7948  0.60

> <Gold.PLP.Chemscore.Internal.Correction>
1.0668

> <Gold.Rescore>
     Score         DG    S(hbond)    S(metal)    S(lipo)     H(rot)  DE(clash)    DE(int)     intcor
     16.76     -19.84       2.80        0.00      71.46       1.30       1.52       1.56       ----

> <Gold.Chemscore.Fitness>
16.7601

> <Gold.Chemscore.DG>
-19.8393

> <Gold.Chemscore.ZeroCoef>
-5.4800

> <Gold.Chemscore.Hbond>
2.7951

> <Gold.Chemscore.Metal>
0.0000

> <Gold.Chemscore.Lipo>
71.4610

> <Gold.Chemscore.Internal_Hbond>
0.0000

> <Gold.Chemscore.DEClash>
1.5241

> <Gold.Chemscore.DEInternal>
1.5552

> <Gold.Chemscore.Rot>
1.3036

> <Gold.Chemscore.Internal.Correction>
   9.000000E+99

> <Gold.Chemscore.Hbonds>
donor molecule, donor type, donor heavy atom, donor atom, acceptor molecule, acceptor atom, score
      L1  H     3    19       P1  8028  0.92
      L1  H     6    28       P1  8028  0.98
      P1  H  7989  7998       L1    11  0.53

> <Gold.Chemscore.Hbond.Weighted>
-9.3355

> <Gold.Chemscore.Metal.Weighted>
-0.0000

> <Gold.Chemscore.Lipo.Weighted>
-8.3609

> <Gold.Chemscore.Internal_Hbond.Weighted>
0.0000

> <Gold.Chemscore.DEClash.Weighted>
1.5241

> <Gold.Chemscore.DEInternal.Weighted>
1.5552

> <Gold.Chemscore.Rot.Weighted>
3.3371

> <Gold.Chemscore.Internal.Correction.Weighted>
   9.000000E+99

> <Gold.Protein.RotatedTorsions>
[ 6907 6896 6895 6894 ] final   34.13 input  -60.11 | X-H torsion
[ 7974 7965 7964 7962 ] final -177.65 input  175.53 | X-H torsion
[ 8008 7997 7996 7995 ] final  173.28 input   59.86 | X-H torsion
[ 10167 10162 10161 10158 ] final  -42.35 input  -65.29 | X-H torsion
[ 10718 10713 10712 10709 ] final -136.07 input   66.30 | X-H torsion
[ 10763 10752 10751 10750 ] final   88.50 input  -60.55 | X-H torsion
[ 11005 11000 10999 10996 ] final   73.73 input  -57.11 | X-H torsion

> <Gold.Protein.ActiveResidues>
 VAL166  LYS551  ARG553  GLY616  TRP617  ASP618  TYR619  PRO620  LYS621  CYS622 
 ASP623  PHE694  ASN695  SER759  ASP760  ASP761  ALA762  ILE779  LEU786  VAL792 
 PHE793  MET794  SER795  GLU796  ALA797  LYS798  CYS799  TRP800  GLU811  SER814 

> <Gold.Protein.RotatedAtoms>
  152.0982  134.9360  160.0570 H   0  0  0  0  0  0  0  0  0  0  0  0  # atno 6907 bound_to 6896
  152.0585  133.4046  159.4416 H   0  0  0  0  0  0  0  0  0  0  0  0  # atno 6908 bound_to 6896
  150.6838  134.3147  159.4805 H   0  0  0  0  0  0  0  0  0  0  0  0  # atno 6909 bound_to 6896
  144.7128  140.0988  143.6417 H   0  0  0  0  0  0  0  0  0  0  0  0  # atno 7974 bound_to 7965
  156.1091  140.1464  156.9363 H   0  0  0  0  0  0  0  0  0  0  0  0  # atno 8008 bound_to 7997
  154.4754  140.0896  156.7293 H   0  0  0  0  0  0  0  0  0  0  0  0  # atno 8009 bound_to 7997
  155.4627  140.3439  155.4317 H   0  0  0  0  0  0  0  0  0  0  0  0  # atno 8010 bound_to 7997
  140.6972  143.3042  151.3197 H   0  0  0  0  0  0  0  0  0  0  0  0  # atno 10167 bound_to 10162
  156.2731  130.7277  151.1250 H   0  0  0  0  0  0  0  0  0  0  0  0  # atno 10718 bound_to 10713
  153.1775  135.4504  154.9984 H   0  0  0  0  0  0  0  0  0  0  0  0  # atno 10763 bound_to 10752
  154.8008  135.3255  154.7558 H   0  0  0  0  0  0  0  0  0  0  0  0  # atno 10764 bound_to 10752
  153.8026  135.6961  153.4908 H   0  0  0  0  0  0  0  0  0  0  0  0  # atno 10765 bound_to 10752
  139.9426  134.7372  156.1062 H   0  0  0  0  0  0  0  0  0  0  0  0  # atno 11005 bound_to 11000
  145.9556  139.2764  143.1186 LP  0  0  0  0  0  0  0  0  0  0  0  0  # atno 17320 bound_to 7965
  145.9276  140.9071  143.0373 LP  0  0  0  0  0  0  0  0  0  0  0  0  # atno 17321 bound_to 7965
  139.6442  144.0482  152.2578 LP  0  0  0  0  0  0  0  0  0  0  0  0  # atno 17342 bound_to 10162
  139.9997  144.6302  150.7740 LP  0  0  0  0  0  0  0  0  0  0  0  0  # atno 17343 bound_to 10162
  157.7290  131.0627  150.5793 LP  0  0  0  0  0  0  0  0  0  0  0  0  # atno 17370 bound_to 10713
  156.5891  130.4324  149.5944 LP  0  0  0  0  0  0  0  0  0  0  0  0  # atno 17371 bound_to 10713
  141.1065  133.6658  156.2877 LP  0  0  0  0  0  0  0  0  0  0  0  0  # atno 17394 bound_to 11000
  140.5915  134.5646  157.5500 LP  0  0  0  0  0  0  0  0  0  0  0  0  # atno 17395 bound_to 11000

$$$$
