AV-unprocessed.smi:250|AV-procd|sdf|1933|dock2
  -GOLD-   2262021 53D 1   1.00000     0.00000
 Structure written by MMmdl.
 56 60  0  0  0  0  0  0  0  0  1 V2000
  145.4347  133.5806  151.5356 C   0  0  0  0  0  0  0  0  0  0  0  0
  146.1583  134.2742  152.5936 N   0  0  0  0  0  0  0  0  0  0  0  0
  147.3704  133.9358  153.0638 C   0  0  0  0  0  0  0  0  0  0  0  0
  148.0755  133.0123  152.6618 O   0  0  0  0  0  0  0  0  0  0  0  0
  147.6819  134.7690  154.0610 N   0  0  0  0  0  0  0  0  0  0  0  0
  146.6001  135.6754  154.3814 C   0  0  1  0  0  0  0  0  0  0  0  0
  147.0461  137.1034  154.7788 C   0  0  0  0  0  0  0  0  0  0  0  0
  146.8991  138.0986  153.7163 N   0  0  0  0  0  0  0  0  0  0  0  0
  147.4032  139.3270  154.0006 C   0  0  0  0  0  0  0  0  0  0  0  0
  146.7257  140.4030  153.5223 N   0  0  0  0  0  0  0  0  0  0  0  0
  147.1598  141.6421  153.7668 C   0  0  0  0  0  0  0  0  0  0  0  0
  148.2340  142.0280  154.4559 N   0  0  0  0  0  0  0  0  0  0  0  0
  148.9256  140.9552  154.9356 C   0  0  0  0  0  0  0  0  0  0  0  0
  148.5883  139.5825  154.7550 C   0  0  0  0  0  0  0  0  0  0  0  0
  149.5478  138.7850  155.3705 N   0  0  0  0  0  0  0  0  0  0  0  0
  150.3911  139.6334  155.8902 C   0  0  0  0  0  0  0  0  0  0  0  0
  150.0851  140.9600  155.6923 N   0  0  0  0  0  0  0  0  0  0  0  0
  150.8515  142.1106  156.1507 C   0  0  0  0  0  0  0  0  0  0  0  0
  151.0183  142.2413  157.6968 C   0  0  0  0  0  0  0  0  0  0  0  0
  149.5978  142.1796  158.3271 C   0  0  0  0  0  0  0  0  0  0  0  0
  148.8083  143.3034  157.9909 O   0  0  0  0  0  0  0  0  0  0  0  0
  151.8831  141.0812  158.2569 C   0  0  0  0  0  0  0  0  0  0  0  0
  152.2437  141.2635  159.7438 C   0  0  0  0  0  0  0  0  0  0  0  0
  152.9005  142.5101  159.9379 O   0  0  0  0  0  0  0  0  0  0  0  0
  152.0962  143.6262  159.5765 C   0  0  0  0  0  0  0  0  0  0  0  0
  151.7485  143.5556  158.0784 C   0  0  0  0  0  0  0  0  0  0  0  0
  145.7146  138.0081  152.8725 C   0  0  0  0  0  0  0  0  0  0  0  0
  145.7026  136.6514  152.1730 C   0  0  0  0  0  0  0  0  0  0  0  0
  145.6415  135.4982  153.1923 C   0  0  1  0  0  0  0  0  0  0  0  0
  146.1322  135.2338  155.2633 H   0  0  0  0  0  0  0  0  0  0  0  0
  144.6194  135.3605  153.5486 H   0  0  0  0  0  0  0  0  0  0  0  0
  145.3626  132.5143  151.7534 H   0  0  0  0  0  0  0  0  0  0  0  0
  145.9474  133.7039  150.5812 H   0  0  0  0  0  0  0  0  0  0  0  0
  144.4224  133.9717  151.4307 H   0  0  0  0  0  0  0  0  0  0  0  0
  148.5389  134.7263  154.5932 H   0  0  0  0  0  0  0  0  0  0  0  0
  146.4309  137.4402  155.6141 H   0  0  0  0  0  0  0  0  0  0  0  0
  148.0703  137.0733  155.1526 H   0  0  0  0  0  0  0  0  0  0  0  0
  146.5597  142.4381  153.3513 H   0  0  0  0  0  0  0  0  0  0  0  0
  151.2638  139.3124  156.4404 H   0  0  0  0  0  0  0  0  0  0  0  0
  151.8286  142.0600  155.6687 H   0  0  0  0  0  0  0  0  0  0  0  0
  150.3728  143.0067  155.7533 H   0  0  0  0  0  0  0  0  0  0  0  0
  149.0743  141.2839  157.9911 H   0  0  0  0  0  0  0  0  0  0  0  0
  149.6306  142.1201  159.4134 H   0  0  0  0  0  0  0  0  0  0  0  0
  149.1388  143.6725  157.1859 H   0  0  0  0  0  0  0  0  0  0  0  0
  151.3795  140.1252  158.1088 H   0  0  0  0  0  0  0  0  0  0  0  0
  152.8240  141.0156  157.7119 H   0  0  0  0  0  0  0  0  0  0  0  0
  151.3667  141.1944  160.3874 H   0  0  0  0  0  0  0  0  0  0  0  0
  152.9180  140.4670  160.0585 H   0  0  0  0  0  0  0  0  0  0  0  0
  151.2015  143.6679  160.1980 H   0  0  0  0  0  0  0  0  0  0  0  0
  152.6585  144.5370  159.7822 H   0  0  0  0  0  0  0  0  0  0  0  0
  152.6863  143.6343  157.5303 H   0  0  0  0  0  0  0  0  0  0  0  0
  151.1590  144.4260  157.7893 H   0  0  0  0  0  0  0  0  0  0  0  0
  144.8157  138.1378  153.4764 H   0  0  0  0  0  0  0  0  0  0  0  0
  145.7248  138.7952  152.1177 H   0  0  0  0  0  0  0  0  0  0  0  0
  144.8560  136.5891  151.4889 H   0  0  0  0  0  0  0  0  0  0  0  0
  146.6009  136.5694  151.5581 H   0  0  0  0  0  0  0  0  0  0  0  0
  1  2  1  0  0  0  0
  1 32  1  0  0  0  0
  1 33  1  0  0  0  0
  1 34  1  0  0  0  0
  2 29  1  0  0  0  0
  2  3  1  0  0  0  0
  3  4  2  0  0  0  0
  3  5  1  0  0  0  0
  5  6  1  0  0  0  0
  5 35  1  0  0  0  0
  6 30  1  0  0  0  0
  6 29  1  0  0  0  0
  6  7  1  0  0  0  0
  7  8  1  0  0  0  0
  7 36  1  0  0  0  0
  7 37  1  0  0  0  0
  8  9  1  0  0  0  0
  8 27  1  0  0  0  0
  9 14  1  0  0  0  0
  9 10  2  0  0  0  0
 10 11  1  0  0  0  0
 11 12  2  0  0  0  0
 11 38  1  0  0  0  0
 12 13  1  0  0  0  0
 13 17  1  0  0  0  0
 13 14  2  0  0  0  0
 14 15  1  0  0  0  0
 15 16  2  0  0  0  0
 16 17  1  0  0  0  0
 16 39  1  0  0  0  0
 17 18  1  0  0  0  0
 18 19  1  0  0  0  0
 18 40  1  0  0  0  0
 18 41  1  0  0  0  0
 19 26  1  0  0  0  0
 19 20  1  0  0  0  0
 19 22  1  0  0  0  0
 20 21  1  0  0  0  0
 20 42  1  0  0  0  0
 20 43  1  0  0  0  0
 21 44  1  0  0  0  0
 22 23  1  0  0  0  0
 22 45  1  0  0  0  0
 22 46  1  0  0  0  0
 23 24  1  0  0  0  0
 23 47  1  0  0  0  0
 23 48  1  0  0  0  0
 24 25  1  0  0  0  0
 25 26  1  0  0  0  0
 25 49  1  0  0  0  0
 25 50  1  0  0  0  0
 26 51  1  0  0  0  0
 26 52  1  0  0  0  0
 27 28  1  0  0  0  0
 27 53  1  0  0  0  0
 27 54  1  0  0  0  0
 28 29  1  0  0  0  0
 28 55  1  0  0  0  0
 28 56  1  0  0  0  0
 29 31  1  0  0  0  0
M  END
> <s_m_source_file>
AV-unprocessed.smi

> <i_m_source_file_index>
250

> <i_lp_mmshare_version>
43012

> <i_f3d_flags>
0

> <s_epik_input>
Tz1DKFtOSF0xKU4oW0NIM10pW0NASF0oW0NASF0xMilbQ0gyXVtDSDJdTihbQ0gyXTIpYyhuW2NIXW4zKWMoYzM0KW5bY0hdbjRbQ0gyXUM1KFtDSDJdW09IXSlbQ0gyXVtDSDJdT1tDSDJdW0NIMl01

> <s_epik_cmdline>
J2VwaWtfcHl0aG9uJywgJy1waCcsICc3LjAnLCAnLXRuJywgJzgnLCAnLW1hJywgJzIwMCcsICctbWV0YWxfYmluZGluZycsICctaW1hZScsICc8aW5maWxlLm1hZT4nLCAnLW9tYWUnLCAnPG91dGZpbGUubWFlPic=

> <r_lp_tautomer_probability>
1

> <r_epik_Ionization_Penalty>
0.00229024

> <r_epik_Ionization_Penalty_Charging>
0

> <r_epik_Ionization_Penalty_Neutral>
0.00229024

> <r_epik_State_Penalty>
0.0013961

> <r_epik_Charging_Adjusted_Penalty>
0.0013961

> <i_epik_Tot_Q>
0

> <i_epik_Tot_abs_Q>
0

> <r_epik_Metal_State_Penalty>
-0

> <b_epik_Metal_Only>
0

> <s_lp_Force_Field>
OPLS_2005

> <r_lp_Energy>
68.1887

> <b_lp_Chiralities_Consistent>
1

> <s_lp_Variant>
AV-unprocessed.smi:250-4

> <Gold.Version>
5.8.1

> <Gold.Id.Protein>
6NUR|6NUR_protein|mol2

> <Gold.PLP.Fitness>
43.4398

> <Gold.PLP.PLP>
-40.9397

> <Gold.PLP.part.hbond>
-3.3494

> <Gold.PLP.part.metal>
0.0000

> <Gold.PLP.part.buried>
-5.4031

> <Gold.PLP.part.nonpolar>
-33.7128

> <Gold.PLP.part.repulsive>
1.2069

> <Gold.PLP.ligand.clash>
0.0000

> <Gold.PLP.ligand.torsion>
0.3274

> <Gold.PLP.Chemscore.Hbond>
0.9600

> <Gold.PLP.Chemscore.CHOScore>
0.0000

> <Gold.PLP.Chemscore.Metal>
0.0000

> <Gold.Chemscore.Hbonds>
donor molecule, donor type, donor heavy atom, donor atom, acceptor molecule, acceptor atom, score
      L1  H    21    44       P1  8028  0.99

> <Gold.PLP.Chemscore.Internal.Correction>
0.2748

> <Gold.Rescore>
     Score         DG    S(hbond)    S(metal)    S(lipo)     H(rot)  DE(clash)    DE(int)     intcor
     10.90     -11.58       0.72        0.00      80.06       2.22       0.10       0.58       ----

> <Gold.Chemscore.Fitness>
10.8954

> <Gold.Chemscore.DG>
-11.5785

> <Gold.Chemscore.ZeroCoef>
-5.4800

> <Gold.Chemscore.Hbond>
0.7207

> <Gold.Chemscore.Metal>
0.0000

> <Gold.Chemscore.Lipo>
80.0601

> <Gold.Chemscore.Internal_Hbond>
0.0000

> <Gold.Chemscore.DEClash>
0.0989

> <Gold.Chemscore.DEInternal>
0.5842

> <Gold.Chemscore.Rot>
2.2170

> <Gold.Chemscore.Internal.Correction>
   9.000000E+99

> <Gold.Chemscore.Hbonds>
donor molecule, donor type, donor heavy atom, donor atom, acceptor molecule, acceptor atom, score
      L1  H    21    44       P1  8028  0.42

> <Gold.Chemscore.Hbond.Weighted>
-2.4071

> <Gold.Chemscore.Metal.Weighted>
-0.0000

> <Gold.Chemscore.Lipo.Weighted>
-9.3670

> <Gold.Chemscore.Internal_Hbond.Weighted>
0.0000

> <Gold.Chemscore.DEClash.Weighted>
0.0989

> <Gold.Chemscore.DEInternal.Weighted>
0.5842

> <Gold.Chemscore.Rot.Weighted>
5.6756

> <Gold.Chemscore.Internal.Correction.Weighted>
   9.000000E+99

> <Gold.Protein.RotatedTorsions>
[ 6907 6896 6895 6894 ] final -113.91 input  -60.11 | X-H torsion
[ 7974 7965 7964 7962 ] final  -22.16 input  175.53 | X-H torsion
[ 8008 7997 7996 7995 ] final    8.80 input   59.86 | X-H torsion
[ 10167 10162 10161 10158 ] final  -97.13 input  -65.29 | X-H torsion
[ 10718 10713 10712 10709 ] final  -69.72 input   66.30 | X-H torsion
[ 10763 10752 10751 10750 ] final  -76.09 input  -60.55 | X-H torsion
[ 11005 11000 10999 10996 ] final -160.58 input  -57.11 | X-H torsion

> <Gold.Protein.ActiveResidues>
 VAL166  LYS551  ARG553  GLY616  TRP617  ASP618  TYR619  PRO620  LYS621  CYS622 
 ASP623  PHE694  ASN695  SER759  ASP760  ASP761  ALA762  ILE779  LEU786  VAL792 
 PHE793  MET794  SER795  GLU796  ALA797  LYS798  CYS799  TRP800  GLU811  SER814 

> <Gold.Protein.RotatedAtoms>
  150.7864  133.8876  159.3303 H   0  0  0  0  0  0  0  0  0  0  0  0  # atno 6907 bound_to 6896
  151.6726  135.0972  160.0210 H   0  0  0  0  0  0  0  0  0  0  0  0  # atno 6908 bound_to 6896
  152.3928  133.6665  159.6287 H   0  0  0  0  0  0  0  0  0  0  0  0  # atno 6909 bound_to 6896
  146.1691  140.4441  142.8539 H   0  0  0  0  0  0  0  0  0  0  0  0  # atno 7974 bound_to 7965
  154.7716  140.2803  155.6133 H   0  0  0  0  0  0  0  0  0  0  0  0  # atno 8008 bound_to 7997
  156.2934  140.2640  156.2447 H   0  0  0  0  0  0  0  0  0  0  0  0  # atno 8009 bound_to 7997
  154.9893  140.0374  157.2302 H   0  0  0  0  0  0  0  0  0  0  0  0  # atno 8010 bound_to 7997
  140.2866  143.3248  152.0388 H   0  0  0  0  0  0  0  0  0  0  0  0  # atno 10167 bound_to 10162
  156.0442  130.4318  150.2189 H   0  0  0  0  0  0  0  0  0  0  0  0  # atno 10718 bound_to 10713
  154.4953  135.5809  153.6489 H   0  0  0  0  0  0  0  0  0  0  0  0  # atno 10763 bound_to 10752
  152.9869  135.6122  154.3073 H   0  0  0  0  0  0  0  0  0  0  0  0  # atno 10764 bound_to 10752
  154.2976  135.2847  155.2605 H   0  0  0  0  0  0  0  0  0  0  0  0  # atno 10765 bound_to 10752
  140.6299  134.4662  157.5229 H   0  0  0  0  0  0  0  0  0  0  0  0  # atno 11005 bound_to 11000
  144.8137  140.6430  143.6398 LP  0  0  0  0  0  0  0  0  0  0  0  0  # atno 17320 bound_to 7965
  145.4387  139.1538  143.3982 LP  0  0  0  0  0  0  0  0  0  0  0  0  # atno 17321 bound_to 7965
  139.4948  144.6554  151.6583 LP  0  0  0  0  0  0  0  0  0  0  0  0  # atno 17342 bound_to 10162
  140.5767  144.0016  150.6245 LP  0  0  0  0  0  0  0  0  0  0  0  0  # atno 17343 bound_to 10162
  157.0280  130.9999  151.3320 LP  0  0  0  0  0  0  0  0  0  0  0  0  # atno 17370 bound_to 10713
  157.5297  130.8051  149.7903 LP  0  0  0  0  0  0  0  0  0  0  0  0  # atno 17371 bound_to 10713
  139.9120  134.8325  156.1495 LP  0  0  0  0  0  0  0  0  0  0  0  0  # atno 17394 bound_to 11000
  141.0683  133.6809  156.2088 LP  0  0  0  0  0  0  0  0  0  0  0  0  # atno 17395 bound_to 11000

$$$$
