AV-unprocessed.smi:949|AV-procd|sdf|4245|dock2
  -GOLD-   22720 2153D 1   1.00000     0.00000
 Structure written by MMmdl.
 33 34  0  0  0  0  0  0  0  0  2 V2000
  150.4577  140.6272  157.9956 C   0  0  0  0  0  0  0  0  0  0  0  0
  150.9924  141.8042  157.1583 C   0  0  1  0  0  0  0  0  0  0  0  0
  150.1798  141.9822  155.9603 N   0  0  0  0  0  0  0  0  0  0  0  0
  149.8399  140.9236  155.0990 C   0  0  0  0  0  0  0  0  0  0  0  0
  150.5604  139.7025  155.0698 C   0  0  0  0  0  0  0  0  0  0  0  0
  150.1678  138.6813  154.1818 C   0  0  0  0  0  0  0  0  0  0  0  0
  149.1117  138.8696  153.3639 N   0  3  0  0  0  0  0  0  0  0  0  0
  148.3943  140.0122  153.3519 C   0  0  0  0  0  0  0  0  0  0  0  0
  148.7361  141.0718  154.2183 C   0  0  0  0  0  0  0  0  0  0  0  0
  147.9771  142.2443  154.1862 N   0  0  0  0  0  0  0  0  0  0  0  0
  151.0078  143.1151  157.9684 C   0  0  1  0  0  0  0  0  0  0  0  0
  151.7613  143.0409  159.2983 C   0  0  0  0  0  0  0  0  0  0  0  0
  152.2124  144.4729  159.5430 C   0  0  0  0  0  0  0  0  0  0  0  0
  152.0027  145.1651  158.1943 C   0  0  0  0  0  0  0  0  0  0  0  0
  151.7474  144.1109  157.2778 O   0  0  0  0  0  0  0  0  0  0  0  0
  151.0842  140.4426  158.8682 H   0  0  0  0  0  0  0  0  0  0  0  0
  150.4301  139.7012  157.4215 H   0  0  0  0  0  0  0  0  0  0  0  0
  149.4456  140.8235  158.3506 H   0  0  0  0  0  0  0  0  0  0  0  0
  152.0197  141.5923  156.8619 H   0  0  0  0  0  0  0  0  0  0  0  0
  149.9679  142.9270  155.6736 H   0  0  0  0  0  0  0  0  0  0  0  0
  151.4076  139.5270  155.7146 H   0  0  0  0  0  0  0  0  0  0  0  0
  150.6647  137.7253  154.1032 H   0  0  0  0  0  0  0  0  0  0  0  0
  147.5719  140.0428  152.6518 H   0  0  0  0  0  0  0  0  0  0  0  0
  148.1894  143.0260  154.7896 H   0  0  0  0  0  0  0  0  0  0  0  0
  147.1082  142.2918  153.6732 H   0  0  0  0  0  0  0  0  0  0  0  0
  149.9917  143.4781  158.1371 H   0  0  0  0  0  0  0  0  0  0  0  0
  151.1454  142.6493  160.1086 H   0  0  0  0  0  0  0  0  0  0  0  0
  152.6366  142.3972  159.2005 H   0  0  0  0  0  0  0  0  0  0  0  0
  151.6188  144.9552  160.3206 H   0  0  0  0  0  0  0  0  0  0  0  0
  153.2580  144.5023  159.8519 H   0  0  0  0  0  0  0  0  0  0  0  0
  151.1351  145.8253  158.2325 H   0  0  0  0  0  0  0  0  0  0  0  0
  152.8662  145.7546  157.8857 H   0  0  0  0  0  0  0  0  0  0  0  0
  148.8444  138.1173  152.7284 H   0  0  0  0  0  0  0  0  0  0  0  0
  1  2  1  0  0  0  0
  1 16  1  0  0  0  0
  1 17  1  0  0  0  0
  1 18  1  0  0  0  0
  2  3  1  0  0  0  0
  2 11  1  0  0  0  0
  2 19  1  0  0  0  0
  3  4  1  0  0  0  0
  3 20  1  0  0  0  0
  4  9  1  0  0  0  0
  4  5  2  0  0  0  0
  5  6  1  0  0  0  0
  5 21  1  0  0  0  0
  6  7  2  0  0  0  0
  6 22  1  0  0  0  0
  7  8  1  0  0  0  0
  7 33  1  0  0  0  0
  8  9  2  0  0  0  0
  8 23  1  0  0  0  0
  9 10  1  0  0  0  0
 10 24  1  0  0  0  0
 10 25  1  0  0  0  0
 11 15  1  0  0  0  0
 11 12  1  0  0  0  0
 11 26  1  0  0  0  0
 12 13  1  0  0  0  0
 12 27  1  0  0  0  0
 12 28  1  0  0  0  0
 13 14  1  0  0  0  0
 13 29  1  0  0  0  0
 13 30  1  0  0  0  0
 14 15  1  0  0  0  0
 14 31  1  0  0  0  0
 14 32  1  0  0  0  0
M  CHG  1   7   1
M  END
> <s_m_source_file>
AV-unprocessed.smi

> <i_m_source_file_index>
949

> <i_lp_mmshare_version>
43012

> <i_f3d_flags>
0

> <s_epik_input>
TzFbQ0gyXVtDSDJdW0NIMl1bQ0BIXTFbQ0BIXShbQ0gzXSlbTkhdYzJbY0hdW2NIXW5bY0hdYzJbTkgyXQ==

> <s_epik_cmdline>
J2VwaWtfcHl0aG9uJywgJy1waCcsICc3LjAnLCAnLXRuJywgJzgnLCAnLW1hJywgJzIwMCcsICctbWV0YWxfYmluZGluZycsICctaW1hZScsICc8aW5maWxlLm1hZT4nLCAnLW9tYWUnLCAnPG91dGZpbGUubWFlPic=

> <r_epik_Ionization_Penalty>
0.000849261

> <r_epik_Ionization_Penalty_Charging>
0.000847912

> <r_epik_Ionization_Penalty_Neutral>
1.34939e-06

> <r_epik_State_Penalty>
0.000546618

> <r_epik_Charging_Adjusted_Penalty>
0.00139453

> <i_epik_Tot_Q>
1

> <i_epik_Tot_abs_Q>
1

> <r_epik_Metal_State_Penalty>
0.526583

> <b_epik_Metal_Only>
0

> <s_lp_Force_Field>
OPLS_2005

> <r_lp_Energy>
30.4076

> <b_lp_Chiralities_Consistent>
1

> <s_lp_Variant>
AV-unprocessed.smi:949-4

> <Gold.Version>
5.8.1

> <Gold.Id.Protein>
6NUR|6NUR_protein|mol2

> <Gold.PLP.Fitness>
43.5521

> <Gold.PLP.PLP>
-32.4236

> <Gold.PLP.part.hbond>
-3.8460

> <Gold.PLP.part.metal>
0.0000

> <Gold.PLP.part.buried>
0.2791

> <Gold.PLP.part.nonpolar>
-29.2142

> <Gold.PLP.part.repulsive>
0.5570

> <Gold.PLP.ligand.clash>
0.0000

> <Gold.PLP.ligand.torsion>
0.2398

> <Gold.PLP.Chemscore.Hbond>
3.8600

> <Gold.PLP.Chemscore.CHOScore>
0.0000

> <Gold.PLP.Chemscore.Metal>
0.0000

> <Gold.Chemscore.Hbonds>
donor molecule, donor type, donor heavy atom, donor atom, acceptor molecule, acceptor atom, score
      L1  H     3    20       P1  8028  0.84
      L1  H     7    33       P1  7948  1.92
      L1  H    10    24       P1  8028  1.00

> <Gold.PLP.Chemscore.Internal.Correction>
0.0282

> <Gold.Rescore>
     Score         DG    S(hbond)    S(metal)    S(lipo)     H(rot)  DE(clash)    DE(int)     intcor
     19.65     -22.97       2.71        0.00      99.09       1.23       3.11       0.21       ----

> <Gold.Chemscore.Fitness>
19.6528

> <Gold.Chemscore.DG>
-22.9720

> <Gold.Chemscore.ZeroCoef>
-5.4800

> <Gold.Chemscore.Hbond>
2.7122

> <Gold.Chemscore.Metal>
0.0000

> <Gold.Chemscore.Lipo>
99.0948

> <Gold.Chemscore.Internal_Hbond>
0.0000

> <Gold.Chemscore.DEClash>
3.1087

> <Gold.Chemscore.DEInternal>
0.2104

> <Gold.Chemscore.Rot>
1.2347

> <Gold.Chemscore.Internal.Correction>
   9.000000E+99

> <Gold.Chemscore.Hbonds>
donor molecule, donor type, donor heavy atom, donor atom, acceptor molecule, acceptor atom, score
      L1  H     3    20       P1  8028  0.81
      L1  H     7    33       P1  7948  0.90
      L1  H    10    24       P1  8028  0.95

> <Gold.Chemscore.Hbond.Weighted>
-9.0588

> <Gold.Chemscore.Metal.Weighted>
-0.0000

> <Gold.Chemscore.Lipo.Weighted>
-11.5941

> <Gold.Chemscore.Internal_Hbond.Weighted>
0.0000

> <Gold.Chemscore.DEClash.Weighted>
3.1087

> <Gold.Chemscore.DEInternal.Weighted>
0.2104

> <Gold.Chemscore.Rot.Weighted>
3.1609

> <Gold.Chemscore.Internal.Correction.Weighted>
   9.000000E+99

> <Gold.Protein.RotatedTorsions>
[ 6907 6896 6895 6894 ] final   54.49 input  -60.11 | X-H torsion
[ 7974 7965 7964 7962 ] final   28.20 input  175.53 | X-H torsion
[ 8008 7997 7996 7995 ] final  -40.91 input   59.86 | X-H torsion
[ 10167 10162 10161 10158 ] final -107.51 input  -65.29 | X-H torsion
[ 10718 10713 10712 10709 ] final  112.82 input   66.30 | X-H torsion
[ 10763 10752 10751 10750 ] final   62.09 input  -60.55 | X-H torsion
[ 11005 11000 10999 10996 ] final  112.26 input  -57.11 | X-H torsion

> <Gold.Protein.ActiveResidues>
 VAL166  LYS551  ARG553  GLY616  TRP617  ASP618  TYR619  PRO620  LYS621  CYS622 
 ASP623  PHE694  ASN695  SER759  ASP760  ASP761  ALA762  ILE779  LEU786  VAL792 
 PHE793  MET794  SER795  GLU796  ALA797  LYS798  CYS799  TRP800  GLU811  SER814 

> <Gold.Protein.RotatedAtoms>
  152.3444  134.7091  160.0254 H   0  0  0  0  0  0  0  0  0  0  0  0  # atno 6907 bound_to 6896
  151.7465  133.3319  159.3388 H   0  0  0  0  0  0  0  0  0  0  0  0  # atno 6908 bound_to 6896
  150.7500  134.6163  159.6157 H   0  0  0  0  0  0  0  0  0  0  0  0  # atno 6909 bound_to 6896
  146.1742  139.7088  142.8946 H   0  0  0  0  0  0  0  0  0  0  0  0  # atno 7974 bound_to 7965
  154.4008  140.1513  156.3105 H   0  0  0  0  0  0  0  0  0  0  0  0  # atno 8008 bound_to 7997
  155.8620  140.3453  155.5741 H   0  0  0  0  0  0  0  0  0  0  0  0  # atno 8009 bound_to 7997
  155.7870  140.0851  157.2020 H   0  0  0  0  0  0  0  0  0  0  0  0  # atno 8010 bound_to 7997
  140.1762  143.4003  152.1317 H   0  0  0  0  0  0  0  0  0  0  0  0  # atno 10167 bound_to 10162
  157.6372  131.0974  150.6951 H   0  0  0  0  0  0  0  0  0  0  0  0  # atno 10718 bound_to 10713
  152.9971  135.5477  154.6137 H   0  0  0  0  0  0  0  0  0  0  0  0  # atno 10763 bound_to 10752
  154.5452  135.2822  155.1061 H   0  0  0  0  0  0  0  0  0  0  0  0  # atno 10764 bound_to 10752
  154.2323  135.6431  153.5232 H   0  0  0  0  0  0  0  0  0  0  0  0  # atno 10765 bound_to 10752
  139.8923  134.9526  156.6559 H   0  0  0  0  0  0  0  0  0  0  0  0  # atno 11005 bound_to 11000
  145.4258  141.0411  143.2938 LP  0  0  0  0  0  0  0  0  0  0  0  0  # atno 17320 bound_to 7965
  144.8210  139.5792  143.6987 LP  0  0  0  0  0  0  0  0  0  0  0  0  # atno 17321 bound_to 7965
  139.5316  144.7165  151.5036 LP  0  0  0  0  0  0  0  0  0  0  0  0  # atno 17342 bound_to 10162
  140.6550  143.8618  150.6825 LP  0  0  0  0  0  0  0  0  0  0  0  0  # atno 17343 bound_to 10162
  156.7280  130.4701  149.5506 LP  0  0  0  0  0  0  0  0  0  0  0  0  # atno 17370 bound_to 10713
  156.1621  130.6381  151.0732 LP  0  0  0  0  0  0  0  0  0  0  0  0  # atno 17371 bound_to 10713
  140.7484  133.8918  155.8329 LP  0  0  0  0  0  0  0  0  0  0  0  0  # atno 17394 bound_to 11000
  141.0020  134.1137  157.4307 LP  0  0  0  0  0  0  0  0  0  0  0  0  # atno 17395 bound_to 11000

$$$$
