AV-unprocessed.smi:1247|AV-procd|sdf|5244|dock4
  -GOLD-   22720 4353D 1   1.00000     0.00000
 Structure written by MMmdl.
 46 47  0  0  0  0  0  0  0  0  1 V2000
  144.6880  130.6770  151.3524 C   0  0  0  0  0  0  0  0  0  0  0  0
  145.4813  131.9205  151.6272 C   0  0  0  0  0  0  0  0  0  0  0  0
  146.6237  132.0651  152.4671 C   0  0  0  0  0  0  0  0  0  0  0  0
  146.9251  133.3936  152.3390 C   0  0  0  0  0  0  0  0  0  0  0  0
  147.9341  134.1008  152.9136 N   0  0  0  0  0  0  0  0  0  0  0  0
  148.6244  133.8211  154.0330 C   0  0  0  0  0  0  0  0  0  0  0  0
  148.4330  132.8509  154.7666 O   0  0  0  0  0  0  0  0  0  0  0  0
  149.5640  134.7484  154.2659 N   0  0  0  0  0  0  0  0  0  0  0  0
  150.4820  134.7426  155.3984 C   0  0  0  0  0  0  0  0  0  0  0  0
  150.3819  136.0505  156.2052 C   0  0  0  0  0  0  0  0  0  0  0  0
  151.3496  137.0806  155.8319 N   0  0  0  0  0  0  0  0  0  0  0  0
  151.5867  137.1347  154.3908 C   0  0  0  0  0  0  0  0  0  0  0  0
  152.5807  138.2438  153.9906 C   0  0  2  0  0  0  0  0  0  0  0  0
  154.0404  137.9095  154.3428 C   0  0  0  0  0  0  0  0  0  0  0  0
  152.1763  139.4975  154.5431 O   0  0  0  0  0  0  0  0  0  0  0  0
  151.9372  139.4927  155.9492 C   0  0  1  0  0  0  0  0  0  0  0  0
  151.4418  140.8854  156.3527 C   0  0  0  0  0  0  0  0  0  0  0  0
  150.9142  138.3940  156.2895 C   0  0  0  0  0  0  0  0  0  0  0  0
  146.0195  133.9746  151.4796 N   0  0  0  0  0  0  0  0  0  0  0  0
  145.9281  135.3502  151.0302 C   0  0  0  0  0  0  0  0  0  0  0  0
  145.1263  133.0601  151.0441 N   0  0  0  0  0  0  0  0  0  0  0  0
  145.1326  129.8099  151.8413 H   0  0  0  0  0  0  0  0  0  0  0  0
  144.6435  130.4670  150.2834 H   0  0  0  0  0  0  0  0  0  0  0  0
  143.6654  130.7755  151.7173 H   0  0  0  0  0  0  0  0  0  0  0  0
  147.1225  131.3081  153.0530 H   0  0  0  0  0  0  0  0  0  0  0  0
  148.1939  134.9485  152.4312 H   0  0  0  0  0  0  0  0  0  0  0  0
  149.6524  135.5133  153.6131 H   0  0  0  0  0  0  0  0  0  0  0  0
  150.2858  133.8812  156.0394 H   0  0  0  0  0  0  0  0  0  0  0  0
  151.4865  134.6104  154.9976 H   0  0  0  0  0  0  0  0  0  0  0  0
  149.3698  136.4506  156.1291 H   0  0  0  0  0  0  0  0  0  0  0  0
  150.5274  135.8049  157.2581 H   0  0  0  0  0  0  0  0  0  0  0  0
  151.9637  136.1790  154.0282 H   0  0  0  0  0  0  0  0  0  0  0  0
  150.6407  137.3079  153.8756 H   0  0  0  0  0  0  0  0  0  0  0  0
  152.5346  138.3586  152.9072 H   0  0  0  0  0  0  0  0  0  0  0  0
  154.3679  137.0096  153.8221 H   0  0  0  0  0  0  0  0  0  0  0  0
  154.1754  137.7341  155.4099 H   0  0  0  0  0  0  0  0  0  0  0  0
  154.7067  138.7212  154.0505 H   0  0  0  0  0  0  0  0  0  0  0  0
  152.8716  139.2958  156.4754 H   0  0  0  0  0  0  0  0  0  0  0  0
  151.2536  140.9389  157.4254 H   0  0  0  0  0  0  0  0  0  0  0  0
  150.5158  141.1398  155.8363 H   0  0  0  0  0  0  0  0  0  0  0  0
  152.1808  141.6482  156.1068 H   0  0  0  0  0  0  0  0  0  0  0  0
  149.9509  138.6403  155.8396 H   0  0  0  0  0  0  0  0  0  0  0  0
  150.7567  138.3742  157.3687 H   0  0  0  0  0  0  0  0  0  0  0  0
  146.8637  135.6424  150.5529 H   0  0  0  0  0  0  0  0  0  0  0  0
  145.7436  136.0023  151.8844 H   0  0  0  0  0  0  0  0  0  0  0  0
  145.1145  135.4675  150.3131 H   0  0  0  0  0  0  0  0  0  0  0  0
  1  2  1  0  0  0  0
  1 22  1  0  0  0  0
  1 23  1  0  0  0  0
  1 24  1  0  0  0  0
  2 21  2  0  0  0  0
  2  3  1  0  0  0  0
  3  4  2  0  0  0  0
  3 25  1  0  0  0  0
  4  5  1  0  0  0  0
  4 19  1  0  0  0  0
  5  6  1  0  0  0  0
  5 26  1  0  0  0  0
  6  7  2  0  0  0  0
  6  8  1  0  0  0  0
  8  9  1  0  0  0  0
  8 27  1  0  0  0  0
  9 10  1  0  0  0  0
  9 28  1  0  0  0  0
  9 29  1  0  0  0  0
 10 11  1  0  0  0  0
 10 30  1  0  0  0  0
 10 31  1  0  0  0  0
 11 18  1  0  0  0  0
 11 12  1  0  0  0  0
 12 13  1  0  0  0  0
 12 32  1  0  0  0  0
 12 33  1  0  0  0  0
 13 14  1  0  0  0  0
 13 15  1  0  0  0  0
 13 34  1  0  0  0  0
 14 35  1  0  0  0  0
 14 36  1  0  0  0  0
 14 37  1  0  0  0  0
 15 16  1  0  0  0  0
 16 17  1  0  0  0  0
 16 18  1  0  0  0  0
 16 38  1  0  0  0  0
 17 39  1  0  0  0  0
 17 40  1  0  0  0  0
 17 41  1  0  0  0  0
 18 42  1  0  0  0  0
 18 43  1  0  0  0  0
 19 20  1  0  0  0  0
 19 21  1  0  0  0  0
 20 44  1  0  0  0  0
 20 45  1  0  0  0  0
 20 46  1  0  0  0  0
M  END
> <s_m_source_file>
AV-unprocessed.smi

> <i_m_source_file_index>
1247

> <i_lp_mmshare_version>
43012

> <i_f3d_flags>
0

> <s_epik_input>
W0NIM11jMVtjSF1jKG4objEpW0NIM10pW05IXUMoPU8pW05IXVtDSDJdW0NIMl1OMltDSDJdW0NAQEhdKFtDSDNdKU9bQ0BASF0oW0NIM10pW0NIMl0y

> <s_epik_cmdline>
J2VwaWtfcHl0aG9uJywgJy1waCcsICc3LjAnLCAnLXRuJywgJzgnLCAnLW1hJywgJzIwMCcsICctbWV0YWxfYmluZGluZycsICctaW1hZScsICc8aW5maWxlLm1hZT4nLCAnLW9tYWUnLCAnPG91dGZpbGUubWFlPic=

> <r_lp_tautomer_probability>
1

> <r_epik_Ionization_Penalty>
0.233972

> <r_epik_Ionization_Penalty_Charging>
0

> <r_epik_Ionization_Penalty_Neutral>
0.233972

> <r_epik_State_Penalty>
0.224627

> <r_epik_Charging_Adjusted_Penalty>
0.224627

> <i_epik_Tot_Q>
0

> <i_epik_Tot_abs_Q>
0

> <r_epik_Metal_State_Penalty>
0.224624

> <b_epik_Metal_Only>
0

> <s_lp_Force_Field>
OPLS_2005

> <r_lp_Energy>
23.1298

> <b_lp_Chiralities_Consistent>
1

> <s_lp_Variant>
AV-unprocessed.smi:1247-2

> <Gold.Version>
5.8.1

> <Gold.Id.Protein>
6NUR|6NUR_protein|mol2

> <Gold.PLP.Fitness>
40.3276

> <Gold.PLP.PLP>
-32.8110

> <Gold.PLP.part.hbond>
-3.0000

> <Gold.PLP.part.metal>
0.0000

> <Gold.PLP.part.buried>
-3.8154

> <Gold.PLP.part.nonpolar>
-25.9419

> <Gold.PLP.part.repulsive>
0.2406

> <Gold.PLP.ligand.clash>
0.0000

> <Gold.PLP.ligand.torsion>
0.5459

> <Gold.PLP.Chemscore.Hbond>
2.8480

> <Gold.PLP.Chemscore.CHOScore>
0.0000

> <Gold.PLP.Chemscore.Metal>
0.0000

> <Gold.Chemscore.Hbonds>
donor molecule, donor type, donor heavy atom, donor atom, acceptor molecule, acceptor atom, score
      L1  H     5    26       P1  7948  1.00
      L1  H     8    27       P1  7948  0.65
      P1  H  7989  7998       L1    15  0.78

> <Gold.PLP.Chemscore.Internal.Correction>
0.0644

> <Gold.Rescore>
     Score         DG    S(hbond)    S(metal)    S(lipo)     H(rot)  DE(clash)    DE(int)     intcor
     18.15     -19.63       2.61        0.00      78.90       1.48       0.52       0.96       ----

> <Gold.Chemscore.Fitness>
18.1481

> <Gold.Chemscore.DG>
-19.6283

> <Gold.Chemscore.ZeroCoef>
-5.4800

> <Gold.Chemscore.Hbond>
2.6093

> <Gold.Chemscore.Metal>
0.0000

> <Gold.Chemscore.Lipo>
78.9028

> <Gold.Chemscore.Internal_Hbond>
0.0000

> <Gold.Chemscore.DEClash>
0.5213

> <Gold.Chemscore.DEInternal>
0.9589

> <Gold.Chemscore.Rot>
1.4838

> <Gold.Chemscore.Internal.Correction>
   9.000000E+99

> <Gold.Chemscore.Hbonds>
donor molecule, donor type, donor heavy atom, donor atom, acceptor molecule, acceptor atom, score
      L1  H     5    26       P1  7948  0.57
      L1  H     8    27       P1  7948  0.08
      P1  H  7989  7998       L1    15  0.76

> <Gold.Chemscore.Hbond.Weighted>
-8.7151

> <Gold.Chemscore.Metal.Weighted>
-0.0000

> <Gold.Chemscore.Lipo.Weighted>
-9.2316

> <Gold.Chemscore.Internal_Hbond.Weighted>
0.0000

> <Gold.Chemscore.DEClash.Weighted>
0.5213

> <Gold.Chemscore.DEInternal.Weighted>
0.9589

> <Gold.Chemscore.Rot.Weighted>
3.7985

> <Gold.Chemscore.Internal.Correction.Weighted>
   9.000000E+99

> <Gold.Protein.RotatedTorsions>
[ 6907 6896 6895 6894 ] final  153.95 input  -60.11 | X-H torsion
[ 7974 7965 7964 7962 ] final   62.38 input  175.53 | X-H torsion
[ 8008 7997 7996 7995 ] final -131.32 input   59.86 | X-H torsion
[ 10167 10162 10161 10158 ] final   -1.10 input  -65.29 | X-H torsion
[ 10718 10713 10712 10709 ] final  -91.49 input   66.30 | X-H torsion
[ 10763 10752 10751 10750 ] final   48.81 input  -60.55 | X-H torsion
[ 11005 11000 10999 10996 ] final  -30.97 input  -57.11 | X-H torsion

> <Gold.Protein.ActiveResidues>
 VAL166  LYS551  ARG553  GLY616  TRP617  ASP618  TYR619  PRO620  LYS621  CYS622 
 ASP623  PHE694  ASN695  SER759  ASP760  ASP761  ALA762  ILE779  LEU786  VAL792 
 PHE793  MET794  SER795  GLU796  ALA797  LYS798  CYS799  TRP800  GLU811  SER814 

> <Gold.Protein.RotatedAtoms>
  152.0654  133.4081  159.4435 H   0  0  0  0  0  0  0  0  0  0  0  0  # atno 6907 bound_to 6896
  150.6865  134.3152  159.4772 H   0  0  0  0  0  0  0  0  0  0  0  0  # atno 6908 bound_to 6896
  152.0978  134.9362  160.0621 H   0  0  0  0  0  0  0  0  0  0  0  0  # atno 6909 bound_to 6896
  145.8740  139.3397  143.0746 H   0  0  0  0  0  0  0  0  0  0  0  0  # atno 7974 bound_to 7965
  155.3104  140.0457  157.3034 H   0  0  0  0  0  0  0  0  0  0  0  0  # atno 8008 bound_to 7997
  154.5436  140.2295  155.8566 H   0  0  0  0  0  0  0  0  0  0  0  0  # atno 8009 bound_to 7997
  156.1904  140.3052  155.9327 H   0  0  0  0  0  0  0  0  0  0  0  0  # atno 8010 bound_to 7997
  140.6796  143.6815  150.8101 H   0  0  0  0  0  0  0  0  0  0  0  0  # atno 10167 bound_to 10162
  155.9994  130.4950  150.5482 H   0  0  0  0  0  0  0  0  0  0  0  0  # atno 10718 bound_to 10713
  152.9790  135.5932  154.3987 H   0  0  0  0  0  0  0  0  0  0  0  0  # atno 10763 bound_to 10752
  154.3635  135.2767  155.2308 H   0  0  0  0  0  0  0  0  0  0  0  0  # atno 10764 bound_to 10752
  154.4295  135.6039  153.6115 H   0  0  0  0  0  0  0  0  0  0  0  0  # atno 10765 bound_to 10752
  140.9428  133.7268  156.1101 H   0  0  0  0  0  0  0  0  0  0  0  0  # atno 11005 bound_to 11000
  145.9103  140.9184  143.0457 LP  0  0  0  0  0  0  0  0  0  0  0  0  # atno 17320 bound_to 7965
  144.6726  140.1151  143.7453 LP  0  0  0  0  0  0  0  0  0  0  0  0  # atno 17321 bound_to 7965
  140.0514  143.5246  152.2672 LP  0  0  0  0  0  0  0  0  0  0  0  0  # atno 17342 bound_to 10162
  139.6109  144.7608  151.2953 LP  0  0  0  0  0  0  0  0  0  0  0  0  # atno 17343 bound_to 10162
  157.3409  131.0716  151.1788 LP  0  0  0  0  0  0  0  0  0  0  0  0  # atno 17370 bound_to 10713
  157.2637  130.6671  149.5986 LP  0  0  0  0  0  0  0  0  0  0  0  0  # atno 17371 bound_to 10713
  140.7711  134.3832  157.5507 LP  0  0  0  0  0  0  0  0  0  0  0  0  # atno 17394 bound_to 11000
  139.8825  134.9022  156.2828 LP  0  0  0  0  0  0  0  0  0  0  0  0  # atno 17395 bound_to 11000

$$$$
