AV-unprocessed.smi:1667|AV-procd|sdf|6678|dock5
  -GOLD-   22720 7393D 1   1.00000     0.00000
 Structure written by MMmdl.
 46 48  0  0  0  0  0  0  0  0  2 V2000
  146.3531  133.9702  151.4472 C   0  0  0  0  0  0  0  0  0  0  0  0
  146.1980  134.1509  152.9531 C   0  0  0  0  0  0  0  0  0  0  0  0
  145.3044  133.5576  153.5560 O   0  0  0  0  0  0  0  0  0  0  0  0
  147.0771  134.9790  153.5421 N   0  0  0  0  0  0  0  0  0  0  0  0
  147.1362  135.3371  154.9591 C   0  0  2  0  0  0  0  0  0  0  0  0
  145.7418  135.6905  155.5116 C   0  0  0  0  0  0  0  0  0  0  0  0
  148.1611  136.3995  155.2527 C   0  0  0  0  0  0  0  0  0  0  0  0
  148.9909  136.9882  154.3431 N   0  3  0  0  0  0  0  0  0  0  0  0
  149.8161  137.9144  154.9789 C   0  0  0  0  0  0  0  0  0  0  0  0
  150.8037  138.7535  154.4721 C   0  0  0  0  0  0  0  0  0  0  0  0
  151.4610  139.5882  155.3996 C   0  0  0  0  0  0  0  0  0  0  0  0
  151.1287  139.5676  156.7698 C   0  0  0  0  0  0  0  0  0  0  0  0
  150.1268  138.7106  157.2713 C   0  0  0  0  0  0  0  0  0  0  0  0
  149.4837  137.8867  156.3478 C   0  0  0  0  0  0  0  0  0  0  0  0
  148.4727  136.9270  156.4748 N   0  0  0  0  0  0  0  0  0  0  0  0
  147.9197  136.6522  157.8117 C   0  0  0  0  0  0  0  0  0  0  0  0
  148.9612  136.0970  158.8068 C   0  0  2  0  0  0  0  0  0  0  0  0
  149.6540  135.0080  158.2310 O   0  0  0  0  0  0  0  0  0  0  0  0
  148.3129  135.7259  160.1306 C   0  0  0  0  0  0  0  0  0  0  0  0
  147.4623  134.6019  160.2229 C   0  0  0  0  0  0  0  0  0  0  0  0
  146.8591  134.2671  161.4506 C   0  0  0  0  0  0  0  0  0  0  0  0
  147.1013  135.0546  162.5926 C   0  0  0  0  0  0  0  0  0  0  0  0
  147.9453  136.1784  162.5055 C   0  0  0  0  0  0  0  0  0  0  0  0
  148.1762  136.9381  163.6020 F   0  0  0  0  0  0  0  0  0  0  0  0
  148.5488  136.5135  161.2778 C   0  0  0  0  0  0  0  0  0  0  0  0
  147.4529  134.4332  155.4788 H   0  0  0  0  0  0  0  0  0  0  0  0
  146.4354  134.9377  150.9509 H   0  0  0  0  0  0  0  0  0  0  0  0
  145.4932  133.4460  151.0292 H   0  0  0  0  0  0  0  0  0  0  0  0
  147.2492  133.3904  151.2257 H   0  0  0  0  0  0  0  0  0  0  0  0
  147.7653  135.4162  152.9462 H   0  0  0  0  0  0  0  0  0  0  0  0
  145.7783  135.8480  156.5899 H   0  0  0  0  0  0  0  0  0  0  0  0
  145.0328  134.8839  155.3236 H   0  0  0  0  0  0  0  0  0  0  0  0
  145.3366  136.5959  155.0591 H   0  0  0  0  0  0  0  0  0  0  0  0
  151.0586  138.7709  153.4227 H   0  0  0  0  0  0  0  0  0  0  0  0
  152.2346  140.2582  155.0530 H   0  0  0  0  0  0  0  0  0  0  0  0
  151.6534  140.2223  157.4506 H   0  0  0  0  0  0  0  0  0  0  0  0
  149.8800  138.7030  158.3225 H   0  0  0  0  0  0  0  0  0  0  0  0
  147.4771  137.5744  158.1909 H   0  0  0  0  0  0  0  0  0  0  0  0
  147.0977  135.9462  157.6967 H   0  0  0  0  0  0  0  0  0  0  0  0
  149.7122  136.8628  159.0016 H   0  0  0  0  0  0  0  0  0  0  0  0
  149.0221  134.3537  157.9741 H   0  0  0  0  0  0  0  0  0  0  0  0
  147.2680  133.9942  159.3510 H   0  0  0  0  0  0  0  0  0  0  0  0
  146.2099  133.4065  161.5165 H   0  0  0  0  0  0  0  0  0  0  0  0
  146.6387  134.7978  163.5341 H   0  0  0  0  0  0  0  0  0  0  0  0
  149.1931  137.3787  161.2218 H   0  0  0  0  0  0  0  0  0  0  0  0
  148.9901  136.7638  153.3565 H   0  0  0  0  0  0  0  0  0  0  0  0
  1  2  1  0  0  0  0
  1 27  1  0  0  0  0
  1 28  1  0  0  0  0
  1 29  1  0  0  0  0
  2  3  2  0  0  0  0
  2  4  1  0  0  0  0
  4  5  1  0  0  0  0
  4 30  1  0  0  0  0
  5 26  1  0  0  0  0
  5  6  1  0  0  0  0
  5  7  1  0  0  0  0
  6 31  1  0  0  0  0
  6 32  1  0  0  0  0
  6 33  1  0  0  0  0
  7 15  1  0  0  0  0
  7  8  2  0  0  0  0
  8  9  1  0  0  0  0
  8 46  1  0  0  0  0
  9 14  2  0  0  0  0
  9 10  1  0  0  0  0
 10 11  2  0  0  0  0
 10 34  1  0  0  0  0
 11 12  1  0  0  0  0
 11 35  1  0  0  0  0
 12 13  2  0  0  0  0
 12 36  1  0  0  0  0
 13 14  1  0  0  0  0
 13 37  1  0  0  0  0
 14 15  1  0  0  0  0
 15 16  1  0  0  0  0
 16 17  1  0  0  0  0
 16 38  1  0  0  0  0
 16 39  1  0  0  0  0
 17 18  1  0  0  0  0
 17 19  1  0  0  0  0
 17 40  1  0  0  0  0
 18 41  1  0  0  0  0
 19 25  1  0  0  0  0
 19 20  2  0  0  0  0
 20 21  1  0  0  0  0
 20 42  1  0  0  0  0
 21 22  2  0  0  0  0
 21 43  1  0  0  0  0
 22 23  1  0  0  0  0
 22 44  1  0  0  0  0
 23 24  1  0  0  0  0
 23 25  2  0  0  0  0
 25 45  1  0  0  0  0
M  CHG  1   8   1
M  END
> <s_m_source_file>
AV-unprocessed.smi

> <i_m_source_file_index>
1667

> <i_lp_mmshare_version>
43012

> <i_f3d_flags>
0

> <s_epik_input>
W0NIM11DKD1PKVtOSF1bQ0BASF0oW0NIM10pYyhuMSluKGMoYzEyKVtjSF1bY0hdW2NIXVtjSF0yKVtDSDJdW0NASF0oW09IXSljM1tjSF1bY0hdW2NIXWMoRilbY0hdMw==

> <s_epik_cmdline>
J2VwaWtfcHl0aG9uJywgJy1waCcsICc3LjAnLCAnLXRuJywgJzgnLCAnLW1hJywgJzIwMCcsICctbWV0YWxfYmluZGluZycsICctaW1hZScsICc8aW5maWxlLm1hZT4nLCAnLW9tYWUnLCAnPG91dGZpbGUubWFlPic=

> <r_epik_Ionization_Penalty>
0.950383

> <r_epik_Ionization_Penalty_Charging>
0.950379

> <r_epik_Ionization_Penalty_Neutral>
3.60962e-06

> <r_epik_State_Penalty>
0.994584

> <r_epik_Charging_Adjusted_Penalty>
1.94496

> <i_epik_Tot_Q>
1

> <i_epik_Tot_abs_Q>
1

> <r_epik_Metal_State_Penalty>
1.10485

> <b_epik_Metal_Only>
0

> <s_lp_Force_Field>
OPLS_2005

> <r_lp_Energy>
9.34024

> <b_lp_Chiralities_Consistent>
1

> <s_lp_Variant>
AV-unprocessed.smi:1667-6

> <Gold.Version>
5.8.1

> <Gold.Id.Protein>
6NUR|6NUR_protein|mol2

> <Gold.PLP.Fitness>
48.7172

> <Gold.PLP.PLP>
-37.2886

> <Gold.PLP.part.hbond>
-3.0000

> <Gold.PLP.part.metal>
0.0000

> <Gold.PLP.part.buried>
-3.1187

> <Gold.PLP.part.nonpolar>
-31.3051

> <Gold.PLP.part.repulsive>
0.1142

> <Gold.PLP.ligand.clash>
0.0000

> <Gold.PLP.ligand.torsion>
0.3564

> <Gold.PLP.Chemscore.Hbond>
4.0000

> <Gold.PLP.Chemscore.CHOScore>
0.0000

> <Gold.PLP.Chemscore.Metal>
0.0000

> <Gold.Chemscore.Hbonds>
donor molecule, donor type, donor heavy atom, donor atom, acceptor molecule, acceptor atom, score
      L1  H     4    30       P1  7948  1.00
      L1  H     8    46       P1  7948  2.00
      P1  H  6896  6907       L1    18  1.00

> <Gold.PLP.Chemscore.Internal.Correction>
0.1413

> <Gold.Rescore>
     Score         DG    S(hbond)    S(metal)    S(lipo)     H(rot)  DE(clash)    DE(int)     intcor
     17.87     -18.36       2.90        0.00      82.80       2.53       0.38       0.12       ----

> <Gold.Chemscore.Fitness>
17.8655

> <Gold.Chemscore.DG>
-18.3641

> <Gold.Chemscore.ZeroCoef>
-5.4800

> <Gold.Chemscore.Hbond>
2.8989

> <Gold.Chemscore.Metal>
0.0000

> <Gold.Chemscore.Lipo>
82.7990

> <Gold.Chemscore.Internal_Hbond>
0.0000

> <Gold.Chemscore.DEClash>
0.3778

> <Gold.Chemscore.DEInternal>
0.1208

> <Gold.Chemscore.Rot>
2.5335

> <Gold.Chemscore.Internal.Correction>
   9.000000E+99

> <Gold.Chemscore.Hbonds>
donor molecule, donor type, donor heavy atom, donor atom, acceptor molecule, acceptor atom, score
      L1  H     4    30       P1  7948  1.00
      L1  H     8    46       P1  7948  0.97
      P1  H  6896  6907       L1    18  0.26

> <Gold.Chemscore.Hbond.Weighted>
-9.6822

> <Gold.Chemscore.Metal.Weighted>
-0.0000

> <Gold.Chemscore.Lipo.Weighted>
-9.6875

> <Gold.Chemscore.Internal_Hbond.Weighted>
0.0000

> <Gold.Chemscore.DEClash.Weighted>
0.3778

> <Gold.Chemscore.DEInternal.Weighted>
0.1208

> <Gold.Chemscore.Rot.Weighted>
6.4856

> <Gold.Chemscore.Internal.Correction.Weighted>
   9.000000E+99

> <Gold.Protein.RotatedTorsions>
[ 6907 6896 6895 6894 ] final  -70.37 input  -60.11 | X-H torsion
[ 7974 7965 7964 7962 ] final  110.05 input  175.53 | X-H torsion
[ 8008 7997 7996 7995 ] final  -67.90 input   59.86 | X-H torsion
[ 10167 10162 10161 10158 ] final   89.03 input  -65.29 | X-H torsion
[ 10718 10713 10712 10709 ] final  -69.01 input   66.30 | X-H torsion
[ 10763 10752 10751 10750 ] final -156.60 input  -60.55 | X-H torsion
[ 11005 11000 10999 10996 ] final  164.90 input  -57.11 | X-H torsion

> <Gold.Protein.ActiveResidues>
 VAL166  LYS551  ARG553  GLY616  TRP617  ASP618  TYR619  PRO620  LYS621  CYS622 
 ASP623  PHE694  ASN695  SER759  ASP760  ASP761  ALA762  ILE779  LEU786  VAL792 
 PHE793  MET794  SER795  GLU796  ALA797  LYS798  CYS799  TRP800  GLU811  SER814 

> <Gold.Protein.RotatedAtoms>
  150.7261  134.5463  159.5771 H   0  0  0  0  0  0  0  0  0  0  0  0  # atno 6907 bound_to 6896
  152.2961  134.7662  160.0377 H   0  0  0  0  0  0  0  0  0  0  0  0  # atno 6908 bound_to 6896
  151.8259  133.3366  159.3635 H   0  0  0  0  0  0  0  0  0  0  0  0  # atno 6909 bound_to 6896
  145.2599  139.2706  143.4022 H   0  0  0  0  0  0  0  0  0  0  0  0  # atno 7974 bound_to 7965
  154.4831  140.0883  156.7423 H   0  0  0  0  0  0  0  0  0  0  0  0  # atno 8008 bound_to 7997
  155.4420  140.3454  155.4273 H   0  0  0  0  0  0  0  0  0  0  0  0  # atno 8009 bound_to 7997
  156.1221  140.1477  156.9178 H   0  0  0  0  0  0  0  0  0  0  0  0  # atno 8010 bound_to 7997
  139.8613  144.6542  150.9055 H   0  0  0  0  0  0  0  0  0  0  0  0  # atno 10167 bound_to 10162
  156.0476  130.4305  150.2085 H   0  0  0  0  0  0  0  0  0  0  0  0  # atno 10718 bound_to 10713
  154.7700  135.3142  154.8208 H   0  0  0  0  0  0  0  0  0  0  0  0  # atno 10763 bound_to 10752
  153.8946  135.6822  153.4763 H   0  0  0  0  0  0  0  0  0  0  0  0  # atno 10764 bound_to 10752
  153.1313  135.4779  154.9287 H   0  0  0  0  0  0  0  0  0  0  0  0  # atno 10765 bound_to 10752
  140.2506  134.7980  157.3498 H   0  0  0  0  0  0  0  0  0  0  0  0  # atno 11005 bound_to 11000
  146.3278  140.3014  142.8621 LP  0  0  0  0  0  0  0  0  0  0  0  0  # atno 17320 bound_to 7965
  144.9427  140.8096  143.5620 LP  0  0  0  0  0  0  0  0  0  0  0  0  # atno 17321 bound_to 7965
  140.7774  143.3742  151.1594 LP  0  0  0  0  0  0  0  0  0  0  0  0  # atno 17342 bound_to 10162
  139.7371  143.8982  152.3038 LP  0  0  0  0  0  0  0  0  0  0  0  0  # atno 17343 bound_to 10162
  157.0173  130.9969  151.3349 LP  0  0  0  0  0  0  0  0  0  0  0  0  # atno 17370 bound_to 10713
  157.5369  130.8094  149.7982 LP  0  0  0  0  0  0  0  0  0  0  0  0  # atno 17371 bound_to 10713
  140.1562  134.4787  155.7926 LP  0  0  0  0  0  0  0  0  0  0  0  0  # atno 17394 bound_to 11000
  141.2202  133.6882  156.7464 LP  0  0  0  0  0  0  0  0  0  0  0  0  # atno 17395 bound_to 11000

$$$$
