AV-unprocessed.smi:1362|AV-procd|sdf|5563|dock8
  -GOLD-   22720 5153D 1   1.00000     0.00000
 Structure written by MMmdl.
 38 38  0  0  0  0  0  0  0  0  2 V2000
  150.6575  136.0198  154.6448 C   0  0  0  0  0  0  0  0  0  0  0  0
  150.7259  137.4975  154.9656 C   0  0  0  0  0  0  0  0  0  0  0  0
  149.8394  138.2831  154.4846 N   0  0  0  0  0  0  0  0  0  0  0  0
  149.8993  139.6560  154.7789 C   0  0  0  0  0  0  0  0  0  0  0  0
  148.8090  140.5157  154.1623 C   0  0  0  0  0  0  0  0  0  0  0  0
  150.8855  140.1655  155.5715 C   0  0  0  0  0  0  0  0  0  0  0  0
  150.9950  141.6506  155.9161 C   0  0  0  0  0  0  0  0  0  0  0  0
  150.8142  142.0110  157.3926 C   0  0  0  0  0  0  0  0  0  0  0  0
  149.7127  141.9061  157.9328 O   0  0  0  0  0  0  0  0  0  0  0  0
  151.9124  142.4411  158.0330 N   0  0  0  0  0  0  0  0  0  0  0  0
  151.9719  142.8747  159.4282 C   0  0  1  0  0  0  0  0  0  0  0  0
  153.0771  142.0805  160.1504 C   0  0  0  0  0  0  0  0  0  0  0  0
  152.1723  144.4119  159.4994 C   0  0  0  0  0  0  0  0  0  0  0  0
  152.1871  144.9360  160.9469 C   0  0  0  0  0  0  0  0  0  0  0  0
  151.1080  145.1781  158.6887 C   0  0  0  0  0  0  0  0  0  0  0  0
  151.8844  139.2254  156.1107 C   0  0  0  0  0  0  0  0  0  0  0  0
  152.7869  139.6297  156.8429 O   0  0  0  0  0  0  0  0  0  0  0  0
  151.7637  137.9104  155.7706 N   0  5  0  0  0  0  0  0  0  0  0  0
  149.6955  135.7588  154.2017 H   0  0  0  0  0  0  0  0  0  0  0  0
  150.7864  135.4259  155.5503 H   0  0  0  0  0  0  0  0  0  0  0  0
  151.4450  135.7519  153.9400 H   0  0  0  0  0  0  0  0  0  0  0  0
  149.2387  141.2397  153.4700 H   0  0  0  0  0  0  0  0  0  0  0  0
  148.2608  141.0554  154.9348 H   0  0  0  0  0  0  0  0  0  0  0  0
  148.0929  139.9070  153.6088 H   0  0  0  0  0  0  0  0  0  0  0  0
  151.9489  142.0580  155.5808 H   0  0  0  0  0  0  0  0  0  0  0  0
  150.2463  142.1881  155.3333 H   0  0  0  0  0  0  0  0  0  0  0  0
  152.7720  142.4921  157.5062 H   0  0  0  0  0  0  0  0  0  0  0  0
  151.0181  142.6412  159.9058 H   0  0  0  0  0  0  0  0  0  0  0  0
  153.0832  142.2782  161.2218 H   0  0  0  0  0  0  0  0  0  0  0  0
  154.0642  142.3253  159.7569 H   0  0  0  0  0  0  0  0  0  0  0  0
  152.9314  141.0063  160.0319 H   0  0  0  0  0  0  0  0  0  0  0  0
  153.1428  144.6464  159.0592 H   0  0  0  0  0  0  0  0  0  0  0  0
  151.2679  144.6748  161.4724 H   0  0  0  0  0  0  0  0  0  0  0  0
  152.2833  146.0219  160.9695 H   0  0  0  0  0  0  0  0  0  0  0  0
  153.0252  144.5354  161.5162 H   0  0  0  0  0  0  0  0  0  0  0  0
  150.1031  144.9572  159.0499 H   0  0  0  0  0  0  0  0  0  0  0  0
  151.1421  144.9280  157.6283 H   0  0  0  0  0  0  0  0  0  0  0  0
  151.2579  146.2554  158.7644 H   0  0  0  0  0  0  0  0  0  0  0  0
  1  2  1  0  0  0  0
  1 19  1  0  0  0  0
  1 20  1  0  0  0  0
  1 21  1  0  0  0  0
  2 18  1  0  0  0  0
  2  3  2  0  0  0  0
  3  4  1  0  0  0  0
  4  5  1  0  0  0  0
  4  6  2  0  0  0  0
  5 22  1  0  0  0  0
  5 23  1  0  0  0  0
  5 24  1  0  0  0  0
  6  7  1  0  0  0  0
  6 16  1  0  0  0  0
  7  8  1  0  0  0  0
  7 25  1  0  0  0  0
  7 26  1  0  0  0  0
  8  9  2  0  0  0  0
  8 10  1  0  0  0  0
 10 11  1  0  0  0  0
 10 27  1  0  0  0  0
 11 12  1  0  0  0  0
 11 13  1  0  0  0  0
 11 28  1  0  0  0  0
 12 29  1  0  0  0  0
 12 30  1  0  0  0  0
 12 31  1  0  0  0  0
 13 14  1  0  0  0  0
 13 15  1  0  0  0  0
 13 32  1  0  0  0  0
 14 33  1  0  0  0  0
 14 34  1  0  0  0  0
 14 35  1  0  0  0  0
 15 36  1  0  0  0  0
 15 37  1  0  0  0  0
 15 38  1  0  0  0  0
 16 17  2  0  0  0  0
 16 18  1  0  0  0  0
M  CHG  1  18  -1
M  END
> <s_m_source_file>
AV-unprocessed.smi

> <i_m_source_file_index>
1362

> <i_lp_mmshare_version>
43012

> <i_f3d_flags>
0

> <s_epik_input>
W0NIM11jMW5jKFtDSDNdKWMoYyg9TylbbkhdMSlbQ0gyXUMoPU8pW05IXVtDQEhdKFtDSDNdKVtDSF0oW0NIM10pW0NIM10=

> <s_epik_cmdline>
J2VwaWtfcHl0aG9uJywgJy1waCcsICc3LjAnLCAnLXRuJywgJzgnLCAnLW1hJywgJzIwMCcsICctbWV0YWxfYmluZGluZycsICctaW1hZScsICc8aW5maWxlLm1hZT4nLCAnLW9tYWUnLCAnPG91dGZpbGUubWFlPic=

> <r_lp_tautomer_probability>
0.839158

> <r_epik_Ionization_Penalty>
6.62204

> <r_epik_Ionization_Penalty_Charging>
7.30593e-08

> <r_epik_Ionization_Penalty_Neutral>
6.62204

> <r_epik_State_Penalty>
4.44062

> <r_epik_Charging_Adjusted_Penalty>
4.44062

> <i_epik_Tot_Q>
-1

> <i_epik_Tot_abs_Q>
1

> <r_epik_Metal_State_Penalty>
0.802984

> <b_epik_Metal_Only>
1

> <s_lp_Force_Field>
OPLS_2005

> <r_lp_Energy>
10.9313

> <b_lp_Chiralities_Consistent>
1

> <s_lp_Variant>
AV-unprocessed.smi:1362-6

> <Gold.Version>
5.8.1

> <Gold.Id.Protein>
6NUR|6NUR_protein|mol2

> <Gold.PLP.Fitness>
39.2848

> <Gold.PLP.PLP>
-36.6555

> <Gold.PLP.part.hbond>
-1.0000

> <Gold.PLP.part.metal>
0.0000

> <Gold.PLP.part.buried>
-1.5058

> <Gold.PLP.part.nonpolar>
-32.1029

> <Gold.PLP.part.repulsive>
0.3530

> <Gold.PLP.ligand.clash>
0.0000

> <Gold.PLP.ligand.torsion>
0.1971

> <Gold.PLP.Chemscore.Hbond>
1.0000

> <Gold.PLP.Chemscore.CHOScore>
0.0000

> <Gold.PLP.Chemscore.Metal>
0.0000

> <Gold.Chemscore.Hbonds>
donor molecule, donor type, donor heavy atom, donor atom, acceptor molecule, acceptor atom, score
      P1  H  7997  8009       L1    17  1.00

> <Gold.PLP.Chemscore.Internal.Correction>
0.0236

> <Gold.Rescore>
     Score         DG    S(hbond)    S(metal)    S(lipo)     H(rot)  DE(clash)    DE(int)     intcor
     15.17     -15.39       0.98        0.00      92.64       1.64       0.05       0.16       ----

> <Gold.Chemscore.Fitness>
15.1738

> <Gold.Chemscore.DG>
-15.3874

> <Gold.Chemscore.ZeroCoef>
-5.4800

> <Gold.Chemscore.Hbond>
0.9807

> <Gold.Chemscore.Metal>
0.0000

> <Gold.Chemscore.Lipo>
92.6392

> <Gold.Chemscore.Internal_Hbond>
0.0000

> <Gold.Chemscore.DEClash>
0.0530

> <Gold.Chemscore.DEInternal>
0.1605

> <Gold.Chemscore.Rot>
1.6433

> <Gold.Chemscore.Internal.Correction>
   9.000000E+99

> <Gold.Chemscore.Hbonds>
donor molecule, donor type, donor heavy atom, donor atom, acceptor molecule, acceptor atom, score
      P1  H  7997  8009       L1    17  0.95

> <Gold.Chemscore.Hbond.Weighted>
-3.2755

> <Gold.Chemscore.Metal.Weighted>
-0.0000

> <Gold.Chemscore.Lipo.Weighted>
-10.8388

> <Gold.Chemscore.Internal_Hbond.Weighted>
0.0000

> <Gold.Chemscore.DEClash.Weighted>
0.0530

> <Gold.Chemscore.DEInternal.Weighted>
0.1605

> <Gold.Chemscore.Rot.Weighted>
4.2069

> <Gold.Chemscore.Internal.Correction.Weighted>
   9.000000E+99

> <Gold.Protein.RotatedTorsions>
[ 6907 6896 6895 6894 ] final   41.29 input  -60.11 | X-H torsion
[ 7974 7965 7964 7962 ] final  -27.25 input  175.53 | X-H torsion
[ 8008 7997 7996 7995 ] final  165.86 input   59.86 | X-H torsion
[ 10167 10162 10161 10158 ] final  178.85 input  -65.29 | X-H torsion
[ 10718 10713 10712 10709 ] final   76.62 input   66.30 | X-H torsion
[ 10763 10752 10751 10750 ] final -135.71 input  -60.55 | X-H torsion
[ 11005 11000 10999 10996 ] final -156.19 input  -57.11 | X-H torsion

> <Gold.Protein.ActiveResidues>
 VAL166  LYS551  ARG553  GLY616  TRP617  ASP618  TYR619  PRO620  LYS621  CYS622 
 ASP623  PHE694  ASN695  SER759  ASP760  ASP761  ALA762  ILE779  LEU786  VAL792 
 PHE793  MET794  SER795  GLU796  ALA797  LYS798  CYS799  TRP800  GLU811  SER814 

> <Gold.Protein.RotatedAtoms>
  152.1934  134.8652  160.0515 H   0  0  0  0  0  0  0  0  0  0  0  0  # atno 6907 bound_to 6896
  151.9533  133.3667  159.4016 H   0  0  0  0  0  0  0  0  0  0  0  0  # atno 6908 bound_to 6896
  150.6939  134.4241  159.5262 H   0  0  0  0  0  0  0  0  0  0  0  0  # atno 6909 bound_to 6896
  146.1371  140.5126  142.8668 H   0  0  0  0  0  0  0  0  0  0  0  0  # atno 7974 bound_to 7965
  156.1766  140.1659  156.8351 H   0  0  0  0  0  0  0  0  0  0  0  0  # atno 8008 bound_to 7997
  154.5314  140.0756  156.8385 H   0  0  0  0  0  0  0  0  0  0  0  0  # atno 8009 bound_to 7997
  155.3400  140.3384  155.4241 H   0  0  0  0  0  0  0  0  0  0  0  0  # atno 8010 bound_to 7997
  139.5311  144.2630  152.0691 H   0  0  0  0  0  0  0  0  0  0  0  0  # atno 10167 bound_to 10162
  157.6680  130.9783  150.1523 H   0  0  0  0  0  0  0  0  0  0  0  0  # atno 10718 bound_to 10713
  154.8698  135.3695  154.4943 H   0  0  0  0  0  0  0  0  0  0  0  0  # atno 10763 bound_to 10752
  153.5588  135.7023  153.5562 H   0  0  0  0  0  0  0  0  0  0  0  0  # atno 10764 bound_to 10752
  153.3647  135.4037  155.1708 H   0  0  0  0  0  0  0  0  0  0  0  0  # atno 10765 bound_to 10752
  140.6782  134.4173  157.5228 H   0  0  0  0  0  0  0  0  0  0  0  0  # atno 11005 bound_to 11000
  144.7751  140.5722  143.6643 LP  0  0  0  0  0  0  0  0  0  0  0  0  # atno 17320 bound_to 7965
  145.5132  139.1478  143.3593 LP  0  0  0  0  0  0  0  0  0  0  0  0  # atno 17321 bound_to 7965
  140.2094  144.4578  150.6393 LP  0  0  0  0  0  0  0  0  0  0  0  0  # atno 17342 bound_to 10162
  140.6490  143.2220  151.6120 LP  0  0  0  0  0  0  0  0  0  0  0  0  # atno 17343 bound_to 10162
  156.2319  130.3683  149.8435 LP  0  0  0  0  0  0  0  0  0  0  0  0  # atno 17370 bound_to 10713
  156.6259  130.8646  151.3485 LP  0  0  0  0  0  0  0  0  0  0  0  0  # atno 17371 bound_to 10713
  139.8960  134.8670  156.2108 LP  0  0  0  0  0  0  0  0  0  0  0  0  # atno 17394 bound_to 11000
  141.0338  133.6974  156.1477 LP  0  0  0  0  0  0  0  0  0  0  0  0  # atno 17395 bound_to 11000

$$$$
