AV-unprocessed.smi:2655|AV-procd|sdf|10299|dock6
  -GOLD-   2272014313D 1   1.00000     0.00000
 Structure written by MMmdl.
 34 35  0  0  0  0  0  0  0  0  1 V2000
  144.0961  132.2993  150.3701 C   0  0  0  0  0  0  0  0  0  0  0  0
  144.4450  133.7090  150.7966 C   0  0  0  0  0  0  0  0  0  0  0  0
  143.7217  134.7852  150.3716 N   0  0  0  0  0  0  0  0  0  0  0  0
  144.2859  135.9233  150.8898 N   0  0  0  0  0  0  0  0  0  0  0  0
  145.3469  135.6001  151.6477 C   0  0  0  0  0  0  0  0  0  0  0  0
  146.0656  136.3891  152.2576 O   0  0  0  0  0  0  0  0  0  0  0  0
  145.4449  134.1467  151.5727 C   0  0  0  0  0  0  0  0  0  0  0  0
  146.5067  133.3282  152.2815 C   0  0  0  0  0  0  0  0  0  0  0  0
  146.7783  133.8454  153.7033 C   0  0  0  0  0  0  0  0  0  0  0  0
  147.9552  134.7046  153.7446 N   0  0  0  0  0  0  0  0  0  0  0  0
  148.6386  135.0181  154.8550 C   0  0  0  0  0  0  0  0  0  0  0  0
  148.3360  134.6068  155.9752 O   0  0  0  0  0  0  0  0  0  0  0  0
  149.6754  135.8259  154.5756 N   0  0  0  0  0  0  0  0  0  0  0  0
  150.6408  136.3624  155.4663 C   0  0  0  0  0  0  0  0  0  0  0  0
  150.4848  136.5443  156.8714 C   0  0  0  0  0  0  0  0  0  0  0  0
  151.6835  137.0826  157.2456 C   0  0  0  0  0  0  0  0  0  0  0  0
  152.2294  137.5267  158.5592 C   0  0  0  0  0  0  0  0  0  0  0  0
  152.4992  137.2198  156.1660 O   0  0  0  0  0  0  0  0  0  0  0  0
  151.8232  136.7572  155.0310 N   0  0  0  0  0  0  0  0  0  0  0  0
  144.9457  131.8388  149.8651 H   0  0  0  0  0  0  0  0  0  0  0  0
  143.2459  132.2936  149.6873 H   0  0  0  0  0  0  0  0  0  0  0  0
  143.8435  131.6932  151.2404 H   0  0  0  0  0  0  0  0  0  0  0  0
  143.8829  136.8259  150.6835 H   0  0  0  0  0  0  0  0  0  0  0  0
  147.4229  133.3600  151.6908 H   0  0  0  0  0  0  0  0  0  0  0  0
  146.1938  132.2836  152.3087 H   0  0  0  0  0  0  0  0  0  0  0  0
  145.9087  134.3826  154.0863 H   0  0  0  0  0  0  0  0  0  0  0  0
  146.9471  133.0073  154.3801 H   0  0  0  0  0  0  0  0  0  0  0  0
  148.2715  135.0853  152.8647 H   0  0  0  0  0  0  0  0  0  0  0  0
  149.7961  136.0801  153.6063 H   0  0  0  0  0  0  0  0  0  0  0  0
  149.6449  136.3235  157.5125 H   0  0  0  0  0  0  0  0  0  0  0  0
  151.6081  137.1686  159.3802 H   0  0  0  0  0  0  0  0  0  0  0  0
  152.2674  138.6146  158.6129 H   0  0  0  0  0  0  0  0  0  0  0  0
  153.2394  137.1446  158.7087 H   0  0  0  0  0  0  0  0  0  0  0  0
  142.9611  134.8028  149.7071 H   0  0  0  0  0  0  0  0  0  0  0  0
  1 20  1  0  0  0  0
  1 21  1  0  0  0  0
  1 22  1  0  0  0  0
  1  2  1  0  0  0  0
  2  7  2  0  0  0  0
  2  3  1  0  0  0  0
  3  4  1  0  0  0  0
  3 34  1  0  0  0  0
  4 23  1  0  0  0  0
  4  5  1  0  0  0  0
  5  7  1  0  0  0  0
  5  6  2  0  0  0  0
  7  8  1  0  0  0  0
  8  9  1  0  0  0  0
  8 24  1  0  0  0  0
  8 25  1  0  0  0  0
  9 10  1  0  0  0  0
  9 26  1  0  0  0  0
  9 27  1  0  0  0  0
 10 11  1  0  0  0  0
 10 28  1  0  0  0  0
 11 12  2  0  0  0  0
 11 13  1  0  0  0  0
 13 14  1  0  0  0  0
 13 29  1  0  0  0  0
 14 19  2  0  0  0  0
 14 15  1  0  0  0  0
 15 16  2  0  0  0  0
 15 30  1  0  0  0  0
 16 17  1  0  0  0  0
 16 18  1  0  0  0  0
 17 31  1  0  0  0  0
 17 32  1  0  0  0  0
 17 33  1  0  0  0  0
 18 19  1  0  0  0  0
M  END
> <s_m_source_file>
AV-unprocessed.smi

> <i_m_source_file_index>
2655

> <i_lp_mmshare_version>
43012

> <i_f3d_flags>
0

> <s_epik_input>
W0NIM11DMT1OW05IXUMoPU8pW0NASF0xW0NIMl1bQ0gyXVtOSF1DKD1PKVtOSF1jMltjSF1jKFtDSDNdKW9uMg==

> <s_epik_cmdline>
J2VwaWtfcHl0aG9uJywgJy1waCcsICc3LjAnLCAnLXRuJywgJzgnLCAnLW1hJywgJzIwMCcsICctbWV0YWxfYmluZGluZycsICctaW1hZScsICc8aW5maWxlLm1hZT4nLCAnLW9tYWUnLCAnPG91dGZpbGUubWFlPic=

> <r_lp_tautomer_probability>
0.00220696

> <r_epik_Ionization_Penalty>
0.0273702

> <r_epik_Ionization_Penalty_Charging>
8.84748e-06

> <r_epik_Ionization_Penalty_Neutral>
0.0273613

> <r_epik_State_Penalty>
0.626781

> <r_epik_Charging_Adjusted_Penalty>
0.626789

> <i_epik_Tot_Q>
0

> <i_epik_Tot_abs_Q>
0

> <r_epik_Metal_State_Penalty>
2.03048

> <b_epik_Metal_Only>
0

> <s_lp_Force_Field>
OPLS_2005

> <r_lp_Energy>
17.132

> <b_lp_Chiralities_Consistent>
1

> <s_lp_Variant>
AV-unprocessed.smi:2655-2

> <Gold.Version>
5.8.1

> <Gold.Id.Protein>
6NUR|6NUR_protein|mol2

> <Gold.PLP.Fitness>
36.6878

> <Gold.PLP.PLP>
-23.8792

> <Gold.PLP.part.hbond>
-5.8896

> <Gold.PLP.part.metal>
0.0000

> <Gold.PLP.part.buried>
-6.0524

> <Gold.PLP.part.nonpolar>
-14.3905

> <Gold.PLP.part.repulsive>
1.6286

> <Gold.PLP.ligand.clash>
0.0000

> <Gold.PLP.ligand.torsion>
0.7632

> <Gold.PLP.Chemscore.Hbond>
4.7752

> <Gold.PLP.Chemscore.CHOScore>
0.0000

> <Gold.PLP.Chemscore.Metal>
0.0000

> <Gold.Chemscore.Hbonds>
donor molecule, donor type, donor heavy atom, donor atom, acceptor molecule, acceptor atom, score
      L1  H     3    34       P1 10186  0.85
      L1  H     4    23       P1 10171  1.00
      L1  H    10    28       P1  7948  1.00
      L1  H    13    29       P1  7948  0.85
      P1  H 10752 10764       L1    19  1.00

> <Gold.PLP.Chemscore.Internal.Correction>
0.0094

> <Gold.Rescore>
     Score         DG    S(hbond)    S(metal)    S(lipo)     H(rot)  DE(clash)    DE(int)     intcor
     14.06     -16.59       3.43        0.00      38.64       1.89       0.04       2.50       ----

> <Gold.Chemscore.Fitness>
14.0553

> <Gold.Chemscore.DG>
-16.5947

> <Gold.Chemscore.ZeroCoef>
-5.4800

> <Gold.Chemscore.Hbond>
3.4251

> <Gold.Chemscore.Metal>
0.0000

> <Gold.Chemscore.Lipo>
38.6369

> <Gold.Chemscore.Internal_Hbond>
0.0000

> <Gold.Chemscore.DEClash>
0.0354

> <Gold.Chemscore.DEInternal>
2.5041

> <Gold.Chemscore.Rot>
1.8929

> <Gold.Chemscore.Internal.Correction>
   9.000000E+99

> <Gold.Chemscore.Hbonds>
donor molecule, donor type, donor heavy atom, donor atom, acceptor molecule, acceptor atom, score
      L1  H     3    34       P1 10186  0.63
      L1  H     4    23       P1 10171  0.97
      L1  H    10    28       P1  7948  0.87
      L1  H    13    29       P1  7948  0.16
      P1  H 10752 10764       L1    19  0.29

> <Gold.Chemscore.Hbond.Weighted>
-11.4400

> <Gold.Chemscore.Metal.Weighted>
-0.0000

> <Gold.Chemscore.Lipo.Weighted>
-4.5205

> <Gold.Chemscore.Internal_Hbond.Weighted>
0.0000

> <Gold.Chemscore.DEClash.Weighted>
0.0354

> <Gold.Chemscore.DEInternal.Weighted>
2.5041

> <Gold.Chemscore.Rot.Weighted>
4.8457

> <Gold.Chemscore.Internal.Correction.Weighted>
   9.000000E+99

> <Gold.Protein.RotatedTorsions>
[ 6907 6896 6895 6894 ] final  -54.84 input  -60.11 | X-H torsion
[ 7974 7965 7964 7962 ] final -179.60 input  175.53 | X-H torsion
[ 8008 7997 7996 7995 ] final   34.93 input   59.86 | X-H torsion
[ 10167 10162 10161 10158 ] final   -3.82 input  -65.29 | X-H torsion
[ 10718 10713 10712 10709 ] final -150.13 input   66.30 | X-H torsion
[ 10763 10752 10751 10750 ] final  -70.26 input  -60.55 | X-H torsion
[ 11005 11000 10999 10996 ] final -172.87 input  -57.11 | X-H torsion

> <Gold.Protein.ActiveResidues>
 VAL166  LYS551  ARG553  GLY616  TRP617  ASP618  TYR619  PRO620  LYS621  CYS622 
 ASP623  PHE694  ASN695  SER759  ASP760  ASP761  ALA762  ILE779  LEU786  VAL792 
 PHE793  MET794  SER795  GLU796  ALA797  LYS798  CYS799  TRP800  GLU811  SER814 

> <Gold.Protein.RotatedAtoms>
  150.8303  134.7553  159.6847 H   0  0  0  0  0  0  0  0  0  0  0  0  # atno 6907 bound_to 6896
  152.4408  134.5591  159.9899 H   0  0  0  0  0  0  0  0  0  0  0  0  # atno 6908 bound_to 6896
  151.5754  133.3347  159.3033 H   0  0  0  0  0  0  0  0  0  0  0  0  # atno 6909 bound_to 6896
  144.7138  140.0693  143.6430 H   0  0  0  0  0  0  0  0  0  0  0  0  # atno 7974 bound_to 7965
  155.1628  140.3285  155.4408 H   0  0  0  0  0  0  0  0  0  0  0  0  # atno 8008 bound_to 7997
  156.2537  140.1957  156.6685 H   0  0  0  0  0  0  0  0  0  0  0  0  # atno 8009 bound_to 7997
  154.6393  140.0572  156.9812 H   0  0  0  0  0  0  0  0  0  0  0  0  # atno 8010 bound_to 7997
  140.6904  143.6495  150.8362 H   0  0  0  0  0  0  0  0  0  0  0  0  # atno 10167 bound_to 10162
  156.4421  130.8127  151.2357 H   0  0  0  0  0  0  0  0  0  0  0  0  # atno 10718 bound_to 10713
  154.4152  135.5999  153.5976 H   0  0  0  0  0  0  0  0  0  0  0  0  # atno 10763 bound_to 10752
  152.9791  135.5939  154.4022 H   0  0  0  0  0  0  0  0  0  0  0  0  # atno 10764 bound_to 10752
  154.3840  135.2841  155.2173 H   0  0  0  0  0  0  0  0  0  0  0  0  # atno 10765 bound_to 10752
  140.4921  134.5974  157.4958 H   0  0  0  0  0  0  0  0  0  0  0  0  # atno 11005 bound_to 11000
  145.9797  139.2931  143.1049 LP  0  0  0  0  0  0  0  0  0  0  0  0  # atno 17320 bound_to 7965
  145.9025  140.9234  143.0496 LP  0  0  0  0  0  0  0  0  0  0  0  0  # atno 17321 bound_to 7965
  140.0207  143.5545  152.2801 LP  0  0  0  0  0  0  0  0  0  0  0  0  # atno 17342 bound_to 10162
  139.6302  144.7643  151.2552 LP  0  0  0  0  0  0  0  0  0  0  0  0  # atno 17343 bound_to 10162
  157.7506  131.0165  150.3546 LP  0  0  0  0  0  0  0  0  0  0  0  0  # atno 17370 bound_to 10713
  156.3906  130.3897  149.7032 LP  0  0  0  0  0  0  0  0  0  0  0  0  # atno 17371 bound_to 10713
  139.9763  134.7210  155.9944 LP  0  0  0  0  0  0  0  0  0  0  0  0  # atno 17394 bound_to 11000
  141.1478  133.6553  156.3922 LP  0  0  0  0  0  0  0  0  0  0  0  0  # atno 17395 bound_to 11000

$$$$
