AV-unprocessed.smi:1592|AV-procd|sdf|6404|dock5
  -GOLD-   22720 7 43D 1   1.00000     0.00000
 Structure written by MMmdl.
 27 28  0  0  0  0  0  0  0  0  3 V2000
  151.4510  140.5707  155.1623 O   0  0  0  0  0  0  0  0  0  0  0  0
  150.3502  141.0789  155.3830 C   0  0  0  0  0  0  0  0  0  0  0  0
  150.1133  142.0124  156.3231 N   0  0  0  0  0  0  0  0  0  0  0  0
  151.0290  142.6183  157.2281 C   0  0  0  0  0  0  0  0  0  0  0  0
  151.1485  143.9652  157.3409 N   0  3  0  0  0  0  0  0  0  0  0  0
  152.0081  144.5711  158.1880 C   0  0  0  0  0  0  0  0  0  0  0  0
  152.8409  143.7935  159.0150 C   0  0  0  0  0  0  0  0  0  0  0  0
  152.7580  142.3890  158.9391 C   0  0  0  0  0  0  0  0  0  0  0  0
  151.8466  141.7950  158.0402 C   0  0  0  0  0  0  0  0  0  0  0  0
  151.7666  140.4323  157.9680 O   0  5  0  0  0  0  0  0  0  0  0  0
  149.1304  140.6369  154.5672 C   0  0  1  0  0  0  0  0  0  0  0  0
  147.8998  140.2771  155.4219 C   0  0  0  0  0  0  0  0  0  0  0  0
  146.9004  141.3709  155.0977 C   0  0  0  0  0  0  0  0  0  0  0  0
  147.3087  141.7624  153.6850 C   0  0  0  0  0  0  0  0  0  0  0  0
  148.7254  141.7310  153.7468 O   0  0  0  0  0  0  0  0  0  0  0  0
  149.1606  142.3390  156.4027 H   0  0  0  0  0  0  0  0  0  0  0  0
  152.0032  145.6512  158.1773 H   0  0  0  0  0  0  0  0  0  0  0  0
  153.5331  144.2651  159.6968 H   0  0  0  0  0  0  0  0  0  0  0  0
  153.3884  141.7743  159.5652 H   0  0  0  0  0  0  0  0  0  0  0  0
  150.5559  144.5508  156.7513 H   0  0  0  0  0  0  0  0  0  0  0  0
  149.3888  139.7921  153.9260 H   0  0  0  0  0  0  0  0  0  0  0  0
  147.5070  139.3088  155.1093 H   0  0  0  0  0  0  0  0  0  0  0  0
  148.1006  140.2148  156.4924 H   0  0  0  0  0  0  0  0  0  0  0  0
  145.8639  141.0399  155.1680 H   0  0  0  0  0  0  0  0  0  0  0  0
  147.0384  142.2164  155.7729 H   0  0  0  0  0  0  0  0  0  0  0  0
  146.9562  141.0294  152.9579 H   0  0  0  0  0  0  0  0  0  0  0  0
  146.9394  142.7462  153.3945 H   0  0  0  0  0  0  0  0  0  0  0  0
  1  2  2  0  0  0  0
  2  3  1  0  0  0  0
  2 11  1  0  0  0  0
  3 16  1  0  0  0  0
  3  4  1  0  0  0  0
  4  9  2  0  0  0  0
  4  5  1  0  0  0  0
  5 20  1  0  0  0  0
  5  6  2  0  0  0  0
  6 17  1  0  0  0  0
  6  7  1  0  0  0  0
  7 18  1  0  0  0  0
  7  8  2  0  0  0  0
  8  9  1  0  0  0  0
  8 19  1  0  0  0  0
  9 10  1  0  0  0  0
 11 15  1  0  0  0  0
 11 12  1  0  0  0  0
 11 21  1  0  0  0  0
 12 13  1  0  0  0  0
 12 22  1  0  0  0  0
 12 23  1  0  0  0  0
 13 14  1  0  0  0  0
 13 24  1  0  0  0  0
 13 25  1  0  0  0  0
 14 15  1  0  0  0  0
 14 26  1  0  0  0  0
 14 27  1  0  0  0  0
M  CHG  1   5   1
M  CHG  1  10  -1
M  END
> <s_m_source_file>
AV-unprocessed.smi

> <i_m_source_file_index>
1592

> <i_lp_mmshare_version>
43012

> <i_f3d_flags>
0

> <s_epik_input>
TzFbQ0gyXVtDSDJdW0NIMl1bQ0BIXTFDKD1PKVtOSF1jMm5bY0hdW2NIXVtjSF1jMltPSF0=

> <s_epik_cmdline>
J2VwaWtfcHl0aG9uJywgJy1waCcsICc3LjAnLCAnLXRuJywgJzgnLCAnLW1hJywgJzIwMCcsICctbWV0YWxfYmluZGluZycsICctaW1hZScsICc8aW5maWxlLm1hZT4nLCAnLW9tYWUnLCAnPG91dGZpbGUubWFlPic=

> <r_lp_tautomer_probability>
0.56342

> <r_epik_Ionization_Penalty>
0.215537

> <r_epik_Ionization_Penalty_Charging>
0.025819

> <r_epik_Ionization_Penalty_Neutral>
0.189718

> <r_epik_State_Penalty>
0.544343

> <r_epik_Charging_Adjusted_Penalty>
0.570162

> <i_epik_Tot_Q>
0

> <i_epik_Tot_abs_Q>
2

> <r_epik_Metal_State_Penalty>
2.6192

> <b_epik_Metal_Only>
0

> <s_lp_Force_Field>
OPLS_2005

> <r_lp_Energy>
19.357

> <b_lp_Chiralities_Consistent>
1

> <s_lp_Variant>
AV-unprocessed.smi:1592-4

> <Gold.Version>
5.8.1

> <Gold.Id.Protein>
6NUR|6NUR_protein|mol2

> <Gold.PLP.Fitness>
43.0770

> <Gold.PLP.PLP>
-33.4812

> <Gold.PLP.part.hbond>
-3.9497

> <Gold.PLP.part.metal>
0.0000

> <Gold.PLP.part.buried>
-5.7521

> <Gold.PLP.part.nonpolar>
-24.1687

> <Gold.PLP.part.repulsive>
0.2980

> <Gold.PLP.ligand.clash>
0.0000

> <Gold.PLP.ligand.torsion>
0.6460

> <Gold.PLP.Chemscore.Hbond>
3.4720

> <Gold.PLP.Chemscore.CHOScore>
0.0000

> <Gold.PLP.Chemscore.Metal>
0.0000

> <Gold.Chemscore.Hbonds>
donor molecule, donor type, donor heavy atom, donor atom, acceptor molecule, acceptor atom, score
      L1  H     5    20       P1  8028  1.98
      P1  H  7989  7998       L1     1  0.85
      P1  H  8011  8017       L1    15  0.61

> <Gold.PLP.Chemscore.Internal.Correction>
0.4717

> <Gold.Rescore>
     Score         DG    S(hbond)    S(metal)    S(lipo)     H(rot)  DE(clash)    DE(int)     intcor
     16.85     -17.84       2.12        0.00      67.08       1.00       0.05       0.94       ----

> <Gold.Chemscore.Fitness>
16.8531

> <Gold.Chemscore.DG>
-17.8437

> <Gold.Chemscore.ZeroCoef>
-5.4800

> <Gold.Chemscore.Hbond>
2.1184

> <Gold.Chemscore.Metal>
0.0000

> <Gold.Chemscore.Lipo>
67.0802

> <Gold.Chemscore.Internal_Hbond>
0.0000

> <Gold.Chemscore.DEClash>
0.0502

> <Gold.Chemscore.DEInternal>
0.9404

> <Gold.Chemscore.Rot>
1.0000

> <Gold.Chemscore.Internal.Correction>
   9.000000E+99

> <Gold.Chemscore.Hbonds>
donor molecule, donor type, donor heavy atom, donor atom, acceptor molecule, acceptor atom, score
      L1  H     5    20       P1  8028  0.86
      P1  H  7989  7998       L1     1  0.29
      P1  H  8011  8017       L1    15  0.59

> <Gold.Chemscore.Hbond.Weighted>
-7.0754

> <Gold.Chemscore.Metal.Weighted>
-0.0000

> <Gold.Chemscore.Lipo.Weighted>
-7.8484

> <Gold.Chemscore.Internal_Hbond.Weighted>
0.0000

> <Gold.Chemscore.DEClash.Weighted>
0.0502

> <Gold.Chemscore.DEInternal.Weighted>
0.9404

> <Gold.Chemscore.Rot.Weighted>
2.5600

> <Gold.Chemscore.Internal.Correction.Weighted>
   9.000000E+99

> <Gold.Protein.RotatedTorsions>
[ 6907 6896 6895 6894 ] final   36.87 input  -60.11 | X-H torsion
[ 7974 7965 7964 7962 ] final   45.25 input  175.53 | X-H torsion
[ 8008 7997 7996 7995 ] final  161.04 input   59.86 | X-H torsion
[ 10167 10162 10161 10158 ] final   11.66 input  -65.29 | X-H torsion
[ 10718 10713 10712 10709 ] final  171.42 input   66.30 | X-H torsion
[ 10763 10752 10751 10750 ] final  -39.85 input  -60.55 | X-H torsion
[ 11005 11000 10999 10996 ] final   15.36 input  -57.11 | X-H torsion

> <Gold.Protein.ActiveResidues>
 VAL166  LYS551  ARG553  GLY616  TRP617  ASP618  TYR619  PRO620  LYS621  CYS622 
 ASP623  PHE694  ASN695  SER759  ASP760  ASP761  ALA762  ILE779  LEU786  VAL792 
 PHE793  MET794  SER795  GLU796  ALA797  LYS798  CYS799  TRP800  GLU811  SER814 

> <Gold.Protein.RotatedAtoms>
  152.1355  134.9102  160.0556 H   0  0  0  0  0  0  0  0  0  0  0  0  # atno 6907 bound_to 6896
  152.0190  133.3886  159.4259 H   0  0  0  0  0  0  0  0  0  0  0  0  # atno 6908 bound_to 6896
  150.6860  134.3568  159.4977 H   0  0  0  0  0  0  0  0  0  0  0  0  # atno 6909 bound_to 6896
  146.0497  139.4985  142.9726 H   0  0  0  0  0  0  0  0  0  0  0  0  # atno 7974 bound_to 7965
  156.2130  140.1788  156.7651 H   0  0  0  0  0  0  0  0  0  0  0  0  # atno 8008 bound_to 7997
  154.5751  140.0676  156.9051 H   0  0  0  0  0  0  0  0  0  0  0  0  # atno 8009 bound_to 7997
  155.2603  140.3335  155.4276 H   0  0  0  0  0  0  0  0  0  0  0  0  # atno 8010 bound_to 7997
  140.6117  143.8393  150.7073 H   0  0  0  0  0  0  0  0  0  0  0  0  # atno 10167 bound_to 10162
  156.9939  131.0156  151.2849 H   0  0  0  0  0  0  0  0  0  0  0  0  # atno 10718 bound_to 10713
  153.9363  135.6766  153.4745 H   0  0  0  0  0  0  0  0  0  0  0  0  # atno 10763 bound_to 10752
  153.0954  135.4854  154.8766 H   0  0  0  0  0  0  0  0  0  0  0  0  # atno 10764 bound_to 10752
  154.7401  135.3158  154.8701 H   0  0  0  0  0  0  0  0  0  0  0  0  # atno 10765 bound_to 10752
  140.4591  134.1145  155.7714 H   0  0  0  0  0  0  0  0  0  0  0  0  # atno 11005 bound_to 11000
  145.6746  141.0207  143.1639 LP  0  0  0  0  0  0  0  0  0  0  0  0  # atno 17320 bound_to 7965
  144.7116  139.8350  143.7412 LP  0  0  0  0  0  0  0  0  0  0  0  0  # atno 17321 bound_to 7965
  140.1963  143.3996  152.1826 LP  0  0  0  0  0  0  0  0  0  0  0  0  # atno 17342 bound_to 10162
  139.5367  144.7216  151.4870 LP  0  0  0  0  0  0  0  0  0  0  0  0  # atno 17343 bound_to 10162
  157.5439  130.8138  149.8062 LP  0  0  0  0  0  0  0  0  0  0  0  0  # atno 17370 bound_to 10713
  156.0197  130.3800  150.2001 LP  0  0  0  0  0  0  0  0  0  0  0  0  # atno 17371 bound_to 10713
  141.1629  133.8758  157.1797 LP  0  0  0  0  0  0  0  0  0  0  0  0  # atno 17394 bound_to 11000
  139.9957  135.0048  157.0076 LP  0  0  0  0  0  0  0  0  0  0  0  0  # atno 17395 bound_to 11000

$$$$
