#       Name:                AV-unprocessed.smi:766
#       Creating user name   scv26
#       Creation time:       Fri Mar 27 01:06:11 2020


#       File generated by GOLD software.
#

@<TRIPOS>MOLECULE
AV-unprocessed.smi:766
    51    53     1
SMALL
NO_CHARGES


@<TRIPOS>ATOM
      1 ****        -5.2859   3.0610  -2.9862 C.3            1 S1                 0.0000
      2 ****        -4.2113   2.6386  -1.9986 C.ar           1 S1                 0.0000
      3 ****        -4.6103   2.1751  -0.7248 C.ar           1 S1                 0.0000
      4 ****        -3.6043   1.7982   0.1571 C.ar           1 S1                 0.0000
      5 ****        -3.6703   1.3088   1.4632 N.pl3          1 S1                 1.0000
      6 ****        -2.4106   1.0821   1.9283 C.2            1 S1                 0.0000
      7 ****        -1.5397   1.4170   0.9371 N.pl3          1 S1                 0.0000
      8 ****        -0.0694   1.3786   0.9265 C.3            1 S1                 0.0000
      9 ****         0.4993  -0.0082   0.5662 C.3            1 S1                 0.0000
     10 ****         0.0304  -0.4000  -0.7093 O.3            1 S1                 0.0000
     11 ****         2.0370   0.0002   0.5435 C.3            1 S1                 0.0000
     12 ****         2.5842  -1.3641   0.4077 N.4            1 S1                 1.0000
     13 ****         4.0596  -1.4184   0.3771 C.3            1 S1                 0.0000
     14 ****         4.5720  -2.8691   0.3347 C.3            1 S1                 0.0000
     15 ****         4.1638  -3.6552   1.4880 N.pl3          1 S1                 0.0000
     16 ****         3.6072  -4.9173   1.5062 C.2            1 S1                 0.0000
     17 ****         3.4183  -5.2609   2.8142 C.2            1 S1                 0.0000
     18 ****         3.9107  -4.1370   3.5340 C.2            1 S1                 0.0000
     19 ****         4.3619  -3.1810   2.7379 N.2            1 S1                 0.0000
     20 ****        -2.2405   1.8697  -0.1882 C.ar           1 S1                 0.0000
     21 ****        -1.8309   2.3210  -1.4412 C.ar           1 S1                 0.0000
     22 ****        -2.8390   2.7104  -2.3519 C.ar           1 S1                 0.0000
     23 ****        -2.4211   3.2095  -3.7248 C.3            1 S1                 0.0000
     24 ****        -6.2853   2.9118  -2.5764 H              1 S1                 0.0000
     25 ****        -5.2136   2.4796  -3.9055 H              1 S1                 0.0000
     26 ****        -5.1823   4.1174  -3.2349 H              1 S1                 0.0000
     27 ****        -5.6530   2.1180  -0.4485 H              1 S1                 0.0000
     28 ****        -2.1506   0.7094   2.9087 H              1 S1                 0.0000
     29 ****         0.3062   2.1478   0.2512 H              1 S1                 0.0000
     30 ****         0.2635   1.6654   1.9248 H              1 S1                 0.0000
     31 ****         0.1482  -0.7364   1.2988 H              1 S1                 0.0000
     32 ****        -0.9147  -0.4206  -0.6885 H              1 S1                 0.0000
     33 ****         2.4048   0.6297  -0.2683 H              1 S1                 0.0000
     34 ****         2.4142   0.4274   1.4738 H              1 S1                 0.0000
     35 ****         2.2630  -1.9166   1.1899 H              1 S1                 0.0000
     36 ****         4.4144  -0.8792  -0.5020 H              1 S1                 0.0000
     37 ****         4.4643  -0.8990   1.2469 H              1 S1                 0.0000
     38 ****         4.2176  -3.3659  -0.5696 H              1 S1                 0.0000
     39 ****         5.6618  -2.8771   0.2897 H              1 S1                 0.0000
     40 ****         3.3927  -5.4606   0.5975 H              1 S1                 0.0000
     41 ****         2.9989  -6.1790   3.1988 H              1 S1                 0.0000
     42 ****         3.9565  -3.9898   4.6030 H              1 S1                 0.0000
     43 ****        -0.7877   2.3730  -1.7158 H              1 S1                 0.0000
     44 ****        -1.3357   3.2494  -3.8222 H              1 S1                 0.0000
     45 ****        -2.8068   4.2137  -3.9028 H              1 S1                 0.0000
     46 ****        -2.8019   2.5484  -4.5037 H              1 S1                 0.0000
     47 ****         2.2260  -1.7707  -0.4449 H              1 S1                 0.0000
     48 ****        -4.5119   1.1459   2.0012 H              1 S1                 0.0000
     49 ****         0.3827  -1.3086  -0.9336 LP             1 S1                 0.0000
     50 ****         0.3384   0.2563  -1.3980 LP             1 S1                 0.0000
     51 ****         4.7608  -2.3030   3.0024 LP             1 S1                 0.0000
@<TRIPOS>BOND
    1    1    2 1     
    2    1   24 1     
    3    1   25 1     
    4    1   26 1     
    5    2   22 ar    
    6    2    3 ar    
    7    3    4 ar    
    8    3   27 1     
    9    4   20 ar    
   10    4    5 1     
   11    5    6 2     
   12    5   48 1     
   13    6    7 1     
   14    6   28 1     
   15    7    8 1     
   16    7   20 1     
   17    8    9 1     
   18    8   29 1     
   19    8   30 1     
   20    9   10 1     
   21    9   11 1     
   22    9   31 1     
   23   10   32 1     
   24   11   12 1     
   25   11   33 1     
   26   11   34 1     
   27   12   13 1     
   28   12   35 1     
   29   12   47 1     
   30   13   14 1     
   31   13   36 1     
   32   13   37 1     
   33   14   15 1     
   34   14   38 1     
   35   14   39 1     
   36   15   19 1     
   37   15   16 1     
   38   16   17 2     
   39   16   40 1     
   40   17   18 1     
   41   17   41 1     
   42   18   19 2     
   43   18   42 1     
   44   20   21 ar    
   45   21   22 ar    
   46   21   43 1     
   47   22   23 1     
   48   23   44 1     
   49   23   45 1     
   50   23   46 1     
   51   10   49 1     
   52   10   50 1     
   53   19   51 1     
@<TRIPOS>SUBSTRUCTURE
      1 S1             1
@<TRIPOS>SET
LONE_PAIRS      STATIC     ATOMS    <user>   **** ""
3 49 50 51
DONOR_HYDROGENS      STATIC     ATOMS    <user>   **** ""
4 48 32 35 47
ATOM$BLUE        STATIC     ATOMS    COLORGROUP SYSTEM
3 49 50 51
ATOM$RED        STATIC     ATOMS    COLORGROUP SYSTEM
4 48 32 35 47
