AV-unprocessed.smi:494|AV-procd|sdf|2713|dock3
  -GOLD-   2262023153D 1   1.00000     0.00000
 Structure written by MMmdl.
 49 50  0  0  0  0  0  0  0  0  2 V2000
  150.2739  134.9872  156.8914 C   0  0  0  0  0  0  0  0  0  0  0  0
  150.4804  133.5255  156.6154 C   0  0  0  0  0  0  0  0  0  0  0  0
  150.9346  132.7422  157.5789 N   0  0  0  0  0  0  0  0  0  0  0  0
  151.0196  131.4615  157.0245 O   0  0  0  0  0  0  0  0  0  0  0  0
  150.6054  131.5241  155.7338 C   0  0  0  0  0  0  0  0  0  0  0  0
  150.6268  130.2487  154.9604 C   0  0  0  0  0  0  0  0  0  0  0  0
  150.2499  132.8044  155.4080 C   0  0  0  0  0  0  0  0  0  0  0  0
  149.7391  133.3336  154.0919 C   0  0  0  0  0  0  0  0  0  0  0  0
  148.3086  132.8493  153.8533 C   0  0  0  0  0  0  0  0  0  0  0  0
  147.9573  131.7423  154.2584 O   0  0  0  0  0  0  0  0  0  0  0  0
  147.4986  133.6845  153.1842 N   0  0  0  0  0  0  0  0  0  0  0  0
  146.0900  133.4538  152.8668 C   0  0  0  0  0  0  0  0  0  0  0  0
  145.6097  134.2129  151.5877 C   0  0  0  0  0  0  0  0  0  0  0  0
  146.0941  135.6423  151.6786 N   0  3  0  0  0  0  0  0  0  0  0  0
  145.7692  136.3775  152.9277 C   0  0  0  0  0  0  0  0  0  0  0  0
  145.7968  136.4923  150.4955 C   0  0  0  0  0  0  0  0  0  0  0  0
  146.1747  133.5165  150.3120 C   0  0  0  0  0  0  0  0  0  0  0  0
  145.6100  132.1033  150.0640 C   0  0  0  0  0  0  0  0  0  0  0  0
  144.0760  132.0957  150.0313 C   0  0  0  0  0  0  0  0  0  0  0  0
  143.4889  132.7282  151.2996 C   0  0  0  0  0  0  0  0  0  0  0  0
  144.0472  134.1473  151.5080 C   0  0  0  0  0  0  0  0  0  0  0  0
  149.3218  135.1578  157.3941 H   0  0  0  0  0  0  0  0  0  0  0  0
  150.2714  135.5688  155.9697 H   0  0  0  0  0  0  0  0  0  0  0  0
  151.0642  135.3870  157.5275 H   0  0  0  0  0  0  0  0  0  0  0  0
  151.4841  130.2204  154.2880 H   0  0  0  0  0  0  0  0  0  0  0  0
  149.7225  130.1441  154.3607 H   0  0  0  0  0  0  0  0  0  0  0  0
  150.6900  129.3869  155.6251 H   0  0  0  0  0  0  0  0  0  0  0  0
  149.7496  134.4239  154.0683 H   0  0  0  0  0  0  0  0  0  0  0  0
  150.3708  133.0091  153.2641 H   0  0  0  0  0  0  0  0  0  0  0  0
  147.8832  134.5733  152.8981 H   0  0  0  0  0  0  0  0  0  0  0  0
  145.8908  132.3847  152.7962 H   0  0  0  0  0  0  0  0  0  0  0  0
  145.5282  133.7660  153.7445 H   0  0  0  0  0  0  0  0  0  0  0  0
  144.6949  136.3910  153.1144 H   0  0  0  0  0  0  0  0  0  0  0  0
  146.1075  137.4123  152.8659 H   0  0  0  0  0  0  0  0  0  0  0  0
  146.2752  135.9471  153.7916 H   0  0  0  0  0  0  0  0  0  0  0  0
  144.7437  136.7736  150.4621 H   0  0  0  0  0  0  0  0  0  0  0  0
  146.0500  136.0091  149.5538 H   0  0  0  0  0  0  0  0  0  0  0  0
  146.3799  137.4124  150.5409 H   0  0  0  0  0  0  0  0  0  0  0  0
  145.9575  134.1285  149.4357 H   0  0  0  0  0  0  0  0  0  0  0  0
  147.2608  133.4374  150.3630 H   0  0  0  0  0  0  0  0  0  0  0  0
  145.9952  131.7182  149.1194 H   0  0  0  0  0  0  0  0  0  0  0  0
  145.9649  131.4141  150.8301 H   0  0  0  0  0  0  0  0  0  0  0  0
  143.7290  132.6460  149.1558 H   0  0  0  0  0  0  0  0  0  0  0  0
  143.7094  131.0748  149.9185 H   0  0  0  0  0  0  0  0  0  0  0  0
  142.4029  132.7736  151.2118 H   0  0  0  0  0  0  0  0  0  0  0  0
  143.6893  132.0978  152.1654 H   0  0  0  0  0  0  0  0  0  0  0  0
  143.5916  134.5950  152.3918 H   0  0  0  0  0  0  0  0  0  0  0  0
  143.6832  134.7249  150.6588 H   0  0  0  0  0  0  0  0  0  0  0  0
  147.1010  135.5616  151.6903 H   0  0  0  0  0  0  0  0  0  0  0  0
  1  2  1  0  0  0  0
  1 22  1  0  0  0  0
  1 23  1  0  0  0  0
  1 24  1  0  0  0  0
  2  7  1  0  0  0  0
  2  3  2  0  0  0  0
  3  4  1  0  0  0  0
  4  5  1  0  0  0  0
  5  6  1  0  0  0  0
  5  7  2  0  0  0  0
  6 25  1  0  0  0  0
  6 26  1  0  0  0  0
  6 27  1  0  0  0  0
  7  8  1  0  0  0  0
  8  9  1  0  0  0  0
  8 28  1  0  0  0  0
  8 29  1  0  0  0  0
  9 10  2  0  0  0  0
  9 11  1  0  0  0  0
 11 12  1  0  0  0  0
 11 30  1  0  0  0  0
 12 13  1  0  0  0  0
 12 31  1  0  0  0  0
 12 32  1  0  0  0  0
 13 21  1  0  0  0  0
 13 14  1  0  0  0  0
 13 17  1  0  0  0  0
 14 15  1  0  0  0  0
 14 16  1  0  0  0  0
 14 49  1  0  0  0  0
 15 33  1  0  0  0  0
 15 34  1  0  0  0  0
 15 35  1  0  0  0  0
 16 36  1  0  0  0  0
 16 37  1  0  0  0  0
 16 38  1  0  0  0  0
 17 18  1  0  0  0  0
 17 39  1  0  0  0  0
 17 40  1  0  0  0  0
 18 19  1  0  0  0  0
 18 41  1  0  0  0  0
 18 42  1  0  0  0  0
 19 20  1  0  0  0  0
 19 43  1  0  0  0  0
 19 44  1  0  0  0  0
 20 21  1  0  0  0  0
 20 45  1  0  0  0  0
 20 46  1  0  0  0  0
 21 47  1  0  0  0  0
 21 48  1  0  0  0  0
M  CHG  1  14   1
M  END
> <s_m_source_file>
AV-unprocessed.smi

> <i_m_source_file_index>
494

> <i_lp_mmshare_version>
43012

> <i_f3d_flags>
0

> <s_epik_input>
W0NIM11jMW5vYyhbQ0gzXSljMVtDSDJdQyg9TylbTkhdW0NIMl1DMihOKFtDSDNdKVtDSDNdKVtDSDJdW0NIMl1bQ0gyXVtDSDJdW0NIMl0y

> <s_epik_cmdline>
J2VwaWtfcHl0aG9uJywgJy1waCcsICc3LjAnLCAnLXRuJywgJzgnLCAnLW1hJywgJzIwMCcsICctbWV0YWxfYmluZGluZycsICctaW1hZScsICc8aW5maWxlLm1hZT4nLCAnLW9tYWUnLCAnPG91dGZpbGUubWFlPic=

> <r_epik_Ionization_Penalty>
0.00230711

> <r_epik_Ionization_Penalty_Charging>
0.00230702

> <r_epik_Ionization_Penalty_Neutral>
8.72116e-08

> <r_epik_State_Penalty>
0.00159123

> <r_epik_Charging_Adjusted_Penalty>
0.00389825

> <i_epik_Tot_Q>
1

> <i_epik_Tot_abs_Q>
1

> <r_epik_Metal_State_Penalty>
-0

> <b_epik_Metal_Only>
0

> <s_lp_Force_Field>
OPLS_2005

> <r_lp_Energy>
28.1912

> <b_lp_Chiralities_Consistent>
1

> <s_lp_Variant>
AV-unprocessed.smi:494-1

> <Gold.Version>
5.8.1

> <Gold.Id.Protein>
6NUR|6NUR_protein|mol2

> <Gold.PLP.Fitness>
44.7746

> <Gold.PLP.PLP>
-35.4755

> <Gold.PLP.part.hbond>
-2.5081

> <Gold.PLP.part.metal>
0.0000

> <Gold.PLP.part.buried>
-2.4031

> <Gold.PLP.part.nonpolar>
-29.7211

> <Gold.PLP.part.repulsive>
0.1020

> <Gold.PLP.ligand.clash>
0.0000

> <Gold.PLP.ligand.torsion>
0.8503

> <Gold.PLP.Chemscore.Hbond>
3.6175

> <Gold.PLP.Chemscore.CHOScore>
0.0000

> <Gold.PLP.Chemscore.Metal>
0.0000

> <Gold.Chemscore.Hbonds>
donor molecule, donor type, donor heavy atom, donor atom, acceptor molecule, acceptor atom, score
      L1  H    11    30       P1  7948  0.59
      L1  H    14    49       P1  7948  2.00
      P1  H  6896  6909       L1     3  0.98

> <Gold.PLP.Chemscore.Internal.Correction>
0.1472

> <Gold.Rescore>
     Score         DG    S(hbond)    S(metal)    S(lipo)     H(rot)  DE(clash)    DE(int)     intcor
     18.18     -20.51       2.46        0.00      95.00       1.68       0.82       1.51       ----

> <Gold.Chemscore.Fitness>
18.1824

> <Gold.Chemscore.DG>
-20.5139

> <Gold.Chemscore.ZeroCoef>
-5.4800

> <Gold.Chemscore.Hbond>
2.4574

> <Gold.Chemscore.Metal>
0.0000

> <Gold.Chemscore.Lipo>
94.9977

> <Gold.Chemscore.Internal_Hbond>
0.0000

> <Gold.Chemscore.DEClash>
0.8235

> <Gold.Chemscore.DEInternal>
1.5080

> <Gold.Chemscore.Rot>
1.6752

> <Gold.Chemscore.Internal.Correction>
   9.000000E+99

> <Gold.Chemscore.Hbonds>
donor molecule, donor type, donor heavy atom, donor atom, acceptor molecule, acceptor atom, score
      L1  H    11    30       P1  7948  0.46
      L1  H    14    49       P1  7948  0.98
      P1  H  6896  6909       L1     3  0.93

> <Gold.Chemscore.Hbond.Weighted>
-8.2076

> <Gold.Chemscore.Metal.Weighted>
-0.0000

> <Gold.Chemscore.Lipo.Weighted>
-11.1147

> <Gold.Chemscore.Internal_Hbond.Weighted>
0.0000

> <Gold.Chemscore.DEClash.Weighted>
0.8235

> <Gold.Chemscore.DEInternal.Weighted>
1.5080

> <Gold.Chemscore.Rot.Weighted>
4.2884

> <Gold.Chemscore.Internal.Correction.Weighted>
   9.000000E+99

> <Gold.Protein.RotatedTorsions>
[ 6907 6896 6895 6894 ] final  -49.40 input  -60.11 | X-H torsion
[ 7974 7965 7964 7962 ] final  -25.72 input  175.53 | X-H torsion
[ 8008 7997 7996 7995 ] final -138.38 input   59.86 | X-H torsion
[ 10167 10162 10161 10158 ] final    0.14 input  -65.29 | X-H torsion
[ 10718 10713 10712 10709 ] final -100.91 input   66.30 | X-H torsion
[ 10763 10752 10751 10750 ] final -145.09 input  -60.55 | X-H torsion
[ 11005 11000 10999 10996 ] final  111.07 input  -57.11 | X-H torsion

> <Gold.Protein.ActiveResidues>
 VAL166  LYS551  ARG553  GLY616  TRP617  ASP618  TYR619  PRO620  LYS621  CYS622 
 ASP623  PHE694  ASN695  SER759  ASP760  ASP761  ALA762  ILE779  LEU786  VAL792 
 PHE793  MET794  SER795  GLU796  ALA797  LYS798  CYS799  TRP800  GLU811  SER814 

> <Gold.Protein.RotatedAtoms>
  150.8809  134.8200  159.7224 H   0  0  0  0  0  0  0  0  0  0  0  0  # atno 6907 bound_to 6896
  152.4777  134.4797  159.9671 H   0  0  0  0  0  0  0  0  0  0  0  0  # atno 6908 bound_to 6896
  151.4872  133.3494  159.2883 H   0  0  0  0  0  0  0  0  0  0  0  0  # atno 6909 bound_to 6896
  146.1472  140.4924  142.8626 H   0  0  0  0  0  0  0  0  0  0  0  0  # atno 7974 bound_to 7965
  155.4274  140.0523  157.3021 H   0  0  0  0  0  0  0  0  0  0  0  0  # atno 8008 bound_to 7997
  154.4875  140.2107  155.9581 H   0  0  0  0  0  0  0  0  0  0  0  0  # atno 8009 bound_to 7997
  156.1295  140.3174  155.8333 H   0  0  0  0  0  0  0  0  0  0  0  0  # atno 8010 bound_to 7997
  140.6742  143.6964  150.7987 H   0  0  0  0  0  0  0  0  0  0  0  0  # atno 10167 bound_to 10162
  156.0178  130.5349  150.6887 H   0  0  0  0  0  0  0  0  0  0  0  0  # atno 10718 bound_to 10713
  154.8399  135.3422  154.6449 H   0  0  0  0  0  0  0  0  0  0  0  0  # atno 10763 bound_to 10752
  153.7060  135.6967  153.5054 H   0  0  0  0  0  0  0  0  0  0  0  0  # atno 10764 bound_to 10752
  153.2487  135.4360  155.0728 H   0  0  0  0  0  0  0  0  0  0  0  0  # atno 10765 bound_to 10752
  139.8895  134.9499  156.6376 H   0  0  0  0  0  0  0  0  0  0  0  0  # atno 11005 bound_to 11000
  144.7861  140.5939  143.6573 LP  0  0  0  0  0  0  0  0  0  0  0  0  # atno 17320 bound_to 7965
  145.4908  139.1489  143.3710 LP  0  0  0  0  0  0  0  0  0  0  0  0  # atno 17321 bound_to 7965
  140.0654  143.5113  152.2607 LP  0  0  0  0  0  0  0  0  0  0  0  0  # atno 17342 bound_to 10162
  139.6025  144.7587  151.3138 LP  0  0  0  0  0  0  0  0  0  0  0  0  # atno 17343 bound_to 10162
  157.4573  131.0879  151.0783 LP  0  0  0  0  0  0  0  0  0  0  0  0  # atno 17370 bound_to 10713
  157.1281  130.6090  149.5522 LP  0  0  0  0  0  0  0  0  0  0  0  0  # atno 17371 bound_to 10713
  140.7618  133.8811  155.8424 LP  0  0  0  0  0  0  0  0  0  0  0  0  # atno 17394 bound_to 11000
  140.9915  134.1272  157.4403 LP  0  0  0  0  0  0  0  0  0  0  0  0  # atno 17395 bound_to 11000

$$$$
