#       Name:                AV-unprocessed.smi:1829
#       Creating user name   scv26
#       Creation time:       Fri Mar 27 09:11:14 2020


#       File generated by GOLD software.
#

@<TRIPOS>MOLECULE
AV-unprocessed.smi:1829
    50    52     1
SMALL
NO_CHARGES


@<TRIPOS>ATOM
      1 ****        -4.9950   1.4698  -3.2012 C.3            1 S1                 0.0000
      2 ****        -4.8176   1.1078  -1.7181 C.3            1 S1                 0.0000
      3 ****        -5.3078   2.2362  -0.7971 C.3            1 S1                 0.0000
      4 ****        -3.3809   0.7111  -1.4018 C.ar           1 S1                 0.0000
      5 ****        -3.0941  -0.5864  -0.9263 C.ar           1 S1                 0.0000
      6 ****        -1.7691  -0.9585  -0.6267 C.ar           1 S1                 0.0000
      7 ****        -0.7142  -0.0386  -0.8017 C.ar           1 S1                 0.0000
      8 ****         0.7124  -0.4437  -0.4659 C.3            1 S1                 0.0000
      9 ****         1.6260  -0.0696  -1.4789 O.3            1 S1                 0.0000
     10 ****         1.1560   0.1437   0.8887 C.3            1 S1                 0.0000
     11 ****         2.4863  -0.3002   1.2842 N.pl3          1 S1                 0.0000
     12 ****         3.6579   0.3828   1.2247 C.2            1 S1                 0.0000
     13 ****         3.7186   1.7904   0.7019 C.3            1 S1                 0.0000
     14 ****         5.0300   2.3054   0.5849 O.3            1 S1                 0.0000
     15 ****         4.7322  -0.2783   1.6637 N.2            1 S1                 0.0000
     16 ****         4.2091  -1.4995   2.0398 C.ar           1 S1                 0.0000
     17 ****         4.8394  -2.6415   2.5841 C.ar           1 S1                 0.0000
     18 ****         4.0857  -3.7923   2.8957 C.ar           1 S1                 0.0000
     19 ****         2.6944  -3.8178   2.6682 C.ar           1 S1                 0.0000
     20 ****         2.0470  -2.6906   2.1266 C.ar           1 S1                 0.0000
     21 ****         2.8043  -1.5450   1.8170 C.ar           1 S1                 0.0000
     22 ****        -0.9999   1.2605  -1.2746 C.ar           1 S1                 0.0000
     23 ****        -2.3246   1.6323  -1.5735 C.ar           1 S1                 0.0000
     24 ****        -4.6889   0.6449  -3.8454 H              1 S1                 0.0000
     25 ****        -4.4052   2.3447  -3.4763 H              1 S1                 0.0000
     26 ****        -6.0383   1.6929  -3.4265 H              1 S1                 0.0000
     27 ****        -5.4499   0.2403  -1.5240 H              1 S1                 0.0000
     28 ****        -5.2299   1.9471   0.2515 H              1 S1                 0.0000
     29 ****        -6.3528   2.4764  -0.9951 H              1 S1                 0.0000
     30 ****        -4.7283   3.1495  -0.9348 H              1 S1                 0.0000
     31 ****        -3.8896  -1.3036  -0.7861 H              1 S1                 0.0000
     32 ****        -1.5674  -1.9541  -0.2591 H              1 S1                 0.0000
     33 ****         0.7499  -1.5322  -0.4049 H              1 S1                 0.0000
     34 ****         1.3916  -0.5220  -2.2747 H              1 S1                 0.0000
     35 ****         1.1221   1.2328   0.8660 H              1 S1                 0.0000
     36 ****         0.4577  -0.1619   1.6690 H              1 S1                 0.0000
     37 ****         3.2471   1.8318  -0.2799 H              1 S1                 0.0000
     38 ****         3.1494   2.4403   1.3669 H              1 S1                 0.0000
     39 ****         4.9777   3.1853   0.2448 H              1 S1                 0.0000
     40 ****         5.9045  -2.6315   2.7621 H              1 S1                 0.0000
     41 ****         4.5777  -4.6594   3.3113 H              1 S1                 0.0000
     42 ****         2.1246  -4.7032   2.9095 H              1 S1                 0.0000
     43 ****         0.9816  -2.7061   1.9507 H              1 S1                 0.0000
     44 ****        -0.2034   1.9782  -1.4061 H              1 S1                 0.0000
     45 ****        -2.5258   2.6306  -1.9338 H              1 S1                 0.0000
     46 ****         2.5542  -0.3237  -1.2070 LP             1 S1                 0.0000
     47 ****         1.5806   0.9185  -1.6263 LP             1 S1                 0.0000
     48 ****         5.5624   1.7337  -0.0393 LP             1 S1                 0.0000
     49 ****         5.4693   2.3166   1.4832 LP             1 S1                 0.0000
     50 ****         5.6811   0.0341   1.7089 LP             1 S1                 0.0000
@<TRIPOS>BOND
    1    1    2 1     
    2    1   24 1     
    3    1   25 1     
    4    1   26 1     
    5    2    3 1     
    6    2    4 1     
    7    2   27 1     
    8    3   28 1     
    9    3   29 1     
   10    3   30 1     
   11    4   23 ar    
   12    4    5 ar    
   13    5    6 ar    
   14    5   31 1     
   15    6    7 ar    
   16    6   32 1     
   17    7    8 1     
   18    7   22 ar    
   19    8    9 1     
   20    8   10 1     
   21    8   33 1     
   22    9   34 1     
   23   10   11 1     
   24   10   35 1     
   25   10   36 1     
   26   11   21 1     
   27   11   12 1     
   28   12   13 1     
   29   12   15 2     
   30   13   14 1     
   31   13   37 1     
   32   13   38 1     
   33   14   39 1     
   34   15   16 1     
   35   16   21 ar    
   36   16   17 ar    
   37   17   18 ar    
   38   17   40 1     
   39   18   19 ar    
   40   18   41 1     
   41   19   20 ar    
   42   19   42 1     
   43   20   21 ar    
   44   20   43 1     
   45   22   23 ar    
   46   22   44 1     
   47   23   45 1     
   48    9   46 1     
   49    9   47 1     
   50   14   48 1     
   51   14   49 1     
   52   15   50 1     
@<TRIPOS>SUBSTRUCTURE
      1 S1             1
@<TRIPOS>SET
LONE_PAIRS      STATIC     ATOMS    <user>   **** ""
5 46 47 48 49 50
DONOR_HYDROGENS      STATIC     ATOMS    <user>   **** ""
2 34 39
ATOM$BLUE        STATIC     ATOMS    COLORGROUP SYSTEM
5 46 47 48 49 50
ATOM$RED        STATIC     ATOMS    COLORGROUP SYSTEM
2 34 39
