AV-unprocessed.smi:1471|AV-procd|sdf|5962|dock2
  -GOLD-   22720 6 43D 1   1.00000     0.00000
 Structure written by MMmdl.
 42 43  0  0  0  0  0  0  0  0  1 V2000
  151.1439  143.2047  157.7281 C   0  0  0  0  0  0  0  0  0  0  0  0
  151.8763  142.0990  158.4385 C   0  0  0  0  0  0  0  0  0  0  0  0
  151.8366  140.9299  157.8895 N   0  0  0  0  0  0  0  0  0  0  0  0
  152.5024  139.8491  158.4377 N   0  0  0  0  0  0  0  0  0  0  0  0
  152.3830  138.6063  157.6543 C   0  0  0  0  0  0  0  0  0  0  0  0
  151.8055  137.4152  158.4561 C   0  0  2  0  0  0  0  0  0  0  0  0
  151.6681  136.2882  157.6160 O   0  0  0  0  0  0  0  0  0  0  0  0
  150.4611  137.6834  159.1564 C   0  0  0  0  0  0  0  0  0  0  0  0
  149.7506  136.4694  159.3572 O   0  0  0  0  0  0  0  0  0  0  0  0
  148.4453  136.6535  159.8875 C   0  0  0  0  0  0  0  0  0  0  0  0
  147.8800  135.3894  160.5159 C   0  0  0  0  0  0  0  0  0  0  0  0
  147.7245  134.2201  159.7408 C   0  0  0  0  0  0  0  0  0  0  0  0
  147.2090  133.0455  160.3218 C   0  0  0  0  0  0  0  0  0  0  0  0
  146.8327  133.0376  161.6782 C   0  0  0  0  0  0  0  0  0  0  0  0
  146.9748  134.2045  162.4527 C   0  0  0  0  0  0  0  0  0  0  0  0
  147.5036  135.3762  161.8770 C   0  0  0  0  0  0  0  0  0  0  0  0
  147.6526  136.4859  162.6395 F   0  0  0  0  0  0  0  0  0  0  0  0
  153.2006  139.8884  159.6103 C   0  0  0  0  0  0  0  0  0  0  0  0
  153.7603  138.9018  160.0900 O   0  0  0  0  0  0  0  0  0  0  0  0
  153.2234  141.2115  160.2378 C   0  0  0  0  0  0  0  0  0  0  0  0
  153.9464  141.2951  161.4658 C   0  0  0  0  0  0  0  0  0  0  0  0
  154.5521  141.3666  162.4499 N   0  0  0  0  0  0  0  0  0  0  0  0
  152.6064  142.2859  159.6866 C   0  0  0  0  0  0  0  0  0  0  0  0
  152.6181  143.6839  160.2892 C   0  0  0  0  0  0  0  0  0  0  0  0
  150.3262  143.5832  158.3415 H   0  0  0  0  0  0  0  0  0  0  0  0
  150.7182  142.8680  156.7814 H   0  0  0  0  0  0  0  0  0  0  0  0
  151.8153  144.0346  157.5077 H   0  0  0  0  0  0  0  0  0  0  0  0
  151.7633  138.7477  156.7677 H   0  0  0  0  0  0  0  0  0  0  0  0
  153.3723  138.3449  157.2759 H   0  0  0  0  0  0  0  0  0  0  0  0
  152.5259  137.1256  159.2219 H   0  0  0  0  0  0  0  0  0  0  0  0
  150.8174  135.9055  157.7684 H   0  0  0  0  0  0  0  0  0  0  0  0
  150.6131  138.2004  160.1055 H   0  0  0  0  0  0  0  0  0  0  0  0
  149.8726  138.3526  158.5295 H   0  0  0  0  0  0  0  0  0  0  0  0
  148.5028  137.4259  160.6546 H   0  0  0  0  0  0  0  0  0  0  0  0
  147.7651  137.0399  159.1264 H   0  0  0  0  0  0  0  0  0  0  0  0
  148.0076  134.2192  158.6985 H   0  0  0  0  0  0  0  0  0  0  0  0
  147.0992  132.1511  159.7265 H   0  0  0  0  0  0  0  0  0  0  0  0
  146.4358  132.1378  162.1246 H   0  0  0  0  0  0  0  0  0  0  0  0
  146.6878  134.1982  163.4939 H   0  0  0  0  0  0  0  0  0  0  0  0
  153.1550  143.7210  161.2365 H   0  0  0  0  0  0  0  0  0  0  0  0
  151.6012  144.0309  160.4754 H   0  0  0  0  0  0  0  0  0  0  0  0
  153.1037  144.3860  159.6106 H   0  0  0  0  0  0  0  0  0  0  0  0
  1  2  1  0  0  0  0
  1 25  1  0  0  0  0
  1 26  1  0  0  0  0
  1 27  1  0  0  0  0
  2 23  1  0  0  0  0
  2  3  2  0  0  0  0
  3  4  1  0  0  0  0
  4  5  1  0  0  0  0
  4 18  1  0  0  0  0
  5  6  1  0  0  0  0
  5 28  1  0  0  0  0
  5 29  1  0  0  0  0
  6  7  1  0  0  0  0
  6  8  1  0  0  0  0
  6 30  1  0  0  0  0
  7 31  1  0  0  0  0
  8  9  1  0  0  0  0
  8 32  1  0  0  0  0
  8 33  1  0  0  0  0
  9 10  1  0  0  0  0
 10 11  1  0  0  0  0
 10 34  1  0  0  0  0
 10 35  1  0  0  0  0
 11 16  1  0  0  0  0
 11 12  2  0  0  0  0
 12 13  1  0  0  0  0
 12 36  1  0  0  0  0
 13 14  2  0  0  0  0
 13 37  1  0  0  0  0
 14 15  1  0  0  0  0
 14 38  1  0  0  0  0
 15 16  2  0  0  0  0
 15 39  1  0  0  0  0
 16 17  1  0  0  0  0
 18 19  2  0  0  0  0
 18 20  1  0  0  0  0
 20 21  1  0  0  0  0
 20 23  2  0  0  0  0
 21 22  3  0  0  0  0
 23 24  1  0  0  0  0
 24 40  1  0  0  0  0
 24 41  1  0  0  0  0
 24 42  1  0  0  0  0
M  END
> <s_m_source_file>
AV-unprocessed.smi

> <i_m_source_file_index>
1471

> <i_lp_mmshare_version>
43012

> <i_f3d_flags>
0

> <s_epik_input>
TiNDYyhjMVtDSDNdKWMoPU8pbihuYzFbQ0gzXSlbQ0gyXVtDQEhdKFtPSF0pW0NIMl1PW0NIMl1jMltjSF1bY0hdW2NIXVtjSF1jMkY=

> <s_epik_cmdline>
J2VwaWtfcHl0aG9uJywgJy1waCcsICc3LjAnLCAnLXRuJywgJzgnLCAnLW1hJywgJzIwMCcsICctbWV0YWxfYmluZGluZycsICctaW1hZScsICc8aW5maWxlLm1hZT4nLCAnLW9tYWUnLCAnPG91dGZpbGUubWFlPic=

> <r_lp_tautomer_probability>
1

> <r_epik_Ionization_Penalty>
6.13319e-08

> <r_epik_Ionization_Penalty_Charging>
2.19172e-10

> <r_epik_Ionization_Penalty_Neutral>
6.11128e-08

> <r_epik_State_Penalty>
-0

> <r_epik_Charging_Adjusted_Penalty>
2.19172e-10

> <i_epik_Tot_Q>
0

> <i_epik_Tot_abs_Q>
0

> <r_epik_Metal_State_Penalty>
-0

> <b_epik_Metal_Only>
0

> <s_lp_Force_Field>
OPLS_2005

> <r_lp_Energy>
27.5477

> <b_lp_Chiralities_Consistent>
1

> <s_lp_Variant>
AV-unprocessed.smi:1471-1

> <Gold.Version>
5.8.1

> <Gold.Id.Protein>
6NUR|6NUR_protein|mol2

> <Gold.PLP.Fitness>
54.4901

> <Gold.PLP.PLP>
-52.1710

> <Gold.PLP.part.hbond>
-2.9703

> <Gold.PLP.part.metal>
0.0000

> <Gold.PLP.part.buried>
-5.3758

> <Gold.PLP.part.nonpolar>
-44.0042

> <Gold.PLP.part.repulsive>
0.0000

> <Gold.PLP.ligand.clash>
0.0000

> <Gold.PLP.ligand.torsion>
0.4407

> <Gold.PLP.Chemscore.Hbond>
1.0000

> <Gold.PLP.Chemscore.CHOScore>
0.0000

> <Gold.PLP.Chemscore.Metal>
0.0000

> <Gold.Chemscore.Hbonds>
donor molecule, donor type, donor heavy atom, donor atom, acceptor molecule, acceptor atom, score
      P1  H  6896  6908       L1     9  1.00

> <Gold.PLP.Chemscore.Internal.Correction>
0.2005

> <Gold.Rescore>
     Score         DG    S(hbond)    S(metal)    S(lipo)     H(rot)  DE(clash)    DE(int)     intcor
     13.39     -15.61       0.98        0.00     116.49       2.65       0.39       1.84       ----

> <Gold.Chemscore.Fitness>
13.3871

> <Gold.Chemscore.DG>
-15.6134

> <Gold.Chemscore.ZeroCoef>
-5.4800

> <Gold.Chemscore.Hbond>
0.9820

> <Gold.Chemscore.Metal>
0.0000

> <Gold.Chemscore.Lipo>
116.4932

> <Gold.Chemscore.Internal_Hbond>
0.0000

> <Gold.Chemscore.DEClash>
0.3886

> <Gold.Chemscore.DEInternal>
1.8378

> <Gold.Chemscore.Rot>
2.6470

> <Gold.Chemscore.Internal.Correction>
   9.000000E+99

> <Gold.Chemscore.Hbonds>
donor molecule, donor type, donor heavy atom, donor atom, acceptor molecule, acceptor atom, score
      P1  H  6896  6908       L1     9  0.91

> <Gold.Chemscore.Hbond.Weighted>
-3.2799

> <Gold.Chemscore.Metal.Weighted>
-0.0000

> <Gold.Chemscore.Lipo.Weighted>
-13.6297

> <Gold.Chemscore.Internal_Hbond.Weighted>
0.0000

> <Gold.Chemscore.DEClash.Weighted>
0.3886

> <Gold.Chemscore.DEInternal.Weighted>
1.8378

> <Gold.Chemscore.Rot.Weighted>
6.7762

> <Gold.Chemscore.Internal.Correction.Weighted>
   9.000000E+99

> <Gold.Protein.RotatedTorsions>
[ 6907 6896 6895 6894 ] final -169.33 input  -60.11 | X-H torsion
[ 7974 7965 7964 7962 ] final -127.45 input  175.53 | X-H torsion
[ 8008 7997 7996 7995 ] final   95.19 input   59.86 | X-H torsion
[ 10167 10162 10161 10158 ] final  -90.12 input  -65.29 | X-H torsion
[ 10718 10713 10712 10709 ] final  -12.76 input   66.30 | X-H torsion
[ 10763 10752 10751 10750 ] final   20.95 input  -60.55 | X-H torsion
[ 11005 11000 10999 10996 ] final  154.05 input  -57.11 | X-H torsion

> <Gold.Protein.ActiveResidues>
 VAL166  LYS551  ARG553  GLY616  TRP617  ASP618  TYR619  PRO620  LYS621  CYS622 
 ASP623  PHE694  ASN695  SER759  ASP760  ASP761  ALA762  ILE779  LEU786  VAL792 
 PHE793  MET794  SER795  GLU796  ALA797  LYS798  CYS799  TRP800  GLU811  SER814 

> <Gold.Protein.RotatedAtoms>
  151.4899  133.3527  159.2851 H   0  0  0  0  0  0  0  0  0  0  0  0  # atno 6907 bound_to 6896
  150.8841  134.8238  159.7257 H   0  0  0  0  0  0  0  0  0  0  0  0  # atno 6908 bound_to 6896
  152.4782  134.4801  159.9714 H   0  0  0  0  0  0  0  0  0  0  0  0  # atno 6909 bound_to 6896
  144.9770  140.7602  143.4636 H   0  0  0  0  0  0  0  0  0  0  0  0  # atno 7974 bound_to 7965
  156.0662  140.3289  155.7521 H   0  0  0  0  0  0  0  0  0  0  0  0  # atno 8008 bound_to 7997
  155.5377  140.0599  157.2894 H   0  0  0  0  0  0  0  0  0  0  0  0  # atno 8009 bound_to 7997
  154.4506  140.1916  156.0548 H   0  0  0  0  0  0  0  0  0  0  0  0  # atno 8010 bound_to 7997
  140.3580  143.2856  151.9648 H   0  0  0  0  0  0  0  0  0  0  0  0  # atno 10167 bound_to 10162
  156.6400  130.4925  149.6098 H   0  0  0  0  0  0  0  0  0  0  0  0  # atno 10718 bound_to 10713
  153.1035  135.6678  153.9629 H   0  0  0  0  0  0  0  0  0  0  0  0  # atno 10763 bound_to 10752
  153.9193  135.3016  155.3449 H   0  0  0  0  0  0  0  0  0  0  0  0  # atno 10764 bound_to 10752
  154.7456  135.5059  153.9274 H   0  0  0  0  0  0  0  0  0  0  0  0  # atno 10765 bound_to 10752
  140.1454  134.8711  157.2385 H   0  0  0  0  0  0  0  0  0  0  0  0  # atno 11005 bound_to 11000
  145.2476  139.2045  143.4959 LP  0  0  0  0  0  0  0  0  0  0  0  0  # atno 17320 bound_to 7965
  146.3398  140.2383  142.8595 LP  0  0  0  0  0  0  0  0  0  0  0  0  # atno 17321 bound_to 7965
  139.4817  144.6017  151.7593 LP  0  0  0  0  0  0  0  0  0  0  0  0  # atno 17342 bound_to 10162
  140.5154  144.0961  150.6007 LP  0  0  0  0  0  0  0  0  0  0  0  0  # atno 17343 bound_to 10162
  156.2166  130.6711  151.1325 LP  0  0  0  0  0  0  0  0  0  0  0  0  # atno 17370 bound_to 10713
  157.7174  131.0702  150.6274 LP  0  0  0  0  0  0  0  0  0  0  0  0  # atno 17371 bound_to 10713
  140.2671  134.3504  155.7386 LP  0  0  0  0  0  0  0  0  0  0  0  0  # atno 17394 bound_to 11000
  141.2192  133.7402  156.9167 LP  0  0  0  0  0  0  0  0  0  0  0  0  # atno 17395 bound_to 11000

$$$$
