AV-unprocessed.smi:35|AV-procd|sdf|275|dock2
  -GOLD-   2262016 43D 1   1.00000     0.00000
 Structure written by MMmdl.
 28 29  0  0  0  0  0  0  0  0  2 V2000
  152.8876  141.0131  158.7830 O   0  0  0  0  0  0  0  0  0  0  0  0
  152.1473  140.9882  157.8014 C   0  0  0  0  0  0  0  0  0  0  0  0
  152.3217  140.1186  156.7644 N   0  5  0  0  0  0  0  0  0  0  0  0
  151.4970  140.0951  155.6763 C   0  0  0  0  0  0  0  0  0  0  0  0
  151.6354  139.3039  154.7431 O   0  0  0  0  0  0  0  0  0  0  0  0
  150.4145  141.0148  155.6115 N   0  0  0  0  0  0  0  0  0  0  0  0
  149.5057  140.9889  154.3959 C   0  0  2  0  0  0  0  0  0  0  0  0
  148.5704  142.0266  154.4851 O   0  0  0  0  0  0  0  0  0  0  0  0
  147.2786  141.5002  154.7756 C   0  0  1  0  0  0  0  0  0  0  0  0
  146.1968  142.4839  154.3042 C   0  0  0  0  0  0  0  0  0  0  0  0
  144.9182  142.0149  154.6758 O   0  0  0  0  0  0  0  0  0  0  0  0
  147.3018  140.1902  153.9896 C   0  0  2  0  0  0  0  0  0  0  0  0
  146.2806  139.2884  154.3745 O   0  0  0  0  0  0  0  0  0  0  0  0
  148.7103  139.6683  154.2556 C   0  0  2  0  0  0  0  0  0  0  0  0
  148.7623  138.8446  155.4112 O   0  0  0  0  0  0  0  0  0  0  0  0
  150.2105  141.9072  156.6514 C   0  0  0  0  0  0  0  0  0  0  0  0
  151.0268  141.9220  157.7245 C   0  0  0  0  0  0  0  0  0  0  0  0
  150.6158  143.2500  159.1369 Br  0  0  0  0  0  0  0  0  0  0  0  0
  150.1511  141.2005  153.5417 H   0  0  0  0  0  0  0  0  0  0  0  0
  147.1867  141.2888  155.8427 H   0  0  0  0  0  0  0  0  0  0  0  0
  146.3666  143.4839  154.7044 H   0  0  0  0  0  0  0  0  0  0  0  0
  146.2111  142.5639  153.2168 H   0  0  0  0  0  0  0  0  0  0  0  0
  144.6564  141.3419  154.0662 H   0  0  0  0  0  0  0  0  0  0  0  0
  147.1983  140.4040  152.9246 H   0  0  0  0  0  0  0  0  0  0  0  0
  145.4952  139.5066  153.8966 H   0  0  0  0  0  0  0  0  0  0  0  0
  149.0942  139.0993  153.4082 H   0  0  0  0  0  0  0  0  0  0  0  0
  148.2692  139.2678  156.0981 H   0  0  0  0  0  0  0  0  0  0  0  0
  149.3898  142.6069  156.6189 H   0  0  0  0  0  0  0  0  0  0  0  0
  1  2  2  0  0  0  0
  2 17  1  0  0  0  0
  2  3  1  0  0  0  0
  3  4  1  0  0  0  0
  4  5  2  0  0  0  0
  4  6  1  0  0  0  0
  6  7  1  0  0  0  0
  6 16  1  0  0  0  0
  7 14  1  0  0  0  0
  7  8  1  0  0  0  0
  7 19  1  0  0  0  0
  8  9  1  0  0  0  0
  9 10  1  0  0  0  0
  9 12  1  0  0  0  0
  9 20  1  0  0  0  0
 10 11  1  0  0  0  0
 10 21  1  0  0  0  0
 10 22  1  0  0  0  0
 11 23  1  0  0  0  0
 12 13  1  0  0  0  0
 12 14  1  0  0  0  0
 12 24  1  0  0  0  0
 13 25  1  0  0  0  0
 14 15  1  0  0  0  0
 14 26  1  0  0  0  0
 15 27  1  0  0  0  0
 16 17  2  0  0  0  0
 16 28  1  0  0  0  0
 17 18  1  0  0  0  0
M  CHG  1   3  -1
M  END
> <s_m_source_file>
AV-unprocessed.smi

> <i_m_source_file_index>
35

> <i_lp_mmshare_version>
43012

> <i_f3d_flags>
0

> <s_epik_input>
Tz1jMVtuSF1jKD1PKW4oW2NIXWMxQnIpW0NAQEhdMk9bQ0BASF0oW0NIMl1bT0hdKVtDQEBIXShbT0hdKVtDQEhdMltPSF0=

> <s_epik_cmdline>
J2VwaWtfcHl0aG9uJywgJy1waCcsICc3LjAnLCAnLXRuJywgJzgnLCAnLW1hJywgJzIwMCcsICctbWV0YWxfYmluZGluZycsICctaW1hZScsICc8aW5maWxlLm1hZT4nLCAnLW9tYWUnLCAnPG91dGZpbGUubWFlPic=

> <r_epik_Ionization_Penalty>
1.06112

> <r_epik_Ionization_Penalty_Charging>
2.1796e-09

> <r_epik_Ionization_Penalty_Neutral>
1.06112

> <r_epik_State_Penalty>
1.11484

> <r_epik_Charging_Adjusted_Penalty>
1.11484

> <i_epik_Tot_Q>
-1

> <i_epik_Tot_abs_Q>
1

> <r_epik_Metal_State_Penalty>
0.0032876

> <b_epik_Metal_Only>
0

> <s_epik_Chemistry_Notes>
This compound contains an acetal/aminal-like group ( X-CH(R)-Y where X, Y are N, S, or O) that may be acid/base labile, releasing an aldehyde.

> <s_lp_Force_Field>
OPLS_2005

> <r_lp_Energy>
47.3884

> <b_lp_Chiralities_Consistent>
1

> <s_lp_Variant>
AV-unprocessed.smi:35-29

> <Gold.Version>
5.8.1

> <Gold.Id.Protein>
6NUR|6NUR_protein|mol2

> <Gold.PLP.Fitness>
40.6504

> <Gold.PLP.PLP>
-27.4063

> <Gold.PLP.part.hbond>
-3.8176

> <Gold.PLP.part.metal>
0.0000

> <Gold.PLP.part.buried>
-0.9249

> <Gold.PLP.part.nonpolar>
-22.9975

> <Gold.PLP.part.repulsive>
1.4671

> <Gold.PLP.ligand.clash>
0.0000

> <Gold.PLP.ligand.torsion>
0.0768

> <Gold.PLP.Chemscore.Hbond>
3.4413

> <Gold.PLP.Chemscore.CHOScore>
1.0000

> <Gold.PLP.Chemscore.Metal>
0.0000

> <Gold.Chemscore.Hbonds>
donor molecule, donor type, donor heavy atom, donor atom, acceptor molecule, acceptor atom, score
      L1  H    11    23       P1 10175  1.00
      P1  H  7989  7998       L1     5  0.45
      P1  H  7997  8008       L1     3  1.98
      L1  C    16    28       P1  8028  1.00

> <Gold.PLP.Chemscore.Internal.Correction>
0.0740

> <Gold.Rescore>
     Score         DG    S(hbond)    S(metal)    S(lipo)     H(rot)  DE(clash)    DE(int)     intcor
      4.33      -6.26       1.58        0.00      40.80       3.63       0.20       1.73       ----

> <Gold.Chemscore.Fitness>
4.3301

> <Gold.Chemscore.DG>
-6.2558

> <Gold.Chemscore.ZeroCoef>
-5.4800

> <Gold.Chemscore.Hbond>
1.5824

> <Gold.Chemscore.Metal>
0.0000

> <Gold.Chemscore.Lipo>
40.7967

> <Gold.Chemscore.Internal_Hbond>
0.0000

> <Gold.Chemscore.DEClash>
0.1974

> <Gold.Chemscore.DEInternal>
1.7282

> <Gold.Chemscore.Rot>
3.6261

> <Gold.Chemscore.Internal.Correction>
   9.000000E+99

> <Gold.Chemscore.Hbonds>
donor molecule, donor type, donor heavy atom, donor atom, acceptor molecule, acceptor atom, score
      L1  H    11    23       P1 10175  0.46
      L1  H    13    25       P1 10175  0.01
      P1  H  7989  7998       L1     5  0.02
      P1  H  7997  8008       L1     3  0.35

> <Gold.Chemscore.Hbond.Weighted>
-5.2853

> <Gold.Chemscore.Metal.Weighted>
-0.0000

> <Gold.Chemscore.Lipo.Weighted>
-4.7732

> <Gold.Chemscore.Internal_Hbond.Weighted>
0.0000

> <Gold.Chemscore.DEClash.Weighted>
0.1974

> <Gold.Chemscore.DEInternal.Weighted>
1.7282

> <Gold.Chemscore.Rot.Weighted>
9.2828

> <Gold.Chemscore.Internal.Correction.Weighted>
   9.000000E+99

> <Gold.Protein.RotatedTorsions>
[ 6907 6896 6895 6894 ] final   29.11 input  -60.11 | X-H torsion
[ 7974 7965 7964 7962 ] final  -78.43 input  175.53 | X-H torsion
[ 8008 7997 7996 7995 ] final  -50.17 input   59.86 | X-H torsion
[ 10167 10162 10161 10158 ] final  154.33 input  -65.29 | X-H torsion
[ 10718 10713 10712 10709 ] final   90.92 input   66.30 | X-H torsion
[ 10763 10752 10751 10750 ] final   -9.00 input  -60.55 | X-H torsion
[ 11005 11000 10999 10996 ] final   48.06 input  -57.11 | X-H torsion

> <Gold.Protein.ActiveResidues>
 VAL166  LYS551  ARG553  GLY616  TRP617  ASP618  TYR619  PRO620  LYS621  CYS622 
 ASP623  PHE694  ASN695  SER759  ASP760  ASP761  ALA762  ILE779  LEU786  VAL792 
 PHE793  MET794  SER795  GLU796  ALA797  LYS798  CYS799  TRP800  GLU811  SER814 

> <Gold.Protein.RotatedAtoms>
  152.0268  134.9791  160.0571 H   0  0  0  0  0  0  0  0  0  0  0  0  # atno 6907 bound_to 6896
  152.1283  133.4388  159.4717 H   0  0  0  0  0  0  0  0  0  0  0  0  # atno 6908 bound_to 6896
  150.6854  134.2370  159.4500 H   0  0  0  0  0  0  0  0  0  0  0  0  # atno 6909 bound_to 6896
  145.5865  140.9438  143.1315 H   0  0  0  0  0  0  0  0  0  0  0  0  # atno 7974 bound_to 7965
  154.4057  140.1279  156.4622 H   0  0  0  0  0  0  0  0  0  0  0  0  # atno 8008 bound_to 7997
  155.7262  140.3492  155.5018 H   0  0  0  0  0  0  0  0  0  0  0  0  # atno 8009 bound_to 7997
  155.9169  140.1046  157.1226 H   0  0  0  0  0  0  0  0  0  0  0  0  # atno 8010 bound_to 7997
  139.4823  144.5196  151.7897 H   0  0  0  0  0  0  0  0  0  0  0  0  # atno 10167 bound_to 10162
  157.6960  131.0388  150.3650 H   0  0  0  0  0  0  0  0  0  0  0  0  # atno 10718 bound_to 10713
  153.4485  135.7014  153.6124 H   0  0  0  0  0  0  0  0  0  0  0  0  # atno 10763 bound_to 10752
  153.4468  135.3767  155.2261 H   0  0  0  0  0  0  0  0  0  0  0  0  # atno 10764 bound_to 10752
  154.8728  135.3987  154.3894 H   0  0  0  0  0  0  0  0  0  0  0  0  # atno 10765 bound_to 10752
  140.1224  134.4812  155.8587 H   0  0  0  0  0  0  0  0  0  0  0  0  # atno 11005 bound_to 11000
  144.7370  139.7557  143.7325 LP  0  0  0  0  0  0  0  0  0  0  0  0  # atno 17320 bound_to 7965
  146.1678  139.4816  142.9947 LP  0  0  0  0  0  0  0  0  0  0  0  0  # atno 17321 bound_to 7965
  140.4708  144.1589  150.5918 LP  0  0  0  0  0  0  0  0  0  0  0  0  # atno 17342 bound_to 10162
  140.4384  143.2537  151.9505 LP  0  0  0  0  0  0  0  0  0  0  0  0  # atno 17343 bound_to 10162
  156.4082  130.3929  149.6910 LP  0  0  0  0  0  0  0  0  0  0  0  0  # atno 17370 bound_to 10713
  156.4204  130.7766  151.2783 LP  0  0  0  0  0  0  0  0  0  0  0  0  # atno 17371 bound_to 10713
  141.2154  133.6765  156.6914 LP  0  0  0  0  0  0  0  0  0  0  0  0  # atno 17394 bound_to 11000
  140.2948  134.8211  157.4047 LP  0  0  0  0  0  0  0  0  0  0  0  0  # atno 17395 bound_to 11000

$$$$
