#       Name:                AV-unprocessed.smi:1081
#       Creating user name   scv26
#       Creation time:       Fri Mar 27 03:23:47 2020


#       File generated by GOLD software.
#

@<TRIPOS>MOLECULE
AV-unprocessed.smi:1081
    57    59     1
SMALL
NO_CHARGES


@<TRIPOS>ATOM
      1 ****         1.4413   0.3676   0.6984 O.2            1 S1                 0.0000
      2 ****         0.9271  -0.7481   0.7662 C.2            1 S1                 0.0000
      3 ****         1.6393  -1.8820   0.8462 N.am           1 S1                 0.0000
      4 ****         3.0998  -1.9592   0.8404 C.3            1 S1                 0.0000
      5 ****         3.7131  -1.9508  -0.5737 C.2            1 S1                 0.0000
      6 ****         2.9621  -1.9159  -1.5508 O.2            1 S1                 0.0000
      7 ****         5.0619  -1.9910  -0.7037 N.am           1 S1                 0.0000
      8 ****         6.0240  -2.1177   0.4006 C.3            1 S1                 0.0000
      9 ****         6.6852  -3.5062   0.3283 C.3            1 S1                 0.0000
     10 ****         7.3475  -3.7303  -1.0441 C.3            1 S1                 0.0000
     11 ****         6.3800  -3.4137  -2.1997 C.3            1 S1                 0.0000
     12 ****         5.7318  -2.0300  -2.0110 C.3            1 S1                 0.0000
     13 ****        -0.3934  -1.0030   0.7681 N.am           1 S1                 0.0000
     14 ****        -1.4871  -0.0968   0.6833 C.ar           1 S1                 0.0000
     15 ****        -2.7869  -0.6440   0.6951 C.ar           1 S1                 0.0000
     16 ****        -3.9107   0.2039   0.6154 C.ar           1 S1                 0.0000
     17 ****        -3.7309   1.6067   0.5204 C.ar           1 S1                 0.0000
     18 ****        -4.7925   2.5367   0.4451 N.pl3          1 S1                 0.0000
     19 ****        -6.1580   2.0383   0.6218 C.3            1 S1                 0.0000
     20 ****        -7.1375   3.1807   0.9426 C.3            1 S1                 0.0000
     21 ****        -7.0404   4.3063  -0.0960 C.3            1 S1                 0.0000
     22 ****        -5.5905   4.7995  -0.1941 C.3            1 S1                 0.0000
     23 ****        -4.6306   3.6397  -0.5082 C.3            1 S1                 0.0000
     24 ****        -2.4631   2.0843   0.5125 N.pl3          1 S1                 1.0000
     25 ****        -1.3598   1.3098   0.5884 C.ar           1 S1                 0.0000
     26 ****         1.1404  -2.7582   0.8926 H              1 S1                 0.0000
     27 ****         3.5072  -1.1326   1.4248 H              1 S1                 0.0000
     28 ****         3.3861  -2.8827   1.3445 H              1 S1                 0.0000
     29 ****         6.7821  -1.3394   0.3029 H              1 S1                 0.0000
     30 ****         5.5874  -1.9731   1.3870 H              1 S1                 0.0000
     31 ****         7.4262  -3.6109   1.1211 H              1 S1                 0.0000
     32 ****         5.9332  -4.2771   0.5025 H              1 S1                 0.0000
     33 ****         8.2228  -3.0847  -1.1259 H              1 S1                 0.0000
     34 ****         7.7117  -4.7547  -1.1259 H              1 S1                 0.0000
     35 ****         6.9099  -3.4539  -3.1518 H              1 S1                 0.0000
     36 ****         5.6018  -4.1767  -2.2454 H              1 S1                 0.0000
     37 ****         5.0567  -1.8217  -2.8419 H              1 S1                 0.0000
     38 ****         6.4940  -1.2504  -2.0483 H              1 S1                 0.0000
     39 ****        -0.6486  -1.9779   0.8303 H              1 S1                 0.0000
     40 ****        -2.9278  -1.7130   0.7635 H              1 S1                 0.0000
     41 ****        -4.8928  -0.2440   0.6185 H              1 S1                 0.0000
     42 ****        -6.4690   1.5198  -0.2861 H              1 S1                 0.0000
     43 ****        -6.1959   1.3182   1.4395 H              1 S1                 0.0000
     44 ****        -8.1570   2.7966   0.9843 H              1 S1                 0.0000
     45 ****        -6.9178   3.5810   1.9333 H              1 S1                 0.0000
     46 ****        -7.3756   3.9438  -1.0687 H              1 S1                 0.0000
     47 ****        -7.7009   5.1295   0.1774 H              1 S1                 0.0000
     48 ****        -5.5080   5.5692  -0.9619 H              1 S1                 0.0000
     49 ****        -5.2999   5.2688   0.7467 H              1 S1                 0.0000
     50 ****        -3.6123   4.0280  -0.5096 H              1 S1                 0.0000
     51 ****        -4.8225   3.2608  -1.5126 H              1 S1                 0.0000
     52 ****        -0.4315   1.8585   0.5698 H              1 S1                 0.0000
     53 ****        -2.3320   3.0938   0.4482 H              1 S1                 0.0000
     54 ****         2.4370   0.4602   0.7013 LP             1 S1                 0.0000
     55 ****         0.8635   1.1817   0.6404 LP             1 S1                 0.0000
     56 ****         1.9711  -1.8936  -1.4192 LP             1 S1                 0.0000
     57 ****         3.3440  -1.9100  -2.4750 LP             1 S1                 0.0000
@<TRIPOS>BOND
    1    1    2 2     
    2    2    3 am    
    3    2   13 am    
    4    3    4 1     
    5    3   26 1     
    6    4    5 1     
    7    4   27 1     
    8    4   28 1     
    9    5    6 2     
   10    5    7 am    
   11    7   12 1     
   12    7    8 1     
   13    8    9 1     
   14    8   29 1     
   15    8   30 1     
   16    9   10 1     
   17    9   31 1     
   18    9   32 1     
   19   10   11 1     
   20   10   33 1     
   21   10   34 1     
   22   11   12 1     
   23   11   35 1     
   24   11   36 1     
   25   12   37 1     
   26   12   38 1     
   27   13   14 1     
   28   13   39 1     
   29   14   25 ar    
   30   14   15 ar    
   31   15   16 ar    
   32   15   40 1     
   33   16   17 ar    
   34   16   41 1     
   35   17   18 1     
   36   17   24 ar    
   37   18   23 1     
   38   18   19 1     
   39   19   20 1     
   40   19   42 1     
   41   19   43 1     
   42   20   21 1     
   43   20   44 1     
   44   20   45 1     
   45   21   22 1     
   46   21   46 1     
   47   21   47 1     
   48   22   23 1     
   49   22   48 1     
   50   22   49 1     
   51   23   50 1     
   52   23   51 1     
   53   24   25 ar    
   54   24   53 1     
   55   25   52 1     
   56    1   54 1     
   57    1   55 1     
   58    6   56 1     
   59    6   57 1     
@<TRIPOS>SUBSTRUCTURE
      1 S1             1
@<TRIPOS>SET
LONE_PAIRS      STATIC     ATOMS    <user>   **** ""
4 54 55 56 57
DONOR_HYDROGENS      STATIC     ATOMS    <user>   **** ""
3 26 39 53
ATOM$BLUE        STATIC     ATOMS    COLORGROUP SYSTEM
4 54 55 56 57
ATOM$RED        STATIC     ATOMS    COLORGROUP SYSTEM
3 26 39 53
