#       Name:                AV-unprocessed.smi:2390
#       Creating user name   scv26
#       Creation time:       Fri Mar 27 13:11:04 2020


#       File generated by GOLD software.
#

@<TRIPOS>MOLECULE
AV-unprocessed.smi:2390
    51    52     1
SMALL
NO_CHARGES


@<TRIPOS>ATOM
      1 ****        -5.9508   1.3553   2.5718 C.3            1 S1                 0.0000
      2 ****        -4.8080   1.4631   1.5840 C.ar           1 S1                 0.0000
      3 ****        -4.9031   2.3096   0.4628 C.ar           1 S1                 0.0000
      4 ****        -3.8154   2.3557  -0.4266 C.ar           1 S1                 0.0000
      5 ****        -2.6817   1.5648  -0.1574 C.ar           1 S1                 0.0000
      6 ****        -2.6606   0.7530   1.0059 C.ar           1 S1                 0.0000
      7 ****        -1.5430  -0.0763   1.2887 N.am           1 S1                 0.0000
      8 ****        -0.2446   0.1660   1.0396 C.2            1 S1                 0.0000
      9 ****         0.1992   1.1839   0.5070 O.2            1 S1                 0.0000
     10 ****         0.5292  -0.8512   1.4479 N.am           1 S1                 0.0000
     11 ****         1.9882  -0.9178   1.3395 C.3            1 S1                 0.0000
     12 ****         2.5484  -1.7029   2.5370 C.3            1 S1                 0.0000
     13 ****         2.4489  -1.4829  -0.0389 C.3            1 S1                 0.0000
     14 ****         1.8831  -2.9034  -0.2884 C.3            1 S1                 0.0000
     15 ****         2.1386  -0.5054  -1.1342 N.4            1 S1                 1.0000
     16 ****         3.1469   0.5820  -1.2372 C.3            1 S1                 0.0000
     17 ****         2.6934   1.6463  -2.2487 C.3            1 S1                 0.0000
     18 ****         2.4914   1.0363  -3.5159 O.3            1 S1                 0.0000
     19 ****         1.4727   0.0470  -3.4664 C.3            1 S1                 0.0000
     20 ****         1.8706  -1.0692  -2.4846 C.3            1 S1                 0.0000
     21 ****        -3.7227   0.7010   1.8421 N.ar           1 S1                 0.0000
     22 ****        -6.5586   2.2605   2.5647 H              1 S1                 0.0000
     23 ****        -5.5776   1.2079   3.5860 H              1 S1                 0.0000
     24 ****        -6.5904   0.5106   2.3145 H              1 S1                 0.0000
     25 ****        -5.7880   2.9027   0.2830 H              1 S1                 0.0000
     26 ****        -3.8512   2.9822  -1.3056 H              1 S1                 0.0000
     27 ****        -1.8559   1.5849  -0.8520 H              1 S1                 0.0000
     28 ****        -1.7474  -0.9035   1.8300 H              1 S1                 0.0000
     29 ****         0.0747  -1.6439   1.8781 H              1 S1                 0.0000
     30 ****         2.3804   0.0924   1.4574 H              1 S1                 0.0000
     31 ****         3.6339  -1.7884   2.4775 H              1 S1                 0.0000
     32 ****         2.1355  -2.7093   2.6012 H              1 S1                 0.0000
     33 ****         2.3133  -1.1979   3.4746 H              1 S1                 0.0000
     34 ****         3.5342  -1.5937  -0.0115 H              1 S1                 0.0000
     35 ****         2.1369  -3.5842   0.5228 H              1 S1                 0.0000
     36 ****         2.2996  -3.3526  -1.1900 H              1 S1                 0.0000
     37 ****         0.7969  -2.8998  -0.3830 H              1 S1                 0.0000
     38 ****         3.3062   1.0588  -0.2711 H              1 S1                 0.0000
     39 ****         4.1064   0.1635  -1.5445 H              1 S1                 0.0000
     40 ****         1.7795   2.1398  -1.9138 H              1 S1                 0.0000
     41 ****         3.4553   2.4197  -2.3478 H              1 S1                 0.0000
     42 ****         0.5236   0.5005  -3.1746 H              1 S1                 0.0000
     43 ****         1.3329  -0.3650  -4.4659 H              1 S1                 0.0000
     44 ****         2.7560  -1.5930  -2.8483 H              1 S1                 0.0000
     45 ****         1.0511  -1.7866  -2.4529 H              1 S1                 0.0000
     46 ****         1.2738  -0.0617  -0.8569 H              1 S1                 0.0000
     47 ****        -0.4246   1.9120   0.2226 LP             1 S1                 0.0000
     48 ****         1.1832   1.2824   0.3590 LP             1 S1                 0.0000
     49 ****         3.3458   0.6073  -3.8090 LP             1 S1                 0.0000
     50 ****         2.2281   1.7399  -4.1760 LP             1 S1                 0.0000
     51 ****        -3.7047   0.1039   2.6440 LP             1 S1                 0.0000
@<TRIPOS>BOND
    1    1    2 1     
    2    1   22 1     
    3    1   23 1     
    4    1   24 1     
    5    2   21 ar    
    6    2    3 ar    
    7    3    4 ar    
    8    3   25 1     
    9    4    5 ar    
   10    4   26 1     
   11    5    6 ar    
   12    5   27 1     
   13    6    7 1     
   14    6   21 ar    
   15    7    8 am    
   16    7   28 1     
   17    8    9 2     
   18    8   10 am    
   19   10   11 1     
   20   10   29 1     
   21   11   12 1     
   22   11   13 1     
   23   11   30 1     
   24   12   31 1     
   25   12   32 1     
   26   12   33 1     
   27   13   14 1     
   28   13   15 1     
   29   13   34 1     
   30   14   35 1     
   31   14   36 1     
   32   14   37 1     
   33   15   20 1     
   34   15   16 1     
   35   15   46 1     
   36   16   17 1     
   37   16   38 1     
   38   16   39 1     
   39   17   18 1     
   40   17   40 1     
   41   17   41 1     
   42   18   19 1     
   43   19   20 1     
   44   19   42 1     
   45   19   43 1     
   46   20   44 1     
   47   20   45 1     
   48    9   47 1     
   49    9   48 1     
   50   18   49 1     
   51   18   50 1     
   52   21   51 1     
@<TRIPOS>SUBSTRUCTURE
      1 S1             1
@<TRIPOS>SET
LONE_PAIRS      STATIC     ATOMS    <user>   **** ""
5 47 48 49 50 51
DONOR_HYDROGENS      STATIC     ATOMS    <user>   **** ""
3 28 29 46
ATOM$BLUE        STATIC     ATOMS    COLORGROUP SYSTEM
5 47 48 49 50 51
ATOM$RED        STATIC     ATOMS    COLORGROUP SYSTEM
3 28 29 46
