AV-unprocessed.smi:72|AV-procd|sdf|718|dock8
  -GOLD-   2262017 43D 1   1.00000     0.00000
 Structure written by MMmdl.
 28 29  0  0  0  0  0  0  0  0  2 V2000
  154.1868  138.4675  155.0907 N   0  0  0  0  0  0  0  0  0  0  0  0
  152.9380  138.6395  155.1061 C   0  0  0  0  0  0  0  0  0  0  0  0
  152.3896  139.9753  155.1979 N   0  0  0  0  0  0  0  0  0  0  0  0
  151.0980  140.0982  155.2243 C   0  0  0  0  0  0  0  0  0  0  0  0
  150.2161  138.9396  155.1779 N   0  0  0  0  0  0  0  0  0  0  0  0
  148.7087  139.0957  155.2023 C   0  0  1  0  0  0  0  0  0  0  0  0
  148.3870  140.4268  155.4554 O   0  0  0  0  0  0  0  0  0  0  0  0
  147.1127  140.6903  154.8906 C   0  0  1  0  0  0  0  0  0  0  0  0
  146.9128  142.2047  154.7258 C   0  0  0  0  0  0  0  0  0  0  0  0
  148.0589  142.7866  154.1420 O   0  0  0  0  0  0  0  0  0  0  0  0
  147.1734  139.9325  153.5585 C   0  0  2  0  0  0  0  0  0  0  0  0
  145.8722  139.5539  153.1548 O   0  0  0  0  0  0  0  0  0  0  0  0
  148.0216  138.7017  153.8751 C   0  0  1  0  0  0  0  0  0  0  0  0
  148.9167  138.4300  152.8112 O   0  0  0  0  0  0  0  0  0  0  0  0
  150.7807  137.6427  155.0582 C   0  0  0  0  0  0  0  0  0  0  0  0
  150.0156  136.6820  154.9724 O   0  0  0  0  0  0  0  0  0  0  0  0
  152.1374  137.5210  155.0296 N   0  5  0  0  0  0  0  0  0  0  0  0
  148.3499  138.5113  156.0514 H   0  0  0  0  0  0  0  0  0  0  0  0
  146.3429  140.2560  155.5329 H   0  0  0  0  0  0  0  0  0  0  0  0
  147.6485  140.5500  152.7940 H   0  0  0  0  0  0  0  0  0  0  0  0
  147.4108  137.8182  154.0673 H   0  0  0  0  0  0  0  0  0  0  0  0
  154.4392  137.4922  155.0215 H   0  0  0  0  0  0  0  0  0  0  0  0
  150.5960  141.0650  155.2758 H   0  0  0  0  0  0  0  0  0  0  0  0
  146.0265  142.4250  154.1298 H   0  0  0  0  0  0  0  0  0  0  0  0
  146.7718  142.6723  155.7007 H   0  0  0  0  0  0  0  0  0  0  0  0
  148.3827  143.4591  154.7214 H   0  0  0  0  0  0  0  0  0  0  0  0
  145.3404  140.3325  153.0927 H   0  0  0  0  0  0  0  0  0  0  0  0
  148.9525  139.1909  152.2509 H   0  0  0  0  0  0  0  0  0  0  0  0
  1  2  2  0  0  0  0
  1 22  1  0  0  0  0
  2 17  1  0  0  0  0
  2  3  1  0  0  0  0
  3  4  2  0  0  0  0
  4  5  1  0  0  0  0
  4 23  1  0  0  0  0
  5  6  1  0  0  0  0
  5 15  1  0  0  0  0
  6 18  1  0  0  0  0
  6 13  1  0  0  0  0
  6  7  1  0  0  0  0
  7  8  1  0  0  0  0
  8 19  1  0  0  0  0
  8  9  1  0  0  0  0
  8 11  1  0  0  0  0
  9 10  1  0  0  0  0
  9 24  1  0  0  0  0
  9 25  1  0  0  0  0
 10 26  1  0  0  0  0
 11 20  1  0  0  0  0
 11 12  1  0  0  0  0
 11 13  1  0  0  0  0
 12 27  1  0  0  0  0
 13 21  1  0  0  0  0
 13 14  1  0  0  0  0
 14 28  1  0  0  0  0
 15 16  2  0  0  0  0
 15 17  1  0  0  0  0
M  CHG  1  17  -1
M  END
> <s_m_source_file>
AV-unprocessed.smi

> <i_m_source_file_index>
72

> <i_lp_mmshare_version>
43012

> <i_f3d_flags>
0

> <s_epik_input>
W05IMl1jMW5bY0hdbihjKD1PKW4xKVtDQEBIXTJPW0NASF0oW0NIMl1bT0hdKVtDQEBIXShbT0hdKVtDQEhdMltPSF0=

> <s_epik_cmdline>
J2VwaWtfcHl0aG9uJywgJy1waCcsICc3LjAnLCAnLXRuJywgJzgnLCAnLW1hJywgJzIwMCcsICctbWV0YWxfYmluZGluZycsICctaW1hZScsICc8aW5maWxlLm1hZT4nLCAnLW9tYWUnLCAnPG91dGZpbGUubWFlPic=

> <r_lp_tautomer_probability>
7.17554e-07

> <r_epik_Ionization_Penalty>
12.8705

> <r_epik_Ionization_Penalty_Charging>
5.64144

> <r_epik_Ionization_Penalty_Neutral>
7.22905

> <r_epik_State_Penalty>
3.30104

> <r_epik_Charging_Adjusted_Penalty>
8.94249

> <i_epik_Tot_Q>
-1

> <i_epik_Tot_abs_Q>
1

> <r_epik_Metal_State_Penalty>
0.529074

> <b_epik_Metal_Only>
1

> <s_epik_Chemistry_Notes>
This compound contains an acetal/aminal-like group ( X-CH(R)-Y where X, Y are N, S, or O) that may be acid/base labile, releasing an aldehyde.

> <s_lp_Force_Field>
OPLS_2005

> <r_lp_Energy>
37.5202

> <b_lp_Chiralities_Consistent>
1

> <s_lp_Variant>
AV-unprocessed.smi:72-56

> <Gold.Version>
5.8.1

> <Gold.Id.Protein>
6NUR|6NUR_protein|mol2

> <Gold.PLP.Fitness>
39.4997

> <Gold.PLP.PLP>
-25.6351

> <Gold.PLP.part.hbond>
-8.2909

> <Gold.PLP.part.metal>
0.0000

> <Gold.PLP.part.buried>
-1.0146

> <Gold.PLP.part.nonpolar>
-16.9602

> <Gold.PLP.part.repulsive>
0.3386

> <Gold.PLP.ligand.clash>
0.0000

> <Gold.PLP.ligand.torsion>
0.1578

> <Gold.PLP.Chemscore.Hbond>
4.6826

> <Gold.PLP.Chemscore.CHOScore>
0.0000

> <Gold.PLP.Chemscore.Metal>
0.0000

> <Gold.Chemscore.Hbonds>
donor molecule, donor type, donor heavy atom, donor atom, acceptor molecule, acceptor atom, score
      L1  H    10    26       P1  8028  1.00
      L1  H    12    27       P1 10175  0.58
      L1  H    14    28       P1  7957  0.96
      P1  H  7997  8009       L1     1  0.51
      P1  H 10752 10765       L1    17  1.22

> <Gold.PLP.Chemscore.Internal.Correction>
0.1322

> <Gold.Rescore>
     Score         DG    S(hbond)    S(metal)    S(lipo)     H(rot)  DE(clash)    DE(int)     intcor
      9.20      -9.93       3.73        0.00      19.82       4.04       0.31       0.42       ----

> <Gold.Chemscore.Fitness>
9.2033

> <Gold.Chemscore.DG>
-9.9307

> <Gold.Chemscore.ZeroCoef>
-5.4800

> <Gold.Chemscore.Hbond>
3.7349

> <Gold.Chemscore.Metal>
0.0000

> <Gold.Chemscore.Lipo>
19.8224

> <Gold.Chemscore.Internal_Hbond>
0.0000

> <Gold.Chemscore.DEClash>
0.3122

> <Gold.Chemscore.DEInternal>
0.4152

> <Gold.Chemscore.Rot>
4.0403

> <Gold.Chemscore.Internal.Correction>
   9.000000E+99

> <Gold.Chemscore.Hbonds>
donor molecule, donor type, donor heavy atom, donor atom, acceptor molecule, acceptor atom, score
      L1  H    10    26       P1  8028  0.98
      L1  H    12    27       P1 10175  0.55
      L1  H    14    28       P1  7957  0.88
      P1  H  7997  8009       L1     1  0.16
      P1  H 10752 10765       L1    17  0.58

> <Gold.Chemscore.Hbond.Weighted>
-12.4746

> <Gold.Chemscore.Metal.Weighted>
-0.0000

> <Gold.Chemscore.Lipo.Weighted>
-2.3192

> <Gold.Chemscore.Internal_Hbond.Weighted>
0.0000

> <Gold.Chemscore.DEClash.Weighted>
0.3122

> <Gold.Chemscore.DEInternal.Weighted>
0.4152

> <Gold.Chemscore.Rot.Weighted>
10.3431

> <Gold.Chemscore.Internal.Correction.Weighted>
   9.000000E+99

> <Gold.Protein.RotatedTorsions>
[ 6907 6896 6895 6894 ] final   50.99 input  -60.11 | X-H torsion
[ 7974 7965 7964 7962 ] final  -72.83 input  175.53 | X-H torsion
[ 8008 7997 7996 7995 ] final -107.82 input   59.86 | X-H torsion
[ 10167 10162 10161 10158 ] final   33.07 input  -65.29 | X-H torsion
[ 10718 10713 10712 10709 ] final   36.02 input   66.30 | X-H torsion
[ 10763 10752 10751 10750 ] final  173.26 input  -60.55 | X-H torsion
[ 11005 11000 10999 10996 ] final   63.38 input  -57.11 | X-H torsion

> <Gold.Protein.ActiveResidues>
 VAL166  LYS551  ARG553  GLY616  TRP617  ASP618  TYR619  PRO620  LYS621  CYS622 
 ASP623  PHE694  ASN695  SER759  ASP760  ASP761  ALA762  ILE779  LEU786  VAL792 
 PHE793  MET794  SER795  GLU796  ALA797  LYS798  CYS799  TRP800  GLU811  SER814 

> <Gold.Protein.RotatedAtoms>
  152.3079  134.7533  160.0342 H   0  0  0  0  0  0  0  0  0  0  0  0  # atno 6907 bound_to 6896
  151.8024  133.3366  159.3539 H   0  0  0  0  0  0  0  0  0  0  0  0  # atno 6908 bound_to 6896
  150.7305  134.5671  159.5916 H   0  0  0  0  0  0  0  0  0  0  0  0  # atno 6909 bound_to 6896
  145.6600  140.9255  143.0939 H   0  0  0  0  0  0  0  0  0  0  0  0  # atno 7974 bound_to 7965
  154.9351  140.0404  157.2068 H   0  0  0  0  0  0  0  0  0  0  0  0  # atno 8008 bound_to 7997
  154.8123  140.2870  155.5822 H   0  0  0  0  0  0  0  0  0  0  0  0  # atno 8009 bound_to 7997
  156.2972  140.2534  156.3014 H   0  0  0  0  0  0  0  0  0  0  0  0  # atno 8010 bound_to 7997
  140.4441  144.1144  150.6179 H   0  0  0  0  0  0  0  0  0  0  0  0  # atno 10167 bound_to 10162
  157.3298  130.7492  149.6840 H   0  0  0  0  0  0  0  0  0  0  0  0  # atno 10718 bound_to 10713
  154.4376  135.2761  155.1870 H   0  0  0  0  0  0  0  0  0  0  0  0  # atno 10763 bound_to 10752
  154.3750  135.6100  153.5763 H   0  0  0  0  0  0  0  0  0  0  0  0  # atno 10764 bound_to 10752
  152.9839  135.5866  154.4698 H   0  0  0  0  0  0  0  0  0  0  0  0  # atno 10765 bound_to 10752
  140.0029  134.6415  155.9902 H   0  0  0  0  0  0  0  0  0  0  0  0  # atno 11005 bound_to 11000
  144.7092  139.8437  143.7420 LP  0  0  0  0  0  0  0  0  0  0  0  0  # atno 17320 bound_to 7965
  146.1133  139.4140  143.0274 LP  0  0  0  0  0  0  0  0  0  0  0  0  # atno 17321 bound_to 7965
  140.4284  143.2579  151.9627 LP  0  0  0  0  0  0  0  0  0  0  0  0  # atno 17342 bound_to 10162
  139.4791  144.5767  151.8000 LP  0  0  0  0  0  0  0  0  0  0  0  0  # atno 17343 bound_to 10162
  155.9694  130.4198  150.4395 LP  0  0  0  0  0  0  0  0  0  0  0  0  # atno 17370 bound_to 10713
  157.2424  131.0528  151.2428 LP  0  0  0  0  0  0  0  0  0  0  0  0  # atno 17371 bound_to 10713
  141.1655  133.6537  156.4465 LP  0  0  0  0  0  0  0  0  0  0  0  0  # atno 17394 bound_to 11000
  140.4695  134.6766  157.5123 LP  0  0  0  0  0  0  0  0  0  0  0  0  # atno 17395 bound_to 11000

$$$$
