AV-unprocessed.smi:2877|AV-procd|sdf|11043|dock3
  -GOLD-   2272015513D 1   1.00000     0.00000
 Structure written by MMmdl.
 41 42  0  0  0  0  0  0  0  0  1 V2000
  151.8969  140.8926  158.8730 O   0  0  0  0  0  0  0  0  0  0  0  0
  151.8285  141.9753  158.2886 C   0  0  0  0  0  0  0  0  0  0  0  0
  151.0765  142.0517  156.9482 C   0  0  0  0  0  0  0  0  0  0  0  0
  150.5773  140.6869  156.4296 C   0  0  0  0  0  0  0  0  0  0  0  0
  149.1798  140.7504  156.0163 N   0  0  0  0  0  0  0  0  0  0  0  0
  148.7498  141.0103  154.7704 C   0  0  0  0  0  0  0  0  0  0  0  0
  149.5183  141.2314  153.8326 O   0  0  0  0  0  0  0  0  0  0  0  0
  147.2258  140.9914  154.5610 C   0  0  0  0  0  0  0  0  0  0  0  0
  146.6471  140.9829  155.7634 F   0  0  0  0  0  0  0  0  0  0  0  0
  146.8600  142.1170  153.9426 F   0  0  0  0  0  0  0  0  0  0  0  0
  146.7676  139.7824  153.7455 C   0  0  0  0  0  0  0  0  0  0  0  0
  145.9517  138.7818  154.3218 C   0  0  0  0  0  0  0  0  0  0  0  0
  145.5669  137.6840  153.5285 C   0  0  0  0  0  0  0  0  0  0  0  0
  146.0088  137.6235  152.1934 C   0  0  0  0  0  0  0  0  0  0  0  0
  146.8220  138.6670  151.7096 C   0  0  0  0  0  0  0  0  0  0  0  0
  147.1969  139.7237  152.4618 N   0  0  0  0  0  0  0  0  0  0  0  0
  152.3975  143.1009  158.7863 N   0  0  0  0  0  0  0  0  0  0  0  0
  152.2655  144.4109  158.1341 C   0  0  0  0  0  0  0  0  0  0  0  0
  151.3621  145.3095  158.9988 C   0  0  0  0  0  0  0  0  0  0  0  0
  151.9119  145.4281  160.4329 C   0  0  0  0  0  0  0  0  0  0  0  0
  152.2226  144.0464  161.0384 C   0  0  0  0  0  0  0  0  0  0  0  0
  153.0885  143.2093  160.0796 C   0  0  0  0  0  0  0  0  0  0  0  0
  150.2247  142.7222  157.0666 H   0  0  0  0  0  0  0  0  0  0  0  0
  151.7393  142.4959  156.2043 H   0  0  0  0  0  0  0  0  0  0  0  0
  151.1627  140.3746  155.5638 H   0  0  0  0  0  0  0  0  0  0  0  0
  150.7042  139.9134  157.1893 H   0  0  0  0  0  0  0  0  0  0  0  0
  148.4853  140.5792  156.7292 H   0  0  0  0  0  0  0  0  0  0  0  0
  145.6304  138.8462  155.3507 H   0  0  0  0  0  0  0  0  0  0  0  0
  144.9448  136.9016  153.9378 H   0  0  0  0  0  0  0  0  0  0  0  0
  145.7327  136.7964  151.5563 H   0  0  0  0  0  0  0  0  0  0  0  0
  147.1809  138.6526  150.6911 H   0  0  0  0  0  0  0  0  0  0  0  0
  153.2528  144.8626  158.0275 H   0  0  0  0  0  0  0  0  0  0  0  0
  151.8614  144.3437  157.1231 H   0  0  0  0  0  0  0  0  0  0  0  0
  151.2751  146.2991  158.5494 H   0  0  0  0  0  0  0  0  0  0  0  0
  150.3548  144.8917  159.0265 H   0  0  0  0  0  0  0  0  0  0  0  0
  152.8266  146.0219  160.4150 H   0  0  0  0  0  0  0  0  0  0  0  0
  151.2066  145.9681  161.0650 H   0  0  0  0  0  0  0  0  0  0  0  0
  152.7295  144.1649  161.9964 H   0  0  0  0  0  0  0  0  0  0  0  0
  151.2907  143.5176  161.2435 H   0  0  0  0  0  0  0  0  0  0  0  0
  153.3213  142.2499  160.5384 H   0  0  0  0  0  0  0  0  0  0  0  0
  154.0525  143.6972  159.9284 H   0  0  0  0  0  0  0  0  0  0  0  0
  1  2  2  0  0  0  0
  2  3  1  0  0  0  0
  2 17  1  0  0  0  0
  3  4  1  0  0  0  0
  3 23  1  0  0  0  0
  3 24  1  0  0  0  0
  4  5  1  0  0  0  0
  4 25  1  0  0  0  0
  4 26  1  0  0  0  0
  5  6  1  0  0  0  0
  5 27  1  0  0  0  0
  6  7  2  0  0  0  0
  6  8  1  0  0  0  0
  8  9  1  0  0  0  0
  8 10  1  0  0  0  0
  8 11  1  0  0  0  0
 11 16  1  0  0  0  0
 11 12  2  0  0  0  0
 12 13  1  0  0  0  0
 12 28  1  0  0  0  0
 13 14  2  0  0  0  0
 13 29  1  0  0  0  0
 14 15  1  0  0  0  0
 14 30  1  0  0  0  0
 15 16  2  0  0  0  0
 15 31  1  0  0  0  0
 17 22  1  0  0  0  0
 17 18  1  0  0  0  0
 18 19  1  0  0  0  0
 18 32  1  0  0  0  0
 18 33  1  0  0  0  0
 19 20  1  0  0  0  0
 19 34  1  0  0  0  0
 19 35  1  0  0  0  0
 20 21  1  0  0  0  0
 20 36  1  0  0  0  0
 20 37  1  0  0  0  0
 21 22  1  0  0  0  0
 21 38  1  0  0  0  0
 21 39  1  0  0  0  0
 22 40  1  0  0  0  0
 22 41  1  0  0  0  0
M  END
> <s_m_source_file>
AV-unprocessed.smi

> <i_m_source_file_index>
2877

> <i_lp_mmshare_version>
43012

> <i_f3d_flags>
0

> <s_epik_input>
W0NIMl0xW0NIMl1bQ0gyXVtDSDJdW0NIMl1OMUMoPU8pW0NIMl1bQ0gyXVtOSF1DKD1PKUMoRikoRiljMltjSF1bY0hdW2NIXVtjSF1uMg==

> <s_epik_cmdline>
J2VwaWtfcHl0aG9uJywgJy1waCcsICc3LjAnLCAnLXRuJywgJzgnLCAnLW1hJywgJzIwMCcsICctbWV0YWxfYmluZGluZycsICctaW1hZScsICc8aW5maWxlLm1hZT4nLCAnLW9tYWUnLCAnPG91dGZpbGUubWFlPic=

> <r_lp_tautomer_probability>
1

> <r_epik_Ionization_Penalty>
7.88991e-05

> <r_epik_Ionization_Penalty_Charging>
0

> <r_epik_Ionization_Penalty_Neutral>
7.88991e-05

> <r_epik_State_Penalty>
-0

> <r_epik_Charging_Adjusted_Penalty>
0

> <i_epik_Tot_Q>
0

> <i_epik_Tot_abs_Q>
0

> <r_epik_Metal_State_Penalty>
0.0639978

> <b_epik_Metal_Only>
0

> <s_lp_Force_Field>
OPLS_2005

> <r_lp_Energy>
32.8241

> <b_lp_Chiralities_Consistent>
1

> <s_lp_Variant>
AV-unprocessed.smi:2877-1

> <Gold.Version>
5.8.1

> <Gold.Id.Protein>
6NUR|6NUR_protein|mol2

> <Gold.PLP.Fitness>
48.7824

> <Gold.PLP.PLP>
-48.2214

> <Gold.PLP.part.hbond>
-2.0000

> <Gold.PLP.part.metal>
0.0000

> <Gold.PLP.part.buried>
-5.4112

> <Gold.PLP.part.nonpolar>
-44.5070

> <Gold.PLP.part.repulsive>
4.0213

> <Gold.PLP.ligand.clash>
1.0293

> <Gold.PLP.ligand.torsion>
0.9302

> <Gold.PLP.Chemscore.Hbond>
1.0204

> <Gold.PLP.Chemscore.CHOScore>
0.1173

> <Gold.PLP.Chemscore.Metal>
0.0000

> <Gold.Chemscore.Hbonds>
donor molecule, donor type, donor heavy atom, donor atom, acceptor molecule, acceptor atom, score
      P1  H  7989  7998       L1     7  0.21
      P1  H  8011  8017       L1     7  0.85
      L1  C    15    31       P1  7957  0.13

> <Gold.PLP.Chemscore.Internal.Correction>
0.0375

> <Gold.Rescore>
     Score         DG    S(hbond)    S(metal)    S(lipo)     H(rot)  DE(clash)    DE(int)     intcor
     13.89     -16.26       1.00        0.00     106.13       1.95       1.19       1.18       ----

> <Gold.Chemscore.Fitness>
13.8918

> <Gold.Chemscore.DG>
-16.2648

> <Gold.Chemscore.ZeroCoef>
-5.4800

> <Gold.Chemscore.Hbond>
1.0048

> <Gold.Chemscore.Metal>
0.0000

> <Gold.Chemscore.Lipo>
106.1314

> <Gold.Chemscore.Internal_Hbond>
0.0000

> <Gold.Chemscore.DEClash>
1.1934

> <Gold.Chemscore.DEInternal>
1.1796

> <Gold.Chemscore.Rot>
1.9487

> <Gold.Chemscore.Internal.Correction>
   9.000000E+99

> <Gold.Chemscore.Hbonds>
donor molecule, donor type, donor heavy atom, donor atom, acceptor molecule, acceptor atom, score
      P1  H  7989  7998       L1     7  0.20
      P1  H  8011  8017       L1     7  0.84

> <Gold.Chemscore.Hbond.Weighted>
-3.3561

> <Gold.Chemscore.Metal.Weighted>
-0.0000

> <Gold.Chemscore.Lipo.Weighted>
-12.4174

> <Gold.Chemscore.Internal_Hbond.Weighted>
0.0000

> <Gold.Chemscore.DEClash.Weighted>
1.1934

> <Gold.Chemscore.DEInternal.Weighted>
1.1796

> <Gold.Chemscore.Rot.Weighted>
4.9886

> <Gold.Chemscore.Internal.Correction.Weighted>
   9.000000E+99

> <Gold.Protein.RotatedTorsions>
[ 6907 6896 6895 6894 ] final -155.75 input  -60.11 | X-H torsion
[ 7974 7965 7964 7962 ] final   79.21 input  175.53 | X-H torsion
[ 8008 7997 7996 7995 ] final  123.26 input   59.86 | X-H torsion
[ 10167 10162 10161 10158 ] final   79.13 input  -65.29 | X-H torsion
[ 10718 10713 10712 10709 ] final -176.11 input   66.30 | X-H torsion
[ 10763 10752 10751 10750 ] final -139.01 input  -60.55 | X-H torsion
[ 11005 11000 10999 10996 ] final   57.04 input  -57.11 | X-H torsion

> <Gold.Protein.ActiveResidues>
 VAL166  LYS551  ARG553  GLY616  TRP617  ASP618  TYR619  PRO620  LYS621  CYS622 
 ASP623  PHE694  ASN695  SER759  ASP760  ASP761  ALA762  ILE779  LEU786  VAL792 
 PHE793  MET794  SER795  GLU796  ALA797  LYS798  CYS799  TRP800  GLU811  SER814 

> <Gold.Protein.RotatedAtoms>
  151.2772  133.4227  159.2624 H   0  0  0  0  0  0  0  0  0  0  0  0  # atno 6907 bound_to 6896
  151.0393  134.9596  159.8163 H   0  0  0  0  0  0  0  0  0  0  0  0  # atno 6908 bound_to 6896
  152.5362  134.2731  159.9031 H   0  0  0  0  0  0  0  0  0  0  0  0  # atno 6909 bound_to 6896
  145.6671  139.2487  143.1889 H   0  0  0  0  0  0  0  0  0  0  0  0  # atno 7974 bound_to 7965
  156.2759  140.2767  156.1598 H   0  0  0  0  0  0  0  0  0  0  0  0  # atno 8008 bound_to 7997
  155.0765  140.0387  157.2643 H   0  0  0  0  0  0  0  0  0  0  0  0  # atno 8009 bound_to 7997
  154.6998  140.2646  155.6736 H   0  0  0  0  0  0  0  0  0  0  0  0  # atno 8010 bound_to 7997
  139.9636  144.5943  150.8049 H   0  0  0  0  0  0  0  0  0  0  0  0  # atno 10167 bound_to 10162
  156.8099  130.9582  151.3116 H   0  0  0  0  0  0  0  0  0  0  0  0  # atno 10718 bound_to 10713
  154.8621  135.3595  154.5477 H   0  0  0  0  0  0  0  0  0  0  0  0  # atno 10763 bound_to 10752
  153.6096  135.7010  153.5357 H   0  0  0  0  0  0  0  0  0  0  0  0  # atno 10764 bound_to 10752
  153.3220  135.4148  155.1386 H   0  0  0  0  0  0  0  0  0  0  0  0  # atno 10765 bound_to 10752
  140.0483  134.5774  155.9295 H   0  0  0  0  0  0  0  0  0  0  0  0  # atno 11005 bound_to 11000
  146.1077  140.7467  142.9518 LP  0  0  0  0  0  0  0  0  0  0  0  0  # atno 17320 bound_to 7965
  144.7069  140.3888  143.7111 LP  0  0  0  0  0  0  0  0  0  0  0  0  # atno 17321 bound_to 7965
  140.7545  143.3028  151.3037 LP  0  0  0  0  0  0  0  0  0  0  0  0  # atno 17342 bound_to 10162
  139.6535  144.0319  152.2643 LP  0  0  0  0  0  0  0  0  0  0  0  0  # atno 17343 bound_to 10162
  157.6511  130.8885  149.9635 LP  0  0  0  0  0  0  0  0  0  0  0  0  # atno 17370 bound_to 10713
  156.1051  130.3653  150.0149 LP  0  0  0  0  0  0  0  0  0  0  0  0  # atno 17371 bound_to 10713
  141.1918  133.6573  156.5472 LP  0  0  0  0  0  0  0  0  0  0  0  0  # atno 17394 bound_to 11000
  140.3958  134.7400  157.4750 LP  0  0  0  0  0  0  0  0  0  0  0  0  # atno 17395 bound_to 11000

$$$$
