AV-unprocessed.smi:221|AV-procd|sdf|1701|dock4
  -GOLD-   2262020153D 1   1.00000     0.00000
 Structure written by MMmdl.
 50 53  0  0  0  0  0  0  0  0  1 V2000
  150.3112  138.5275  153.4626 N   0  0  0  0  0  0  0  0  0  0  0  0
  151.1904  138.7747  154.4399 C   0  0  0  0  0  0  0  0  0  0  0  0
  151.5638  139.9188  154.6895 O   0  0  0  0  0  0  0  0  0  0  0  0
  151.7538  137.5917  155.2528 C   0  0  1  0  0  0  0  0  0  0  0  0
  152.8562  138.0284  156.2381 C   0  0  0  0  0  0  0  0  0  0  0  0
  152.1208  138.1824  157.5642 C   0  0  2  0  0  0  0  0  0  0  0  0
  152.9350  138.0943  158.6157 F   0  0  0  0  0  0  0  0  0  0  0  0
  151.1105  137.0428  157.5043 C   0  0  0  0  0  0  0  0  0  0  0  0
  150.7365  136.9513  156.0986 N   0  0  0  0  0  0  0  0  0  0  0  0
  150.2594  135.7508  155.7043 C   0  0  0  0  0  0  0  0  0  0  0  0
  151.0570  134.6517  155.7465 N   0  0  0  0  0  0  0  0  0  0  0  0
  150.5756  133.4657  155.3611 C   0  0  0  0  0  0  0  0  0  0  0  0
  149.3543  133.1655  154.9118 N   0  0  0  0  0  0  0  0  0  0  0  0
  148.5543  134.2702  154.8739 C   0  0  0  0  0  0  0  0  0  0  0  0
  148.9251  135.5904  155.2510 C   0  0  0  0  0  0  0  0  0  0  0  0
  147.8547  136.4580  155.0773 N   0  0  0  0  0  0  0  0  0  0  0  0
  146.9018  135.6927  154.6178 C   0  0  0  0  0  0  0  0  0  0  0  0
  147.2373  134.3665  154.4599 N   0  0  0  0  0  0  0  0  0  0  0  0
  146.3716  133.3079  153.9688 C   0  0  0  0  0  0  0  0  0  0  0  0
  146.9516  132.5596  152.7417 C   0  0  1  0  0  0  0  0  0  0  0  0
  147.1556  131.0543  153.0545 C   0  0  0  0  0  0  0  0  0  0  0  0
  147.0893  130.2578  151.8909 O   0  0  0  0  0  0  0  0  0  0  0  0
  146.0524  132.7843  151.4935 C   0  0  1  0  0  0  0  0  0  0  0  0
  144.6599  132.1813  151.5895 C   0  0  0  0  0  0  0  0  0  0  0  0
  143.8993  132.9237  150.4963 C   0  0  0  0  0  0  0  0  0  0  0  0
  144.4948  134.2128  150.4193 O   0  0  0  0  0  0  0  0  0  0  0  0
  145.6877  134.2436  151.1954 C   0  0  0  0  0  0  0  0  0  0  0  0
  152.1792  136.8934  154.5301 H   0  0  0  0  0  0  0  0  0  0  0  0
  151.6137  139.1473  157.6110 H   0  0  0  0  0  0  0  0  0  0  0  0
  149.9372  139.2917  152.9191 H   0  0  0  0  0  0  0  0  0  0  0  0
  150.0280  137.5774  153.2690 H   0  0  0  0  0  0  0  0  0  0  0  0
  153.6008  137.2354  156.3204 H   0  0  0  0  0  0  0  0  0  0  0  0
  153.3830  138.9380  155.9462 H   0  0  0  0  0  0  0  0  0  0  0  0
  151.5671  136.1113  157.8449 H   0  0  0  0  0  0  0  0  0  0  0  0
  150.2413  137.2418  158.1322 H   0  0  0  0  0  0  0  0  0  0  0  0
  151.2680  132.6390  155.4209 H   0  0  0  0  0  0  0  0  0  0  0  0
  145.9215  136.0768  154.3754 H   0  0  0  0  0  0  0  0  0  0  0  0
  146.1781  132.6059  154.7807 H   0  0  0  0  0  0  0  0  0  0  0  0
  145.4149  133.7698  153.7264 H   0  0  0  0  0  0  0  0  0  0  0  0
  147.9316  132.9945  152.5373 H   0  0  0  0  0  0  0  0  0  0  0  0
  148.1353  130.8639  153.4897 H   0  0  0  0  0  0  0  0  0  0  0  0
  146.4190  130.7068  153.7796 H   0  0  0  0  0  0  0  0  0  0  0  0
  147.9263  130.2949  151.4534 H   0  0  0  0  0  0  0  0  0  0  0  0
  146.5455  132.3653  150.6149 H   0  0  0  0  0  0  0  0  0  0  0  0
  144.6433  131.1016  151.4374 H   0  0  0  0  0  0  0  0  0  0  0  0
  144.2181  132.3969  152.5635 H   0  0  0  0  0  0  0  0  0  0  0  0
  144.0279  132.4242  149.5353 H   0  0  0  0  0  0  0  0  0  0  0  0
  142.8311  132.9895  150.7041 H   0  0  0  0  0  0  0  0  0  0  0  0
  145.4781  134.7857  152.1184 H   0  0  0  0  0  0  0  0  0  0  0  0
  146.4781  134.7727  150.6628 H   0  0  0  0  0  0  0  0  0  0  0  0
  1  2  1  0  0  0  0
  1 30  1  0  0  0  0
  1 31  1  0  0  0  0
  2  3  2  0  0  0  0
  2  4  1  0  0  0  0
  4 28  1  0  0  0  0
  4  9  1  0  0  0  0
  4  5  1  0  0  0  0
  5  6  1  0  0  0  0
  5 32  1  0  0  0  0
  5 33  1  0  0  0  0
  6 29  1  0  0  0  0
  6  7  1  0  0  0  0
  6  8  1  0  0  0  0
  8  9  1  0  0  0  0
  8 34  1  0  0  0  0
  8 35  1  0  0  0  0
  9 10  1  0  0  0  0
 10 15  1  0  0  0  0
 10 11  2  0  0  0  0
 11 12  1  0  0  0  0
 12 13  2  0  0  0  0
 12 36  1  0  0  0  0
 13 14  1  0  0  0  0
 14 18  1  0  0  0  0
 14 15  2  0  0  0  0
 15 16  1  0  0  0  0
 16 17  2  0  0  0  0
 17 18  1  0  0  0  0
 17 37  1  0  0  0  0
 18 19  1  0  0  0  0
 19 20  1  0  0  0  0
 19 38  1  0  0  0  0
 19 39  1  0  0  0  0
 20 21  1  0  0  0  0
 20 23  1  0  0  0  0
 20 40  1  0  0  0  0
 21 22  1  0  0  0  0
 21 41  1  0  0  0  0
 21 42  1  0  0  0  0
 22 43  1  0  0  0  0
 23 27  1  0  0  0  0
 23 24  1  0  0  0  0
 23 44  1  0  0  0  0
 24 25  1  0  0  0  0
 24 45  1  0  0  0  0
 24 46  1  0  0  0  0
 25 26  1  0  0  0  0
 25 47  1  0  0  0  0
 25 48  1  0  0  0  0
 26 27  1  0  0  0  0
 27 49  1  0  0  0  0
 27 50  1  0  0  0  0
M  END
> <s_m_source_file>
AV-unprocessed.smi

> <i_m_source_file_index>
221

> <i_lp_mmshare_version>
43012

> <i_f3d_flags>
0

> <s_epik_input>
W05IMl1DKD1PKVtDQEBIXTFbQ0gyXVtDQEBIXShGKVtDSDJdTjFjKG5bY0hdbjIpYyhjMjMpbltjSF1uM1tDSDJdW0NASF0oW0NIMl1bT0hdKVtDQEBIXTRbQ0gyXVtDSDJdT1tDSDJdNA==

> <s_epik_cmdline>
J2VwaWtfcHl0aG9uJywgJy1waCcsICc3LjAnLCAnLXRuJywgJzgnLCAnLW1hJywgJzIwMCcsICctbWV0YWxfYmluZGluZycsICctaW1hZScsICc8aW5maWxlLm1hZT4nLCAnLW9tYWUnLCAnPG91dGZpbGUubWFlPic=

> <r_lp_tautomer_probability>
1

> <r_epik_Ionization_Penalty>
0.000818822

> <r_epik_Ionization_Penalty_Charging>
0

> <r_epik_Ionization_Penalty_Neutral>
0.000818822

> <r_epik_State_Penalty>
0.000440551

> <r_epik_Charging_Adjusted_Penalty>
0.000440551

> <i_epik_Tot_Q>
0

> <i_epik_Tot_abs_Q>
0

> <r_epik_Metal_State_Penalty>
-0

> <b_epik_Metal_Only>
0

> <s_lp_Force_Field>
OPLS_2005

> <r_lp_Energy>
50.9528

> <b_lp_Chiralities_Consistent>
1

> <s_lp_Variant>
AV-unprocessed.smi:221-16

> <Gold.Version>
5.8.1

> <Gold.Id.Protein>
6NUR|6NUR_protein|mol2

> <Gold.PLP.Fitness>
45.7237

> <Gold.PLP.PLP>
-36.2925

> <Gold.PLP.part.hbond>
-4.1426

> <Gold.PLP.part.metal>
0.0000

> <Gold.PLP.part.buried>
-8.0558

> <Gold.PLP.part.nonpolar>
-24.7066

> <Gold.PLP.part.repulsive>
0.9404

> <Gold.PLP.ligand.clash>
0.0000

> <Gold.PLP.ligand.torsion>
1.3383

> <Gold.PLP.Chemscore.Hbond>
3.8880

> <Gold.PLP.Chemscore.CHOScore>
0.0000

> <Gold.PLP.Chemscore.Metal>
0.0000

> <Gold.Chemscore.Hbonds>
donor molecule, donor type, donor heavy atom, donor atom, acceptor molecule, acceptor atom, score
      L1  H     1    30       P1  7957  0.93
      L1  H     1    31       P1  7948  0.58
      L1  H    22    43       P1 10747  1.00
      P1  H  7989  7998       L1     3  0.98
      P1  H 10752 10764       L1    11  0.05

> <Gold.PLP.Chemscore.Internal.Correction>
0.4438

> <Gold.Rescore>
     Score         DG    S(hbond)    S(metal)    S(lipo)     H(rot)  DE(clash)    DE(int)     intcor
     13.00     -14.38       3.25        0.00      64.86       3.72       0.03       1.36       ----

> <Gold.Chemscore.Fitness>
12.9985

> <Gold.Chemscore.DG>
-14.3834

> <Gold.Chemscore.ZeroCoef>
-5.4800

> <Gold.Chemscore.Hbond>
3.2451

> <Gold.Chemscore.Metal>
0.0000

> <Gold.Chemscore.Lipo>
64.8580

> <Gold.Chemscore.Internal_Hbond>
0.0000

> <Gold.Chemscore.DEClash>
0.0282

> <Gold.Chemscore.DEInternal>
1.3566

> <Gold.Chemscore.Rot>
3.7202

> <Gold.Chemscore.Internal.Correction>
   9.000000E+99

> <Gold.Chemscore.Hbonds>
donor molecule, donor type, donor heavy atom, donor atom, acceptor molecule, acceptor atom, score
      L1  H     1    30       P1  7957  0.86
      L1  H     1    31       P1  7948  0.19
      L1  H    22    43       P1 10747  0.98
      P1  H  7989  7998       L1     3  0.84
      P1  H 10752 10764       L1    11  0.01

> <Gold.Chemscore.Hbond.Weighted>
-10.8387

> <Gold.Chemscore.Metal.Weighted>
-0.0000

> <Gold.Chemscore.Lipo.Weighted>
-7.5884

> <Gold.Chemscore.Internal_Hbond.Weighted>
0.0000

> <Gold.Chemscore.DEClash.Weighted>
0.0282

> <Gold.Chemscore.DEInternal.Weighted>
1.3566

> <Gold.Chemscore.Rot.Weighted>
9.5237

> <Gold.Chemscore.Internal.Correction.Weighted>
   9.000000E+99

> <Gold.Protein.RotatedTorsions>
[ 6907 6896 6895 6894 ] final  -81.56 input  -60.11 | X-H torsion
[ 7974 7965 7964 7962 ] final   50.78 input  175.53 | X-H torsion
[ 8008 7997 7996 7995 ] final   76.62 input   59.86 | X-H torsion
[ 10167 10162 10161 10158 ] final -103.27 input  -65.29 | X-H torsion
[ 10718 10713 10712 10709 ] final  146.05 input   66.30 | X-H torsion
[ 10763 10752 10751 10750 ] final  -63.24 input  -60.55 | X-H torsion
[ 11005 11000 10999 10996 ] final  -42.02 input  -57.11 | X-H torsion

> <Gold.Protein.ActiveResidues>
 VAL166  LYS551  ARG553  GLY616  TRP617  ASP618  TYR619  PRO620  LYS621  CYS622 
 ASP623  PHE694  ASN695  SER759  ASP760  ASP761  ALA762  ILE779  LEU786  VAL792 
 PHE793  MET794  SER795  GLU796  ALA797  LYS798  CYS799  TRP800  GLU811  SER814 

> <Gold.Protein.RotatedAtoms>
  150.6910  134.3798  159.5028 H   0  0  0  0  0  0  0  0  0  0  0  0  # atno 6907 bound_to 6896
  152.1602  134.8915  160.0551 H   0  0  0  0  0  0  0  0  0  0  0  0  # atno 6908 bound_to 6896
  151.9980  133.3780  159.4207 H   0  0  0  0  0  0  0  0  0  0  0  0  # atno 6909 bound_to 6896
  145.9978  139.4407  143.0033 H   0  0  0  0  0  0  0  0  0  0  0  0  # atno 7974 bound_to 7965
  155.8299  140.3466  155.5566 H   0  0  0  0  0  0  0  0  0  0  0  0  # atno 8008 bound_to 7997
  155.8253  140.0919  157.1845 H   0  0  0  0  0  0  0  0  0  0  0  0  # atno 8009 bound_to 7997
  154.4004  140.1422  156.3536 H   0  0  0  0  0  0  0  0  0  0  0  0  # atno 8010 bound_to 7997
  140.2217  143.3671  152.0963 H   0  0  0  0  0  0  0  0  0  0  0  0  # atno 10167 bound_to 10162
  157.3379  131.0931  151.1107 H   0  0  0  0  0  0  0  0  0  0  0  0  # atno 10718 bound_to 10713
  154.3121  135.6213  153.5470 H   0  0  0  0  0  0  0  0  0  0  0  0  # atno 10763 bound_to 10752
  152.9828  135.5703  154.5165 H   0  0  0  0  0  0  0  0  0  0  0  0  # atno 10764 bound_to 10752
  154.4817  135.2863  155.1542 H   0  0  0  0  0  0  0  0  0  0  0  0  # atno 10765 bound_to 10752
  141.0287  133.6830  156.2537 H   0  0  0  0  0  0  0  0  0  0  0  0  # atno 11005 bound_to 11000
  145.7533  140.9964  143.1239 LP  0  0  0  0  0  0  0  0  0  0  0  0  # atno 17320 bound_to 7965
  144.6909  139.9241  143.7469 LP  0  0  0  0  0  0  0  0  0  0  0  0  # atno 17321 bound_to 7965
  139.5142  144.6943  151.5672 LP  0  0  0  0  0  0  0  0  0  0  0  0  # atno 17342 bound_to 10162
  140.6250  143.9186  150.6557 LP  0  0  0  0  0  0  0  0  0  0  0  0  # atno 17343 bound_to 10162
  157.2330  130.6534  149.5858 LP  0  0  0  0  0  0  0  0  0  0  0  0  # atno 17370 bound_to 10713
  155.9704  130.4592  150.6029 LP  0  0  0  0  0  0  0  0  0  0  0  0  # atno 17371 bound_to 10713
  140.6446  134.5130  157.5572 LP  0  0  0  0  0  0  0  0  0  0  0  0  # atno 17394 bound_to 11000
  139.9193  134.8182  156.1263 LP  0  0  0  0  0  0  0  0  0  0  0  0  # atno 17395 bound_to 11000

$$$$
