AV-unprocessed.smi:603|AV-procd|sdf|3036|dock1
  -GOLD-   2262023553D 1   1.00000     0.00000
 Structure written by MMmdl.
 35 36  0  0  0  0  0  0  0  0  1 V2000
  150.8834  136.9990  158.9821 O   0  0  0  0  0  0  0  0  0  0  0  0
  150.0211  137.8453  158.7375 C   0  0  0  0  0  0  0  0  0  0  0  0
  148.6025  137.3764  158.3955 C   0  0  0  0  0  0  0  0  0  0  0  0
  148.0431  136.5259  159.4548 N   0  0  0  0  0  0  0  0  0  0  0  0
  147.7307  137.2086  160.6177 N   0  0  0  0  0  0  0  0  0  0  0  0
  147.2254  136.5675  161.6145 C   0  0  0  0  0  0  0  0  0  0  0  0
  146.9719  135.1447  161.5661 C   0  0  0  0  0  0  0  0  0  0  0  0
  146.2913  134.3381  162.9347 Cl  0  0  0  0  0  0  0  0  0  0  0  0
  147.2860  134.4837  160.4237 C   0  0  0  0  0  0  0  0  0  0  0  0
  147.0117  132.7805  160.2902 Cl  0  0  0  0  0  0  0  0  0  0  0  0
  147.8642  135.1820  159.2670 C   0  0  0  0  0  0  0  0  0  0  0  0
  148.1628  134.6172  158.2140 O   0  0  0  0  0  0  0  0  0  0  0  0
  150.2016  139.1865  158.7461 N   0  0  0  0  0  0  0  0  0  0  0  0
  151.2977  139.9354  159.0115 C   0  0  0  0  0  0  0  0  0  0  0  0
  152.3645  139.3998  159.3080 O   0  0  0  0  0  0  0  0  0  0  0  0
  151.1605  141.2728  158.9371 N   0  0  0  0  0  0  0  0  0  0  0  0
  152.2448  142.2445  159.0481 C   0  0  0  0  0  0  0  0  0  0  0  0
  152.9956  142.1018  160.3872 C   0  0  0  0  0  0  0  0  0  0  0  0
  152.5864  143.3107  161.2286 C   0  0  0  0  0  0  0  0  0  0  0  0
  152.3347  144.4097  160.2013 C   0  0  0  0  0  0  0  0  0  0  0  0
  151.6926  143.6828  159.0182 C   0  0  0  0  0  0  0  0  0  0  0  0
  147.9586  138.2367  158.2026 H   0  0  0  0  0  0  0  0  0  0  0  0
  148.6364  136.8280  157.4520 H   0  0  0  0  0  0  0  0  0  0  0  0
  146.9620  137.0641  162.5486 H   0  0  0  0  0  0  0  0  0  0  0  0
  149.3758  139.7231  158.5232 H   0  0  0  0  0  0  0  0  0  0  0  0
  150.2316  141.6424  158.7911 H   0  0  0  0  0  0  0  0  0  0  0  0
  152.9444  142.1070  158.2215 H   0  0  0  0  0  0  0  0  0  0  0  0
  152.7967  141.1605  160.9014 H   0  0  0  0  0  0  0  0  0  0  0  0
  154.0695  142.1419  160.2004 H   0  0  0  0  0  0  0  0  0  0  0  0
  151.6622  143.0903  161.7646 H   0  0  0  0  0  0  0  0  0  0  0  0
  153.3428  143.5862  161.9640 H   0  0  0  0  0  0  0  0  0  0  0  0
  151.7092  145.2138  160.5899 H   0  0  0  0  0  0  0  0  0  0  0  0
  153.2854  144.8464  159.8926 H   0  0  0  0  0  0  0  0  0  0  0  0
  151.9017  144.1839  158.0725 H   0  0  0  0  0  0  0  0  0  0  0  0
  150.6089  143.6829  159.1482 H   0  0  0  0  0  0  0  0  0  0  0  0
  1  2  2  0  0  0  0
  2  3  1  0  0  0  0
  2 13  1  0  0  0  0
  3  4  1  0  0  0  0
  3 22  1  0  0  0  0
  3 23  1  0  0  0  0
  4 11  1  0  0  0  0
  4  5  1  0  0  0  0
  5  6  2  0  0  0  0
  6  7  1  0  0  0  0
  6 24  1  0  0  0  0
  7  8  1  0  0  0  0
  7  9  2  0  0  0  0
  9 10  1  0  0  0  0
  9 11  1  0  0  0  0
 11 12  2  0  0  0  0
 13 14  1  0  0  0  0
 13 25  1  0  0  0  0
 14 15  2  0  0  0  0
 14 16  1  0  0  0  0
 16 17  1  0  0  0  0
 16 26  1  0  0  0  0
 17 21  1  0  0  0  0
 17 18  1  0  0  0  0
 17 27  1  0  0  0  0
 18 19  1  0  0  0  0
 18 28  1  0  0  0  0
 18 29  1  0  0  0  0
 19 20  1  0  0  0  0
 19 30  1  0  0  0  0
 19 31  1  0  0  0  0
 20 21  1  0  0  0  0
 20 32  1  0  0  0  0
 20 33  1  0  0  0  0
 21 34  1  0  0  0  0
 21 35  1  0  0  0  0
M  END
> <s_m_source_file>
AV-unprocessed.smi

> <i_m_source_file_index>
603

> <i_lp_mmshare_version>
43012

> <i_f3d_flags>
0

> <s_epik_input>
W0NIMl0xW0NIMl1bQ0gyXVtDSDJdW0NIXTFbTkhdQyg9TylbTkhdQyg9TylbQ0gyXW4ybltjSF1jKENsKWMoQ2wpYzI9Tw==

> <s_epik_cmdline>
J2VwaWtfcHl0aG9uJywgJy1waCcsICc3LjAnLCAnLXRuJywgJzgnLCAnLW1hJywgJzIwMCcsICctbWV0YWxfYmluZGluZycsICctaW1hZScsICc8aW5maWxlLm1hZT4nLCAnLW9tYWUnLCAnPG91dGZpbGUubWFlPic=

> <r_lp_tautomer_probability>
1

> <r_epik_Ionization_Penalty>
3.28905e-05

> <r_epik_Ionization_Penalty_Charging>
2.24292e-11

> <r_epik_Ionization_Penalty_Neutral>
3.28905e-05

> <r_epik_State_Penalty>
-0

> <r_epik_Charging_Adjusted_Penalty>
2.24292e-11

> <i_epik_Tot_Q>
0

> <i_epik_Tot_abs_Q>
0

> <r_epik_Metal_State_Penalty>
-0

> <b_epik_Metal_Only>
0

> <s_lp_Force_Field>
OPLS_2005

> <r_lp_Energy>
36.9935

> <b_lp_Chiralities_Consistent>
1

> <s_lp_Variant>
AV-unprocessed.smi:603-1

> <Gold.Version>
5.8.1

> <Gold.Id.Protein>
6NUR|6NUR_protein|mol2

> <Gold.PLP.Fitness>
48.8577

> <Gold.PLP.PLP>
-40.6754

> <Gold.PLP.part.hbond>
-4.0000

> <Gold.PLP.part.metal>
0.0000

> <Gold.PLP.part.buried>
-3.4110

> <Gold.PLP.part.nonpolar>
-35.1043

> <Gold.PLP.part.repulsive>
0.3293

> <Gold.PLP.ligand.clash>
0.0000

> <Gold.PLP.ligand.torsion>
0.1409

> <Gold.PLP.Chemscore.Hbond>
2.8017

> <Gold.PLP.Chemscore.CHOScore>
0.0000

> <Gold.PLP.Chemscore.Metal>
0.0000

> <Gold.Chemscore.Hbonds>
donor molecule, donor type, donor heavy atom, donor atom, acceptor molecule, acceptor atom, score
      P1  H  6896  6907       L1     1  0.37
      P1  H  6931  6943       L1     5  0.36
      P1  H  6934  6947       L1     5  0.90

> <Gold.PLP.Chemscore.Internal.Correction>
0.0588

> <Gold.Rescore>
     Score         DG    S(hbond)    S(metal)    S(lipo)     H(rot)  DE(clash)    DE(int)     intcor
     17.52     -19.03       1.87        0.00      98.70       1.65       0.02       1.49       ----

> <Gold.Chemscore.Fitness>
17.5155

> <Gold.Chemscore.DG>
-19.0253

> <Gold.Chemscore.ZeroCoef>
-5.4800

> <Gold.Chemscore.Hbond>
1.8659

> <Gold.Chemscore.Metal>
0.0000

> <Gold.Chemscore.Lipo>
98.7021

> <Gold.Chemscore.Internal_Hbond>
0.0000

> <Gold.Chemscore.DEClash>
0.0192

> <Gold.Chemscore.DEInternal>
1.4906

> <Gold.Chemscore.Rot>
1.6543

> <Gold.Chemscore.Internal.Correction>
   9.000000E+99

> <Gold.Chemscore.Hbonds>
donor molecule, donor type, donor heavy atom, donor atom, acceptor molecule, acceptor atom, score
      P1  H  6896  6907       L1     1  0.36
      P1  H  6931  6943       L1     5  0.02
      P1  H  6934  6947       L1     5  0.39

> <Gold.Chemscore.Hbond.Weighted>
-6.2320

> <Gold.Chemscore.Metal.Weighted>
-0.0000

> <Gold.Chemscore.Lipo.Weighted>
-11.5482

> <Gold.Chemscore.Internal_Hbond.Weighted>
0.0000

> <Gold.Chemscore.DEClash.Weighted>
0.0192

> <Gold.Chemscore.DEInternal.Weighted>
1.4906

> <Gold.Chemscore.Rot.Weighted>
4.2349

> <Gold.Chemscore.Internal.Correction.Weighted>
   9.000000E+99

> <Gold.Protein.RotatedTorsions>
[ 6907 6896 6895 6894 ] final    6.56 input  -60.11 | X-H torsion
[ 7974 7965 7964 7962 ] final -106.07 input  175.53 | X-H torsion
[ 8008 7997 7996 7995 ] final  175.84 input   59.86 | X-H torsion
[ 10167 10162 10161 10158 ] final   15.37 input  -65.29 | X-H torsion
[ 10718 10713 10712 10709 ] final  -54.82 input   66.30 | X-H torsion
[ 10763 10752 10751 10750 ] final  -25.87 input  -60.55 | X-H torsion
[ 11005 11000 10999 10996 ] final  136.89 input  -57.11 | X-H torsion

> <Gold.Protein.ActiveResidues>
 VAL166  LYS551  ARG553  GLY616  TRP617  ASP618  TYR619  PRO620  LYS621  CYS622 
 ASP623  PHE694  ASN695  SER759  ASP760  ASP761  ALA762  ILE779  LEU786  VAL792 
 PHE793  MET794  SER795  GLU796  ALA797  LYS798  CYS799  TRP800  GLU811  SER814 

> <Gold.Protein.RotatedAtoms>
  151.6756  135.0969  160.0206 H   0  0  0  0  0  0  0  0  0  0  0  0  # atno 6907 bound_to 6896
  152.3866  133.6615  159.6212 H   0  0  0  0  0  0  0  0  0  0  0  0  # atno 6908 bound_to 6896
  150.7790  133.8942  159.3363 H   0  0  0  0  0  0  0  0  0  0  0  0  # atno 6909 bound_to 6896
  145.2225  140.9140  143.3251 H   0  0  0  0  0  0  0  0  0  0  0  0  # atno 7974 bound_to 7965
  156.0828  140.1398  156.9691 H   0  0  0  0  0  0  0  0  0  0  0  0  # atno 8008 bound_to 7997
  154.4595  140.0948  156.6901 H   0  0  0  0  0  0  0  0  0  0  0  0  # atno 8009 bound_to 7997
  155.5048  140.3452  155.4380 H   0  0  0  0  0  0  0  0  0  0  0  0  # atno 8010 bound_to 7997
  140.5872  143.8867  150.6840 H   0  0  0  0  0  0  0  0  0  0  0  0  # atno 10167 bound_to 10162
  156.1419  130.4154  150.0089 H   0  0  0  0  0  0  0  0  0  0  0  0  # atno 10718 bound_to 10713
  153.7068  135.6953  153.5048 H   0  0  0  0  0  0  0  0  0  0  0  0  # atno 10763 bound_to 10752
  153.2301  135.4340  155.0585 H   0  0  0  0  0  0  0  0  0  0  0  0  # atno 10764 bound_to 10752
  154.8327  135.3482  154.6606 H   0  0  0  0  0  0  0  0  0  0  0  0  # atno 10765 bound_to 10752
  140.0077  134.9452  157.0210 H   0  0  0  0  0  0  0  0  0  0  0  0  # atno 11005 bound_to 11000
  144.9752  139.3839  143.6289 LP  0  0  0  0  0  0  0  0  0  0  0  0  # atno 17320 bound_to 7965
  146.3372  139.8868  142.8815 LP  0  0  0  0  0  0  0  0  0  0  0  0  # atno 17321 bound_to 7965
  140.2381  143.3684  152.1510 LP  0  0  0  0  0  0  0  0  0  0  0  0  # atno 17342 bound_to 10162
  139.5205  144.7033  151.5429 LP  0  0  0  0  0  0  0  0  0  0  0  0  # atno 17343 bound_to 10162
  156.7972  130.9277  151.3646 LP  0  0  0  0  0  0  0  0  0  0  0  0  # atno 17370 bound_to 10713
  157.6583  130.8944  149.9775 LP  0  0  0  0  0  0  0  0  0  0  0  0  # atno 17371 bound_to 10713
  140.4612  134.1482  155.7191 LP  0  0  0  0  0  0  0  0  0  0  0  0  # atno 17394 bound_to 11000
  141.1688  133.8649  157.1633 LP  0  0  0  0  0  0  0  0  0  0  0  0  # atno 17395 bound_to 11000

$$$$
