AV-unprocessed.smi:3194|AV-procd|sdf|12210|dock6
  -GOLD-   2272018 43D 1   1.00000     0.00000
 Structure written by MMmdl.
 28 28  0  0  0  0  0  0  0  0  1 V2000
  147.0442  141.8893  155.1637 C   0  0  0  0  0  0  0  0  0  0  0  0
  148.4168  141.3010  154.7925 C   0  0  2  0  0  0  0  0  0  0  0  0
  148.3322  139.9916  153.9861 C   0  0  0  0  0  0  0  0  0  0  0  0
  147.6932  140.1855  152.7404 O   0  0  0  0  0  0  0  0  0  0  0  0
  149.2491  141.1019  155.9757 N   0  0  0  0  0  0  0  0  0  0  0  0
  150.5226  140.6730  155.9794 C   0  0  0  0  0  0  0  0  0  0  0  0
  151.1424  140.3993  154.9507 O   0  0  0  0  0  0  0  0  0  0  0  0
  151.1965  140.5198  157.3513 C   0  0  0  0  0  0  0  0  0  0  0  0
  150.3930  139.8107  158.1477 F   0  0  0  0  0  0  0  0  0  0  0  0
  152.3355  139.8366  157.2098 F   0  0  0  0  0  0  0  0  0  0  0  0
  151.4749  141.8914  157.9609 C   0  0  0  0  0  0  0  0  0  0  0  0
  152.1971  142.0177  159.1695 C   0  0  0  0  0  0  0  0  0  0  0  0
  152.4144  143.3056  159.6957 C   0  0  0  0  0  0  0  0  0  0  0  0
  151.9032  144.4178  159.0007 C   0  0  0  0  0  0  0  0  0  0  0  0
  151.1926  144.1914  157.8058 C   0  0  0  0  0  0  0  0  0  0  0  0
  150.9782  142.9610  157.2934 N   0  0  0  0  0  0  0  0  0  0  0  0
  148.9213  142.0238  154.1488 H   0  0  0  0  0  0  0  0  0  0  0  0
  146.4259  142.0268  154.2763 H   0  0  0  0  0  0  0  0  0  0  0  0
  147.1501  142.8628  155.6432 H   0  0  0  0  0  0  0  0  0  0  0  0
  146.5005  141.2413  155.8521 H   0  0  0  0  0  0  0  0  0  0  0  0
  149.3355  139.6102  153.7941 H   0  0  0  0  0  0  0  0  0  0  0  0
  147.8041  139.2209  154.5492 H   0  0  0  0  0  0  0  0  0  0  0  0
  148.2880  139.9253  152.0536 H   0  0  0  0  0  0  0  0  0  0  0  0
  148.8177  141.2991  156.8676 H   0  0  0  0  0  0  0  0  0  0  0  0
  152.5740  141.1488  159.6885 H   0  0  0  0  0  0  0  0  0  0  0  0
  152.9619  143.4376  160.6172 H   0  0  0  0  0  0  0  0  0  0  0  0
  152.0506  145.4201  159.3749 H   0  0  0  0  0  0  0  0  0  0  0  0
  150.7845  145.0206  157.2470 H   0  0  0  0  0  0  0  0  0  0  0  0
  1  2  1  0  0  0  0
  1 18  1  0  0  0  0
  1 19  1  0  0  0  0
  1 20  1  0  0  0  0
  2 17  1  0  0  0  0
  2  3  1  0  0  0  0
  2  5  1  0  0  0  0
  3  4  1  0  0  0  0
  3 21  1  0  0  0  0
  3 22  1  0  0  0  0
  4 23  1  0  0  0  0
  5  6  1  0  0  0  0
  5 24  1  0  0  0  0
  6  7  2  0  0  0  0
  6  8  1  0  0  0  0
  8  9  1  0  0  0  0
  8 10  1  0  0  0  0
  8 11  1  0  0  0  0
 11 16  1  0  0  0  0
 11 12  2  0  0  0  0
 12 13  1  0  0  0  0
 12 25  1  0  0  0  0
 13 14  2  0  0  0  0
 13 26  1  0  0  0  0
 14 15  1  0  0  0  0
 14 27  1  0  0  0  0
 15 16  2  0  0  0  0
 15 28  1  0  0  0  0
M  END
> <s_m_source_file>
AV-unprocessed.smi

> <i_m_source_file_index>
3194

> <i_lp_mmshare_version>
43012

> <i_f3d_flags>
0

> <s_epik_input>
W09IXVtDSDJdW0NASF0oW0NIM10pW05IXUMoPU8pQyhGKShGKWMxW2NIXVtjSF1bY0hdW2NIXW4x

> <s_epik_cmdline>
J2VwaWtfcHl0aG9uJywgJy1waCcsICc3LjAnLCAnLXRuJywgJzgnLCAnLW1hJywgJzIwMCcsICctbWV0YWxfYmluZGluZycsICctaW1hZScsICc8aW5maWxlLm1hZT4nLCAnLW9tYWUnLCAnPG91dGZpbGUubWFlPic=

> <r_lp_tautomer_probability>
1

> <r_epik_Ionization_Penalty>
3.67967e-05

> <r_epik_Ionization_Penalty_Charging>
0

> <r_epik_Ionization_Penalty_Neutral>
3.67967e-05

> <r_epik_State_Penalty>
-0

> <r_epik_Charging_Adjusted_Penalty>
0

> <i_epik_Tot_Q>
0

> <i_epik_Tot_abs_Q>
0

> <r_epik_Metal_State_Penalty>
0.0311521

> <b_epik_Metal_Only>
0

> <s_lp_Force_Field>
OPLS_2005

> <r_lp_Energy>
12.3204

> <b_lp_Chiralities_Consistent>
1

> <s_lp_Variant>
AV-unprocessed.smi:3194-2

> <Gold.Version>
5.8.1

> <Gold.Id.Protein>
6NUR|6NUR_protein|mol2

> <Gold.PLP.Fitness>
40.4574

> <Gold.PLP.PLP>
-32.9245

> <Gold.PLP.part.hbond>
-1.8549

> <Gold.PLP.part.metal>
0.0000

> <Gold.PLP.part.buried>
-3.5243

> <Gold.PLP.part.nonpolar>
-28.5752

> <Gold.PLP.part.repulsive>
0.2407

> <Gold.PLP.ligand.clash>
0.0000

> <Gold.PLP.ligand.torsion>
0.4904

> <Gold.PLP.Chemscore.Hbond>
2.0000

> <Gold.PLP.Chemscore.CHOScore>
0.8226

> <Gold.PLP.Chemscore.Metal>
0.0000

> <Gold.Chemscore.Hbonds>
donor molecule, donor type, donor heavy atom, donor atom, acceptor molecule, acceptor atom, score
      L1  H     4    23       P1  7957  1.00
      P1  H  7989  7998       L1     7  1.00
      L1  C    15    28       P1  8028  0.86

> <Gold.PLP.Chemscore.Internal.Correction>
0.0456

> <Gold.Rescore>
     Score         DG    S(hbond)    S(metal)    S(lipo)     H(rot)  DE(clash)    DE(int)     intcor
     12.98     -14.73       1.97        0.00      77.38       2.50       0.00       1.75       ----

> <Gold.Chemscore.Fitness>
12.9770

> <Gold.Chemscore.DG>
-14.7333

> <Gold.Chemscore.ZeroCoef>
-5.4800

> <Gold.Chemscore.Hbond>
1.9736

> <Gold.Chemscore.Metal>
0.0000

> <Gold.Chemscore.Lipo>
77.3807

> <Gold.Chemscore.Internal_Hbond>
0.0000

> <Gold.Chemscore.DEClash>
0.0048

> <Gold.Chemscore.DEInternal>
1.7515

> <Gold.Chemscore.Rot>
2.4970

> <Gold.Chemscore.Internal.Correction>
   9.000000E+99

> <Gold.Chemscore.Hbonds>
donor molecule, donor type, donor heavy atom, donor atom, acceptor molecule, acceptor atom, score
      L1  H     4    23       P1  7957  0.96
      P1  H  7989  7998       L1     7  0.96

> <Gold.Chemscore.Hbond.Weighted>
-6.5920

> <Gold.Chemscore.Metal.Weighted>
-0.0000

> <Gold.Chemscore.Lipo.Weighted>
-9.0535

> <Gold.Chemscore.Internal_Hbond.Weighted>
0.0000

> <Gold.Chemscore.DEClash.Weighted>
0.0048

> <Gold.Chemscore.DEInternal.Weighted>
1.7515

> <Gold.Chemscore.Rot.Weighted>
6.3922

> <Gold.Chemscore.Internal.Correction.Weighted>
   9.000000E+99

> <Gold.Protein.RotatedTorsions>
[ 6907 6896 6895 6894 ] final  -43.57 input  -60.11 | X-H torsion
[ 7974 7965 7964 7962 ] final  -24.90 input  175.53 | X-H torsion
[ 8008 7997 7996 7995 ] final  -23.66 input   59.86 | X-H torsion
[ 10167 10162 10161 10158 ] final  -18.87 input  -65.29 | X-H torsion
[ 10718 10713 10712 10709 ] final  -12.67 input   66.30 | X-H torsion
[ 10763 10752 10751 10750 ] final  -97.98 input  -60.55 | X-H torsion
[ 11005 11000 10999 10996 ] final  -66.19 input  -57.11 | X-H torsion

> <Gold.Protein.ActiveResidues>
 VAL166  LYS551  ARG553  GLY616  TRP617  ASP618  TYR619  PRO620  LYS621  CYS622 
 ASP623  PHE694  ASN695  SER759  ASP760  ASP761  ALA762  ILE779  LEU786  VAL792 
 PHE793  MET794  SER795  GLU796  ALA797  LYS798  CYS799  TRP800  GLU811  SER814 

> <Gold.Protein.RotatedAtoms>
  150.9424  134.8832  159.7620 H   0  0  0  0  0  0  0  0  0  0  0  0  # atno 6907 bound_to 6896
  152.5086  134.3922  159.9398 H   0  0  0  0  0  0  0  0  0  0  0  0  # atno 6908 bound_to 6896
  151.3942  133.3738  159.2759 H   0  0  0  0  0  0  0  0  0  0  0  0  # atno 6909 bound_to 6896
  146.1525  140.4814  142.8605 H   0  0  0  0  0  0  0  0  0  0  0  0  # atno 7974 bound_to 7965
  154.4572  140.1974  156.0345 H   0  0  0  0  0  0  0  0  0  0  0  0  # atno 8008 bound_to 7997
  156.0770  140.3277  155.7618 H   0  0  0  0  0  0  0  0  0  0  0  0  # atno 8009 bound_to 7997
  155.5173  140.0567  157.2904 H   0  0  0  0  0  0  0  0  0  0  0  0  # atno 8010 bound_to 7997
  140.7263  143.4874  151.0037 H   0  0  0  0  0  0  0  0  0  0  0  0  # atno 10167 bound_to 10162
  156.6413  130.4928  149.6094 H   0  0  0  0  0  0  0  0  0  0  0  0  # atno 10718 bound_to 10713
  154.7375  135.5026  153.9066 H   0  0  0  0  0  0  0  0  0  0  0  0  # atno 10763 bound_to 10752
  153.1010  135.6685  153.9682 H   0  0  0  0  0  0  0  0  0  0  0  0  # atno 10764 bound_to 10752
  153.9468  135.3062  155.3419 H   0  0  0  0  0  0  0  0  0  0  0  0  # atno 10765 bound_to 10752
  141.1475  133.6695  156.6101 H   0  0  0  0  0  0  0  0  0  0  0  0  # atno 11005 bound_to 11000
  144.7922  140.6053  143.6534 LP  0  0  0  0  0  0  0  0  0  0  0  0  # atno 17320 bound_to 7965
  145.4788  139.1497  143.3773 LP  0  0  0  0  0  0  0  0  0  0  0  0  # atno 17321 bound_to 7965
  139.8576  143.7356  152.3175 LP  0  0  0  0  0  0  0  0  0  0  0  0  # atno 17342 bound_to 10162
  139.7560  144.7520  151.0434 LP  0  0  0  0  0  0  0  0  0  0  0  0  # atno 17343 bound_to 10162
  156.2157  130.6706  151.1316 LP  0  0  0  0  0  0  0  0  0  0  0  0  # atno 17370 bound_to 10713
  157.7170  131.0704  150.6287 LP  0  0  0  0  0  0  0  0  0  0  0  0  # atno 17371 bound_to 10713
  140.3621  134.7678  157.4541 LP  0  0  0  0  0  0  0  0  0  0  0  0  # atno 17394 bound_to 11000
  140.0777  134.5775  155.8574 LP  0  0  0  0  0  0  0  0  0  0  0  0  # atno 17395 bound_to 11000

$$$$
