AV-unprocessed.smi:1006|AV-procd|sdf|4392|dock6
  -GOLD-   22720 2323D 1   1.00000     0.00000
 Structure written by MMmdl.
 46 48  0  0  0  0  0  0  0  0  2 V2000
  148.9836  132.7516  152.6210 C   0  0  0  0  0  0  0  0  0  0  0  0
  149.8642  133.2315  153.7552 C   0  0  0  0  0  0  0  0  0  0  0  0
  150.4618  132.3385  154.6679 C   0  0  0  0  0  0  0  0  0  0  0  0
  151.2601  132.9036  155.6777 C   0  0  0  0  0  0  0  0  0  0  0  0
  151.8937  132.1008  156.6226 N   0  0  0  0  0  0  0  0  0  0  0  0
  151.4425  134.2358  155.7681 N   0  0  0  0  0  0  0  0  0  0  0  0
  150.8448  135.0282  154.8686 C   0  0  0  0  0  0  0  0  0  0  0  0
  151.0860  136.7937  154.9537 S   0  0  0  0  0  0  0  0  0  0  0  0
  152.2064  136.9712  156.3775 C   0  0  0  0  0  0  0  0  0  0  0  0
  152.6940  138.4188  156.5496 C   0  0  2  0  0  0  0  0  0  0  0  0
  154.0958  138.4119  156.7430 O   0  0  0  0  0  0  0  0  0  0  0  0
  152.0091  139.1196  157.7386 C   0  0  0  0  0  0  0  0  0  0  0  0
  151.6682  140.5017  157.4500 N   0  0  0  0  0  0  0  0  0  0  0  0
  151.2025  140.9958  156.2868 C   0  0  0  0  0  0  0  0  0  0  0  0
  150.9535  142.3010  156.2352 N   0  0  0  0  0  0  0  0  0  0  0  0
  151.2961  142.7008  157.5156 C   0  0  0  0  0  0  0  0  0  0  0  0
  151.2615  143.9780  158.1170 C   0  0  0  0  0  0  0  0  0  0  0  0
  151.6616  144.1580  159.4603 C   0  0  0  0  0  0  0  0  0  0  0  0
  151.6061  145.5487  160.0677 C   0  0  0  0  0  0  0  0  0  0  0  0
  152.1070  143.0487  160.2234 C   0  0  0  0  0  0  0  0  0  0  0  0
  152.5404  143.2174  161.6689 C   0  0  0  0  0  0  0  0  0  0  0  0
  152.1494  141.7661  159.6375 C   0  0  0  0  0  0  0  0  0  0  0  0
  151.7465  141.5993  158.3008 C   0  0  0  0  0  0  0  0  0  0  0  0
  150.0726  134.5669  153.8744 N   0  3  0  0  0  0  0  0  0  0  0  0
  148.7422  131.6941  152.7324 H   0  0  0  0  0  0  0  0  0  0  0  0
  149.4901  132.8878  151.6651 H   0  0  0  0  0  0  0  0  0  0  0  0
  148.0484  133.3119  152.5987 H   0  0  0  0  0  0  0  0  0  0  0  0
  150.3143  131.2704  154.5939 H   0  0  0  0  0  0  0  0  0  0  0  0
  151.8007  131.0953  156.6127 H   0  0  0  0  0  0  0  0  0  0  0  0
  152.4835  132.4974  157.3403 H   0  0  0  0  0  0  0  0  0  0  0  0
  151.6689  136.6542  157.2720 H   0  0  0  0  0  0  0  0  0  0  0  0
  153.0595  136.3017  156.2608 H   0  0  0  0  0  0  0  0  0  0  0  0
  152.4809  138.9799  155.6386 H   0  0  0  0  0  0  0  0  0  0  0  0
  154.4982  137.9658  156.0135 H   0  0  0  0  0  0  0  0  0  0  0  0
  151.0929  138.5933  158.0089 H   0  0  0  0  0  0  0  0  0  0  0  0
  152.6527  139.0942  158.6189 H   0  0  0  0  0  0  0  0  0  0  0  0
  151.0386  140.3608  155.4285 H   0  0  0  0  0  0  0  0  0  0  0  0
  150.9223  144.8224  157.5353 H   0  0  0  0  0  0  0  0  0  0  0  0
  150.9214  145.5667  160.9158 H   0  0  0  0  0  0  0  0  0  0  0  0
  151.2610  146.2865  159.3429 H   0  0  0  0  0  0  0  0  0  0  0  0
  152.5937  145.8559  160.4123 H   0  0  0  0  0  0  0  0  0  0  0  0
  152.8583  142.2687  162.1021 H   0  0  0  0  0  0  0  0  0  0  0  0
  151.7171  143.6016  162.2717 H   0  0  0  0  0  0  0  0  0  0  0  0
  153.3764  143.9137  161.7391 H   0  0  0  0  0  0  0  0  0  0  0  0
  152.4892  140.9134  160.2067 H   0  0  0  0  0  0  0  0  0  0  0  0
  149.6407  135.2085  153.2093 H   0  0  0  0  0  0  0  0  0  0  0  0
  1  2  1  0  0  0  0
  1 25  1  0  0  0  0
  1 26  1  0  0  0  0
  1 27  1  0  0  0  0
  2 24  1  0  0  0  0
  2  3  2  0  0  0  0
  3  4  1  0  0  0  0
  3 28  1  0  0  0  0
  4  5  1  0  0  0  0
  4  6  2  0  0  0  0
  5 29  1  0  0  0  0
  5 30  1  0  0  0  0
  6  7  1  0  0  0  0
  7  8  1  0  0  0  0
  7 24  2  0  0  0  0
  8  9  1  0  0  0  0
  9 10  1  0  0  0  0
  9 31  1  0  0  0  0
  9 32  1  0  0  0  0
 10 11  1  0  0  0  0
 10 12  1  0  0  0  0
 10 33  1  0  0  0  0
 11 34  1  0  0  0  0
 12 13  1  0  0  0  0
 12 35  1  0  0  0  0
 12 36  1  0  0  0  0
 13 23  1  0  0  0  0
 13 14  1  0  0  0  0
 14 15  2  0  0  0  0
 14 37  1  0  0  0  0
 15 16  1  0  0  0  0
 16 23  2  0  0  0  0
 16 17  1  0  0  0  0
 17 18  2  0  0  0  0
 17 38  1  0  0  0  0
 18 19  1  0  0  0  0
 18 20  1  0  0  0  0
 19 39  1  0  0  0  0
 19 40  1  0  0  0  0
 19 41  1  0  0  0  0
 20 21  1  0  0  0  0
 20 22  2  0  0  0  0
 21 42  1  0  0  0  0
 21 43  1  0  0  0  0
 21 44  1  0  0  0  0
 22 23  1  0  0  0  0
 22 45  1  0  0  0  0
 24 46  1  0  0  0  0
M  CHG  1  24   1
M  END
> <s_m_source_file>
AV-unprocessed.smi

> <i_m_source_file_index>
1006

> <i_lp_mmshare_version>
43012

> <i_f3d_flags>
0

> <s_epik_input>
W0NIM11jMVtjSF1jKFtOSDJdKW5jKG4xKVNbQ0gyXVtDQEhdKFtPSF0pW0NIMl1uKFtjSF1uMiljKGMyMylbY0hdYyhbQ0gzXSljKFtjSF0zKVtDSDNd

> <s_epik_cmdline>
J2VwaWtfcHl0aG9uJywgJy1waCcsICc3LjAnLCAnLXRuJywgJzgnLCAnLW1hJywgJzIwMCcsICctbWV0YWxfYmluZGluZycsICctaW1hZScsICc8aW5maWxlLm1hZT4nLCAnLW9tYWUnLCAnPG91dGZpbGUubWFlPic=

> <r_lp_tautomer_probability>
0.999762

> <r_epik_Ionization_Penalty>
0.549885

> <r_epik_Ionization_Penalty_Charging>
0.440405

> <r_epik_Ionization_Penalty_Neutral>
0.10948

> <r_epik_State_Penalty>
0.546419

> <r_epik_Charging_Adjusted_Penalty>
0.986823

> <i_epik_Tot_Q>
1

> <i_epik_Tot_abs_Q>
1

> <r_epik_Metal_State_Penalty>
0.699827

> <b_epik_Metal_Only>
0

> <s_lp_Force_Field>
OPLS_2005

> <r_lp_Energy>
10.4004

> <b_lp_Chiralities_Consistent>
1

> <s_lp_Variant>
AV-unprocessed.smi:1006-3

> <Gold.Version>
5.8.1

> <Gold.Id.Protein>
6NUR|6NUR_protein|mol2

> <Gold.PLP.Fitness>
56.4829

> <Gold.PLP.PLP>
-51.4112

> <Gold.PLP.part.hbond>
-2.0000

> <Gold.PLP.part.metal>
0.0000

> <Gold.PLP.part.buried>
-6.4574

> <Gold.PLP.part.nonpolar>
-43.5095

> <Gold.PLP.part.repulsive>
0.2431

> <Gold.PLP.ligand.clash>
0.0000

> <Gold.PLP.ligand.torsion>
1.5331

> <Gold.PLP.Chemscore.Hbond>
2.6880

> <Gold.PLP.Chemscore.CHOScore>
0.0000

> <Gold.PLP.Chemscore.Metal>
0.0000

> <Gold.Chemscore.Hbonds>
donor molecule, donor type, donor heavy atom, donor atom, acceptor molecule, acceptor atom, score
      L1  H    24    46       P1  7948  0.60
      P1  H  7997  8010       L1    11  0.56

> <Gold.PLP.Chemscore.Internal.Correction>
0.0740

> <Gold.Rescore>
     Score         DG    S(hbond)    S(metal)    S(lipo)     H(rot)  DE(clash)    DE(int)     intcor
     14.77     -16.40       1.35        0.00     118.14       2.89       0.07       1.56       ----

> <Gold.Chemscore.Fitness>
14.7676

> <Gold.Chemscore.DG>
-16.3973

> <Gold.Chemscore.ZeroCoef>
-5.4800

> <Gold.Chemscore.Hbond>
1.3455

> <Gold.Chemscore.Metal>
0.0000

> <Gold.Chemscore.Lipo>
118.1356

> <Gold.Chemscore.Internal_Hbond>
0.0000

> <Gold.Chemscore.DEClash>
0.0650

> <Gold.Chemscore.DEInternal>
1.5647

> <Gold.Chemscore.Rot>
2.8901

> <Gold.Chemscore.Internal.Correction>
   9.000000E+99

> <Gold.Chemscore.Hbonds>
donor molecule, donor type, donor heavy atom, donor atom, acceptor molecule, acceptor atom, score
      P1  H  7997  8010       L1    11  0.21

> <Gold.Chemscore.Hbond.Weighted>
-4.4941

> <Gold.Chemscore.Metal.Weighted>
-0.0000

> <Gold.Chemscore.Lipo.Weighted>
-13.8219

> <Gold.Chemscore.Internal_Hbond.Weighted>
0.0000

> <Gold.Chemscore.DEClash.Weighted>
0.0650

> <Gold.Chemscore.DEInternal.Weighted>
1.5647

> <Gold.Chemscore.Rot.Weighted>
7.3986

> <Gold.Chemscore.Internal.Correction.Weighted>
   9.000000E+99

> <Gold.Protein.RotatedTorsions>
[ 6907 6896 6895 6894 ] final -168.07 input  -60.11 | X-H torsion
[ 7974 7965 7964 7962 ] final   97.46 input  175.53 | X-H torsion
[ 8008 7997 7996 7995 ] final   48.51 input   59.86 | X-H torsion
[ 10167 10162 10161 10158 ] final  144.45 input  -65.29 | X-H torsion
[ 10718 10713 10712 10709 ] final  -86.86 input   66.30 | X-H torsion
[ 10763 10752 10751 10750 ] final    9.99 input  -60.55 | X-H torsion
[ 11005 11000 10999 10996 ] final  117.70 input  -57.11 | X-H torsion

> <Gold.Protein.ActiveResidues>
 VAL166  LYS551  ARG553  GLY616  TRP617  ASP618  TYR619  PRO620  LYS621  CYS622 
 ASP623  PHE694  ASN695  SER759  ASP760  ASP761  ALA762  ILE779  LEU786  VAL792 
 PHE793  MET794  SER795  GLU796  ALA797  LYS798  CYS799  TRP800  GLU811  SER814 

> <Gold.Protein.RotatedAtoms>
  151.4697  133.3572  159.2821 H   0  0  0  0  0  0  0  0  0  0  0  0  # atno 6907 bound_to 6896
  150.8969  134.8380  159.7343 H   0  0  0  0  0  0  0  0  0  0  0  0  # atno 6908 bound_to 6896
  152.4856  134.4613  159.9658 H   0  0  0  0  0  0  0  0  0  0  0  0  # atno 6909 bound_to 6896
  145.4253  139.2316  143.3174 H   0  0  0  0  0  0  0  0  0  0  0  0  # atno 7974 bound_to 7965
  155.3868  140.3431  155.4249 H   0  0  0  0  0  0  0  0  0  0  0  0  # atno 8008 bound_to 7997
  156.1580  140.1591  156.8694 H   0  0  0  0  0  0  0  0  0  0  0  0  # atno 8009 bound_to 7997
  154.5112  140.0789  156.7976 H   0  0  0  0  0  0  0  0  0  0  0  0  # atno 8010 bound_to 7997
  139.4946  144.5971  151.6561 H   0  0  0  0  0  0  0  0  0  0  0  0  # atno 10167 bound_to 10162
  155.9988  130.4779  150.4779 H   0  0  0  0  0  0  0  0  0  0  0  0  # atno 10718 bound_to 10713
  153.2081  135.6865  153.8148 H   0  0  0  0  0  0  0  0  0  0  0  0  # atno 10763 bound_to 10752
  153.7390  135.3241  155.3301 H   0  0  0  0  0  0  0  0  0  0  0  0  # atno 10764 bound_to 10752
  154.8207  135.4654  154.0876 H   0  0  0  0  0  0  0  0  0  0  0  0  # atno 10765 bound_to 10752
  139.9083  134.9613  156.7391 H   0  0  0  0  0  0  0  0  0  0  0  0  # atno 11005 bound_to 11000
  146.2635  140.4982  142.8843 LP  0  0  0  0  0  0  0  0  0  0  0  0  # atno 17320 bound_to 7965
  144.8218  140.6563  143.6348 LP  0  0  0  0  0  0  0  0  0  0  0  0  # atno 17321 bound_to 7965
  140.5611  144.0267  150.6170 LP  0  0  0  0  0  0  0  0  0  0  0  0  # atno 17342 bound_to 10162
  140.3353  143.3052  152.0645 LP  0  0  0  0  0  0  0  0  0  0  0  0  # atno 17343 bound_to 10162
  157.2787  131.0602  151.2212 LP  0  0  0  0  0  0  0  0  0  0  0  0  # atno 17370 bound_to 10713
  157.3266  130.6964  149.6300 LP  0  0  0  0  0  0  0  0  0  0  0  0  # atno 17371 bound_to 10713
  140.6864  133.9429  155.7940 LP  0  0  0  0  0  0  0  0  0  0  0  0  # atno 17394 bound_to 11000
  141.0473  134.0535  157.3828 LP  0  0  0  0  0  0  0  0  0  0  0  0  # atno 17395 bound_to 11000

$$$$
