#       Name:                AV-unprocessed.smi:792
#       Creating user name   scv26
#       Creation time:       Fri Mar 27 01:18:08 2020


#       File generated by GOLD software.
#

@<TRIPOS>MOLECULE
AV-unprocessed.smi:792
    51    52     1
SMALL
NO_CHARGES


@<TRIPOS>ATOM
      1 ****        -5.3753   6.7694  -0.7985 C.3            1 S1                 0.0000
      2 ****        -4.8732   5.3452  -0.6846 C.ar           1 S1                 0.0000
      3 ****        -4.6637   4.7499   0.5773 C.ar           1 S1                 0.0000
      4 ****        -4.1956   3.4226   0.6231 C.ar           1 S1                 0.0000
      5 ****        -3.9567   2.7436  -0.5892 C.ar           1 S1                 0.0000
      6 ****        -3.4512   1.3147  -0.5954 C.3            1 S1                 0.0000
      7 ****        -1.9190   1.2430  -0.5760 C.3            1 S1                 0.0000
      8 ****        -1.4726  -0.1423  -0.6071 N.am           1 S1                 0.0000
      9 ****        -0.1883  -0.5200  -0.6331 C.2            1 S1                 0.0000
     10 ****         0.7609   0.2639  -0.6144 O.2            1 S1                 0.0000
     11 ****        -0.0621  -1.8540  -0.6846 N.am           1 S1                 0.0000
     12 ****         1.2083  -2.5774  -0.7067 C.3            1 S1                 0.0000
     13 ****         1.7855  -2.8475   0.6963 C.2            1 S1                 0.0000
     14 ****         1.1262  -2.5236   1.6864 O.2            1 S1                 0.0000
     15 ****         3.0004  -3.4399   0.8018 N.am           1 S1                 0.0000
     16 ****         3.6596  -3.6746   2.0939 C.3            1 S1                 0.0000
     17 ****         4.8913  -2.7565   2.1995 C.3            1 S1                 0.0000
     18 ****         5.8459  -2.9741   1.0104 C.3            1 S1                 0.0000
     19 ****         5.1006  -2.9064  -0.3359 C.3            1 S1                 0.0000
     20 ****         3.8646  -3.8240  -0.3235 C.3            1 S1                 0.0000
     21 ****        -4.1964   3.4306  -1.7979 C.ar           1 S1                 0.0000
     22 ****        -4.6453   4.7031  -1.8516 N.ar           1 S1                 0.0000
     23 ****        -5.5337   7.2129   0.1849 H              1 S1                 0.0000
     24 ****        -6.3215   6.7963  -1.3397 H              1 S1                 0.0000
     25 ****        -4.6531   7.3843  -1.3362 H              1 S1                 0.0000
     26 ****        -4.8558   5.2948   1.4898 H              1 S1                 0.0000
     27 ****        -4.0225   2.9371   1.5722 H              1 S1                 0.0000
     28 ****        -3.8625   0.7885   0.2672 H              1 S1                 0.0000
     29 ****        -3.8387   0.8069  -1.4799 H              1 S1                 0.0000
     30 ****        -1.5080   1.7738  -1.4365 H              1 S1                 0.0000
     31 ****        -1.5300   1.7293   0.3199 H              1 S1                 0.0000
     32 ****        -2.1859  -0.8566  -0.6166 H              1 S1                 0.0000
     33 ****        -0.9031  -2.4124  -0.6915 H              1 S1                 0.0000
     34 ****         1.0382  -3.5306  -1.2075 H              1 S1                 0.0000
     35 ****         1.9319  -2.0227  -1.3066 H              1 S1                 0.0000
     36 ****         3.0000  -3.5043   2.9456 H              1 S1                 0.0000
     37 ****         3.9641  -4.7201   2.1599 H              1 S1                 0.0000
     38 ****         4.5668  -1.7152   2.2223 H              1 S1                 0.0000
     39 ****         5.4165  -2.9389   3.1375 H              1 S1                 0.0000
     40 ****         6.6525  -2.2409   1.0338 H              1 S1                 0.0000
     41 ****         6.3163  -3.9534   1.1071 H              1 S1                 0.0000
     42 ****         4.7907  -1.8793  -0.5337 H              1 S1                 0.0000
     43 ****         5.7716  -3.1895  -1.1473 H              1 S1                 0.0000
     44 ****         4.1755  -4.8619  -0.1959 H              1 S1                 0.0000
     45 ****         3.3686  -3.7921  -1.2920 H              1 S1                 0.0000
     46 ****        -4.0225   2.9476  -2.7482 H              1 S1                 0.0000
     47 ****         0.5949   1.2494  -0.5776 LP             1 S1                 0.0000
     48 ****         1.6979  -0.0848  -0.6360 LP             1 S1                 0.0000
     49 ****         0.2312  -2.0925   1.5720 LP             1 S1                 0.0000
     50 ****         1.4865  -2.6919   2.6040 LP             1 S1                 0.0000
     51 ****        -4.8043   5.1566  -2.7285 LP             1 S1                 0.0000
@<TRIPOS>BOND
    1    1    2 1     
    2    1   23 1     
    3    1   24 1     
    4    1   25 1     
    5    2   22 ar    
    6    2    3 ar    
    7    3    4 ar    
    8    3   26 1     
    9    4    5 ar    
   10    4   27 1     
   11    5    6 1     
   12    5   21 ar    
   13    6    7 1     
   14    6   28 1     
   15    6   29 1     
   16    7    8 1     
   17    7   30 1     
   18    7   31 1     
   19    8    9 am    
   20    8   32 1     
   21    9   10 2     
   22    9   11 am    
   23   11   12 1     
   24   11   33 1     
   25   12   13 1     
   26   12   34 1     
   27   12   35 1     
   28   13   14 2     
   29   13   15 am    
   30   15   20 1     
   31   15   16 1     
   32   16   17 1     
   33   16   36 1     
   34   16   37 1     
   35   17   18 1     
   36   17   38 1     
   37   17   39 1     
   38   18   19 1     
   39   18   40 1     
   40   18   41 1     
   41   19   20 1     
   42   19   42 1     
   43   19   43 1     
   44   20   44 1     
   45   20   45 1     
   46   21   22 ar    
   47   21   46 1     
   48   10   47 1     
   49   10   48 1     
   50   14   49 1     
   51   14   50 1     
   52   22   51 1     
@<TRIPOS>SUBSTRUCTURE
      1 S1             1
@<TRIPOS>SET
LONE_PAIRS      STATIC     ATOMS    <user>   **** ""
5 47 48 49 50 51
DONOR_HYDROGENS      STATIC     ATOMS    <user>   **** ""
2 32 33
ATOM$BLUE        STATIC     ATOMS    COLORGROUP SYSTEM
5 47 48 49 50 51
ATOM$RED        STATIC     ATOMS    COLORGROUP SYSTEM
2 32 33
