AV-unprocessed.smi:54|AV-procd|sdf|559|dock4
  -GOLD-   2262016463D 1   1.00000     0.00000
 Structure written by MMmdl.
 43 45  0  0  0  0  0  0  0  0  2 V2000
  153.0763  143.6993  159.4036 C   0  0  0  0  0  0  0  0  0  0  0  0
  152.4957  142.5700  160.2708 C   0  0  0  0  0  0  0  0  0  0  0  0
  153.0895  142.5935  161.6890 C   0  0  0  0  0  0  0  0  0  0  0  0
  152.7238  141.2038  159.6084 C   0  0  0  0  0  0  0  0  0  0  0  0
  153.4307  140.3705  160.1795 O   0  0  0  0  0  0  0  0  0  0  0  0
  152.1200  141.0359  158.4113 N   0  0  0  0  0  0  0  0  0  0  0  0
  152.1460  139.9281  157.5568 C   0  0  0  0  0  0  0  0  0  0  0  0
  151.0080  139.7321  156.9373 N   0  0  0  0  0  0  0  0  0  0  0  0
  151.0328  138.6287  156.1063 C   0  0  0  0  0  0  0  0  0  0  0  0
  152.0760  137.7685  155.8958 C   0  0  0  0  0  0  0  0  0  0  0  0
  151.7366  136.7663  154.9953 N   0  0  0  0  0  0  0  0  0  0  0  0
  150.4764  137.0759  154.6976 C   0  0  0  0  0  0  0  0  0  0  0  0
  149.9814  138.1658  155.3166 N   0  0  0  0  0  0  0  0  0  0  0  0
  148.5924  138.7095  155.1535 C   0  0  2  0  0  0  0  0  0  0  0  0
  147.8166  137.8002  154.4268 O   0  0  0  0  0  0  0  0  0  0  0  0
  147.3522  138.3928  153.2140 C   0  0  1  0  0  0  0  0  0  0  0  0
  145.9917  137.7924  152.8282 C   0  0  0  0  0  0  0  0  0  0  0  0
  145.4723  138.4564  151.6956 O   0  0  0  0  0  0  0  0  0  0  0  0
  147.2900  139.8781  153.5726 C   0  0  2  0  0  0  0  0  0  0  0  0
  147.2549  140.7284  152.4427 O   0  0  0  0  0  0  0  0  0  0  0  0
  148.5473  140.0591  154.4111 C   0  0  2  0  0  0  0  0  0  0  0  0
  149.6957  140.3129  153.6152 O   0  0  0  0  0  0  0  0  0  0  0  0
  153.3302  138.0385  156.6378 C   0  0  0  0  0  0  0  0  0  0  0  0
  154.2915  137.2880  156.4812 O   0  0  0  0  0  0  0  0  0  0  0  0
  153.3037  139.1310  157.4576 N   0  5  0  0  0  0  0  0  0  0  0  0
  148.1984  138.7721  156.1688 H   0  0  0  0  0  0  0  0  0  0  0  0
  148.0865  138.2422  152.4208 H   0  0  0  0  0  0  0  0  0  0  0  0
  146.4112  140.0695  154.1905 H   0  0  0  0  0  0  0  0  0  0  0  0
  148.4416  140.8709  155.1314 H   0  0  0  0  0  0  0  0  0  0  0  0
  152.6578  143.6800  158.3966 H   0  0  0  0  0  0  0  0  0  0  0  0
  154.1606  143.6216  159.3153 H   0  0  0  0  0  0  0  0  0  0  0  0
  152.8494  144.6753  159.8331 H   0  0  0  0  0  0  0  0  0  0  0  0
  151.4205  142.7361  160.3577 H   0  0  0  0  0  0  0  0  0  0  0  0
  152.6848  141.7869  162.3014 H   0  0  0  0  0  0  0  0  0  0  0  0
  152.8582  143.5330  162.1915 H   0  0  0  0  0  0  0  0  0  0  0  0
  154.1749  142.4869  161.6722 H   0  0  0  0  0  0  0  0  0  0  0  0
  151.6388  141.8516  158.0626 H   0  0  0  0  0  0  0  0  0  0  0  0
  149.8903  136.4863  154.0082 H   0  0  0  0  0  0  0  0  0  0  0  0
  146.0690  136.7212  152.6404 H   0  0  0  0  0  0  0  0  0  0  0  0
  145.2772  137.9279  153.6404 H   0  0  0  0  0  0  0  0  0  0  0  0
  144.9577  139.1928  151.9887 H   0  0  0  0  0  0  0  0  0  0  0  0
  147.9784  140.4964  151.8799 H   0  0  0  0  0  0  0  0  0  0  0  0
  149.4305  140.3654  152.7095 H   0  0  0  0  0  0  0  0  0  0  0  0
  1  2  1  0  0  0  0
  1 30  1  0  0  0  0
  1 31  1  0  0  0  0
  1 32  1  0  0  0  0
  2  3  1  0  0  0  0
  2  4  1  0  0  0  0
  2 33  1  0  0  0  0
  3 34  1  0  0  0  0
  3 35  1  0  0  0  0
  3 36  1  0  0  0  0
  4  5  2  0  0  0  0
  4  6  1  0  0  0  0
  6 37  1  0  0  0  0
  6  7  1  0  0  0  0
  7 25  1  0  0  0  0
  7  8  2  0  0  0  0
  8  9  1  0  0  0  0
  9 13  1  0  0  0  0
  9 10  2  0  0  0  0
 10 11  1  0  0  0  0
 10 23  1  0  0  0  0
 11 12  2  0  0  0  0
 12 13  1  0  0  0  0
 12 38  1  0  0  0  0
 13 14  1  0  0  0  0
 14 26  1  0  0  0  0
 14 21  1  0  0  0  0
 14 15  1  0  0  0  0
 15 16  1  0  0  0  0
 16 27  1  0  0  0  0
 16 17  1  0  0  0  0
 16 19  1  0  0  0  0
 17 18  1  0  0  0  0
 17 39  1  0  0  0  0
 17 40  1  0  0  0  0
 18 41  1  0  0  0  0
 19 28  1  0  0  0  0
 19 20  1  0  0  0  0
 19 21  1  0  0  0  0
 20 42  1  0  0  0  0
 21 29  1  0  0  0  0
 21 22  1  0  0  0  0
 22 43  1  0  0  0  0
 23 24  2  0  0  0  0
 23 25  1  0  0  0  0
M  CHG  1  25  -1
M  END
> <s_m_source_file>
AV-unprocessed.smi

> <i_m_source_file_index>
54

> <i_lp_mmshare_version>
43012

> <i_f3d_flags>
0

> <s_epik_input>
W0NIM11bQ0hdKFtDSDNdKUMoPU8pW05IXWMobjEpW25IXWMoPU8pYyhjMTIpbltjSF1uMltDQEBIXTNPW0NASF0oW0NIMl1bT0hdKVtDQEBIXShbT0hdKVtDQEhdM1tPSF0=

> <s_epik_cmdline>
J2VwaWtfcHl0aG9uJywgJy1waCcsICc3LjAnLCAnLXRuJywgJzgnLCAnLW1hJywgJzIwMCcsICctbWV0YWxfYmluZGluZycsICctaW1hZScsICc8aW5maWxlLm1hZT4nLCAnLW9tYWUnLCAnPG91dGZpbGUubWFlPic=

> <r_lp_tautomer_probability>
0.85571

> <r_epik_Ionization_Penalty>
1.75936

> <r_epik_Ionization_Penalty_Charging>
4.55893e-11

> <r_epik_Ionization_Penalty_Neutral>
1.75936

> <r_epik_State_Penalty>
1.72072

> <r_epik_Charging_Adjusted_Penalty>
1.72072

> <i_epik_Tot_Q>
-1

> <i_epik_Tot_abs_Q>
1

> <r_epik_Metal_State_Penalty>
0.400338

> <b_epik_Metal_Only>
1

> <s_epik_Chemistry_Notes>
This compound contains an acetal/aminal-like group ( X-CH(R)-Y where X, Y are N, S, or O) that may be acid/base labile, releasing an aldehyde.

> <s_lp_Force_Field>
OPLS_2005

> <r_lp_Energy>
68.2846

> <b_lp_Chiralities_Consistent>
1

> <s_lp_Variant>
AV-unprocessed.smi:54-31

> <Gold.Version>
5.8.1

> <Gold.Id.Protein>
6NUR|6NUR_protein|mol2

> <Gold.PLP.Fitness>
58.5887

> <Gold.PLP.PLP>
-36.1787

> <Gold.PLP.part.hbond>
-7.6063

> <Gold.PLP.part.metal>
0.0000

> <Gold.PLP.part.buried>
-3.5423

> <Gold.PLP.part.nonpolar>
-25.8514

> <Gold.PLP.part.repulsive>
0.3508

> <Gold.PLP.ligand.clash>
0.0000

> <Gold.PLP.ligand.torsion>
0.4658

> <Gold.PLP.Chemscore.Hbond>
6.7695

> <Gold.PLP.Chemscore.CHOScore>
1.0000

> <Gold.PLP.Chemscore.Metal>
0.0000

> <Gold.Chemscore.Hbonds>
donor molecule, donor type, donor heavy atom, donor atom, acceptor molecule, acceptor atom, score
      L1  H    18    41       P1 10175  1.00
      L1  H    20    42       P1  7957  1.00
      L1  H    22    43       P1  7957  1.00
      P1  H  7989  7998       L1    22  0.58
      P1  H  7997  8008       L1    25  2.00
      P1  H 10752 10763       L1    24  0.20
      P1  H 10752 10765       L1    11  0.98
      L1  C    12    38       P1  7948  1.00

> <Gold.PLP.Chemscore.Internal.Correction>
0.0331

> <Gold.Rescore>
     Score         DG    S(hbond)    S(metal)    S(lipo)     H(rot)  DE(clash)    DE(int)     intcor
     17.44     -19.35       4.97        0.00      64.49       4.02       0.37       1.54       ----

> <Gold.Chemscore.Fitness>
17.4412

> <Gold.Chemscore.DG>
-19.3458

> <Gold.Chemscore.ZeroCoef>
-5.4800

> <Gold.Chemscore.Hbond>
4.9729

> <Gold.Chemscore.Metal>
0.0000

> <Gold.Chemscore.Lipo>
64.4928

> <Gold.Chemscore.Internal_Hbond>
0.0000

> <Gold.Chemscore.DEClash>
0.3667

> <Gold.Chemscore.DEInternal>
1.5380

> <Gold.Chemscore.Rot>
4.0192

> <Gold.Chemscore.Internal.Correction>
   9.000000E+99

> <Gold.Chemscore.Hbonds>
donor molecule, donor type, donor heavy atom, donor atom, acceptor molecule, acceptor atom, score
      L1  H    18    41       P1 10175  1.00
      L1  H    20    42       P1  7957  1.00
      L1  H    22    43       P1  7957  0.95
      P1  H  7989  7998       L1    22  0.14
      P1  H  7997  8008       L1    25  0.27
      P1  H 10752 10763       L1    24  0.20
      P1  H 10752 10765       L1    11  0.92

> <Gold.Chemscore.Hbond.Weighted>
-16.6094

> <Gold.Chemscore.Metal.Weighted>
-0.0000

> <Gold.Chemscore.Lipo.Weighted>
-7.5457

> <Gold.Chemscore.Internal_Hbond.Weighted>
0.0000

> <Gold.Chemscore.DEClash.Weighted>
0.3667

> <Gold.Chemscore.DEInternal.Weighted>
1.5380

> <Gold.Chemscore.Rot.Weighted>
10.2893

> <Gold.Chemscore.Internal.Correction.Weighted>
   9.000000E+99

> <Gold.Protein.RotatedTorsions>
[ 6907 6896 6895 6894 ] final -135.95 input  -60.11 | X-H torsion
[ 7974 7965 7964 7962 ] final -151.16 input  175.53 | X-H torsion
[ 8008 7997 7996 7995 ] final  -77.11 input   59.86 | X-H torsion
[ 10167 10162 10161 10158 ] final  119.85 input  -65.29 | X-H torsion
[ 10718 10713 10712 10709 ] final   -5.21 input   66.30 | X-H torsion
[ 10763 10752 10751 10750 ] final  160.87 input  -60.55 | X-H torsion
[ 11005 11000 10999 10996 ] final   90.19 input  -57.11 | X-H torsion

> <Gold.Protein.ActiveResidues>
 VAL166  LYS551  ARG553  GLY616  TRP617  ASP618  TYR619  PRO620  LYS621  CYS622 
 ASP623  PHE694  ASN695  SER759  ASP760  ASP761  ALA762  ILE779  LEU786  VAL792 
 PHE793  MET794  SER795  GLU796  ALA797  LYS798  CYS799  TRP800  GLU811  SER814 

> <Gold.Protein.RotatedAtoms>
  151.0041  133.6028  159.2690 H   0  0  0  0  0  0  0  0  0  0  0  0  # atno 6907 bound_to 6896
  151.3204  135.0816  159.9313 H   0  0  0  0  0  0  0  0  0  0  0  0  # atno 6908 bound_to 6896
  152.5282  133.9689  159.7807 H   0  0  0  0  0  0  0  0  0  0  0  0  # atno 6909 bound_to 6896
  144.7866  140.4835  143.5802 H   0  0  0  0  0  0  0  0  0  0  0  0  # atno 7974 bound_to 7965
  154.5566  140.0716  156.8753 H   0  0  0  0  0  0  0  0  0  0  0  0  # atno 8008 bound_to 7997
  155.2891  140.3377  155.4235 H   0  0  0  0  0  0  0  0  0  0  0  0  # atno 8009 bound_to 7997
  156.2007  140.1720  156.7891 H   0  0  0  0  0  0  0  0  0  0  0  0  # atno 8010 bound_to 7997
  139.6019  144.7059  151.3042 H   0  0  0  0  0  0  0  0  0  0  0  0  # atno 10167 bound_to 10162
  156.7499  130.5236  149.5806 H   0  0  0  0  0  0  0  0  0  0  0  0  # atno 10718 bound_to 10713
  154.2542  135.2770  155.2804 H   0  0  0  0  0  0  0  0  0  0  0  0  # atno 10763 bound_to 10752
  154.5439  135.5694  153.6867 H   0  0  0  0  0  0  0  0  0  0  0  0  # atno 10764 bound_to 10752
  152.9974  135.6258  154.2690 H   0  0  0  0  0  0  0  0  0  0  0  0  # atno 10765 bound_to 10752
  139.8860  134.8598  156.3250 H   0  0  0  0  0  0  0  0  0  0  0  0  # atno 11005 bound_to 11000
  145.5906  139.1495  143.3184 LP  0  0  0  0  0  0  0  0  0  0  0  0  # atno 17320 bound_to 7965
  146.2100  140.6032  142.9064 LP  0  0  0  0  0  0  0  0  0  0  0  0  # atno 17321 bound_to 7965
  140.7256  143.7013  150.7843 LP  0  0  0  0  0  0  0  0  0  0  0  0  # atno 17342 bound_to 10162
  140.0591  143.5173  152.2636 LP  0  0  0  0  0  0  0  0  0  0  0  0  # atno 17343 bound_to 10162
  156.1408  130.6243  151.0464 LP  0  0  0  0  0  0  0  0  0  0  0  0  # atno 17370 bound_to 10713
  157.6782  131.0845  150.7440 LP  0  0  0  0  0  0  0  0  0  0  0  0  # atno 17371 bound_to 10713
  140.9761  133.7296  156.0605 LP  0  0  0  0  0  0  0  0  0  0  0  0  # atno 17394 bound_to 11000
  140.7809  134.3727  157.5487 LP  0  0  0  0  0  0  0  0  0  0  0  0  # atno 17395 bound_to 11000

$$$$
