AV-unprocessed.smi:767|AV-procd|sdf|3664|dock1
  -GOLD-   22720 1 73D 1   1.00000     0.00000
 Structure written by MMmdl.
 47 49  0  0  0  0  0  0  0  0  1 V2000
  153.2068  138.4590  155.6606 C   0  0  0  0  0  0  0  0  0  0  0  0
  151.8319  138.9151  155.2197 C   0  0  0  0  0  0  0  0  0  0  0  0
  151.3108  140.1519  155.6530 C   0  0  0  0  0  0  0  0  0  0  0  0
  150.0354  140.5383  155.1987 C   0  0  0  0  0  0  0  0  0  0  0  0
  149.3290  139.6743  154.3366 C   0  0  0  0  0  0  0  0  0  0  0  0
  147.9636  140.0592  153.7913 C   0  0  0  0  0  0  0  0  0  0  0  0
  146.8635  139.0138  154.0632 C   0  0  0  0  0  0  0  0  0  0  0  0
  146.8975  137.9088  153.1067 N   0  0  0  0  0  0  0  0  0  0  0  0
  145.8332  137.1930  152.7142 C   0  0  0  0  0  0  0  0  0  0  0  0
  144.6793  137.4091  153.0857 O   0  0  0  0  0  0  0  0  0  0  0  0
  146.1749  136.1967  151.8874 N   0  0  0  0  0  0  0  0  0  0  0  0
  145.2296  135.2104  151.3781 C   0  0  1  0  0  0  0  0  0  0  0  0
  145.8052  133.7958  151.3352 C   0  0  2  0  0  0  0  0  0  0  0  0
  146.1498  132.8412  150.2482 C   0  0  0  0  0  0  0  0  0  0  0  0
  145.4744  131.5794  150.8492 C   0  0  0  0  0  0  0  0  0  0  0  0
  144.6802  132.0471  151.9667 O   0  0  0  0  0  0  0  0  0  0  0  0
  144.3731  133.3828  151.6239 C   0  0  1  0  0  0  0  0  0  0  0  0
  144.2496  134.6582  152.4813 C   0  0  0  0  0  0  0  0  0  0  0  0
  144.7148  134.5807  153.9496 C   0  0  0  0  0  0  0  0  0  0  0  0
  142.8685  135.3141  152.5061 C   0  0  0  0  0  0  0  0  0  0  0  0
  149.9339  138.4507  153.9775 C   0  0  0  0  0  0  0  0  0  0  0  0
  151.1588  138.0747  154.4035 N   0  0  0  0  0  0  0  0  0  0  0  0
  153.8268  139.3102  155.9436 H   0  0  0  0  0  0  0  0  0  0  0  0
  153.7157  137.9249  154.8572 H   0  0  0  0  0  0  0  0  0  0  0  0
  153.1243  137.7933  156.5199 H   0  0  0  0  0  0  0  0  0  0  0  0
  151.8782  140.7967  156.3077 H   0  0  0  0  0  0  0  0  0  0  0  0
  149.6153  141.4865  155.5002 H   0  0  0  0  0  0  0  0  0  0  0  0
  147.6734  141.0168  154.2245 H   0  0  0  0  0  0  0  0  0  0  0  0
  148.0451  140.2263  152.7166 H   0  0  0  0  0  0  0  0  0  0  0  0
  146.9525  138.6389  155.0841 H   0  0  0  0  0  0  0  0  0  0  0  0
  145.8847  139.4900  154.0038 H   0  0  0  0  0  0  0  0  0  0  0  0
  147.8030  137.6517  152.7419 H   0  0  0  0  0  0  0  0  0  0  0  0
  147.1447  136.0876  151.6299 H   0  0  0  0  0  0  0  0  0  0  0  0
  144.7386  135.4997  150.4441 H   0  0  0  0  0  0  0  0  0  0  0  0
  146.4797  133.6345  152.1791 H   0  0  0  0  0  0  0  0  0  0  0  0
  145.7045  133.1296  149.2949 H   0  0  0  0  0  0  0  0  0  0  0  0
  147.2250  132.7184  150.1173 H   0  0  0  0  0  0  0  0  0  0  0  0
  144.8400  131.0899  150.1092 H   0  0  0  0  0  0  0  0  0  0  0  0
  146.2071  130.8528  151.2013 H   0  0  0  0  0  0  0  0  0  0  0  0
  143.7164  133.4144  150.7468 H   0  0  0  0  0  0  0  0  0  0  0  0
  143.9881  134.0500  154.5654 H   0  0  0  0  0  0  0  0  0  0  0  0
  144.8334  135.5754  154.3768 H   0  0  0  0  0  0  0  0  0  0  0  0
  145.6643  134.0661  154.0845 H   0  0  0  0  0  0  0  0  0  0  0  0
  142.1512  134.7202  153.0733 H   0  0  0  0  0  0  0  0  0  0  0  0
  142.4644  135.4346  151.5008 H   0  0  0  0  0  0  0  0  0  0  0  0
  142.9055  136.3063  152.9570 H   0  0  0  0  0  0  0  0  0  0  0  0
  149.4287  137.7623  153.3161 H   0  0  0  0  0  0  0  0  0  0  0  0
  1  2  1  0  0  0  0
  1 23  1  0  0  0  0
  1 24  1  0  0  0  0
  1 25  1  0  0  0  0
  2 22  1  0  0  0  0
  2  3  2  0  0  0  0
  3  4  1  0  0  0  0
  3 26  1  0  0  0  0
  4  5  2  0  0  0  0
  4 27  1  0  0  0  0
  5  6  1  0  0  0  0
  5 21  1  0  0  0  0
  6  7  1  0  0  0  0
  6 28  1  0  0  0  0
  6 29  1  0  0  0  0
  7  8  1  0  0  0  0
  7 30  1  0  0  0  0
  7 31  1  0  0  0  0
  8  9  1  0  0  0  0
  8 32  1  0  0  0  0
  9 10  2  0  0  0  0
  9 11  1  0  0  0  0
 11 12  1  0  0  0  0
 11 33  1  0  0  0  0
 12 18  1  0  0  0  0
 12 13  1  0  0  0  0
 12 34  1  0  0  0  0
 13 17  1  0  0  0  0
 13 14  1  0  0  0  0
 13 35  1  0  0  0  0
 14 15  1  0  0  0  0
 14 36  1  0  0  0  0
 14 37  1  0  0  0  0
 15 16  1  0  0  0  0
 15 38  1  0  0  0  0
 15 39  1  0  0  0  0
 16 17  1  0  0  0  0
 17 18  1  0  0  0  0
 17 40  1  0  0  0  0
 18 19  1  0  0  0  0
 18 20  1  0  0  0  0
 19 41  1  0  0  0  0
 19 42  1  0  0  0  0
 19 43  1  0  0  0  0
 20 44  1  0  0  0  0
 20 45  1  0  0  0  0
 20 46  1  0  0  0  0
 21 22  2  0  0  0  0
 21 47  1  0  0  0  0
M  END
> <s_m_source_file>
AV-unprocessed.smi

> <i_m_source_file_index>
767

> <i_lp_mmshare_version>
43012

> <i_f3d_flags>
0

> <s_epik_input>
W0NIM11jMVtjSF1bY0hdYyhbY0hdbjEpW0NIMl1bQ0gyXVtOSF1DKD1PKVtOSF1bQ0BIXTJDKFtDSDNdKShbQ0gzXSlbQ0BIXShbQ0BASF0yMylPW0NIMl1bQ0gyXTM=

> <s_epik_cmdline>
J2VwaWtfcHl0aG9uJywgJy1waCcsICc3LjAnLCAnLXRuJywgJzgnLCAnLW1hJywgJzIwMCcsICctbWV0YWxfYmluZGluZycsICctaW1hZScsICc8aW5maWxlLm1hZT4nLCAnLW9tYWUnLCAnPG91dGZpbGUubWFlPic=

> <r_epik_Ionization_Penalty>
0.0567523

> <r_epik_Ionization_Penalty_Charging>
0

> <r_epik_Ionization_Penalty_Neutral>
0.0567523

> <r_epik_State_Penalty>
0.0489186

> <r_epik_Charging_Adjusted_Penalty>
0.0489186

> <i_epik_Tot_Q>
0

> <i_epik_Tot_abs_Q>
0

> <r_epik_Metal_State_Penalty>
0.044622

> <b_epik_Metal_Only>
0

> <s_lp_Force_Field>
OPLS_2005

> <r_lp_Energy>
55.1366

> <b_lp_Chiralities_Consistent>
1

> <s_lp_Variant>
AV-unprocessed.smi:767-8

> <Gold.Version>
5.8.1

> <Gold.Id.Protein>
6NUR|6NUR_protein|mol2

> <Gold.PLP.Fitness>
44.0994

> <Gold.PLP.PLP>
-36.0279

> <Gold.PLP.part.hbond>
-2.0000

> <Gold.PLP.part.metal>
0.0000

> <Gold.PLP.part.buried>
-1.9577

> <Gold.PLP.part.nonpolar>
-32.8237

> <Gold.PLP.part.repulsive>
0.5937

> <Gold.PLP.ligand.clash>
0.0000

> <Gold.PLP.ligand.torsion>
0.5571

> <Gold.PLP.Chemscore.Hbond>
1.9600

> <Gold.PLP.Chemscore.CHOScore>
1.0000

> <Gold.PLP.Chemscore.Metal>
0.0000

> <Gold.Chemscore.Hbonds>
donor molecule, donor type, donor heavy atom, donor atom, acceptor molecule, acceptor atom, score
      L1  H     8    32       P1  7948  0.96
      L1  H    11    33       P1  7948  1.00
      L1  C    21    47       P1  7948  1.00

> <Gold.PLP.Chemscore.Internal.Correction>
0.3056

> <Gold.Rescore>
     Score         DG    S(hbond)    S(metal)    S(lipo)     H(rot)  DE(clash)    DE(int)     intcor
     16.87     -20.15       1.94        0.00     101.63       1.45       0.28       2.99       ----

> <Gold.Chemscore.Fitness>
16.8709

> <Gold.Chemscore.DG>
-20.1469

> <Gold.Chemscore.ZeroCoef>
-5.4800

> <Gold.Chemscore.Hbond>
1.9424

> <Gold.Chemscore.Metal>
0.0000

> <Gold.Chemscore.Lipo>
101.6288

> <Gold.Chemscore.Internal_Hbond>
0.0000

> <Gold.Chemscore.DEClash>
0.2837

> <Gold.Chemscore.DEInternal>
2.9924

> <Gold.Chemscore.Rot>
1.4497

> <Gold.Chemscore.Internal.Correction>
   9.000000E+99

> <Gold.Chemscore.Hbonds>
donor molecule, donor type, donor heavy atom, donor atom, acceptor molecule, acceptor atom, score
      L1  H     8    32       P1  7948  0.87
      L1  H    11    33       P1  7948  0.99

> <Gold.Chemscore.Hbond.Weighted>
-6.4876

> <Gold.Chemscore.Metal.Weighted>
-0.0000

> <Gold.Chemscore.Lipo.Weighted>
-11.8906

> <Gold.Chemscore.Internal_Hbond.Weighted>
0.0000

> <Gold.Chemscore.DEClash.Weighted>
0.2837

> <Gold.Chemscore.DEInternal.Weighted>
2.9924

> <Gold.Chemscore.Rot.Weighted>
3.7112

> <Gold.Chemscore.Internal.Correction.Weighted>
   9.000000E+99

> <Gold.Protein.RotatedTorsions>
[ 6907 6896 6895 6894 ] final -151.46 input  -60.11 | X-H torsion
[ 7974 7965 7964 7962 ] final  -22.29 input  175.53 | X-H torsion
[ 8008 7997 7996 7995 ] final   74.53 input   59.86 | X-H torsion
[ 10167 10162 10161 10158 ] final   20.56 input  -65.29 | X-H torsion
[ 10718 10713 10712 10709 ] final -144.56 input   66.30 | X-H torsion
[ 10763 10752 10751 10750 ] final -111.90 input  -60.55 | X-H torsion
[ 11005 11000 10999 10996 ] final   -4.86 input  -57.11 | X-H torsion

> <Gold.Protein.ActiveResidues>
 VAL166  LYS551  ARG553  GLY616  TRP617  ASP618  TYR619  PRO620  LYS621  CYS622 
 ASP623  PHE694  ASN695  SER759  ASP760  ASP761  ALA762  ILE779  LEU786  VAL792 
 PHE793  MET794  SER795  GLU796  ALA797  LYS798  CYS799  TRP800  GLU811  SER814 

> <Gold.Protein.RotatedAtoms>
  151.2135  133.4543  159.2598 H   0  0  0  0  0  0  0  0  0  0  0  0  # atno 6907 bound_to 6896
  151.0954  134.9941  159.8433 H   0  0  0  0  0  0  0  0  0  0  0  0  # atno 6908 bound_to 6896
  152.5438  134.2065  159.8786 H   0  0  0  0  0  0  0  0  0  0  0  0  # atno 6909 bound_to 6896
  146.1684  140.4459  142.8542 H   0  0  0  0  0  0  0  0  0  0  0  0  # atno 7974 bound_to 7965
  155.7998  140.3476  155.5396 H   0  0  0  0  0  0  0  0  0  0  0  0  # atno 8008 bound_to 7997
  155.8550  140.0962  157.1671 H   0  0  0  0  0  0  0  0  0  0  0  0  # atno 8009 bound_to 7997
  154.4009  140.1369  156.3878 H   0  0  0  0  0  0  0  0  0  0  0  0  # atno 8010 bound_to 7997
  140.5494  143.9536  150.6568 H   0  0  0  0  0  0  0  0  0  0  0  0  # atno 10167 bound_to 10162
  156.3716  130.7791  151.1972 H   0  0  0  0  0  0  0  0  0  0  0  0  # atno 10718 bound_to 10713
  154.8323  135.4510  154.1111 H   0  0  0  0  0  0  0  0  0  0  0  0  # atno 10763 bound_to 10752
  153.2373  135.6912  153.7829 H   0  0  0  0  0  0  0  0  0  0  0  0  # atno 10764 bound_to 10752
  153.7190  135.3345  155.3238 H   0  0  0  0  0  0  0  0  0  0  0  0  # atno 10765 bound_to 10752
  140.6849  133.9122  155.8579 H   0  0  0  0  0  0  0  0  0  0  0  0  # atno 11005 bound_to 11000
  144.8126  140.6412  143.6405 LP  0  0  0  0  0  0  0  0  0  0  0  0  # atno 17320 bound_to 7965
  145.4406  139.1536  143.3972 LP  0  0  0  0  0  0  0  0  0  0  0  0  # atno 17321 bound_to 7965
  140.2957  143.3294  152.1019 LP  0  0  0  0  0  0  0  0  0  0  0  0  # atno 17342 bound_to 10162
  139.5021  144.6728  151.6202 LP  0  0  0  0  0  0  0  0  0  0  0  0  # atno 17343 bound_to 10162
  157.7484  131.0370  150.4437 LP  0  0  0  0  0  0  0  0  0  0  0  0  # atno 17370 bound_to 10713
  156.4665  130.4043  149.6544 LP  0  0  0  0  0  0  0  0  0  0  0  0  # atno 17371 bound_to 10713
  141.0288  134.0785  157.4038 LP  0  0  0  0  0  0  0  0  0  0  0  0  # atno 17394 bound_to 11000
  139.8941  135.0134  156.6931 LP  0  0  0  0  0  0  0  0  0  0  0  0  # atno 17395 bound_to 11000

$$$$
