#       Name:                AV-unprocessed.smi:243
#       Creating user name   scv26
#       Creation time:       Thu Mar 26 20:48:41 2020


#       File generated by GOLD software.
#

@<TRIPOS>MOLECULE
AV-unprocessed.smi:243
    65    68     1
SMALL
NO_CHARGES


@<TRIPOS>ATOM
      1 ****        -5.5027  -0.6121   1.5930 C.3            1 S1                 0.0000
      2 ****        -4.3392   0.1832   2.2015 C.3            1 S1                 0.0000
      3 ****        -4.2778   1.5827   1.7004 N.4            1 S1                 1.0000
      4 ****        -3.5017   2.4912   2.5817 C.3            1 S1                 0.0000
      5 ****        -1.9899   2.2345   2.4719 C.3            1 S1                 0.0000
      6 ****        -1.5098   2.3510   1.0075 C.3            1 S1                 0.0000
      7 ****        -0.0554   2.1766   0.8697 N.pl3          1 S1                 0.0000
      8 ****         0.8119   3.2529   1.3372 C.3            1 S1                 0.0000
      9 ****         0.5373   0.9526   0.8510 C.ar           1 S1                 0.0000
     10 ****        -0.0016  -0.0821   1.5478 N.ar           1 S1                 0.0000
     11 ****         0.5843  -1.2826   1.5418 C.ar           1 S1                 0.0000
     12 ****         1.6980  -1.6630   0.9146 N.ar           1 S1                 0.0000
     13 ****         2.2456  -0.6317   0.2102 C.ar           1 S1                 0.0000
     14 ****         1.7386   0.6964   0.1302 C.ar           1 S1                 0.0000
     15 ****         2.5632   1.4675  -0.6804 N.2            1 S1                 0.0000
     16 ****         3.5052   0.6450  -1.0528 C.2            1 S1                 0.0000
     17 ****         3.3864  -0.6401  -0.5735 N.pl3          1 S1                 0.0000
     18 ****         4.2863  -1.7533  -0.8357 C.3            1 S1                 0.0000
     19 ****         4.0409  -2.4378  -2.2015 C.3            1 S1                 0.0000
     20 ****         4.3065  -1.5061  -3.2364 O.3            1 S1                 0.0000
     21 ****         4.9225  -3.6601  -2.4216 C.3            1 S1                 0.0000
     22 ****         4.0823  -4.5135  -3.3624 C.3            1 S1                 0.0000
     23 ****         2.7673  -4.3397  -2.8619 O.3            1 S1                 0.0000
     24 ****         2.6176  -2.9993  -2.4014 C.3            1 S1                 0.0000
     25 ****        -2.3578   1.4585   0.0586 C.3            1 S1                 0.0000
     26 ****        -1.9946   1.6820  -1.4201 C.3            1 S1                 0.0000
     27 ****        -3.8646   1.7262   0.2780 C.3            1 S1                 0.0000
     28 ****        -5.5844  -1.5911   2.0659 H              1 S1                 0.0000
     29 ****        -5.3685  -0.7822   0.5252 H              1 S1                 0.0000
     30 ****        -6.4526  -0.0965   1.7379 H              1 S1                 0.0000
     31 ****        -4.4849   0.2048   3.2821 H              1 S1                 0.0000
     32 ****        -3.3961  -0.3367   2.0344 H              1 S1                 0.0000
     33 ****        -3.7181   3.5211   2.2946 H              1 S1                 0.0000
     34 ****        -3.8330   2.3893   3.6157 H              1 S1                 0.0000
     35 ****        -1.4600   2.9523   3.0985 H              1 S1                 0.0000
     36 ****        -1.7638   1.2529   2.8853 H              1 S1                 0.0000
     37 ****        -1.7032   3.3808   0.7028 H              1 S1                 0.0000
     38 ****         1.4887   2.9049   2.1188 H              1 S1                 0.0000
     39 ****         0.2315   4.0806   1.7452 H              1 S1                 0.0000
     40 ****         1.4087   3.6444   0.5134 H              1 S1                 0.0000
     41 ****         0.0908  -2.0474   2.1230 H              1 S1                 0.0000
     42 ****         4.3148   0.9532  -1.6987 H              1 S1                 0.0000
     43 ****         5.3116  -1.3853  -0.7767 H              1 S1                 0.0000
     44 ****         4.1765  -2.4780  -0.0279 H              1 S1                 0.0000
     45 ****         4.1421  -1.9271  -4.0666 H              1 S1                 0.0000
     46 ****         5.9102  -3.4251  -2.8204 H              1 S1                 0.0000
     47 ****         5.0626  -4.1998  -1.4839 H              1 S1                 0.0000
     48 ****         4.1370  -4.1398  -4.3860 H              1 S1                 0.0000
     49 ****         4.3787  -5.5626  -3.3609 H              1 S1                 0.0000
     50 ****         2.0521  -3.0303  -1.4710 H              1 S1                 0.0000
     51 ****         2.0369  -2.4144  -3.1163 H              1 S1                 0.0000
     52 ****        -2.1792   0.4069   0.2745 H              1 S1                 0.0000
     53 ****        -2.1353   2.7234  -1.7109 H              1 S1                 0.0000
     54 ****        -2.6147   1.0677  -2.0735 H              1 S1                 0.0000
     55 ****        -0.9563   1.4188  -1.6230 H              1 S1                 0.0000
     56 ****        -4.4643   1.0779  -0.3600 H              1 S1                 0.0000
     57 ****        -4.0989   2.7447  -0.0358 H              1 S1                 0.0000
     58 ****        -5.2304   1.9159   1.7476 H              1 S1                 0.0000
     59 ****        -0.8435   0.0562   2.0693 LP             1 S1                 0.0000
     60 ****         2.0820  -2.5855   0.9555 LP             1 S1                 0.0000
     61 ****         2.4586   2.4320  -0.9228 LP             1 S1                 0.0000
     62 ****         5.2614  -1.2128  -3.1898 LP             1 S1                 0.0000
     63 ****         3.7083  -0.7110  -3.1367 LP             1 S1                 0.0000
     64 ****         2.6107  -4.9736  -2.1045 LP             1 S1                 0.0000
     65 ****         2.1055  -4.5198  -3.5896 LP             1 S1                 0.0000
@<TRIPOS>BOND
    1    1    2 1     
    2    1   28 1     
    3    1   29 1     
    4    1   30 1     
    5    2    3 1     
    6    2   31 1     
    7    2   32 1     
    8    3   27 1     
    9    3    4 1     
   10    3   58 1     
   11    4    5 1     
   12    4   33 1     
   13    4   34 1     
   14    5    6 1     
   15    5   35 1     
   16    5   36 1     
   17    6    7 1     
   18    6   25 1     
   19    6   37 1     
   20    7    8 1     
   21    7    9 1     
   22    8   38 1     
   23    8   39 1     
   24    8   40 1     
   25    9   14 ar    
   26    9   10 ar    
   27   10   11 ar    
   28   11   12 ar    
   29   11   41 1     
   30   12   13 ar    
   31   13   17 1     
   32   13   14 ar    
   33   14   15 1     
   34   15   16 2     
   35   16   17 1     
   36   16   42 1     
   37   17   18 1     
   38   18   19 1     
   39   18   43 1     
   40   18   44 1     
   41   19   24 1     
   42   19   20 1     
   43   19   21 1     
   44   20   45 1     
   45   21   22 1     
   46   21   46 1     
   47   21   47 1     
   48   22   23 1     
   49   22   48 1     
   50   22   49 1     
   51   23   24 1     
   52   24   50 1     
   53   24   51 1     
   54   25   26 1     
   55   25   27 1     
   56   25   52 1     
   57   26   53 1     
   58   26   54 1     
   59   26   55 1     
   60   27   56 1     
   61   27   57 1     
   62   10   59 1     
   63   12   60 1     
   64   15   61 1     
   65   20   62 1     
   66   20   63 1     
   67   23   64 1     
   68   23   65 1     
@<TRIPOS>SUBSTRUCTURE
      1 S1             1
@<TRIPOS>SET
LONE_PAIRS      STATIC     ATOMS    <user>   **** ""
7 59 60 61 62 63 64 65
DONOR_HYDROGENS      STATIC     ATOMS    <user>   **** ""
2 58 45
ATOM$BLUE        STATIC     ATOMS    COLORGROUP SYSTEM
7 59 60 61 62 63 64 65
ATOM$RED        STATIC     ATOMS    COLORGROUP SYSTEM
2 58 45
