AV-unprocessed.smi:3097|AV-procd|sdf|11798|dock4
  -GOLD-   2272017173D 1   1.00000     0.00000
 Structure written by MMmdl.
 35 35  0  0  0  0  0  0  0  0  2 V2000
  144.2046  132.8338  150.7549 C   0  0  0  0  0  0  0  0  0  0  0  0
  145.3840  132.8967  151.7338 C   0  0  0  0  0  0  0  0  0  0  0  0
  145.9627  134.3104  151.8934 C   0  0  0  0  0  0  0  0  0  0  0  0
  144.9380  135.2748  152.3205 N   0  0  0  0  0  0  0  0  0  0  0  0
  145.1007  136.6069  152.4470 C   0  0  0  0  0  0  0  0  0  0  0  0
  144.0772  137.3699  152.8780 N   0  3  0  0  0  0  0  0  0  0  0  0
  142.7409  136.8821  153.2404 C   0  0  0  0  0  0  0  0  0  0  0  0
  146.2839  137.1767  152.1457 N   0  0  0  0  0  0  0  0  0  0  0  0
  146.5968  138.6080  152.2476 C   0  0  0  0  0  0  0  0  0  0  0  0
  147.7776  138.8512  153.1966 C   0  0  0  0  0  0  0  0  0  0  0  0
  147.7770  140.2059  153.7129 N   0  0  0  0  0  0  0  0  0  0  0  0
  146.7910  141.1647  153.6095 C   0  0  0  0  0  0  0  0  0  0  0  0
  147.2432  142.2825  154.2502 C   0  0  0  0  0  0  0  0  0  0  0  0
  148.5337  141.9061  154.7172 C   0  0  0  0  0  0  0  0  0  0  0  0
  148.8499  140.6619  154.3950 N   0  0  0  0  0  0  0  0  0  0  0  0
  143.8383  131.8118  150.6556 H   0  0  0  0  0  0  0  0  0  0  0  0
  144.4971  133.1796  149.7629 H   0  0  0  0  0  0  0  0  0  0  0  0
  143.3726  133.4514  151.0942 H   0  0  0  0  0  0  0  0  0  0  0  0
  145.0698  132.5123  152.7048 H   0  0  0  0  0  0  0  0  0  0  0  0
  146.1720  132.2280  151.3860 H   0  0  0  0  0  0  0  0  0  0  0  0
  146.7730  134.3064  152.6230 H   0  0  0  0  0  0  0  0  0  0  0  0
  146.3953  134.6475  150.9511 H   0  0  0  0  0  0  0  0  0  0  0  0
  144.0454  134.8829  152.5851 H   0  0  0  0  0  0  0  0  0  0  0  0
  142.1141  137.7111  153.5685 H   0  0  0  0  0  0  0  0  0  0  0  0
  142.8067  136.1567  154.0513 H   0  0  0  0  0  0  0  0  0  0  0  0
  142.2636  136.4067  152.3833 H   0  0  0  0  0  0  0  0  0  0  0  0
  147.0342  136.5756  151.8364 H   0  0  0  0  0  0  0  0  0  0  0  0
  146.8302  138.9922  151.2540 H   0  0  0  0  0  0  0  0  0  0  0  0
  145.7107  139.1368  152.6002 H   0  0  0  0  0  0  0  0  0  0  0  0
  147.7427  138.1580  154.0386 H   0  0  0  0  0  0  0  0  0  0  0  0
  148.7225  138.6766  152.6803 H   0  0  0  0  0  0  0  0  0  0  0  0
  145.8600  140.9748  153.0955 H   0  0  0  0  0  0  0  0  0  0  0  0
  146.7309  143.2262  154.3667 H   0  0  0  0  0  0  0  0  0  0  0  0
  149.2445  142.4951  155.2781 H   0  0  0  0  0  0  0  0  0  0  0  0
  144.2295  138.3646  152.9660 H   0  0  0  0  0  0  0  0  0  0  0  0
  1  2  1  0  0  0  0
  1 16  1  0  0  0  0
  1 17  1  0  0  0  0
  1 18  1  0  0  0  0
  2  3  1  0  0  0  0
  2 19  1  0  0  0  0
  2 20  1  0  0  0  0
  3  4  1  0  0  0  0
  3 21  1  0  0  0  0
  3 22  1  0  0  0  0
  4  5  1  0  0  0  0
  4 23  1  0  0  0  0
  5  6  2  0  0  0  0
  5  8  1  0  0  0  0
  6  7  1  0  0  0  0
  6 35  1  0  0  0  0
  7 24  1  0  0  0  0
  7 25  1  0  0  0  0
  7 26  1  0  0  0  0
  8  9  1  0  0  0  0
  8 27  1  0  0  0  0
  9 10  1  0  0  0  0
  9 28  1  0  0  0  0
  9 29  1  0  0  0  0
 10 11  1  0  0  0  0
 10 30  1  0  0  0  0
 10 31  1  0  0  0  0
 11 15  1  0  0  0  0
 11 12  1  0  0  0  0
 12 13  2  0  0  0  0
 12 32  1  0  0  0  0
 13 14  1  0  0  0  0
 13 33  1  0  0  0  0
 14 15  2  0  0  0  0
 14 34  1  0  0  0  0
M  CHG  1   6   1
M  END
> <s_m_source_file>
AV-unprocessed.smi

> <i_m_source_file_index>
3097

> <i_lp_mmshare_version>
43012

> <i_f3d_flags>
0

> <s_epik_input>
W0NIM11bQ0gyXVtDSDJdW05IXS9DKD1OXFtDSDNdKVtOSF1bQ0gyXVtDSDJdbjFbY0hdW2NIXVtjSF1uMQ==

> <s_epik_cmdline>
J2VwaWtfcHl0aG9uJywgJy1waCcsICc3LjAnLCAnLXRuJywgJzgnLCAnLW1hJywgJzIwMCcsICctbWV0YWxfYmluZGluZycsICctaW1hZScsICc8aW5maWxlLm1hZT4nLCAnLW9tYWUnLCAnPG91dGZpbGUubWFlPic=

> <r_lp_tautomer_probability>
1

> <r_epik_Ionization_Penalty>
4.40305e-05

> <r_epik_Ionization_Penalty_Charging>
1.64417e-07

> <r_epik_Ionization_Penalty_Neutral>
4.38661e-05

> <r_epik_State_Penalty>
-0

> <r_epik_Charging_Adjusted_Penalty>
1.64417e-07

> <i_epik_Tot_Q>
1

> <i_epik_Tot_abs_Q>
1

> <r_epik_Metal_State_Penalty>
-0

> <b_epik_Metal_Only>
0

> <s_epik_Chemistry_Notes>
This compound has an imine and may undergo hydrolysis.

> <s_lp_Force_Field>
OPLS_2005

> <r_lp_Energy>
7.72145

> <b_lp_Chiralities_Consistent>
1

> <s_lp_Variant>
AV-unprocessed.smi:3097-1

> <Gold.Version>
5.8.1

> <Gold.Id.Protein>
6NUR|6NUR_protein|mol2

> <Gold.PLP.Fitness>
44.7083

> <Gold.PLP.PLP>
-27.7219

> <Gold.PLP.part.hbond>
-3.0000

> <Gold.PLP.part.metal>
0.0000

> <Gold.PLP.part.buried>
-0.7727

> <Gold.PLP.part.nonpolar>
-24.9644

> <Gold.PLP.part.repulsive>
0.1975

> <Gold.PLP.ligand.clash>
0.0000

> <Gold.PLP.ligand.torsion>
0.2286

> <Gold.PLP.Chemscore.Hbond>
3.9840

> <Gold.PLP.Chemscore.CHOScore>
1.8236

> <Gold.PLP.Chemscore.Metal>
0.0000

> <Gold.Chemscore.Hbonds>
donor molecule, donor type, donor heavy atom, donor atom, acceptor molecule, acceptor atom, score
      L1  H     6    35       P1 10175  1.10
      L1  H     8    27       P1  7948  1.89
      L1  C    12    32       P1 10175  1.00
      L1  C    14    34       P1  8028  0.81

> <Gold.PLP.Chemscore.Internal.Correction>
0.0208

> <Gold.Rescore>
     Score         DG    S(hbond)    S(metal)    S(lipo)     H(rot)  DE(clash)    DE(int)     intcor
     13.00     -13.43       1.87        0.00      55.15       1.86       0.13       0.29       ----

> <Gold.Chemscore.Fitness>
13.0039

> <Gold.Chemscore.DG>
-13.4254

> <Gold.Chemscore.ZeroCoef>
-5.4800

> <Gold.Chemscore.Hbond>
1.8696

> <Gold.Chemscore.Metal>
0.0000

> <Gold.Chemscore.Lipo>
55.1506

> <Gold.Chemscore.Internal_Hbond>
0.0000

> <Gold.Chemscore.DEClash>
0.1343

> <Gold.Chemscore.DEInternal>
0.2871

> <Gold.Chemscore.Rot>
1.8561

> <Gold.Chemscore.Internal.Correction>
   9.000000E+99

> <Gold.Chemscore.Hbonds>
donor molecule, donor type, donor heavy atom, donor atom, acceptor molecule, acceptor atom, score
      L1  H     6    35       P1 10175  0.51
      L1  H     8    27       P1  7948  0.91

> <Gold.Chemscore.Hbond.Weighted>
-6.2445

> <Gold.Chemscore.Metal.Weighted>
-0.0000

> <Gold.Chemscore.Lipo.Weighted>
-6.4526

> <Gold.Chemscore.Internal_Hbond.Weighted>
0.0000

> <Gold.Chemscore.DEClash.Weighted>
0.1343

> <Gold.Chemscore.DEInternal.Weighted>
0.2871

> <Gold.Chemscore.Rot.Weighted>
4.7517

> <Gold.Chemscore.Internal.Correction.Weighted>
   9.000000E+99

> <Gold.Protein.RotatedTorsions>
[ 6907 6896 6895 6894 ] final -168.25 input  -60.11 | X-H torsion
[ 7974 7965 7964 7962 ] final -125.90 input  175.53 | X-H torsion
[ 8008 7997 7996 7995 ] final  -45.14 input   59.86 | X-H torsion
[ 10167 10162 10161 10158 ] final  136.27 input  -65.29 | X-H torsion
[ 10718 10713 10712 10709 ] final  -65.37 input   66.30 | X-H torsion
[ 10763 10752 10751 10750 ] final    3.59 input  -60.55 | X-H torsion
[ 11005 11000 10999 10996 ] final -163.44 input  -57.11 | X-H torsion

> <Gold.Protein.ActiveResidues>
 VAL166  LYS551  ARG553  GLY616  TRP617  ASP618  TYR619  PRO620  LYS621  CYS622 
 ASP623  PHE694  ASN695  SER759  ASP760  ASP761  ALA762  ILE779  LEU786  VAL792 
 PHE793  MET794  SER795  GLU796  ALA797  LYS798  CYS799  TRP800  GLU811  SER814 

> <Gold.Protein.RotatedAtoms>
  151.4725  133.3565  159.2825 H   0  0  0  0  0  0  0  0  0  0  0  0  # atno 6907 bound_to 6896
  150.8951  134.8360  159.7332 H   0  0  0  0  0  0  0  0  0  0  0  0  # atno 6908 bound_to 6896
  152.4846  134.4639  159.9666 H   0  0  0  0  0  0  0  0  0  0  0  0  # atno 6909 bound_to 6896
  144.9928  140.7748  143.4544 H   0  0  0  0  0  0  0  0  0  0  0  0  # atno 7974 bound_to 7965
  154.3999  140.1404  156.3798 H   0  0  0  0  0  0  0  0  0  0  0  0  # atno 8008 bound_to 7997
  155.8014  140.3476  155.5384 H   0  0  0  0  0  0  0  0  0  0  0  0  # atno 8009 bound_to 7997
  155.8480  140.0937  157.1683 H   0  0  0  0  0  0  0  0  0  0  0  0  # atno 8010 bound_to 7997
  139.5186  144.6473  151.5402 H   0  0  0  0  0  0  0  0  0  0  0  0  # atno 10167 bound_to 10162
  156.0674  130.4246  150.1554 H   0  0  0  0  0  0  0  0  0  0  0  0  # atno 10718 bound_to 10713
  153.2815  135.6941  153.7381 H   0  0  0  0  0  0  0  0  0  0  0  0  # atno 10763 bound_to 10752
  153.6366  135.3400  155.3059 H   0  0  0  0  0  0  0  0  0  0  0  0  # atno 10764 bound_to 10752
  154.8496  135.4421  154.1870 H   0  0  0  0  0  0  0  0  0  0  0  0  # atno 10765 bound_to 10752
  140.5981  134.4976  157.5202 H   0  0  0  0  0  0  0  0  0  0  0  0  # atno 11005 bound_to 11000
  145.2262  139.2136  143.5067 LP  0  0  0  0  0  0  0  0  0  0  0  0  # atno 17320 bound_to 7965
  146.3435  140.2129  142.8590 LP  0  0  0  0  0  0  0  0  0  0  0  0  # atno 17321 bound_to 7965
  140.6264  143.9161  150.6568 LP  0  0  0  0  0  0  0  0  0  0  0  0  # atno 17342 bound_to 10162
  140.2451  143.3635  152.1453 LP  0  0  0  0  0  0  0  0  0  0  0  0  # atno 17343 bound_to 10162
  156.9611  130.9805  151.3479 LP  0  0  0  0  0  0  0  0  0  0  0  0  # atno 17370 bound_to 10713
  157.5724  130.8319  149.8409 LP  0  0  0  0  0  0  0  0  0  0  0  0  # atno 17371 bound_to 10713
  139.9244  134.8084  156.1112 LP  0  0  0  0  0  0  0  0  0  0  0  0  # atno 17394 bound_to 11000
  141.0890  133.6722  156.2500 LP  0  0  0  0  0  0  0  0  0  0  0  0  # atno 17395 bound_to 11000

$$$$
