AV-unprocessed.smi:184|AV-procd|sdf|1464|dock10
  -GOLD-   2262019273D 1   1.00000     0.00000
 Structure written by MMmdl.
 54 58  0  0  0  0  0  0  0  0  1 V2000
  155.1808  141.9398  160.7962 O   0  0  0  0  0  0  0  0  0  0  0  0
  154.0234  141.9502  160.3843 C   0  0  0  0  0  0  0  0  0  0  0  0
  153.6037  140.9615  159.2814 C   0  0  0  0  0  0  0  0  0  0  0  0
  152.1726  141.0129  158.9381 N   0  0  0  0  0  0  0  0  0  0  0  0
  151.7007  140.1282  158.0215 C   0  0  0  0  0  0  0  0  0  0  0  0
  152.5706  139.3076  157.3747 N   0  0  0  0  0  0  0  0  0  0  0  0
  152.1299  138.4409  156.4586 C   0  0  0  0  0  0  0  0  0  0  0  0
  150.8794  138.2270  156.0465 N   0  0  0  0  0  0  0  0  0  0  0  0
  149.9975  139.0324  156.7042 C   0  0  0  0  0  0  0  0  0  0  0  0
  150.3195  140.0027  157.6956 C   0  0  0  0  0  0  0  0  0  0  0  0
  149.1568  140.6195  158.1442 N   0  0  0  0  0  0  0  0  0  0  0  0
  148.2070  140.0605  157.4463 C   0  0  0  0  0  0  0  0  0  0  0  0
  148.6216  139.0882  156.5649 N   0  0  0  0  0  0  0  0  0  0  0  0
  147.7782  138.3044  155.6755 C   0  0  0  0  0  0  0  0  0  0  0  0
  147.7163  136.7969  156.0277 C   0  0  0  0  0  0  0  0  0  0  0  0
  148.8772  136.1812  155.4980 O   0  0  0  0  0  0  0  0  0  0  0  0
  147.6813  136.5394  157.5503 C   0  0  0  0  0  0  0  0  0  0  0  0
  147.4034  135.0626  157.8831 C   0  0  0  0  0  0  0  0  0  0  0  0
  146.2019  134.6360  157.2531 O   0  0  0  0  0  0  0  0  0  0  0  0
  146.2763  134.6922  155.8340 C   0  0  0  0  0  0  0  0  0  0  0  0
  146.4790  136.1472  155.3759 C   0  0  0  0  0  0  0  0  0  0  0  0
  151.4862  142.3017  159.0458 C   0  0  2  0  0  0  0  0  0  0  0  0
  151.9564  143.2866  157.9478 C   0  0  0  0  0  0  0  0  0  0  0  0
  151.3296  144.6768  158.1258 C   0  0  0  0  0  0  0  0  0  0  0  0
  151.6297  145.2394  159.5227 C   0  0  0  0  0  0  0  0  0  0  0  0
  151.1274  144.2847  160.6176 C   0  0  0  0  0  0  0  0  0  0  0  0
  151.7077  142.8645  160.4688 C   0  0  2  0  0  0  0  0  0  0  0  0
  153.1159  142.8190  160.8621 N   0  0  0  0  0  0  0  0  0  0  0  0
  154.2070  141.1800  158.3991 H   0  0  0  0  0  0  0  0  0  0  0  0
  153.8602  139.9525  159.6066 H   0  0  0  0  0  0  0  0  0  0  0  0
  152.8879  137.8320  155.9884 H   0  0  0  0  0  0  0  0  0  0  0  0
  147.1691  140.3363  157.5637 H   0  0  0  0  0  0  0  0  0  0  0  0
  146.7760  138.7338  155.7053 H   0  0  0  0  0  0  0  0  0  0  0  0
  148.1347  138.4417  154.6536 H   0  0  0  0  0  0  0  0  0  0  0  0
  148.9624  136.4292  154.5902 H   0  0  0  0  0  0  0  0  0  0  0  0
  148.6168  136.8469  158.0190 H   0  0  0  0  0  0  0  0  0  0  0  0
  146.8972  137.1498  158.0000 H   0  0  0  0  0  0  0  0  0  0  0  0
  148.2345  134.4270  157.5744 H   0  0  0  0  0  0  0  0  0  0  0  0
  147.2963  134.9382  158.9607 H   0  0  0  0  0  0  0  0  0  0  0  0
  147.0806  134.0493  155.4737 H   0  0  0  0  0  0  0  0  0  0  0  0
  145.3487  134.2976  155.4193 H   0  0  0  0  0  0  0  0  0  0  0  0
  145.5888  136.7179  155.6443 H   0  0  0  0  0  0  0  0  0  0  0  0
  146.5513  136.1905  154.2882 H   0  0  0  0  0  0  0  0  0  0  0  0
  150.4120  142.1753  158.9207 H   0  0  0  0  0  0  0  0  0  0  0  0
  153.0420  143.3872  157.9625 H   0  0  0  0  0  0  0  0  0  0  0  0
  151.7014  142.8940  156.9629 H   0  0  0  0  0  0  0  0  0  0  0  0
  151.7098  145.3553  157.3617 H   0  0  0  0  0  0  0  0  0  0  0  0
  150.2509  144.6156  157.9775 H   0  0  0  0  0  0  0  0  0  0  0  0
  152.7027  145.4000  159.6334 H   0  0  0  0  0  0  0  0  0  0  0  0
  151.1576  146.2153  159.6379 H   0  0  0  0  0  0  0  0  0  0  0  0
  151.3627  144.6881  161.6032 H   0  0  0  0  0  0  0  0  0  0  0  0
  150.0392  144.2297  160.5661 H   0  0  0  0  0  0  0  0  0  0  0  0
  151.1855  142.2165  161.1744 H   0  0  0  0  0  0  0  0  0  0  0  0
  153.4144  143.4716  161.5724 H   0  0  0  0  0  0  0  0  0  0  0  0
  1  2  2  0  0  0  0
  2 28  1  0  0  0  0
  2  3  1  0  0  0  0
  3  4  1  0  0  0  0
  3 29  1  0  0  0  0
  3 30  1  0  0  0  0
  4  5  1  0  0  0  0
  4 22  1  0  0  0  0
  5 10  1  0  0  0  0
  5  6  2  0  0  0  0
  6  7  1  0  0  0  0
  7  8  2  0  0  0  0
  7 31  1  0  0  0  0
  8  9  1  0  0  0  0
  9 13  1  0  0  0  0
  9 10  2  0  0  0  0
 10 11  1  0  0  0  0
 11 12  2  0  0  0  0
 12 13  1  0  0  0  0
 12 32  1  0  0  0  0
 13 14  1  0  0  0  0
 14 15  1  0  0  0  0
 14 33  1  0  0  0  0
 14 34  1  0  0  0  0
 15 21  1  0  0  0  0
 15 16  1  0  0  0  0
 15 17  1  0  0  0  0
 16 35  1  0  0  0  0
 17 18  1  0  0  0  0
 17 36  1  0  0  0  0
 17 37  1  0  0  0  0
 18 19  1  0  0  0  0
 18 38  1  0  0  0  0
 18 39  1  0  0  0  0
 19 20  1  0  0  0  0
 20 21  1  0  0  0  0
 20 40  1  0  0  0  0
 20 41  1  0  0  0  0
 21 42  1  0  0  0  0
 21 43  1  0  0  0  0
 22 27  1  0  0  0  0
 22 23  1  0  0  0  0
 22 44  1  0  0  0  0
 23 24  1  0  0  0  0
 23 45  1  0  0  0  0
 23 46  1  0  0  0  0
 24 25  1  0  0  0  0
 24 47  1  0  0  0  0
 24 48  1  0  0  0  0
 25 26  1  0  0  0  0
 25 49  1  0  0  0  0
 25 50  1  0  0  0  0
 26 27  1  0  0  0  0
 26 51  1  0  0  0  0
 26 52  1  0  0  0  0
 27 28  1  0  0  0  0
 27 53  1  0  0  0  0
 28 54  1  0  0  0  0
M  END
> <s_m_source_file>
AV-unprocessed.smi

> <i_m_source_file_index>
184

> <i_lp_mmshare_version>
43012

> <i_f3d_flags>
0

> <s_epik_input>
W0NIMl0xW0NIMl1bQ0gyXVtDSDJdW0NASF0oW0NASF0xMilbTkhdQyg9TylbQ0gyXU4yYyhuW2NIXW4zKWMoYzM0KW5bY0hdbjRbQ0gyXUM1KFtPSF0pW0NIMl1bQ0gyXU9bQ0gyXVtDSDJdNQ==

> <s_epik_cmdline>
J2VwaWtfcHl0aG9uJywgJy1waCcsICc3LjAnLCAnLXRuJywgJzgnLCAnLW1hJywgJzIwMCcsICctbWV0YWxfYmluZGluZycsICctaW1hZScsICc8aW5maWxlLm1hZT4nLCAnLW9tYWUnLCAnPG91dGZpbGUubWFlPic=

> <r_lp_tautomer_probability>
1

> <r_epik_Ionization_Penalty>
0.000822761

> <r_epik_Ionization_Penalty_Charging>
0

> <r_epik_Ionization_Penalty_Neutral>
0.000822761

> <r_epik_State_Penalty>
0.000403048

> <r_epik_Charging_Adjusted_Penalty>
0.000403048

> <i_epik_Tot_Q>
0

> <i_epik_Tot_abs_Q>
0

> <r_epik_Metal_State_Penalty>
-0

> <b_epik_Metal_Only>
0

> <s_lp_Force_Field>
OPLS_2005

> <r_lp_Energy>
36.9453

> <b_lp_Chiralities_Consistent>
1

> <s_lp_Variant>
AV-unprocessed.smi:184-4

> <Gold.Version>
5.8.1

> <Gold.Id.Protein>
6NUR|6NUR_protein|mol2

> <Gold.PLP.Fitness>
58.5320

> <Gold.PLP.PLP>
-50.0120

> <Gold.PLP.part.hbond>
-4.6952

> <Gold.PLP.part.metal>
0.0000

> <Gold.PLP.part.buried>
0.7930

> <Gold.PLP.part.nonpolar>
-45.4249

> <Gold.PLP.part.repulsive>
0.9146

> <Gold.PLP.ligand.clash>
0.0000

> <Gold.PLP.ligand.torsion>
0.5907

> <Gold.PLP.Chemscore.Hbond>
3.0000

> <Gold.PLP.Chemscore.CHOScore>
0.1714

> <Gold.PLP.Chemscore.Metal>
0.0000

> <Gold.Chemscore.Hbonds>
donor molecule, donor type, donor heavy atom, donor atom, acceptor molecule, acceptor atom, score
      P1  H  7997  8009       L1     6  0.84

> <Gold.PLP.Chemscore.Internal.Correction>
0.1871

> <Gold.Rescore>
     Score         DG    S(hbond)    S(metal)    S(lipo)     H(rot)  DE(clash)    DE(int)     intcor
     17.90     -20.07       1.84        0.00     111.99       1.83       0.76       1.40       ----

> <Gold.Chemscore.Fitness>
17.9043

> <Gold.Chemscore.DG>
-20.0655

> <Gold.Chemscore.ZeroCoef>
-5.4800

> <Gold.Chemscore.Hbond>
1.8433

> <Gold.Chemscore.Metal>
0.0000

> <Gold.Chemscore.Lipo>
111.9850

> <Gold.Chemscore.Internal_Hbond>
0.0000

> <Gold.Chemscore.DEClash>
0.7568

> <Gold.Chemscore.DEInternal>
1.4044

> <Gold.Chemscore.Rot>
1.8255

> <Gold.Chemscore.Internal.Correction>
   9.000000E+99

> <Gold.Chemscore.Hbonds>
donor molecule, donor type, donor heavy atom, donor atom, acceptor molecule, acceptor atom, score
      P1  H  7997  8009       L1     6  0.48

> <Gold.Chemscore.Hbond.Weighted>
-6.1565

> <Gold.Chemscore.Metal.Weighted>
-0.0000

> <Gold.Chemscore.Lipo.Weighted>
-13.1022

> <Gold.Chemscore.Internal_Hbond.Weighted>
0.0000

> <Gold.Chemscore.DEClash.Weighted>
0.7568

> <Gold.Chemscore.DEInternal.Weighted>
1.4044

> <Gold.Chemscore.Rot.Weighted>
4.6732

> <Gold.Chemscore.Internal.Correction.Weighted>
   9.000000E+99

> <Gold.Protein.RotatedTorsions>
[ 6907 6896 6895 6894 ] final  106.55 input  -60.11 | X-H torsion
[ 7974 7965 7964 7962 ] final  123.46 input  175.53 | X-H torsion
[ 8008 7997 7996 7995 ] final  179.19 input   59.86 | X-H torsion
[ 10167 10162 10161 10158 ] final -153.90 input  -65.29 | X-H torsion
[ 10718 10713 10712 10709 ] final  133.67 input   66.30 | X-H torsion
[ 10763 10752 10751 10750 ] final   97.11 input  -60.55 | X-H torsion
[ 11005 11000 10999 10996 ] final  -32.04 input  -57.11 | X-H torsion

> <Gold.Protein.ActiveResidues>
 VAL166  LYS551  ARG553  GLY616  TRP617  ASP618  TYR619  PRO620  LYS621  CYS622 
 ASP623  PHE694  ASN695  SER759  ASP760  ASP761  ALA762  ILE779  LEU786  VAL792 
 PHE793  MET794  SER795  GLU796  ALA797  LYS798  CYS799  TRP800  GLU811  SER814 

> <Gold.Protein.RotatedAtoms>
  152.5189  133.9365  159.7605 H   0  0  0  0  0  0  0  0  0  0  0  0  # atno 6907 bound_to 6896
  150.9704  133.6341  159.2746 H   0  0  0  0  0  0  0  0  0  0  0  0  # atno 6908 bound_to 6896
  151.3555  135.0899  159.9470 H   0  0  0  0  0  0  0  0  0  0  0  0  # atno 6909 bound_to 6896
  145.0957  139.3555  143.4838 H   0  0  0  0  0  0  0  0  0  0  0  0  # atno 7974 bound_to 7965
  156.0462  140.1315  157.0101 H   0  0  0  0  0  0  0  0  0  0  0  0  # atno 8008 bound_to 7997
  154.4413  140.1020  156.6379 H   0  0  0  0  0  0  0  0  0  0  0  0  # atno 8009 bound_to 7997
  155.5593  140.3464  155.4489 H   0  0  0  0  0  0  0  0  0  0  0  0  # atno 8010 bound_to 7997
  139.7058  143.9189  152.2448 H   0  0  0  0  0  0  0  0  0  0  0  0  # atno 10167 bound_to 10162
  157.4749  131.1082  150.9755 H   0  0  0  0  0  0  0  0  0  0  0  0  # atno 10718 bound_to 10713
  153.2729  135.4195  155.1005 H   0  0  0  0  0  0  0  0  0  0  0  0  # atno 10763 bound_to 10752
  154.8462  135.3476  154.6219 H   0  0  0  0  0  0  0  0  0  0  0  0  # atno 10764 bound_to 10752
  153.6639  135.7047  153.5226 H   0  0  0  0  0  0  0  0  0  0  0  0  # atno 10765 bound_to 10752
  140.9519  133.7216  156.1233 H   0  0  0  0  0  0  0  0  0  0  0  0  # atno 11005 bound_to 11000
  146.3531  140.0811  142.8617 LP  0  0  0  0  0  0  0  0  0  0  0  0  # atno 17320 bound_to 7965
  145.1014  140.9348  143.4710 LP  0  0  0  0  0  0  0  0  0  0  0  0  # atno 17321 bound_to 7965
  139.9044  144.6893  150.8630 LP  0  0  0  0  0  0  0  0  0  0  0  0  # atno 17342 bound_to 10162
  140.7721  143.3490  151.2053 LP  0  0  0  0  0  0  0  0  0  0  0  0  # atno 17343 bound_to 10162
  157.0508  130.5786  149.5370 LP  0  0  0  0  0  0  0  0  0  0  0  0  # atno 17370 bound_to 10713
  156.0092  130.5182  150.7932 LP  0  0  0  0  0  0  0  0  0  0  0  0  # atno 17371 bound_to 10713
  140.7591  134.3959  157.5529 LP  0  0  0  0  0  0  0  0  0  0  0  0  # atno 17394 bound_to 11000
  139.8850  134.8949  156.2670 LP  0  0  0  0  0  0  0  0  0  0  0  0  # atno 17395 bound_to 11000

$$$$
