AV-unprocessed.smi:1166|AV-procd|sdf|4935|dock4
  -GOLD-   22720 3523D 1   1.00000     0.00000
 Structure written by MMmdl.
 47 48  0  0  0  0  0  0  0  0  2 V2000
  146.2079  128.6212  152.4898 C   0  0  0  0  0  0  0  0  0  0  0  0
  147.3885  128.8819  153.3030 N   0  0  0  0  0  0  0  0  0  0  0  0
  148.1598  127.7747  153.8572 C   0  0  0  0  0  0  0  0  0  0  0  0
  147.8332  130.2087  153.4892 C   0  0  0  0  0  0  0  0  0  0  0  0
  148.7764  130.5792  154.4783 C   0  0  0  0  0  0  0  0  0  0  0  0
  149.1727  131.9265  154.6073 C   0  0  0  0  0  0  0  0  0  0  0  0
  148.6208  132.9049  153.7429 C   0  0  0  0  0  0  0  0  0  0  0  0
  148.9345  134.2927  153.7743 N   0  0  0  0  0  0  0  0  0  0  0  0
  149.3824  135.0492  154.7918 C   0  0  0  0  0  0  0  0  0  0  0  0
  149.6403  134.6469  155.9254 O   0  0  0  0  0  0  0  0  0  0  0  0
  149.5198  136.3283  154.4148 N   0  0  0  0  0  0  0  0  0  0  0  0
  149.9738  137.4177  155.2742 C   0  0  1  0  0  0  0  0  0  0  0  0
  151.1694  136.9715  156.1311 C   0  0  0  0  0  0  0  0  0  0  0  0
  151.6622  138.1469  156.9831 C   0  0  0  0  0  0  0  0  0  0  0  0
  152.0103  139.3651  156.1096 C   0  0  0  0  0  0  0  0  0  0  0  0
  150.8885  139.7409  155.2250 N   0  0  0  0  0  0  0  0  0  0  0  0
  149.8725  141.0935  155.6345 S   0  0  0  0  0  0  0  0  0  0  0  0
  151.0190  142.2988  156.4205 C   0  0  0  0  0  0  0  0  0  0  0  0
  149.3802  141.6811  154.3790 O   0  0  0  0  0  0  0  0  0  0  0  0
  148.9125  140.6422  156.6535 O   0  0  0  0  0  0  0  0  0  0  0  0
  150.3508  138.6350  154.4076 C   0  0  0  0  0  0  0  0  0  0  0  0
  147.6888  132.4812  152.7739 C   0  0  0  0  0  0  0  0  0  0  0  0
  147.3379  131.1805  152.6852 N   0  3  0  0  0  0  0  0  0  0  0  0
  145.3270  129.0851  152.9343 H   0  0  0  0  0  0  0  0  0  0  0  0
  146.0136  127.5519  152.4038 H   0  0  0  0  0  0  0  0  0  0  0  0
  146.3407  129.0168  151.4823 H   0  0  0  0  0  0  0  0  0  0  0  0
  149.1682  127.7651  153.4421 H   0  0  0  0  0  0  0  0  0  0  0  0
  147.6957  126.8146  153.6303 H   0  0  0  0  0  0  0  0  0  0  0  0
  148.2308  127.8616  154.9419 H   0  0  0  0  0  0  0  0  0  0  0  0
  149.2071  129.8490  155.1467 H   0  0  0  0  0  0  0  0  0  0  0  0
  149.8933  132.1681  155.3713 H   0  0  0  0  0  0  0  0  0  0  0  0
  148.7780  134.7834  152.9059 H   0  0  0  0  0  0  0  0  0  0  0  0
  149.2877  136.5712  153.4628 H   0  0  0  0  0  0  0  0  0  0  0  0
  149.1576  137.7056  155.9367 H   0  0  0  0  0  0  0  0  0  0  0  0
  150.8886  136.1382  156.7763 H   0  0  0  0  0  0  0  0  0  0  0  0
  151.9783  136.6155  155.4915 H   0  0  0  0  0  0  0  0  0  0  0  0
  150.8986  138.4140  157.7125 H   0  0  0  0  0  0  0  0  0  0  0  0
  152.5379  137.8449  157.5579 H   0  0  0  0  0  0  0  0  0  0  0  0
  152.3015  140.2091  156.7341 H   0  0  0  0  0  0  0  0  0  0  0  0
  152.8746  139.1314  155.4871 H   0  0  0  0  0  0  0  0  0  0  0  0
  150.4591  143.1911  156.6997 H   0  0  0  0  0  0  0  0  0  0  0  0
  151.8024  142.5797  155.7188 H   0  0  0  0  0  0  0  0  0  0  0  0
  151.4579  141.8653  157.3173 H   0  0  0  0  0  0  0  0  0  0  0  0
  151.1105  138.3499  153.6784 H   0  0  0  0  0  0  0  0  0  0  0  0
  149.4888  138.9758  153.8340 H   0  0  0  0  0  0  0  0  0  0  0  0
  147.2103  133.1427  152.0659 H   0  0  0  0  0  0  0  0  0  0  0  0
  146.6592  130.9147  151.9714 H   0  0  0  0  0  0  0  0  0  0  0  0
  1  2  1  0  0  0  0
  1 24  1  0  0  0  0
  1 25  1  0  0  0  0
  1 26  1  0  0  0  0
  2  3  1  0  0  0  0
  2  4  1  0  0  0  0
  3 27  1  0  0  0  0
  3 28  1  0  0  0  0
  3 29  1  0  0  0  0
  4 23  1  0  0  0  0
  4  5  2  0  0  0  0
  5  6  1  0  0  0  0
  5 30  1  0  0  0  0
  6  7  2  0  0  0  0
  6 31  1  0  0  0  0
  7  8  1  0  0  0  0
  7 22  1  0  0  0  0
  8  9  1  0  0  0  0
  8 32  1  0  0  0  0
  9 10  2  0  0  0  0
  9 11  1  0  0  0  0
 11 12  1  0  0  0  0
 11 33  1  0  0  0  0
 12 21  1  0  0  0  0
 12 13  1  0  0  0  0
 12 34  1  0  0  0  0
 13 14  1  0  0  0  0
 13 35  1  0  0  0  0
 13 36  1  0  0  0  0
 14 15  1  0  0  0  0
 14 37  1  0  0  0  0
 14 38  1  0  0  0  0
 15 16  1  0  0  0  0
 15 39  1  0  0  0  0
 15 40  1  0  0  0  0
 16 17  1  0  0  0  0
 16 21  1  0  0  0  0
 17 18  1  0  0  0  0
 17 19  2  0  0  0  0
 17 20  2  0  0  0  0
 18 41  1  0  0  0  0
 18 42  1  0  0  0  0
 18 43  1  0  0  0  0
 21 44  1  0  0  0  0
 21 45  1  0  0  0  0
 22 23  2  0  0  0  0
 22 46  1  0  0  0  0
 23 47  1  0  0  0  0
M  CHG  1  23   1
M  END
> <s_m_source_file>
AV-unprocessed.smi

> <i_m_source_file_index>
1166

> <i_lp_mmshare_version>
43012

> <i_f3d_flags>
0

> <s_epik_input>
W0NIM11OKFtDSDNdKWMxW2NIXVtjSF1jKFtjSF1uMSlbTkhdQyg9TylbTkhdW0NAQEhdMltDSDJdW0NIMl1bQ0gyXU4oW0NIMl0yKVMoPU8pKD1PKVtDSDNd

> <s_epik_cmdline>
J2VwaWtfcHl0aG9uJywgJy1waCcsICc3LjAnLCAnLXRuJywgJzgnLCAnLW1hJywgJzIwMCcsICctbWV0YWxfYmluZGluZycsICctaW1hZScsICc8aW5maWxlLm1hZT4nLCAnLW9tYWUnLCAnPG91dGZpbGUubWFlPic=

> <r_lp_tautomer_probability>
0.999994

> <r_epik_Ionization_Penalty>
0.276583

> <r_epik_Ionization_Penalty_Charging>
0.276565

> <r_epik_Ionization_Penalty_Neutral>
1.87575e-05

> <r_epik_State_Penalty>
0.268949

> <r_epik_Charging_Adjusted_Penalty>
0.545513

> <i_epik_Tot_Q>
1

> <i_epik_Tot_abs_Q>
1

> <r_epik_Metal_State_Penalty>
0.551815

> <b_epik_Metal_Only>
0

> <s_lp_Force_Field>
OPLS_2005

> <r_lp_Energy>
8.45094

> <b_lp_Chiralities_Consistent>
1

> <s_lp_Variant>
AV-unprocessed.smi:1166-2

> <Gold.Version>
5.8.1

> <Gold.Id.Protein>
6NUR|6NUR_protein|mol2

> <Gold.PLP.Fitness>
41.8249

> <Gold.PLP.PLP>
-36.6684

> <Gold.PLP.part.hbond>
-4.8792

> <Gold.PLP.part.metal>
0.0000

> <Gold.PLP.part.buried>
-1.6926

> <Gold.PLP.part.nonpolar>
-30.0312

> <Gold.PLP.part.repulsive>
0.2899

> <Gold.PLP.ligand.clash>
0.0000

> <Gold.PLP.ligand.torsion>
1.6542

> <Gold.PLP.Chemscore.Hbond>
2.1329

> <Gold.PLP.Chemscore.CHOScore>
0.0000

> <Gold.PLP.Chemscore.Metal>
0.0000

> <Gold.Chemscore.Hbonds>
donor molecule, donor type, donor heavy atom, donor atom, acceptor molecule, acceptor atom, score
      L1  H     8    32       P1  7948  0.85
      L1  H    11    33       P1  7948  1.00
      P1  H  8011  8017       L1    19  0.28

> <Gold.PLP.Chemscore.Internal.Correction>
2.0663

> <Gold.Rescore>
     Score         DG    S(hbond)    S(metal)    S(lipo)     H(rot)  DE(clash)    DE(int)     intcor
     13.07     -17.34       2.06        0.00      64.48       1.00       0.43       3.84       ----

> <Gold.Chemscore.Fitness>
13.0651

> <Gold.Chemscore.DG>
-17.3414

> <Gold.Chemscore.ZeroCoef>
-5.4800

> <Gold.Chemscore.Hbond>
2.0590

> <Gold.Chemscore.Metal>
0.0000

> <Gold.Chemscore.Lipo>
64.4826

> <Gold.Chemscore.Internal_Hbond>
0.0000

> <Gold.Chemscore.DEClash>
0.4328

> <Gold.Chemscore.DEInternal>
3.8435

> <Gold.Chemscore.Rot>
1.0000

> <Gold.Chemscore.Internal.Correction>
   9.000000E+99

> <Gold.Chemscore.Hbonds>
donor molecule, donor type, donor heavy atom, donor atom, acceptor molecule, acceptor atom, score
      L1  H     8    32       P1  7948  0.14
      L1  H    11    33       P1  7948  0.90
      P1  H  8011  8017       L1    19  0.28

> <Gold.Chemscore.Hbond.Weighted>
-6.8770

> <Gold.Chemscore.Metal.Weighted>
-0.0000

> <Gold.Chemscore.Lipo.Weighted>
-7.5445

> <Gold.Chemscore.Internal_Hbond.Weighted>
0.0000

> <Gold.Chemscore.DEClash.Weighted>
0.4328

> <Gold.Chemscore.DEInternal.Weighted>
3.8435

> <Gold.Chemscore.Rot.Weighted>
2.5600

> <Gold.Chemscore.Internal.Correction.Weighted>
   9.000000E+99

> <Gold.Protein.RotatedTorsions>
[ 6907 6896 6895 6894 ] final  -99.78 input  -60.11 | X-H torsion
[ 7974 7965 7964 7962 ] final   83.32 input  175.53 | X-H torsion
[ 8008 7997 7996 7995 ] final   58.54 input   59.86 | X-H torsion
[ 10167 10162 10161 10158 ] final   78.06 input  -65.29 | X-H torsion
[ 10718 10713 10712 10709 ] final -151.26 input   66.30 | X-H torsion
[ 10763 10752 10751 10750 ] final  170.61 input  -60.55 | X-H torsion
[ 11005 11000 10999 10996 ] final   19.42 input  -57.11 | X-H torsion

> <Gold.Protein.ActiveResidues>
 VAL166  LYS551  ARG553  GLY616  TRP617  ASP618  TYR619  PRO620  LYS621  CYS622 
 ASP623  PHE694  ASN695  SER759  ASP760  ASP761  ALA762  ILE779  LEU786  VAL792 
 PHE793  MET794  SER795  GLU796  ALA797  LYS798  CYS799  TRP800  GLU811  SER814 

> <Gold.Protein.RotatedAtoms>
  150.7092  134.0988  159.3957 H   0  0  0  0  0  0  0  0  0  0  0  0  # atno 6907 bound_to 6896
  151.8974  135.0390  160.0512 H   0  0  0  0  0  0  0  0  0  0  0  0  # atno 6908 bound_to 6896
  152.2442  133.5125  159.5324 H   0  0  0  0  0  0  0  0  0  0  0  0  # atno 6909 bound_to 6896
  145.6135  139.2372  143.2179 H   0  0  0  0  0  0  0  0  0  0  0  0  # atno 7974 bound_to 7965
  155.5517  140.3486  155.4470 H   0  0  0  0  0  0  0  0  0  0  0  0  # atno 8008 bound_to 7997
  156.0578  140.1333  157.0002 H   0  0  0  0  0  0  0  0  0  0  0  0  # atno 8009 bound_to 7997
  154.4465  140.0991  156.6457 H   0  0  0  0  0  0  0  0  0  0  0  0  # atno 8010 bound_to 7997
  139.9750  144.5868  150.7952 H   0  0  0  0  0  0  0  0  0  0  0  0  # atno 10167 bound_to 10162
  156.4569  130.8195  151.2426 H   0  0  0  0  0  0  0  0  0  0  0  0  # atno 10718 bound_to 10713
  154.4000  135.2755  155.2102 H   0  0  0  0  0  0  0  0  0  0  0  0  # atno 10763 bound_to 10752
  154.4132  135.6017  153.5968 H   0  0  0  0  0  0  0  0  0  0  0  0  # atno 10764 bound_to 10752
  152.9831  135.5954  154.4267 H   0  0  0  0  0  0  0  0  0  0  0  0  # atno 10765 bound_to 10752
  140.4139  134.1590  155.7669 H   0  0  0  0  0  0  0  0  0  0  0  0  # atno 11005 bound_to 11000
  146.1486  140.6957  142.9333 LP  0  0  0  0  0  0  0  0  0  0  0  0  # atno 17320 bound_to 7965
  144.7260  140.4526  143.6973 LP  0  0  0  0  0  0  0  0  0  0  0  0  # atno 17321 bound_to 7965
  140.7509  143.2963  151.3196 LP  0  0  0  0  0  0  0  0  0  0  0  0  # atno 17342 bound_to 10162
  139.6453  144.0463  152.2586 LP  0  0  0  0  0  0  0  0  0  0  0  0  # atno 17343 bound_to 10162
  157.7500  131.0120  150.3366 LP  0  0  0  0  0  0  0  0  0  0  0  0  # atno 17370 bound_to 10713
  156.3757  130.3871  149.7141 LP  0  0  0  0  0  0  0  0  0  0  0  0  # atno 17371 bound_to 10713
  141.1810  133.8413  157.1256 LP  0  0  0  0  0  0  0  0  0  0  0  0  # atno 17394 bound_to 11000
  140.0248  134.9929  157.0664 LP  0  0  0  0  0  0  0  0  0  0  0  0  # atno 17395 bound_to 11000

$$$$
