AV-unprocessed.smi:2783|AV-procd|sdf|10724|dock2
  -GOLD-   2272015163D 1   1.00000     0.00000
 Structure written by MMmdl.
 29 29  0  0  0  0  0  0  0  0  1 V2000
  152.0621  144.9416  160.7895 C   0  0  0  0  0  0  0  0  0  0  0  0
  152.1253  143.8272  159.9012 O   0  0  0  0  0  0  0  0  0  0  0  0
  151.2767  143.8355  158.7435 C   0  0  0  0  0  0  0  0  0  0  0  0
  149.8170  144.1620  159.1384 C   0  0  0  0  0  0  0  0  0  0  0  0
  151.8212  144.9564  157.8403 C   0  0  0  0  0  0  0  0  0  0  0  0
  151.3728  142.4928  157.9824 C   0  0  0  0  0  0  0  0  0  0  0  0
  152.0624  141.5815  158.4410 O   0  0  0  0  0  0  0  0  0  0  0  0
  150.6443  142.3929  156.8536 N   0  0  0  0  0  0  0  0  0  0  0  0
  150.5375  141.3029  155.9457 C   0  0  0  0  0  0  0  0  0  0  0  0
  151.4700  140.2392  155.8821 C   0  0  0  0  0  0  0  0  0  0  0  0
  151.2723  139.2226  154.9267 C   0  0  0  0  0  0  0  0  0  0  0  0
  150.2414  139.2096  154.0564 N   0  0  0  0  0  0  0  0  0  0  0  0
  149.3626  140.2320  154.1081 C   0  0  0  0  0  0  0  0  0  0  0  0
  149.4661  141.3001  155.0230 C   0  0  0  0  0  0  0  0  0  0  0  0
  148.5379  142.3033  155.0072 O   0  0  0  0  0  0  0  0  0  0  0  0
  152.6668  144.7270  161.6704 H   0  0  0  0  0  0  0  0  0  0  0  0
  151.0492  145.1535  161.1312 H   0  0  0  0  0  0  0  0  0  0  0  0
  152.4705  145.8421  160.3310 H   0  0  0  0  0  0  0  0  0  0  0  0
  149.2012  144.3597  158.2600 H   0  0  0  0  0  0  0  0  0  0  0  0
  149.7722  145.0492  159.7706 H   0  0  0  0  0  0  0  0  0  0  0  0
  149.3453  143.3425  159.6819 H   0  0  0  0  0  0  0  0  0  0  0  0
  151.2386  145.0519  156.9229 H   0  0  0  0  0  0  0  0  0  0  0  0
  152.8582  144.7727  157.5562 H   0  0  0  0  0  0  0  0  0  0  0  0
  151.7900  145.9195  158.3504 H   0  0  0  0  0  0  0  0  0  0  0  0
  150.0470  143.1812  156.6486 H   0  0  0  0  0  0  0  0  0  0  0  0
  152.3318  140.1886  156.5291 H   0  0  0  0  0  0  0  0  0  0  0  0
  151.9679  138.3993  154.8555 H   0  0  0  0  0  0  0  0  0  0  0  0
  148.5520  140.1980  153.3952 H   0  0  0  0  0  0  0  0  0  0  0  0
  148.8056  143.0630  155.5022 H   0  0  0  0  0  0  0  0  0  0  0  0
  1  2  1  0  0  0  0
  1 16  1  0  0  0  0
  1 17  1  0  0  0  0
  1 18  1  0  0  0  0
  2  3  1  0  0  0  0
  3  4  1  0  0  0  0
  3  5  1  0  0  0  0
  3  6  1  0  0  0  0
  4 19  1  0  0  0  0
  4 20  1  0  0  0  0
  4 21  1  0  0  0  0
  5 22  1  0  0  0  0
  5 23  1  0  0  0  0
  5 24  1  0  0  0  0
  6  7  2  0  0  0  0
  6  8  1  0  0  0  0
  8  9  1  0  0  0  0
  8 25  1  0  0  0  0
  9 14  1  0  0  0  0
  9 10  2  0  0  0  0
 10 11  1  0  0  0  0
 10 26  1  0  0  0  0
 11 12  2  0  0  0  0
 11 27  1  0  0  0  0
 12 13  1  0  0  0  0
 13 14  2  0  0  0  0
 13 28  1  0  0  0  0
 14 15  1  0  0  0  0
 15 29  1  0  0  0  0
M  END
> <s_m_source_file>
AV-unprocessed.smi

> <i_m_source_file_index>
2783

> <i_lp_mmshare_version>
43012

> <i_f3d_flags>
0

> <s_epik_input>
W0NIM11PQyhbQ0gzXSkoW0NIM10pQyg9TylbTkhdYzFbY0hdW2NIXW5bY0hdYzFbT0hd

> <s_epik_cmdline>
J2VwaWtfcHl0aG9uJywgJy1waCcsICc3LjAnLCAnLXRuJywgJzgnLCAnLW1hJywgJzIwMCcsICctbWV0YWxfYmluZGluZycsICctaW1hZScsICc8aW5maWxlLm1hZT4nLCAnLW9tYWUnLCAnPG91dGZpbGUubWFlPic=

> <r_lp_tautomer_probability>
0.43658

> <r_epik_Ionization_Penalty>
0.0236053

> <r_epik_Ionization_Penalty_Charging>
0

> <r_epik_Ionization_Penalty_Neutral>
0.0236053

> <r_epik_State_Penalty>
0.499983

> <r_epik_Charging_Adjusted_Penalty>
0.499983

> <i_epik_Tot_Q>
0

> <i_epik_Tot_abs_Q>
0

> <r_epik_Metal_State_Penalty>
0.746226

> <b_epik_Metal_Only>
0

> <s_lp_Force_Field>
OPLS_2005

> <r_lp_Energy>
14.4929

> <b_lp_Chiralities_Consistent>
1

> <s_lp_Variant>
AV-unprocessed.smi:2783-2

> <Gold.Version>
5.8.1

> <Gold.Id.Protein>
6NUR|6NUR_protein|mol2

> <Gold.PLP.Fitness>
36.3377

> <Gold.PLP.PLP>
-30.0100

> <Gold.PLP.part.hbond>
-2.0622

> <Gold.PLP.part.metal>
0.0000

> <Gold.PLP.part.buried>
-3.1704

> <Gold.PLP.part.nonpolar>
-25.4841

> <Gold.PLP.part.repulsive>
0.5858

> <Gold.PLP.ligand.clash>
0.0000

> <Gold.PLP.ligand.torsion>
0.1299

> <Gold.PLP.Chemscore.Hbond>
1.6585

> <Gold.PLP.Chemscore.CHOScore>
0.5256

> <Gold.PLP.Chemscore.Metal>
0.0000

> <Gold.Chemscore.Hbonds>
donor molecule, donor type, donor heavy atom, donor atom, acceptor molecule, acceptor atom, score
      L1  H     8    25       P1  8028  0.67
      L1  H    15    29       P1  8028  0.98
      L1  C    13    28       P1  7957  0.53

> <Gold.PLP.Chemscore.Internal.Correction>
0.0352

> <Gold.Rescore>
     Score         DG    S(hbond)    S(metal)    S(lipo)     H(rot)  DE(clash)    DE(int)     intcor
     13.41     -15.53       1.58        0.00      79.21       1.75       0.80       1.32       ----

> <Gold.Chemscore.Fitness>
13.4100

> <Gold.Chemscore.DG>
-15.5334

> <Gold.Chemscore.ZeroCoef>
-5.4800

> <Gold.Chemscore.Hbond>
1.5772

> <Gold.Chemscore.Metal>
0.0000

> <Gold.Chemscore.Lipo>
79.2076

> <Gold.Chemscore.Internal_Hbond>
0.0000

> <Gold.Chemscore.DEClash>
0.7985

> <Gold.Chemscore.DEInternal>
1.3249

> <Gold.Chemscore.Rot>
1.7507

> <Gold.Chemscore.Internal.Correction>
   9.000000E+99

> <Gold.Chemscore.Hbonds>
donor molecule, donor type, donor heavy atom, donor atom, acceptor molecule, acceptor atom, score
      L1  H     8    25       P1  8028  0.67
      L1  H    15    29       P1  8028  0.92

> <Gold.Chemscore.Hbond.Weighted>
-5.2678

> <Gold.Chemscore.Metal.Weighted>
-0.0000

> <Gold.Chemscore.Lipo.Weighted>
-9.2673

> <Gold.Chemscore.Internal_Hbond.Weighted>
0.0000

> <Gold.Chemscore.DEClash.Weighted>
0.7985

> <Gold.Chemscore.DEInternal.Weighted>
1.3249

> <Gold.Chemscore.Rot.Weighted>
4.4817

> <Gold.Chemscore.Internal.Correction.Weighted>
   9.000000E+99

> <Gold.Protein.RotatedTorsions>
[ 6907 6896 6895 6894 ] final   97.03 input  -60.11 | X-H torsion
[ 7974 7965 7964 7962 ] final  -36.52 input  175.53 | X-H torsion
[ 8008 7997 7996 7995 ] final  -37.72 input   59.86 | X-H torsion
[ 10167 10162 10161 10158 ] final   68.70 input  -65.29 | X-H torsion
[ 10718 10713 10712 10709 ] final   -4.11 input   66.30 | X-H torsion
[ 10763 10752 10751 10750 ] final   68.87 input  -60.55 | X-H torsion
[ 11005 11000 10999 10996 ] final -147.00 input  -57.11 | X-H torsion

> <Gold.Protein.ActiveResidues>
 VAL166  LYS551  ARG553  GLY616  TRP617  ASP618  TYR619  PRO620  LYS621  CYS622 
 ASP623  PHE694  ASN695  SER759  ASP760  ASP761  ALA762  ILE779  LEU786  VAL792 
 PHE793  MET794  SER795  GLU796  ALA797  LYS798  CYS799  TRP800  GLU811  SER814 

> <Gold.Protein.RotatedAtoms>
  152.5428  134.0796  159.8229 H   0  0  0  0  0  0  0  0  0  0  0  0  # atno 6907 bound_to 6896
  151.0899  133.5316  159.2623 H   0  0  0  0  0  0  0  0  0  0  0  0  # atno 6908 bound_to 6896
  151.2111  135.0490  159.8966 H   0  0  0  0  0  0  0  0  0  0  0  0  # atno 6909 bound_to 6896
  146.0654  140.6288  142.8977 H   0  0  0  0  0  0  0  0  0  0  0  0  # atno 7974 bound_to 7965
  154.4049  140.1597  156.2582 H   0  0  0  0  0  0  0  0  0  0  0  0  # atno 8008 bound_to 7997
  155.9059  140.3430  155.6039 H   0  0  0  0  0  0  0  0  0  0  0  0  # atno 8009 bound_to 7997
  155.7393  140.0790  157.2244 H   0  0  0  0  0  0  0  0  0  0  0  0  # atno 8010 bound_to 7997
  140.0758  144.5113  150.7196 H   0  0  0  0  0  0  0  0  0  0  0  0  # atno 10167 bound_to 10162
  156.7662  130.5285  149.5776 H   0  0  0  0  0  0  0  0  0  0  0  0  # atno 10718 bound_to 10713
  153.0258  135.5231  154.7201 H   0  0  0  0  0  0  0  0  0  0  0  0  # atno 10763 bound_to 10752
  154.6259  135.2894  155.0275 H   0  0  0  0  0  0  0  0  0  0  0  0  # atno 10764 bound_to 10752
  154.1244  135.6602  153.4962 H   0  0  0  0  0  0  0  0  0  0  0  0  # atno 10765 bound_to 10752
  140.7761  134.3133  157.5060 H   0  0  0  0  0  0  0  0  0  0  0  0  # atno 11005 bound_to 11000
  144.7199  140.4339  143.7016 LP  0  0  0  0  0  0  0  0  0  0  0  0  # atno 17320 bound_to 7965
  145.6486  139.1561  143.2875 LP  0  0  0  0  0  0  0  0  0  0  0  0  # atno 17321 bound_to 7965
  140.7103  143.2499  151.4603 LP  0  0  0  0  0  0  0  0  0  0  0  0  # atno 17342 bound_to 10162
  139.5809  144.1713  152.1966 LP  0  0  0  0  0  0  0  0  0  0  0  0  # atno 17343 bound_to 10162
  156.1307  130.6176  151.0329 LP  0  0  0  0  0  0  0  0  0  0  0  0  # atno 17370 bound_to 10713
  157.6712  131.0861  150.7607 LP  0  0  0  0  0  0  0  0  0  0  0  0  # atno 17371 bound_to 10713
  139.8749  134.9290  156.3466 LP  0  0  0  0  0  0  0  0  0  0  0  0  # atno 17394 bound_to 11000
  140.9527  133.7440  156.0294 LP  0  0  0  0  0  0  0  0  0  0  0  0  # atno 17395 bound_to 11000

$$$$
