#       Name:                AV-unprocessed.smi:1842
#       Creating user name   scv26
#       Creation time:       Fri Mar 27 09:20:05 2020


#       File generated by GOLD software.
#

@<TRIPOS>MOLECULE
AV-unprocessed.smi:1842
    41    42     1
SMALL
NO_CHARGES


@<TRIPOS>ATOM
      1 ****        -1.0366   1.4872  -1.0723 O.2            1 S1                 0.0000
      2 ****        -0.3262   0.5345  -0.7524 C.2            1 S1                 0.0000
      3 ****         1.1949   0.6970  -0.6765 C.3            1 S1                 0.0000
      4 ****         1.6448   1.9238   0.1434 C.3            1 S1                 0.0000
      5 ****         1.2340   1.8933   1.6306 C.3            1 S1                 0.0000
      6 ****         1.7007   3.1212   2.4173 C.3            1 S1                 0.0000
      7 ****         1.6776   2.6935   3.8902 C.3            1 S1                 0.0000
      8 ****         1.6945   1.1572   3.8950 C.3            1 S1                 0.0000
      9 ****         1.8224   0.7280   2.4305 C.3            1 S1                 0.0000
     10 ****        -0.8118  -0.6820  -0.4615 N.am           1 S1                 0.0000
     11 ****        -2.2254  -1.0467  -0.4590 C.3            1 S1                 0.0000
     12 ****        -2.8108  -1.1768  -1.8785 C.3            1 S1                 0.0000
     13 ****        -2.1664  -2.2370  -2.6591 N.pl3          1 S1                 0.0000
     14 ****        -2.4265  -3.5823  -2.6078 C.2            1 S1                 0.0000
     15 ****        -1.5827  -4.1776  -3.5101 C.2            1 S1                 0.0000
     16 ****        -0.8447  -3.1713  -4.0738 N.pl3          1 S1                 1.0000
     17 ****        -1.2026  -1.9915  -3.5565 C.2            1 S1                 0.0000
     18 ****         1.6478  -0.2081  -0.2693 H              1 S1                 0.0000
     19 ****         1.5701   0.7893  -1.6960 H              1 S1                 0.0000
     20 ****         2.7296   2.0094   0.0711 H              1 S1                 0.0000
     21 ****         1.2496   2.8304  -0.3170 H              1 S1                 0.0000
     22 ****         0.1466   1.8472   1.7083 H              1 S1                 0.0000
     23 ****         2.7224   3.3785   2.1341 H              1 S1                 0.0000
     24 ****         1.0786   3.9969   2.2292 H              1 S1                 0.0000
     25 ****         2.5284   3.1083   4.4319 H              1 S1                 0.0000
     26 ****         0.7722   3.0563   4.3786 H              1 S1                 0.0000
     27 ****         2.5045   0.7558   4.5049 H              1 S1                 0.0000
     28 ****         0.7575   0.7832   4.3100 H              1 S1                 0.0000
     29 ****         1.3147  -0.2165   2.2321 H              1 S1                 0.0000
     30 ****         2.8760   0.5980   2.1790 H              1 S1                 0.0000
     31 ****        -0.1541  -1.4030  -0.2016 H              1 S1                 0.0000
     32 ****        -2.3341  -1.9901   0.0768 H              1 S1                 0.0000
     33 ****        -2.7896  -0.3057   0.1095 H              1 S1                 0.0000
     34 ****        -3.8738  -1.4136  -1.8221 H              1 S1                 0.0000
     35 ****        -2.7292  -0.2387  -2.4293 H              1 S1                 0.0000
     36 ****        -3.1725  -4.0047  -1.9502 H              1 S1                 0.0000
     37 ****        -1.4558  -5.2145  -3.7861 H              1 S1                 0.0000
     38 ****        -0.7913  -1.0305  -3.8105 H              1 S1                 0.0000
     39 ****        -0.1317  -3.2984  -4.7812 H              1 S1                 0.0000
     40 ****        -0.6212   2.3718  -1.2840 LP             1 S1                 0.0000
     41 ****        -2.0293   1.3767  -1.1206 LP             1 S1                 0.0000
@<TRIPOS>BOND
    1    1    2 2     
    2    2    3 1     
    3    2   10 am    
    4    3    4 1     
    5    3   18 1     
    6    3   19 1     
    7    4    5 1     
    8    4   20 1     
    9    4   21 1     
   10    5    9 1     
   11    5    6 1     
   12    5   22 1     
   13    6    7 1     
   14    6   23 1     
   15    6   24 1     
   16    7    8 1     
   17    7   25 1     
   18    7   26 1     
   19    8    9 1     
   20    8   27 1     
   21    8   28 1     
   22    9   29 1     
   23    9   30 1     
   24   10   11 1     
   25   10   31 1     
   26   11   12 1     
   27   11   32 1     
   28   11   33 1     
   29   12   13 1     
   30   12   34 1     
   31   12   35 1     
   32   13   17 1     
   33   13   14 1     
   34   14   15 2     
   35   14   36 1     
   36   15   16 1     
   37   15   37 1     
   38   16   17 2     
   39   16   39 1     
   40   17   38 1     
   41    1   40 1     
   42    1   41 1     
@<TRIPOS>SUBSTRUCTURE
      1 S1             1
@<TRIPOS>SET
LONE_PAIRS      STATIC     ATOMS    <user>   **** ""
2 40 41
DONOR_HYDROGENS      STATIC     ATOMS    <user>   **** ""
2 31 39
ATOM$BLUE        STATIC     ATOMS    COLORGROUP SYSTEM
2 40 41
ATOM$RED        STATIC     ATOMS    COLORGROUP SYSTEM
2 31 39
