AV-unprocessed.smi:1569|AV-procd|sdf|6311|dock8
  -GOLD-   22720 6513D 1   1.00000     0.00000
 Structure written by MMmdl.
 33 34  0  0  0  0  0  0  0  0  1 V2000
  152.7954  142.8637  162.1639 C   0  0  0  0  0  0  0  0  0  0  0  0
  152.3392  143.2794  160.8079 C   0  0  0  0  0  0  0  0  0  0  0  0
  152.0910  142.4201  159.8163 N   0  0  0  0  0  0  0  0  0  0  0  0
  151.7022  143.0595  158.6351 C   0  0  0  0  0  0  0  0  0  0  0  0
  151.4260  142.2515  157.3997 C   0  0  0  0  0  0  0  0  0  0  0  0
  151.6703  140.7394  157.5788 C   0  0  0  0  0  0  0  0  0  0  0  0
  151.0789  139.9510  156.4991 N   0  0  0  0  0  0  0  0  0  0  0  0
  151.7454  139.4545  155.4448 C   0  0  0  0  0  0  0  0  0  0  0  0
  152.9646  139.5627  155.3056 O   0  0  0  0  0  0  0  0  0  0  0  0
  150.8942  138.7393  154.3883 C   0  0  0  0  0  0  0  0  0  0  0  0
  149.4901  139.1569  154.4191 N   0  0  0  0  0  0  0  0  0  0  0  0
  148.4691  138.1450  154.6690 C   0  0  0  0  0  0  0  0  0  0  0  0
  146.9392  139.0312  155.0570 S   0  0  0  0  0  0  0  0  0  0  0  0
  147.5605  140.5785  154.3762 C   0  0  0  0  0  0  0  0  0  0  0  0
  149.0663  140.4217  154.2500 C   0  0  0  0  0  0  0  0  0  0  0  0
  149.7940  141.3866  154.0188 O   0  0  0  0  0  0  0  0  0  0  0  0
  151.6368  144.4257  158.7560 C   0  0  0  0  0  0  0  0  0  0  0  0
  152.0843  144.9591  160.3525 S   0  0  0  0  0  0  0  0  0  0  0  0
  152.6090  141.8011  162.3229 H   0  0  0  0  0  0  0  0  0  0  0  0
  152.2625  143.4295  162.9282 H   0  0  0  0  0  0  0  0  0  0  0  0
  153.8641  143.0520  162.2688 H   0  0  0  0  0  0  0  0  0  0  0  0
  150.3970  142.4100  157.0754 H   0  0  0  0  0  0  0  0  0  0  0  0
  152.0489  142.6136  156.5810 H   0  0  0  0  0  0  0  0  0  0  0  0
  152.7414  140.5445  157.6535 H   0  0  0  0  0  0  0  0  0  0  0  0
  151.2385  140.4080  158.5234 H   0  0  0  0  0  0  0  0  0  0  0  0
  150.0803  139.8065  156.5368 H   0  0  0  0  0  0  0  0  0  0  0  0
  151.3296  138.9160  153.4036 H   0  0  0  0  0  0  0  0  0  0  0  0
  150.9444  137.6621  154.5551 H   0  0  0  0  0  0  0  0  0  0  0  0
  148.3275  137.5335  153.7775 H   0  0  0  0  0  0  0  0  0  0  0  0
  148.7468  137.4926  155.4968 H   0  0  0  0  0  0  0  0  0  0  0  0
  147.1259  140.7542  153.3921 H   0  0  0  0  0  0  0  0  0  0  0  0
  147.3031  141.4144  155.0272 H   0  0  0  0  0  0  0  0  0  0  0  0
  151.3675  145.1488  158.0008 H   0  0  0  0  0  0  0  0  0  0  0  0
  1  2  1  0  0  0  0
  1 19  1  0  0  0  0
  1 20  1  0  0  0  0
  1 21  1  0  0  0  0
  2 18  1  0  0  0  0
  2  3  2  0  0  0  0
  3  4  1  0  0  0  0
  4  5  1  0  0  0  0
  4 17  2  0  0  0  0
  5  6  1  0  0  0  0
  5 22  1  0  0  0  0
  5 23  1  0  0  0  0
  6  7  1  0  0  0  0
  6 24  1  0  0  0  0
  6 25  1  0  0  0  0
  7  8  1  0  0  0  0
  7 26  1  0  0  0  0
  8  9  2  0  0  0  0
  8 10  1  0  0  0  0
 10 11  1  0  0  0  0
 10 27  1  0  0  0  0
 10 28  1  0  0  0  0
 11 15  1  0  0  0  0
 11 12  1  0  0  0  0
 12 13  1  0  0  0  0
 12 29  1  0  0  0  0
 12 30  1  0  0  0  0
 13 14  1  0  0  0  0
 14 15  1  0  0  0  0
 14 31  1  0  0  0  0
 14 32  1  0  0  0  0
 15 16  2  0  0  0  0
 17 18  1  0  0  0  0
 17 33  1  0  0  0  0
M  END
> <s_m_source_file>
AV-unprocessed.smi

> <i_m_source_file_index>
1569

> <i_lp_mmshare_version>
43012

> <i_f3d_flags>
0

> <s_epik_input>
W0NIM11jMW5jKFtjSF1zMSlbQ0gyXVtDSDJdW05IXUMoPU8pW0NIMl1OMltDSDJdU1tDSDJdQzI9Tw==

> <s_epik_cmdline>
J2VwaWtfcHl0aG9uJywgJy1waCcsICc3LjAnLCAnLXRuJywgJzgnLCAnLW1hJywgJzIwMCcsICctbWV0YWxfYmluZGluZycsICctaW1hZScsICc8aW5maWxlLm1hZT4nLCAnLW9tYWUnLCAnPG91dGZpbGUubWFlPic=

> <r_epik_Ionization_Penalty>
0.00098942

> <r_epik_Ionization_Penalty_Charging>
0

> <r_epik_Ionization_Penalty_Neutral>
0.00098942

> <r_epik_State_Penalty>
0.00064447

> <r_epik_Charging_Adjusted_Penalty>
0.00064447

> <i_epik_Tot_Q>
0

> <i_epik_Tot_abs_Q>
0

> <r_epik_Metal_State_Penalty>
-0

> <b_epik_Metal_Only>
0

> <s_epik_Chemistry_Notes>
This compound contains an acetal/aminal-like group ( X-CH(R)-Y where X, Y are N, S, or O) that may be acid/base labile, releasing an aldehyde.

> <s_lp_Force_Field>
OPLS_2005

> <r_lp_Energy>
2.37506

> <b_lp_Chiralities_Consistent>
1

> <s_lp_Variant>
AV-unprocessed.smi:1569-1

> <Gold.Version>
5.8.1

> <Gold.Id.Protein>
6NUR|6NUR_protein|mol2

> <Gold.PLP.Fitness>
44.6908

> <Gold.PLP.PLP>
-39.6278

> <Gold.PLP.part.hbond>
-3.3849

> <Gold.PLP.part.metal>
0.0000

> <Gold.PLP.part.buried>
-4.2857

> <Gold.PLP.part.nonpolar>
-31.9755

> <Gold.PLP.part.repulsive>
0.2908

> <Gold.PLP.ligand.clash>
0.0000

> <Gold.PLP.ligand.torsion>
0.5266

> <Gold.PLP.Chemscore.Hbond>
2.0337

> <Gold.PLP.Chemscore.CHOScore>
0.0000

> <Gold.PLP.Chemscore.Metal>
0.0000

> <Gold.Chemscore.Hbonds>
donor molecule, donor type, donor heavy atom, donor atom, acceptor molecule, acceptor atom, score
      P1  H  7989  7998       L1    16  0.27
      P1  H  7997  8009       L1     9  1.00
      P1  H  8011  8017       L1    16  0.69

> <Gold.PLP.Chemscore.Internal.Correction>
0.0150

> <Gold.Rescore>
     Score         DG    S(hbond)    S(metal)    S(lipo)     H(rot)  DE(clash)    DE(int)     intcor
     17.02     -18.17       2.12        0.00      89.97       1.92       0.60       0.55       ----

> <Gold.Chemscore.Fitness>
17.0167

> <Gold.Chemscore.DG>
-18.1670

> <Gold.Chemscore.ZeroCoef>
-5.4800

> <Gold.Chemscore.Hbond>
2.1196

> <Gold.Chemscore.Metal>
0.0000

> <Gold.Chemscore.Lipo>
89.9696

> <Gold.Chemscore.Internal_Hbond>
0.0000

> <Gold.Chemscore.DEClash>
0.5978

> <Gold.Chemscore.DEInternal>
0.5525

> <Gold.Chemscore.Rot>
1.9215

> <Gold.Chemscore.Internal.Correction>
   9.000000E+99

> <Gold.Chemscore.Hbonds>
donor molecule, donor type, donor heavy atom, donor atom, acceptor molecule, acceptor atom, score
      P1  H  7989  7998       L1    16  0.25
      P1  H  7997  8009       L1     9  1.00
      P1  H  8011  8017       L1    16  0.67

> <Gold.Chemscore.Hbond.Weighted>
-7.0795

> <Gold.Chemscore.Metal.Weighted>
-0.0000

> <Gold.Chemscore.Lipo.Weighted>
-10.5264

> <Gold.Chemscore.Internal_Hbond.Weighted>
0.0000

> <Gold.Chemscore.DEClash.Weighted>
0.5978

> <Gold.Chemscore.DEInternal.Weighted>
0.5525

> <Gold.Chemscore.Rot.Weighted>
4.9190

> <Gold.Chemscore.Internal.Correction.Weighted>
   9.000000E+99

> <Gold.Protein.RotatedTorsions>
[ 6907 6896 6895 6894 ] final -133.82 input  -60.11 | X-H torsion
[ 7974 7965 7964 7962 ] final    0.73 input  175.53 | X-H torsion
[ 8008 7997 7996 7995 ] final -139.82 input   59.86 | X-H torsion
[ 10167 10162 10161 10158 ] final    4.26 input  -65.29 | X-H torsion
[ 10718 10713 10712 10709 ] final   99.21 input   66.30 | X-H torsion
[ 10763 10752 10751 10750 ] final -154.22 input  -60.55 | X-H torsion
[ 11005 11000 10999 10996 ] final -145.54 input  -57.11 | X-H torsion

> <Gold.Protein.ActiveResidues>
 VAL166  LYS551  ARG553  GLY616  TRP617  ASP618  TYR619  PRO620  LYS621  CYS622 
 ASP623  PHE694  ASN695  SER759  ASP760  ASP761  ALA762  ILE779  LEU786  VAL792 
 PHE793  MET794  SER795  GLU796  ALA797  LYS798  CYS799  TRP800  GLU811  SER814 

> <Gold.Protein.RotatedAtoms>
  150.9786  133.6269  159.2726 H   0  0  0  0  0  0  0  0  0  0  0  0  # atno 6907 bound_to 6896
  151.3532  135.0888  159.9420 H   0  0  0  0  0  0  0  0  0  0  0  0  # atno 6908 bound_to 6896
  152.5208  133.9374  159.7664 H   0  0  0  0  0  0  0  0  0  0  0  0  # atno 6909 bound_to 6896
  146.2436  140.1093  142.8344 H   0  0  0  0  0  0  0  0  0  0  0  0  # atno 7974 bound_to 7965
  155.4512  140.0539  157.3001 H   0  0  0  0  0  0  0  0  0  0  0  0  # atno 8008 bound_to 7997
  154.4776  140.2068  155.9796 H   0  0  0  0  0  0  0  0  0  0  0  0  # atno 8009 bound_to 7997
  156.1157  140.3197  155.8140 H   0  0  0  0  0  0  0  0  0  0  0  0  # atno 8010 bound_to 7997
  140.6544  143.7465  150.7628 H   0  0  0  0  0  0  0  0  0  0  0  0  # atno 10167 bound_to 10162
  157.6880  131.0663  150.4913 H   0  0  0  0  0  0  0  0  0  0  0  0  # atno 10718 bound_to 10713
  154.7874  135.3195  154.7855 H   0  0  0  0  0  0  0  0  0  0  0  0  # atno 10763 bound_to 10752
  153.8552  135.6858  153.4792 H   0  0  0  0  0  0  0  0  0  0  0  0  # atno 10764 bound_to 10752
  153.1531  135.4691  154.9604 H   0  0  0  0  0  0  0  0  0  0  0  0  # atno 10765 bound_to 10752
  140.7912  134.2966  157.5013 H   0  0  0  0  0  0  0  0  0  0  0  0  # atno 11005 bound_to 11000
  145.0501  140.9011  143.5001 LP  0  0  0  0  0  0  0  0  0  0  0  0  # atno 17320 bound_to 7965
  145.1189  139.2706  143.5598 LP  0  0  0  0  0  0  0  0  0  0  0  0  # atno 17321 bound_to 7965
  140.1122  143.4688  152.2363 LP  0  0  0  0  0  0  0  0  0  0  0  0  # atno 17342 bound_to 10162
  139.5763  144.7489  151.3755 LP  0  0  0  0  0  0  0  0  0  0  0  0  # atno 17343 bound_to 10162
  156.5240  130.4168  149.6236 LP  0  0  0  0  0  0  0  0  0  0  0  0  # atno 17370 bound_to 10713
  156.3129  130.7239  151.2135 LP  0  0  0  0  0  0  0  0  0  0  0  0  # atno 17371 bound_to 10713
  139.8731  134.9375  156.3690 LP  0  0  0  0  0  0  0  0  0  0  0  0  # atno 17394 bound_to 11000
  140.9388  133.7529  156.0119 LP  0  0  0  0  0  0  0  0  0  0  0  0  # atno 17395 bound_to 11000

$$$$
