#       Name:                AV-unprocessed.smi:1762
#       Creating user name   scv26
#       Creation time:       Fri Mar 27 08:31:59 2020


#       File generated by GOLD software.
#

@<TRIPOS>MOLECULE
AV-unprocessed.smi:1762
    58    59     1
SMALL
NO_CHARGES


@<TRIPOS>ATOM
      1 ****        -5.0609  -1.6053  -2.2532 C.3            1 S1                 0.0000
      2 ****        -3.5422  -1.5781  -2.0471 C.3            1 S1                 0.0000
      3 ****        -3.1516  -1.1534  -0.6180 C.3            1 S1                 0.0000
      4 ****        -1.6991  -1.0506  -0.4316 N.3            1 S1                 0.0000
      5 ****        -1.3157  -0.6661   0.9562 C.3            1 S1                 0.0000
      6 ****         0.1975  -0.3815   1.1087 C.2            1 S1                 0.0000
      7 ****         1.0252  -1.2555   0.8486 O.2            1 S1                 0.0000
      8 ****         0.5421   0.8571   1.4956 N.am           1 S1                 0.0000
      9 ****         1.9120   1.3345   1.6402 C.3            1 S1                 0.0000
     10 ****         2.5179   1.7176   0.2793 C.3            1 S1                 0.0000
     11 ****         3.9446   2.2168   0.4040 C.ar           1 S1                 0.0000
     12 ****         5.0326   1.3631   0.1232 C.ar           1 S1                 0.0000
     13 ****         6.3383   1.8731   0.2578 C.ar           1 S1                 0.0000
     14 ****         6.5048   3.2098   0.6680 C.ar           1 S1                 0.0000
     15 ****         5.3534   3.9800   0.9262 C.ar           1 S1                 0.0000
     16 ****         4.0970   3.5009   0.7995 N.ar           1 S1                 0.0000
     17 ****        -1.8152  -1.6384   2.0774 C.3            1 S1                 0.0000
     18 ****        -1.4795  -1.1536   3.5023 C.3            1 S1                 0.0000
     19 ****        -1.3624  -3.0996   1.8873 C.3            1 S1                 0.0000
     20 ****        -1.1571  -0.1630  -1.4759 C.3            1 S1                 0.0000
     21 ****        -1.5660  -0.5915  -2.8981 C.3            1 S1                 0.0000
     22 ****        -1.0724   0.3921  -3.9651 C.3            1 S1                 0.0000
     23 ****        -2.9841  -0.6592  -2.9775 O.3            1 S1                 0.0000
     24 ****        -5.5374  -2.3096  -1.5709 H              1 S1                 0.0000
     25 ****        -5.3100  -1.9085  -3.2703 H              1 S1                 0.0000
     26 ****        -5.5004  -0.6223  -2.0814 H              1 S1                 0.0000
     27 ****        -3.1461  -2.5745  -2.2522 H              1 S1                 0.0000
     28 ****        -3.6250  -0.2002  -0.3767 H              1 S1                 0.0000
     29 ****        -3.5750  -1.8951   0.0562 H              1 S1                 0.0000
     30 ****        -1.8110   0.2862   1.1585 H              1 S1                 0.0000
     31 ****        -0.1965   1.5191   1.6848 H              1 S1                 0.0000
     32 ****         1.9017   2.2009   2.3022 H              1 S1                 0.0000
     33 ****         2.5231   0.5751   2.1312 H              1 S1                 0.0000
     34 ****         2.5011   0.8613  -0.3966 H              1 S1                 0.0000
     35 ****         1.9118   2.4912  -0.1948 H              1 S1                 0.0000
     36 ****         4.8722   0.3408  -0.1869 H              1 S1                 0.0000
     37 ****         7.1960   1.2502   0.0509 H              1 S1                 0.0000
     38 ****         7.4910   3.6346   0.7826 H              1 S1                 0.0000
     39 ****         5.4442   5.0083   1.2429 H              1 S1                 0.0000
     40 ****        -2.9036  -1.6400   2.0535 H              1 S1                 0.0000
     41 ****        -0.4104  -1.2006   3.7116 H              1 S1                 0.0000
     42 ****        -1.9811  -1.7691   4.2495 H              1 S1                 0.0000
     43 ****        -1.8067  -0.1249   3.6553 H              1 S1                 0.0000
     44 ****        -0.2849  -3.2116   2.0040 H              1 S1                 0.0000
     45 ****        -1.6324  -3.4783   0.9014 H              1 S1                 0.0000
     46 ****        -1.8361  -3.7498   2.6231 H              1 S1                 0.0000
     47 ****        -1.4883   0.8611  -1.2945 H              1 S1                 0.0000
     48 ****        -0.0679  -0.1458  -1.4573 H              1 S1                 0.0000
     49 ****        -1.1509  -1.5775  -3.1148 H              1 S1                 0.0000
     50 ****         0.0148   0.4719  -3.9527 H              1 S1                 0.0000
     51 ****        -1.4833   1.3890  -3.8030 H              1 S1                 0.0000
     52 ****        -1.3702   0.0673  -4.9623 H              1 S1                 0.0000
     53 ****        -1.2828  -1.9532  -0.5410 LP             1 S1                 0.0000
     54 ****         0.7208  -2.1555   0.5367 LP             1 S1                 0.0000
     55 ****         2.0018  -1.0651   0.9492 LP             1 S1                 0.0000
     56 ****         3.3036   4.0783   0.9923 LP             1 S1                 0.0000
     57 ****        -3.3586   0.2496  -2.7936 LP             1 S1                 0.0000
     58 ****        -3.2396  -0.9443  -3.9013 LP             1 S1                 0.0000
@<TRIPOS>BOND
    1    1    2 1     
    2    1   24 1     
    3    1   25 1     
    4    1   26 1     
    5    2   23 1     
    6    2    3 1     
    7    2   27 1     
    8    3    4 1     
    9    3   28 1     
   10    3   29 1     
   11    4    5 1     
   12    4   20 1     
   13    5    6 1     
   14    5   17 1     
   15    5   30 1     
   16    6    7 2     
   17    6    8 am    
   18    8    9 1     
   19    8   31 1     
   20    9   10 1     
   21    9   32 1     
   22    9   33 1     
   23   10   11 1     
   24   10   34 1     
   25   10   35 1     
   26   11   16 ar    
   27   11   12 ar    
   28   12   13 ar    
   29   12   36 1     
   30   13   14 ar    
   31   13   37 1     
   32   14   15 ar    
   33   14   38 1     
   34   15   16 ar    
   35   15   39 1     
   36   17   18 1     
   37   17   19 1     
   38   17   40 1     
   39   18   41 1     
   40   18   42 1     
   41   18   43 1     
   42   19   44 1     
   43   19   45 1     
   44   19   46 1     
   45   20   21 1     
   46   20   47 1     
   47   20   48 1     
   48   21   22 1     
   49   21   23 1     
   50   21   49 1     
   51   22   50 1     
   52   22   51 1     
   53   22   52 1     
   54    4   53 1     
   55    7   54 1     
   56    7   55 1     
   57   16   56 1     
   58   23   57 1     
   59   23   58 1     
@<TRIPOS>SUBSTRUCTURE
      1 S1             1
@<TRIPOS>SET
LONE_PAIRS      STATIC     ATOMS    <user>   **** ""
6 53 54 55 56 57 58
DONOR_HYDROGENS      STATIC     ATOMS    <user>   **** ""
1 31
ATOM$BLUE        STATIC     ATOMS    COLORGROUP SYSTEM
6 53 54 55 56 57 58
ATOM$RED        STATIC     ATOMS    COLORGROUP SYSTEM
1 31
