AV-unprocessed.smi:592|AV-procd|sdf|3012|dock9
  -GOLD-   2262023523D 1   1.00000     0.00000
 Structure written by MMmdl.
 27 28  0  0  0  0  0  0  0  0  1 V2000
  151.0516  140.6425  155.1330 O   0  0  0  0  0  0  0  0  0  0  0  0
  150.6712  141.0174  156.2454 C   0  0  0  0  0  0  0  0  0  0  0  0
  149.1746  141.2756  156.4571 C   0  0  0  0  0  0  0  0  0  0  0  0
  148.3869  140.8774  155.2798 N   0  0  0  0  0  0  0  0  0  0  0  0
  147.5173  141.8472  154.7417 C   0  0  0  0  0  0  0  0  0  0  0  0
  146.7418  141.5942  153.6758 C   0  0  0  0  0  0  0  0  0  0  0  0
  146.8144  140.2835  153.0754 C   0  0  0  0  0  0  0  0  0  0  0  0
  147.6432  139.3484  153.5808 C   0  0  0  0  0  0  0  0  0  0  0  0
  148.4938  139.6213  154.7453 C   0  0  0  0  0  0  0  0  0  0  0  0
  149.2525  138.7707  155.2104 O   0  0  0  0  0  0  0  0  0  0  0  0
  151.4155  141.2631  157.3942 N   0  0  0  0  0  0  0  0  0  0  0  0
  151.4882  142.4514  157.9133 C   0  0  0  0  0  0  0  0  0  0  0  0
  150.8944  143.6319  157.4767 N   0  0  0  0  0  0  0  0  0  0  0  0
  150.8363  144.7378  158.4146 C   0  0  0  0  0  0  0  0  0  0  0  0
  152.0577  144.6290  159.3231 C   0  0  0  0  0  0  0  0  0  0  0  0
  152.4243  142.8672  159.4089 S   0  0  0  0  0  0  0  0  0  0  0  0
  148.8411  140.7141  157.3315 H   0  0  0  0  0  0  0  0  0  0  0  0
  149.0106  142.3227  156.7197 H   0  0  0  0  0  0  0  0  0  0  0  0
  147.5199  142.7990  155.2534 H   0  0  0  0  0  0  0  0  0  0  0  0
  146.0793  142.3499  153.2800 H   0  0  0  0  0  0  0  0  0  0  0  0
  146.2003  140.0510  152.2179 H   0  0  0  0  0  0  0  0  0  0  0  0
  147.6829  138.3726  153.1194 H   0  0  0  0  0  0  0  0  0  0  0  0
  150.8116  145.6931  157.8900 H   0  0  0  0  0  0  0  0  0  0  0  0
  149.9175  144.6520  158.9959 H   0  0  0  0  0  0  0  0  0  0  0  0
  152.9119  145.1356  158.8733 H   0  0  0  0  0  0  0  0  0  0  0  0
  151.8850  145.0565  160.3108 H   0  0  0  0  0  0  0  0  0  0  0  0
  150.2944  143.6862  156.6658 H   0  0  0  0  0  0  0  0  0  0  0  0
  1  2  2  0  0  0  0
  2  3  1  0  0  0  0
  2 11  1  0  0  0  0
  3  4  1  0  0  0  0
  3 17  1  0  0  0  0
  3 18  1  0  0  0  0
  4  9  1  0  0  0  0
  4  5  1  0  0  0  0
  5  6  2  0  0  0  0
  5 19  1  0  0  0  0
  6  7  1  0  0  0  0
  6 20  1  0  0  0  0
  7  8  2  0  0  0  0
  7 21  1  0  0  0  0
  8  9  1  0  0  0  0
  8 22  1  0  0  0  0
  9 10  2  0  0  0  0
 11 12  2  0  0  0  0
 12 16  1  0  0  0  0
 12 13  1  0  0  0  0
 13 14  1  0  0  0  0
 13 27  1  0  0  0  0
 14 15  1  0  0  0  0
 14 23  1  0  0  0  0
 14 24  1  0  0  0  0
 15 16  1  0  0  0  0
 15 25  1  0  0  0  0
 15 26  1  0  0  0  0
M  END
> <s_m_source_file>
AV-unprocessed.smi

> <i_m_source_file_index>
592

> <i_lp_mmshare_version>
43012

> <i_f3d_flags>
0

> <s_epik_input>
UzFbQ0gyXVtDSDJdTj1DMVtOSF1DKD1PKVtDSDJdbjJbY0hdW2NIXVtjSF1bY0hdYzI9Tw==

> <s_epik_cmdline>
J2VwaWtfcHl0aG9uJywgJy1waCcsICc3LjAnLCAnLXRuJywgJzgnLCAnLW1hJywgJzIwMCcsICctbWV0YWxfYmluZGluZycsICctaW1hZScsICc8aW5maWxlLm1hZT4nLCAnLW9tYWUnLCAnPG91dGZpbGUubWFlPic=

> <r_lp_tautomer_probability>
1

> <r_epik_Ionization_Penalty>
2.71369

> <r_epik_Ionization_Penalty_Charging>
3.63323e-07

> <r_epik_Ionization_Penalty_Neutral>
2.71369

> <r_epik_State_Penalty>
1.599

> <r_epik_Charging_Adjusted_Penalty>
1.599

> <i_epik_Tot_Q>
0

> <i_epik_Tot_abs_Q>
0

> <r_epik_Metal_State_Penalty>
1.59596

> <b_epik_Metal_Only>
1

> <s_epik_Chemistry_Notes>
This compound has an imine and may undergo hydrolysis.

> <s_lp_Force_Field>
OPLS_2005

> <r_lp_Energy>
29.0057

> <b_lp_Chiralities_Consistent>
1

> <s_lp_Variant>
AV-unprocessed.smi:592-3

> <Gold.Version>
5.8.1

> <Gold.Id.Protein>
6NUR|6NUR_protein|mol2

> <Gold.PLP.Fitness>
38.6809

> <Gold.PLP.PLP>
-31.6029

> <Gold.PLP.part.hbond>
-2.0000

> <Gold.PLP.part.metal>
0.0000

> <Gold.PLP.part.buried>
-2.4020

> <Gold.PLP.part.nonpolar>
-27.6726

> <Gold.PLP.part.repulsive>
0.1552

> <Gold.PLP.ligand.clash>
0.0000

> <Gold.PLP.ligand.torsion>
0.6864

> <Gold.PLP.Chemscore.Hbond>
1.8160

> <Gold.PLP.Chemscore.CHOScore>
1.0000

> <Gold.PLP.Chemscore.Metal>
0.0000

> <Gold.Chemscore.Hbonds>
donor molecule, donor type, donor heavy atom, donor atom, acceptor molecule, acceptor atom, score
      L1  H    13    27       P1  8028  0.93
      P1  H  7989  7998       L1     1  0.91
      L1  C     5    19       P1  8028  1.00

> <Gold.PLP.Chemscore.Internal.Correction>
0.0027

> <Gold.Rescore>
     Score         DG    S(hbond)    S(metal)    S(lipo)     H(rot)  DE(clash)    DE(int)     intcor
     11.37     -16.08       1.76        0.00      69.42       1.33       0.08       4.63       ----

> <Gold.Chemscore.Fitness>
11.3698

> <Gold.Chemscore.DG>
-16.0770

> <Gold.Chemscore.ZeroCoef>
-5.4800

> <Gold.Chemscore.Hbond>
1.7610

> <Gold.Chemscore.Metal>
0.0000

> <Gold.Chemscore.Lipo>
69.4233

> <Gold.Chemscore.Internal_Hbond>
0.0000

> <Gold.Chemscore.DEClash>
0.0765

> <Gold.Chemscore.DEInternal>
4.6308

> <Gold.Chemscore.Rot>
1.3309

> <Gold.Chemscore.Internal.Correction>
   9.000000E+99

> <Gold.Chemscore.Hbonds>
donor molecule, donor type, donor heavy atom, donor atom, acceptor molecule, acceptor atom, score
      L1  H    13    27       P1  8028  0.87
      P1  H  7989  7998       L1     1  0.88

> <Gold.Chemscore.Hbond.Weighted>
-5.8816

> <Gold.Chemscore.Metal.Weighted>
-0.0000

> <Gold.Chemscore.Lipo.Weighted>
-8.1225

> <Gold.Chemscore.Internal_Hbond.Weighted>
0.0000

> <Gold.Chemscore.DEClash.Weighted>
0.0765

> <Gold.Chemscore.DEInternal.Weighted>
4.6308

> <Gold.Chemscore.Rot.Weighted>
3.4071

> <Gold.Chemscore.Internal.Correction.Weighted>
   9.000000E+99

> <Gold.Protein.RotatedTorsions>
[ 6907 6896 6895 6894 ] final -174.26 input  -60.11 | X-H torsion
[ 7974 7965 7964 7962 ] final -108.89 input  175.53 | X-H torsion
[ 8008 7997 7996 7995 ] final    0.07 input   59.86 | X-H torsion
[ 10167 10162 10161 10158 ] final  -29.19 input  -65.29 | X-H torsion
[ 10718 10713 10712 10709 ] final  -54.22 input   66.30 | X-H torsion
[ 10763 10752 10751 10750 ] final  114.86 input  -60.55 | X-H torsion
[ 11005 11000 10999 10996 ] final  -51.58 input  -57.11 | X-H torsion

> <Gold.Protein.ActiveResidues>
 VAL166  LYS551  ARG553  GLY616  TRP617  ASP618  TYR619  PRO620  LYS621  CYS622 
 ASP623  PHE694  ASN695  SER759  ASP760  ASP761  ALA762  ILE779  LEU786  VAL792 
 PHE793  MET794  SER795  GLU796  ALA797  LYS798  CYS799  TRP800  GLU811  SER814 

> <Gold.Protein.RotatedAtoms>
  151.5696  133.3392  159.2986 H   0  0  0  0  0  0  0  0  0  0  0  0  # atno 6907 bound_to 6896
  150.8375  134.7657  159.6916 H   0  0  0  0  0  0  0  0  0  0  0  0  # atno 6908 bound_to 6896
  152.4449  134.5522  159.9921 H   0  0  0  0  0  0  0  0  0  0  0  0  # atno 6909 bound_to 6896
  145.1873  140.8999  143.3445 H   0  0  0  0  0  0  0  0  0  0  0  0  # atno 7974 bound_to 7965
  154.6639  140.2597  155.7079 H   0  0  0  0  0  0  0  0  0  0  0  0  # atno 8008 bound_to 7997
  156.2630  140.2843  156.1043 H   0  0  0  0  0  0  0  0  0  0  0  0  # atno 8009 bound_to 7997
  155.1268  140.0378  157.2754 H   0  0  0  0  0  0  0  0  0  0  0  0  # atno 8010 bound_to 7997
  140.7263  143.3949  151.1365 H   0  0  0  0  0  0  0  0  0  0  0  0  # atno 10167 bound_to 10162
  156.1469  130.4152  150.0009 H   0  0  0  0  0  0  0  0  0  0  0  0  # atno 10718 bound_to 10713
  153.5136  135.3612  155.2598 H   0  0  0  0  0  0  0  0  0  0  0  0  # atno 10763 bound_to 10752
  154.8740  135.4028  154.3340 H   0  0  0  0  0  0  0  0  0  0  0  0  # atno 10764 bound_to 10752
  153.3998  135.7074  153.6501 H   0  0  0  0  0  0  0  0  0  0  0  0  # atno 10765 bound_to 10752
  141.0878  133.6639  156.3897 H   0  0  0  0  0  0  0  0  0  0  0  0  # atno 11005 bound_to 11000
  145.0076  139.3540  143.6136 LP  0  0  0  0  0  0  0  0  0  0  0  0  # atno 17320 bound_to 7965
  146.3442  139.9325  142.8751 LP  0  0  0  0  0  0  0  0  0  0  0  0  # atno 17321 bound_to 7965
  139.7560  143.8707  152.3089 LP  0  0  0  0  0  0  0  0  0  0  0  0  # atno 17342 bound_to 10162
  139.8577  144.7133  150.9137 LP  0  0  0  0  0  0  0  0  0  0  0  0  # atno 17343 bound_to 10162
  156.7879  130.9245  151.3646 LP  0  0  0  0  0  0  0  0  0  0  0  0  # atno 17370 bound_to 10713
  157.6624  130.8978  149.9858 LP  0  0  0  0  0  0  0  0  0  0  0  0  # atno 17371 bound_to 10713
  140.5322  134.6202  157.5353 LP  0  0  0  0  0  0  0  0  0  0  0  0  # atno 17394 bound_to 11000
  139.9699  134.7310  156.0062 LP  0  0  0  0  0  0  0  0  0  0  0  0  # atno 17395 bound_to 11000

$$$$
