#       Name:                AV-unprocessed.smi:1219
#       Creating user name   scv26
#       Creation time:       Fri Mar 27 04:16:53 2020


#       File generated by GOLD software.
#

@<TRIPOS>MOLECULE
AV-unprocessed.smi:1219
    48    49     1
SMALL
NO_CHARGES


@<TRIPOS>ATOM
      1 ****        -2.1580   0.8729  -1.9385 O.2            1 S1                 0.0000
      2 ****        -2.3530   1.2958  -0.7988 C.2            1 S1                 0.0000
      3 ****        -2.1305   0.5676   0.3047 N.am           1 S1                 0.0000
      4 ****        -1.6687  -0.8167   0.3168 C.3            1 S1                 0.0000
      5 ****        -0.1330  -0.9211   0.2032 C.3            1 S1                 0.0000
      6 ****         0.2149  -0.9379  -1.1675 O.3            1 S1                 0.0000
      7 ****         0.3879  -2.2376   0.8161 C.3            1 S1                 0.0000
      8 ****         1.8686  -2.3512   0.7641 N.4            1 S1                 1.0000
      9 ****         2.3240  -3.7658   0.7851 C.3            1 S1                 0.0000
     10 ****         3.8453  -3.8645   0.5832 C.3            1 S1                 0.0000
     11 ****         4.5947  -3.0372   1.6352 C.3            1 S1                 0.0000
     12 ****         4.0867  -1.5897   1.6210 C.3            1 S1                 0.0000
     13 ****         2.5600  -1.5384   1.8010 C.3            1 S1                 0.0000
     14 ****        -2.8080   2.5228  -0.4900 N.am           1 S1                 0.0000
     15 ****        -3.1784   3.5698  -1.3756 C.ar           1 S1                 0.0000
     16 ****        -3.6608   4.7411  -0.7489 C.ar           1 S1                 0.0000
     17 ****        -4.0594   5.8361  -1.5399 C.ar           1 S1                 0.0000
     18 ****        -3.9639   5.7321  -2.9389 C.ar           1 S1                 0.0000
     19 ****        -3.4709   4.5316  -3.4823 C.ar           1 S1                 0.0000
     20 ****        -3.0888   3.4807  -2.7262 N.ar           1 S1                 0.0000
     21 ****        -2.3176   0.9931   1.2009 H              1 S1                 0.0000
     22 ****        -1.9898  -1.2251   1.2753 H              1 S1                 0.0000
     23 ****        -2.1734  -1.4129  -0.4460 H              1 S1                 0.0000
     24 ****         0.3310  -0.0619   0.6869 H              1 S1                 0.0000
     25 ****        -0.1753  -0.1839  -1.5860 H              1 S1                 0.0000
     26 ****         0.0593  -2.3376   1.8517 H              1 S1                 0.0000
     27 ****        -0.0649  -3.0701   0.2746 H              1 S1                 0.0000
     28 ****         2.0376  -4.2271   1.7317 H              1 S1                 0.0000
     29 ****         1.8240  -4.3266  -0.0055 H              1 S1                 0.0000
     30 ****         4.1616  -4.9067   0.6348 H              1 S1                 0.0000
     31 ****         4.1054  -3.5112  -0.4156 H              1 S1                 0.0000
     32 ****         4.4439  -3.4723   2.6241 H              1 S1                 0.0000
     33 ****         5.6676  -3.0632   1.4421 H              1 S1                 0.0000
     34 ****         4.5748  -1.0170   2.4101 H              1 S1                 0.0000
     35 ****         4.3606  -1.1136   0.6785 H              1 S1                 0.0000
     36 ****         2.2352  -0.4999   1.7508 H              1 S1                 0.0000
     37 ****         2.2887  -1.9051   2.7923 H              1 S1                 0.0000
     38 ****        -2.9180   2.7275   0.4920 H              1 S1                 0.0000
     39 ****        -3.7285   4.8041   0.3275 H              1 S1                 0.0000
     40 ****        -4.4327   6.7393  -1.0804 H              1 S1                 0.0000
     41 ****        -4.2604   6.5502  -3.5786 H              1 S1                 0.0000
     42 ****        -3.3822   4.4105  -4.5518 H              1 S1                 0.0000
     43 ****         2.1438  -1.9814  -0.1353 H              1 S1                 0.0000
     44 ****        -1.8167  -0.0571  -2.0751 LP             1 S1                 0.0000
     45 ****        -2.3409   1.4594  -2.7275 LP             1 S1                 0.0000
     46 ****        -0.1291  -1.7752  -1.5925 LP             1 S1                 0.0000
     47 ****         1.2096  -0.8998  -1.2634 LP             1 S1                 0.0000
     48 ****        -2.7438   2.6466  -3.1565 LP             1 S1                 0.0000
@<TRIPOS>BOND
    1    1    2 2     
    2    2    3 am    
    3    2   14 am    
    4    3    4 1     
    5    3   21 1     
    6    4    5 1     
    7    4   22 1     
    8    4   23 1     
    9    5    6 1     
   10    5    7 1     
   11    5   24 1     
   12    6   25 1     
   13    7    8 1     
   14    7   26 1     
   15    7   27 1     
   16    8   13 1     
   17    8    9 1     
   18    8   43 1     
   19    9   10 1     
   20    9   28 1     
   21    9   29 1     
   22   10   11 1     
   23   10   30 1     
   24   10   31 1     
   25   11   12 1     
   26   11   32 1     
   27   11   33 1     
   28   12   13 1     
   29   12   34 1     
   30   12   35 1     
   31   13   36 1     
   32   13   37 1     
   33   14   15 1     
   34   14   38 1     
   35   15   20 ar    
   36   15   16 ar    
   37   16   17 ar    
   38   16   39 1     
   39   17   18 ar    
   40   17   40 1     
   41   18   19 ar    
   42   18   41 1     
   43   19   20 ar    
   44   19   42 1     
   45    1   44 1     
   46    1   45 1     
   47    6   46 1     
   48    6   47 1     
   49   20   48 1     
@<TRIPOS>SUBSTRUCTURE
      1 S1             1
@<TRIPOS>SET
LONE_PAIRS      STATIC     ATOMS    <user>   **** ""
5 44 45 46 47 48
DONOR_HYDROGENS      STATIC     ATOMS    <user>   **** ""
4 21 25 43 38
ATOM$BLUE        STATIC     ATOMS    COLORGROUP SYSTEM
5 44 45 46 47 48
ATOM$RED        STATIC     ATOMS    COLORGROUP SYSTEM
4 21 25 43 38
