#       Name:                AV-unprocessed.smi:1361
#       Creating user name   scv26
#       Creation time:       Fri Mar 27 05:14:52 2020


#       File generated by GOLD software.
#

@<TRIPOS>MOLECULE
AV-unprocessed.smi:1361
    51    52     1
SMALL
NO_CHARGES


@<TRIPOS>ATOM
      1 ****        -6.8731  -1.6803   0.7283 C.3            1 S1                 0.0000
      2 ****        -5.3648  -1.5849   0.8218 C.2            1 S1                 0.0000
      3 ****        -4.7289  -0.5061   1.1410 N.2            1 S1                 0.0000
      4 ****        -3.3287  -0.5414   1.2010 C.2            1 S1                 0.0000
      5 ****        -2.6577   0.7660   1.5859 C.3            1 S1                 0.0000
      6 ****        -2.6290  -1.6827   0.9307 C.2            1 S1                 0.0000
      7 ****        -1.1047  -1.7554   0.9939 C.3            1 S1                 0.0000
      8 ****        -0.3739  -1.2213  -0.2389 C.2            1 S1                 0.0000
      9 ****        -0.5765  -1.7296  -1.3413 O.2            1 S1                 0.0000
     10 ****         0.4670  -0.1945  -0.0385 N.am           1 S1                 0.0000
     11 ****         1.2581   0.4752  -1.0685 C.3            1 S1                 0.0000
     12 ****         2.5591  -0.3185  -1.3233 C.3            1 S1                 0.0000
     13 ****         3.5954   0.4070  -2.2015 C.3            1 S1                 0.0000
     14 ****         4.8988   0.7857  -1.4737 C.3            1 S1                 0.0000
     15 ****         4.7670   1.3975  -0.0632 C.3            1 S1                 0.0000
     16 ****         3.8334   2.6134   0.0700 C.3            1 S1                 0.0000
     17 ****         2.3780   2.2889   0.4721 C.3            1 S1                 0.0000
     18 ****         1.4296   1.9676  -0.6987 C.3            1 S1                 0.0000
     19 ****        -3.3657  -2.9074   0.5616 C.2            1 S1                 0.0000
     20 ****        -2.8381  -3.9849   0.2906 O.2            1 S1                 0.0000
     21 ****        -4.7114  -2.7810   0.5310 N.am           1 S1                 0.0000
     22 ****        -5.2601  -3.5917   0.2843 H              1 S1                 0.0000
     23 ****        -7.2474  -0.9799  -0.0186 H              1 S1                 0.0000
     24 ****        -7.3249  -1.4315   1.6888 H              1 S1                 0.0000
     25 ****        -7.1973  -2.6837   0.4489 H              1 S1                 0.0000
     26 ****        -2.0584   0.6419   2.4877 H              1 S1                 0.0000
     27 ****        -3.3947   1.5454   1.7831 H              1 S1                 0.0000
     28 ****        -2.0114   1.1171   0.7818 H              1 S1                 0.0000
     29 ****        -0.7655  -1.2152   1.8783 H              1 S1                 0.0000
     30 ****        -0.7765  -2.7818   1.1613 H              1 S1                 0.0000
     31 ****         0.5642   0.1563   0.9033 H              1 S1                 0.0000
     32 ****         0.6824   0.4650  -1.9961 H              1 S1                 0.0000
     33 ****         3.0028  -0.6305  -0.3789 H              1 S1                 0.0000
     34 ****         2.2913  -1.2545  -1.8159 H              1 S1                 0.0000
     35 ****         3.8578  -0.2408  -3.0388 H              1 S1                 0.0000
     36 ****         3.1640   1.2898  -2.6706 H              1 S1                 0.0000
     37 ****         5.5196  -0.1073  -1.3913 H              1 S1                 0.0000
     38 ****         5.4596   1.4720  -2.1089 H              1 S1                 0.0000
     39 ****         4.4943   0.6369   0.6682 H              1 S1                 0.0000
     40 ****         5.7678   1.7128   0.2342 H              1 S1                 0.0000
     41 ****         4.2438   3.2381   0.8645 H              1 S1                 0.0000
     42 ****         3.8700   3.2336  -0.8261 H              1 S1                 0.0000
     43 ****         2.3420   1.5124   1.2368 H              1 S1                 0.0000
     44 ****         1.9834   3.1824   0.9575 H              1 S1                 0.0000
     45 ****         1.7174   2.5497  -1.5736 H              1 S1                 0.0000
     46 ****         0.4411   2.3521  -0.4424 H              1 S1                 0.0000
     47 ****        -5.2262   0.3379   1.3415 LP             1 S1                 0.0000
     48 ****        -1.2185  -2.4912  -1.4303 LP             1 S1                 0.0000
     49 ****        -0.0991  -1.3811  -2.1479 LP             1 S1                 0.0000
     50 ****        -1.8422  -4.0734   0.3119 LP             1 S1                 0.0000
     51 ****        -3.4050  -4.7725   0.0490 LP             1 S1                 0.0000
@<TRIPOS>BOND
    1    1    2 1     
    2    1   23 1     
    3    1   24 1     
    4    1   25 1     
    5    2   21 1     
    6    2    3 2     
    7    3    4 1     
    8    4    5 1     
    9    4    6 2     
   10    5   26 1     
   11    5   27 1     
   12    5   28 1     
   13    6    7 1     
   14    6   19 1     
   15    7    8 1     
   16    7   29 1     
   17    7   30 1     
   18    8    9 2     
   19    8   10 am    
   20   10   11 1     
   21   10   31 1     
   22   11   18 1     
   23   11   12 1     
   24   11   32 1     
   25   12   13 1     
   26   12   33 1     
   27   12   34 1     
   28   13   14 1     
   29   13   35 1     
   30   13   36 1     
   31   14   15 1     
   32   14   37 1     
   33   14   38 1     
   34   15   16 1     
   35   15   39 1     
   36   15   40 1     
   37   16   17 1     
   38   16   41 1     
   39   16   42 1     
   40   17   18 1     
   41   17   43 1     
   42   17   44 1     
   43   18   45 1     
   44   18   46 1     
   45   19   20 2     
   46   19   21 am    
   47   21   22 1     
   48    3   47 1     
   49    9   48 1     
   50    9   49 1     
   51   20   50 1     
   52   20   51 1     
@<TRIPOS>SUBSTRUCTURE
      1 S1             1
@<TRIPOS>SET
LONE_PAIRS      STATIC     ATOMS    <user>   **** ""
5 47 48 49 50 51
DONOR_HYDROGENS      STATIC     ATOMS    <user>   **** ""
2 31 22
ATOM$BLUE        STATIC     ATOMS    COLORGROUP SYSTEM
5 47 48 49 50 51
ATOM$RED        STATIC     ATOMS    COLORGROUP SYSTEM
2 31 22
