#       Name:                AV-unprocessed.smi:2451
#       Creating user name   scv26
#       Creation time:       Fri Mar 27 13:32:12 2020


#       File generated by GOLD software.
#

@<TRIPOS>MOLECULE
AV-unprocessed.smi:2451
    41    42     1
SMALL
NO_CHARGES


@<TRIPOS>ATOM
      1 ****        -3.2189  -1.2625   2.4923 C.3            1 S1                 0.0000
      2 ****        -2.6369  -0.4923   1.2940 C.3            1 S1                 0.0000
      3 ****        -3.0321  -1.1591  -0.0478 C.3            1 S1                 0.0000
      4 ****        -2.4951  -0.3242  -1.2309 C.3            1 S1                 0.0000
      5 ****        -0.9801  -0.0152  -1.1262 C.3            1 S1                 0.0000
      6 ****        -0.5909   0.6485   0.2188 C.3            1 S1                 0.0000
      7 ****         0.8448   0.8820   0.2946 N.pl3          1 S1                -1.0000
      8 ****         1.4691   2.2800  -0.2426 S.o2           1 S1                 0.0000
      9 ****         1.2379   2.4976  -1.6805 O.2            1 S1                 0.0000
     10 ****         1.1656   3.3999   0.6630 O.2            1 S1                 0.0000
     11 ****         3.2758   1.9485  -0.0462 C.3            1 S1                 0.0000
     12 ****         3.7972   1.1389  -1.2032 C.2            1 S1                 0.0000
     13 ****         3.4950  -0.2072  -1.5522 C.2            1 S1                 0.0000
     14 ****         4.2382  -0.4215  -2.6763 C.2            1 S1                 0.0000
     15 ****         4.9508   0.6886  -2.9933 O.3            1 S1                 0.0000
     16 ****         4.6657   1.6780  -2.0453 N.2            1 S1                 0.0000
     17 ****        -1.0936  -0.2390   1.4058 C.3            1 S1                 0.0000
     18 ****        -0.2977  -1.5618   1.5876 C.3            1 S1                 0.0000
     19 ****        -2.8956  -2.3032   2.5045 H              1 S1                 0.0000
     20 ****        -4.3087  -1.2644   2.4579 H              1 S1                 0.0000
     21 ****        -2.9221  -0.8043   3.4360 H              1 S1                 0.0000
     22 ****        -3.1362   0.4799   1.3211 H              1 S1                 0.0000
     23 ****        -2.6324  -2.1722  -0.0990 H              1 S1                 0.0000
     24 ****        -4.1160  -1.2507  -0.1227 H              1 S1                 0.0000
     25 ****        -2.6931  -0.8514  -2.1645 H              1 S1                 0.0000
     26 ****        -3.0584   0.6090  -1.2955 H              1 S1                 0.0000
     27 ****        -0.4171  -0.9395  -1.2608 H              1 S1                 0.0000
     28 ****        -0.6946   0.6306  -1.9568 H              1 S1                 0.0000
     29 ****        -1.1330   1.5932   0.2821 H              1 S1                 0.0000
     30 ****         3.7797   2.9138   0.0058 H              1 S1                 0.0000
     31 ****         3.4398   1.4445   0.9057 H              1 S1                 0.0000
     32 ****         2.8290  -0.9000  -1.0596 H              1 S1                 0.0000
     33 ****         4.3634  -1.2702  -3.3322 H              1 S1                 0.0000
     34 ****        -0.9324   0.3397   2.3167 H              1 S1                 0.0000
     35 ****        -0.4179  -2.2445   0.7458 H              1 S1                 0.0000
     36 ****        -0.6201  -2.0949   2.4809 H              1 S1                 0.0000
     37 ****         0.7721  -1.3933   1.7221 H              1 S1                 0.0000
     38 ****         1.4458   0.1806   0.6778 LP             1 S1                 0.0000
     39 ****         4.6914   1.0084  -3.9046 LP             1 S1                 0.0000
     40 ****         5.9283   0.4785  -2.9795 LP             1 S1                 0.0000
     41 ****         5.0415   2.6040  -2.0108 LP             1 S1                 0.0000
@<TRIPOS>BOND
    1    1    2 1     
    2    1   19 1     
    3    1   20 1     
    4    1   21 1     
    5    2   17 1     
    6    2    3 1     
    7    2   22 1     
    8    3    4 1     
    9    3   23 1     
   10    3   24 1     
   11    4    5 1     
   12    4   25 1     
   13    4   26 1     
   14    5    6 1     
   15    5   27 1     
   16    5   28 1     
   17    6    7 1     
   18    6   17 1     
   19    6   29 1     
   20    7    8 1     
   21    8    9 2     
   22    8   10 2     
   23    8   11 1     
   24   11   12 1     
   25   11   30 1     
   26   11   31 1     
   27   12   16 2     
   28   12   13 1     
   29   13   14 2     
   30   13   32 1     
   31   14   15 1     
   32   14   33 1     
   33   15   16 1     
   34   17   18 1     
   35   17   34 1     
   36   18   35 1     
   37   18   36 1     
   38   18   37 1     
   39    7   38 1     
   40   15   39 1     
   41   15   40 1     
   42   16   41 1     
@<TRIPOS>SUBSTRUCTURE
      1 S1             1
@<TRIPOS>SET
LONE_PAIRS      STATIC     ATOMS    <user>   **** ""
6 38 9 10 39 40 41
ATOM$BLUE        STATIC     ATOMS    COLORGROUP SYSTEM
6 38 9 10 39 40 41
