AV-unprocessed.smi:2332|AV-procd|sdf|9319|dock1
  -GOLD-   2272012543D 1   1.00000     0.00000
 Structure written by MMmdl.
 32 33  0  0  0  0  0  0  0  0  1 V2000
  146.9365  141.4562  154.4919 C   0  0  0  0  0  0  0  0  0  0  0  0
  148.3363  141.1930  154.7873 N   0  0  0  0  0  0  0  0  0  0  0  0
  148.9143  139.9850  154.7055 C   0  0  0  0  0  0  0  0  0  0  0  0
  148.2959  138.9720  154.3759 O   0  0  0  0  0  0  0  0  0  0  0  0
  150.4054  139.8993  155.0663 C   0  0  1  0  0  0  0  0  0  0  0  0
  150.6677  140.2683  156.5445 C   0  0  0  0  0  0  0  0  0  0  0  0
  152.0731  140.0644  156.8890 N   0  0  0  0  0  0  0  0  0  0  0  0
  152.4814  140.6110  158.1252 C   0  0  0  0  0  0  0  0  0  0  0  0
  151.9670  141.8574  158.5571 C   0  0  0  0  0  0  0  0  0  0  0  0
  152.3846  142.3825  159.7955 C   0  0  0  0  0  0  0  0  0  0  0  0
  153.3056  141.6497  160.5677 C   0  0  0  0  0  0  0  0  0  0  0  0
  153.7666  142.1486  161.8519 C   0  0  0  0  0  0  0  0  0  0  0  0
  154.1339  142.5457  162.8747 N   0  0  0  0  0  0  0  0  0  0  0  0
  153.7710  140.4212  160.0601 C   0  0  0  0  0  0  0  0  0  0  0  0
  153.3744  139.9148  158.8728 N   0  0  0  0  0  0  0  0  0  0  0  0
  152.5746  138.7403  156.5287 C   0  0  0  0  0  0  0  0  0  0  0  0
  152.2683  138.4376  155.0541 C   0  0  0  0  0  0  0  0  0  0  0  0
  150.8708  138.5709  154.8234 O   0  0  0  0  0  0  0  0  0  0  0  0
  146.7295  142.5215  154.5915 H   0  0  0  0  0  0  0  0  0  0  0  0
  146.2869  140.9160  155.1817 H   0  0  0  0  0  0  0  0  0  0  0  0
  146.6903  141.1548  153.4728 H   0  0  0  0  0  0  0  0  0  0  0  0
  148.9082  141.9779  155.0651 H   0  0  0  0  0  0  0  0  0  0  0  0
  150.9397  140.5907  154.4123 H   0  0  0  0  0  0  0  0  0  0  0  0
  150.3681  141.3019  156.7134 H   0  0  0  0  0  0  0  0  0  0  0  0
  150.0548  139.6503  157.2026 H   0  0  0  0  0  0  0  0  0  0  0  0
  151.2732  142.4205  157.9505 H   0  0  0  0  0  0  0  0  0  0  0  0
  152.0032  143.3335  160.1387 H   0  0  0  0  0  0  0  0  0  0  0  0
  154.4802  139.8247  160.6154 H   0  0  0  0  0  0  0  0  0  0  0  0
  153.6518  138.6872  156.6919 H   0  0  0  0  0  0  0  0  0  0  0  0
  152.1085  137.9898  157.1685 H   0  0  0  0  0  0  0  0  0  0  0  0
  152.8242  139.1058  154.3942 H   0  0  0  0  0  0  0  0  0  0  0  0
  152.5733  137.4205  154.8084 H   0  0  0  0  0  0  0  0  0  0  0  0
  1  2  1  0  0  0  0
  1 19  1  0  0  0  0
  1 20  1  0  0  0  0
  1 21  1  0  0  0  0
  2  3  1  0  0  0  0
  2 22  1  0  0  0  0
  3  4  2  0  0  0  0
  3  5  1  0  0  0  0
  5 18  1  0  0  0  0
  5  6  1  0  0  0  0
  5 23  1  0  0  0  0
  6  7  1  0  0  0  0
  6 24  1  0  0  0  0
  6 25  1  0  0  0  0
  7  8  1  0  0  0  0
  7 16  1  0  0  0  0
  8 15  1  0  0  0  0
  8  9  2  0  0  0  0
  9 10  1  0  0  0  0
  9 26  1  0  0  0  0
 10 11  2  0  0  0  0
 10 27  1  0  0  0  0
 11 12  1  0  0  0  0
 11 14  1  0  0  0  0
 12 13  3  0  0  0  0
 14 15  2  0  0  0  0
 14 28  1  0  0  0  0
 16 17  1  0  0  0  0
 16 29  1  0  0  0  0
 16 30  1  0  0  0  0
 17 18  1  0  0  0  0
 17 31  1  0  0  0  0
 17 32  1  0  0  0  0
M  END
> <s_m_source_file>
AV-unprocessed.smi

> <i_m_source_file_index>
2332

> <i_lp_mmshare_version>
43012

> <i_f3d_flags>
0

> <s_epik_input>
W0NIM11bTkhdQyg9TylbQ0BASF0xW0NIMl1OKFtDSDJdW0NIMl1PMSljMltjSF1bY0hdYyhDI04pW2NIXW4y

> <s_epik_cmdline>
J2VwaWtfcHl0aG9uJywgJy1waCcsICc3LjAnLCAnLXRuJywgJzgnLCAnLW1hJywgJzIwMCcsICctbWV0YWxfYmluZGluZycsICctaW1hZScsICc8aW5maWxlLm1hZT4nLCAnLW9tYWUnLCAnPG91dGZpbGUubWFlPic=

> <r_lp_tautomer_probability>
1

> <r_epik_Ionization_Penalty>
6.95229e-08

> <r_epik_Ionization_Penalty_Charging>
0

> <r_epik_Ionization_Penalty_Neutral>
6.95229e-08

> <r_epik_State_Penalty>
-0

> <r_epik_Charging_Adjusted_Penalty>
0

> <i_epik_Tot_Q>
0

> <i_epik_Tot_abs_Q>
0

> <r_epik_Metal_State_Penalty>
-0

> <b_epik_Metal_Only>
0

> <s_lp_Force_Field>
OPLS_2005

> <r_lp_Energy>
17.7289

> <b_lp_Chiralities_Consistent>
1

> <s_lp_Variant>
AV-unprocessed.smi:2332-2

> <Gold.Version>
5.8.1

> <Gold.Id.Protein>
6NUR|6NUR_protein|mol2

> <Gold.PLP.Fitness>
39.4022

> <Gold.PLP.PLP>
-33.8329

> <Gold.PLP.part.hbond>
-3.6864

> <Gold.PLP.part.metal>
0.0000

> <Gold.PLP.part.buried>
-0.6387

> <Gold.PLP.part.nonpolar>
-28.2526

> <Gold.PLP.part.repulsive>
0.4041

> <Gold.PLP.ligand.clash>
0.0000

> <Gold.PLP.ligand.torsion>
0.3708

> <Gold.PLP.Chemscore.Hbond>
1.9920

> <Gold.PLP.Chemscore.CHOScore>
0.0000

> <Gold.PLP.Chemscore.Metal>
0.0000

> <Gold.Chemscore.Hbonds>
donor molecule, donor type, donor heavy atom, donor atom, acceptor molecule, acceptor atom, score
      P1  H  7997  8010       L1    15  0.11

> <Gold.PLP.Chemscore.Internal.Correction>
0.3350

> <Gold.Rescore>
     Score         DG    S(hbond)    S(metal)    S(lipo)     H(rot)  DE(clash)    DE(int)     intcor
     12.16     -12.73       0.85        0.00      67.28       1.35       0.18       0.38       ----

> <Gold.Chemscore.Fitness>
12.1631

> <Gold.Chemscore.DG>
-12.7289

> <Gold.Chemscore.ZeroCoef>
-5.4800

> <Gold.Chemscore.Hbond>
0.8480

> <Gold.Chemscore.Metal>
0.0000

> <Gold.Chemscore.Lipo>
67.2829

> <Gold.Chemscore.Internal_Hbond>
0.0000

> <Gold.Chemscore.DEClash>
0.1843

> <Gold.Chemscore.DEInternal>
0.3814

> <Gold.Chemscore.Rot>
1.3498

> <Gold.Chemscore.Internal.Correction>
   9.000000E+99

> <Gold.Chemscore.Hbond.Weighted>
-2.8324

> <Gold.Chemscore.Metal.Weighted>
-0.0000

> <Gold.Chemscore.Lipo.Weighted>
-7.8721

> <Gold.Chemscore.Internal_Hbond.Weighted>
0.0000

> <Gold.Chemscore.DEClash.Weighted>
0.1843

> <Gold.Chemscore.DEInternal.Weighted>
0.3814

> <Gold.Chemscore.Rot.Weighted>
3.4556

> <Gold.Chemscore.Internal.Correction.Weighted>
   9.000000E+99

> <Gold.Protein.RotatedTorsions>
[ 6907 6896 6895 6894 ] final  133.28 input  -60.11 | X-H torsion
[ 7974 7965 7964 7962 ] final -106.47 input  175.53 | X-H torsion
[ 8008 7997 7996 7995 ] final   32.81 input   59.86 | X-H torsion
[ 10167 10162 10161 10158 ] final  114.21 input  -65.29 | X-H torsion
[ 10718 10713 10712 10709 ] final  -11.57 input   66.30 | X-H torsion
[ 10763 10752 10751 10750 ] final   42.38 input  -60.55 | X-H torsion
[ 11005 11000 10999 10996 ] final  -95.75 input  -57.11 | X-H torsion

> <Gold.Protein.ActiveResidues>
 VAL166  LYS551  ARG553  GLY616  TRP617  ASP618  TYR619  PRO620  LYS621  CYS622 
 ASP623  PHE694  ASN695  SER759  ASP760  ASP761  ALA762  ILE779  LEU786  VAL792 
 PHE793  MET794  SER795  GLU796  ALA797  LYS798  CYS799  TRP800  GLU811  SER814 

> <Gold.Protein.RotatedAtoms>
  152.3236  133.5880  159.5760 H   0  0  0  0  0  0  0  0  0  0  0  0  # atno 6907 bound_to 6896
  150.7384  133.9974  159.3636 H   0  0  0  0  0  0  0  0  0  0  0  0  # atno 6908 bound_to 6896
  151.7856  135.0750  160.0431 H   0  0  0  0  0  0  0  0  0  0  0  0  # atno 6909 bound_to 6896
  145.2174  140.9121  143.3279 H   0  0  0  0  0  0  0  0  0  0  0  0  # atno 7974 bound_to 7965
  155.1285  140.3255  155.4480 H   0  0  0  0  0  0  0  0  0  0  0  0  # atno 8008 bound_to 7997
  156.2641  140.2014  156.6354 H   0  0  0  0  0  0  0  0  0  0  0  0  # atno 8009 bound_to 7997
  154.6630  140.0545  157.0070 H   0  0  0  0  0  0  0  0  0  0  0  0  # atno 8010 bound_to 7997
  139.6405  144.7123  151.2247 H   0  0  0  0  0  0  0  0  0  0  0  0  # atno 10167 bound_to 10162
  156.6571  130.4971  149.6043 H   0  0  0  0  0  0  0  0  0  0  0  0  # atno 10718 bound_to 10713
  152.9884  135.6133  154.2940 H   0  0  0  0  0  0  0  0  0  0  0  0  # atno 10763 bound_to 10752
  154.2663  135.2781  155.2758 H   0  0  0  0  0  0  0  0  0  0  0  0  # atno 10764 bound_to 10752
  154.5161  135.5827  153.6700 H   0  0  0  0  0  0  0  0  0  0  0  0  # atno 10765 bound_to 10752
  141.1432  133.8048  157.0477 H   0  0  0  0  0  0  0  0  0  0  0  0  # atno 11005 bound_to 11000
  144.9797  139.3795  143.6268 LP  0  0  0  0  0  0  0  0  0  0  0  0  # atno 17320 bound_to 7965
  146.3384  139.8933  142.8806 LP  0  0  0  0  0  0  0  0  0  0  0  0  # atno 17321 bound_to 7965
  140.7488  143.6320  150.8414 LP  0  0  0  0  0  0  0  0  0  0  0  0  # atno 17342 bound_to 10162
  139.9957  143.5799  152.2894 LP  0  0  0  0  0  0  0  0  0  0  0  0  # atno 17343 bound_to 10162
  156.2040  130.6637  151.1198 LP  0  0  0  0  0  0  0  0  0  0  0  0  # atno 17370 bound_to 10713
  157.7122  131.0728  150.6459 LP  0  0  0  0  0  0  0  0  0  0  0  0  # atno 17371 bound_to 10713
  140.0652  134.9733  157.1373 LP  0  0  0  0  0  0  0  0  0  0  0  0  # atno 17394 bound_to 11000
  140.3791  134.2307  155.7172 LP  0  0  0  0  0  0  0  0  0  0  0  0  # atno 17395 bound_to 11000

$$$$
