#       Name:                AV-unprocessed.smi:2954
#       Creating user name   scv26
#       Creation time:       Fri Mar 27 16:19:33 2020


#       File generated by GOLD software.
#

@<TRIPOS>MOLECULE
AV-unprocessed.smi:2954
    47    49     1
SMALL
NO_CHARGES


@<TRIPOS>ATOM
      1 ****        -2.1309   3.8428  -0.6445 C.3            1 S1                 0.0000
      2 ****        -1.8073   4.1786  -2.1067 C.3            1 S1                 0.0000
      3 ****        -0.8837   3.1883  -2.6470 N.am           1 S1                 0.0000
      4 ****        -0.6641   3.0022  -3.9544 C.2            1 S1                 0.0000
      5 ****        -1.2297   3.6526  -4.8291 O.2            1 S1                 0.0000
      6 ****        -1.2651   5.5739  -2.2177 C.2            1 S1                 0.0000
      7 ****        -0.0214   5.9784  -1.8296 N.pl3          1 S1                 1.0000
      8 ****         0.1230   7.3479  -2.0485 C.ar           1 S1                 0.0000
      9 ****         1.1954   8.2003  -1.8048 C.ar           1 S1                 0.0000
     10 ****         1.0105   9.5594  -2.1316 C.ar           1 S1                 0.0000
     11 ****        -0.2025  10.0237  -2.6796 C.ar           1 S1                 0.0000
     12 ****        -1.2806   9.1487  -2.9265 C.ar           1 S1                 0.0000
     13 ****        -1.0907   7.8053  -2.6005 C.ar           1 S1                 0.0000
     14 ****        -1.9163   6.6768  -2.6909 N.pl3          1 S1                 0.0000
     15 ****        -3.2852   6.8250  -3.2121 C.3            1 S1                 0.0000
     16 ****        -4.3072   7.0263  -2.0844 C.3            1 S1                 0.0000
     17 ****        -3.8995   8.1286  -1.2854 O.3            1 S1                 0.0000
     18 ****        -4.5864   8.3913  -0.1203 C.ar           1 S1                 0.0000
     19 ****        -5.7810   7.7280   0.2584 C.ar           1 S1                 0.0000
     20 ****        -6.4252   8.0541   1.4674 C.ar           1 S1                 0.0000
     21 ****        -5.8879   9.0443   2.3099 C.ar           1 S1                 0.0000
     22 ****        -4.7041   9.7094   1.9419 C.ar           1 S1                 0.0000
     23 ****        -4.0571   9.3848   0.7334 C.ar           1 S1                 0.0000
     24 ****        -2.5997  10.2092   0.3072 Cl             1 S1                 0.0000
     25 ****        -2.8558   4.5456  -0.2324 H              1 S1                 0.0000
     26 ****        -1.2389   3.8813  -0.0182 H              1 S1                 0.0000
     27 ****        -2.5569   2.8429  -0.5562 H              1 S1                 0.0000
     28 ****        -2.7360   4.1133  -2.6747 H              1 S1                 0.0000
     29 ****        -0.3873   2.6049  -1.9889 H              1 S1                 0.0000
     30 ****         0.0715   2.2032  -4.1380 H              1 S1                 0.0000
     31 ****         2.1242   7.8477  -1.3808 H              1 S1                 0.0000
     32 ****         1.8138  10.2603  -1.9553 H              1 S1                 0.0000
     33 ****        -0.3109  11.0733  -2.9124 H              1 S1                 0.0000
     34 ****        -2.2072   9.5208  -3.3374 H              1 S1                 0.0000
     35 ****        -3.3155   7.6563  -3.9161 H              1 S1                 0.0000
     36 ****        -3.5279   5.9344  -3.7917 H              1 S1                 0.0000
     37 ****        -5.2962   7.2081  -2.5074 H              1 S1                 0.0000
     38 ****        -4.3595   6.1195  -1.4800 H              1 S1                 0.0000
     39 ****        -6.2256   6.9667  -0.3641 H              1 S1                 0.0000
     40 ****        -7.3347   7.5436   1.7485 H              1 S1                 0.0000
     41 ****        -6.3830   9.2937   3.2367 H              1 S1                 0.0000
     42 ****        -4.2912  10.4690   2.5894 H              1 S1                 0.0000
     43 ****         0.6746   5.3581  -1.4365 H              1 S1                 0.0000
     44 ****        -1.8898   4.3604  -4.5779 LP             1 S1                 0.0000
     45 ****        -1.0301   3.4744  -5.7926 LP             1 S1                 0.0000
     46 ****        -3.9655   8.9466  -1.8568 LP             1 S1                 0.0000
     47 ****        -2.9440   7.9731  -1.0350 LP             1 S1                 0.0000
@<TRIPOS>BOND
    1    1    2 1     
    2    1   25 1     
    3    1   26 1     
    4    1   27 1     
    5    2    3 1     
    6    2    6 1     
    7    2   28 1     
    8    3    4 am    
    9    3   29 1     
   10    4    5 2     
   11    4   30 1     
   12    6   14 1     
   13    6    7 2     
   14    7    8 1     
   15    7   43 1     
   16    8   13 ar    
   17    8    9 ar    
   18    9   10 ar    
   19    9   31 1     
   20   10   11 ar    
   21   10   32 1     
   22   11   12 ar    
   23   11   33 1     
   24   12   13 ar    
   25   12   34 1     
   26   13   14 1     
   27   14   15 1     
   28   15   16 1     
   29   15   35 1     
   30   15   36 1     
   31   16   17 1     
   32   16   37 1     
   33   16   38 1     
   34   17   18 1     
   35   18   23 ar    
   36   18   19 ar    
   37   19   20 ar    
   38   19   39 1     
   39   20   21 ar    
   40   20   40 1     
   41   21   22 ar    
   42   21   41 1     
   43   22   23 ar    
   44   22   42 1     
   45   23   24 1     
   46    5   44 1     
   47    5   45 1     
   48   17   46 1     
   49   17   47 1     
@<TRIPOS>SUBSTRUCTURE
      1 S1             1
@<TRIPOS>SET
LONE_PAIRS      STATIC     ATOMS    <user>   **** ""
4 44 45 46 47
DONOR_HYDROGENS      STATIC     ATOMS    <user>   **** ""
2 29 43
ATOM$BLUE        STATIC     ATOMS    COLORGROUP SYSTEM
4 44 45 46 47
ATOM$RED        STATIC     ATOMS    COLORGROUP SYSTEM
2 29 43
