AV-unprocessed.smi:73|AV-procd|sdf|762|dock9
  -GOLD-   2262017103D 1   1.00000     0.00000
 Structure written by MMmdl.
 35 36  0  0  0  0  0  0  0  0  2 V2000
  145.1188  136.1660  155.8110 C   0  0  0  0  0  0  0  0  0  0  0  0
  145.7897  137.2465  156.6741 C   0  0  0  0  0  0  0  0  0  0  0  0
  147.0906  137.7560  156.1940 N   0  0  0  0  0  0  0  0  0  0  0  0
  147.7982  138.3819  157.3255 C   0  0  0  0  0  0  0  0  0  0  0  0
  148.1606  137.4236  158.4164 C   0  0  0  0  0  0  0  0  0  0  0  0
  149.1229  136.4979  158.3965 N   0  0  0  0  0  0  0  0  0  0  0  0
  149.0629  135.8698  159.6207 N   0  0  0  0  0  0  0  0  0  0  0  0
  148.0706  136.4655  160.2865 C   0  0  0  0  0  0  0  0  0  0  0  0
  147.5973  136.1631  161.6669 C   0  0  0  0  0  0  0  0  0  0  0  0
  147.4639  137.4555  159.5816 O   0  0  0  0  0  0  0  0  0  0  0  0
  146.9579  138.7262  155.0825 C   0  0  1  0  0  0  0  0  0  0  0  0
  148.3143  139.0919  154.4138 C   0  0  0  0  0  0  0  0  0  0  0  0
  148.2134  138.7963  152.9765 N   0  3  0  0  0  0  0  0  0  0  0  0
  146.7917  138.8381  152.6401 C   0  0  0  0  0  0  0  0  0  0  0  0
  146.1053  138.2650  153.8756 C   0  0  2  0  0  0  0  0  0  0  0  0
  144.7835  138.7602  153.9454 O   0  0  0  0  0  0  0  0  0  0  0  0
  146.1156  137.1794  153.7826 H   0  0  0  0  0  0  0  0  0  0  0  0
  144.3447  135.6572  156.3858 H   0  0  0  0  0  0  0  0  0  0  0  0
  145.8386  135.4098  155.4963 H   0  0  0  0  0  0  0  0  0  0  0  0
  144.6276  136.5632  154.9264 H   0  0  0  0  0  0  0  0  0  0  0  0
  145.1003  138.0733  156.8496 H   0  0  0  0  0  0  0  0  0  0  0  0
  145.9144  136.7802  157.6512 H   0  0  0  0  0  0  0  0  0  0  0  0
  148.7310  138.8457  157.0121 H   0  0  0  0  0  0  0  0  0  0  0  0
  147.1932  139.1869  157.7458 H   0  0  0  0  0  0  0  0  0  0  0  0
  147.6930  135.0967  161.8727 H   0  0  0  0  0  0  0  0  0  0  0  0
  146.5508  136.4479  161.7798 H   0  0  0  0  0  0  0  0  0  0  0  0
  148.1925  136.7163  162.3935 H   0  0  0  0  0  0  0  0  0  0  0  0
  146.5296  139.6520  155.4718 H   0  0  0  0  0  0  0  0  0  0  0  0
  148.5262  140.1531  154.5487 H   0  0  0  0  0  0  0  0  0  0  0  0
  149.1631  138.5295  154.8029 H   0  0  0  0  0  0  0  0  0  0  0  0
  148.7505  139.4465  152.4208 H   0  0  0  0  0  0  0  0  0  0  0  0
  146.5083  139.8801  152.4812 H   0  0  0  0  0  0  0  0  0  0  0  0
  146.5695  138.2801  151.7300 H   0  0  0  0  0  0  0  0  0  0  0  0
  144.7163  139.5191  153.3853 H   0  0  0  0  0  0  0  0  0  0  0  0
  148.5463  137.8549  152.8234 H   0  0  0  0  0  0  0  0  0  0  0  0
  1  2  1  0  0  0  0
  1 18  1  0  0  0  0
  1 19  1  0  0  0  0
  1 20  1  0  0  0  0
  2  3  1  0  0  0  0
  2 21  1  0  0  0  0
  2 22  1  0  0  0  0
  3  4  1  0  0  0  0
  3 11  1  0  0  0  0
  4  5  1  0  0  0  0
  4 23  1  0  0  0  0
  4 24  1  0  0  0  0
  5 10  1  0  0  0  0
  5  6  2  0  0  0  0
  6  7  1  0  0  0  0
  7  8  2  0  0  0  0
  8  9  1  0  0  0  0
  8 10  1  0  0  0  0
  9 25  1  0  0  0  0
  9 26  1  0  0  0  0
  9 27  1  0  0  0  0
 11 15  1  0  0  0  0
 11 12  1  0  0  0  0
 11 28  1  0  0  0  0
 12 13  1  0  0  0  0
 12 29  1  0  0  0  0
 12 30  1  0  0  0  0
 13 14  1  0  0  0  0
 13 31  1  0  0  0  0
 13 35  1  0  0  0  0
 14 15  1  0  0  0  0
 14 32  1  0  0  0  0
 14 33  1  0  0  0  0
 15 17  1  0  0  0  0
 15 16  1  0  0  0  0
 16 34  1  0  0  0  0
M  CHG  1  13   1
M  END
> <s_m_source_file>
AV-unprocessed.smi

> <i_m_source_file_index>
73

> <i_lp_mmshare_version>
43012

> <i_f3d_flags>
0

> <s_epik_input>
W09IXVtDQEBIXTFbQ0gyXVtOSF1bQ0gyXVtDQEhdMU4oW0NIMl1bQ0gzXSlbQ0gyXWMybm5jKG8yKVtDSDNd

> <s_epik_cmdline>
J2VwaWtfcHl0aG9uJywgJy1waCcsICc3LjAnLCAnLXRuJywgJzgnLCAnLW1hJywgJzIwMCcsICctbWV0YWxfYmluZGluZycsICctaW1hZScsICc8aW5maWxlLm1hZT4nLCAnLW9tYWUnLCAnPG91dGZpbGUubWFlPic=

> <r_lp_tautomer_probability>
1

> <r_epik_Ionization_Penalty>
0.00160433

> <r_epik_Ionization_Penalty_Charging>
0.000122314

> <r_epik_Ionization_Penalty_Neutral>
0.00148202

> <r_epik_State_Penalty>
-0

> <r_epik_Charging_Adjusted_Penalty>
0.000122314

> <i_epik_Tot_Q>
1

> <i_epik_Tot_abs_Q>
1

> <r_epik_Metal_State_Penalty>
-0

> <b_epik_Metal_Only>
0

> <s_lp_Force_Field>
OPLS_2005

> <r_lp_Energy>
41.961

> <b_lp_Chiralities_Consistent>
1

> <s_lp_Variant>
AV-unprocessed.smi:73-4

> <Gold.Version>
5.8.1

> <Gold.Id.Protein>
6NUR|6NUR_protein|mol2

> <Gold.PLP.Fitness>
34.5281

> <Gold.PLP.PLP>
-18.1431

> <Gold.PLP.part.hbond>
-5.0000

> <Gold.PLP.part.metal>
0.0000

> <Gold.PLP.part.buried>
-4.0897

> <Gold.PLP.part.nonpolar>
-10.0168

> <Gold.PLP.part.repulsive>
0.0679

> <Gold.PLP.ligand.clash>
0.0000

> <Gold.PLP.ligand.torsion>
0.4156

> <Gold.PLP.Chemscore.Hbond>
5.7296

> <Gold.PLP.Chemscore.CHOScore>
0.0000

> <Gold.PLP.Chemscore.Metal>
0.0000

> <Gold.Chemscore.Hbonds>
donor molecule, donor type, donor heavy atom, donor atom, acceptor molecule, acceptor atom, score
      L1  H    13    31       P1  7957  1.00
      L1  H    13    35       P1  7948  2.00
      L1  H    16    34       P1 10175  0.90
      P1  H  6896  6909       L1     7  0.88
      P1  H  6934  6947       L1    10  0.70

> <Gold.PLP.Chemscore.Internal.Correction>
0.0275

> <Gold.Rescore>
     Score         DG    S(hbond)    S(metal)    S(lipo)     H(rot)  DE(clash)    DE(int)     intcor
     14.98     -16.31       4.31        0.00      24.33       2.51       0.00       1.33       ----

> <Gold.Chemscore.Fitness>
14.9834

> <Gold.Chemscore.DG>
-16.3148

> <Gold.Chemscore.ZeroCoef>
-5.4800

> <Gold.Chemscore.Hbond>
4.3117

> <Gold.Chemscore.Metal>
0.0000

> <Gold.Chemscore.Lipo>
24.3310

> <Gold.Chemscore.Internal_Hbond>
0.0000

> <Gold.Chemscore.DEClash>
0.0015

> <Gold.Chemscore.DEInternal>
1.3299

> <Gold.Chemscore.Rot>
2.5051

> <Gold.Chemscore.Internal.Correction>
   9.000000E+99

> <Gold.Chemscore.Hbonds>
donor molecule, donor type, donor heavy atom, donor atom, acceptor molecule, acceptor atom, score
      L1  H    13    31       P1  7957  0.99
      L1  H    13    35       P1  7948  0.99
      L1  H    16    34       P1 10175  0.88
      P1  H  6896  6909       L1     7  0.32
      P1  H  6934  6947       L1    10  0.41

> <Gold.Chemscore.Hbond.Weighted>
-14.4012

> <Gold.Chemscore.Metal.Weighted>
-0.0000

> <Gold.Chemscore.Lipo.Weighted>
-2.8467

> <Gold.Chemscore.Internal_Hbond.Weighted>
0.0000

> <Gold.Chemscore.DEClash.Weighted>
0.0015

> <Gold.Chemscore.DEInternal.Weighted>
1.3299

> <Gold.Chemscore.Rot.Weighted>
6.4131

> <Gold.Chemscore.Internal.Correction.Weighted>
   9.000000E+99

> <Gold.Protein.RotatedTorsions>
[ 6907 6896 6895 6894 ] final   80.20 input  -60.11 | X-H torsion
[ 7974 7965 7964 7962 ] final    1.50 input  175.53 | X-H torsion
[ 8008 7997 7996 7995 ] final  143.31 input   59.86 | X-H torsion
[ 10167 10162 10161 10158 ] final  -30.26 input  -65.29 | X-H torsion
[ 10718 10713 10712 10709 ] final   76.44 input   66.30 | X-H torsion
[ 10763 10752 10751 10750 ] final -114.15 input  -60.55 | X-H torsion
[ 11005 11000 10999 10996 ] final  120.57 input  -57.11 | X-H torsion

> <Gold.Protein.ActiveResidues>
 VAL166  LYS551  ARG553  GLY616  TRP617  ASP618  TYR619  PRO620  LYS621  CYS622 
 ASP623  PHE694  ASN695  SER759  ASP760  ASP761  ALA762  ILE779  LEU786  VAL792 
 PHE793  MET794  SER795  GLU796  ALA797  LYS798  CYS799  TRP800  GLU811  SER814 

> <Gold.Protein.RotatedAtoms>
  152.5226  134.3394  159.9211 H   0  0  0  0  0  0  0  0  0  0  0  0  # atno 6907 bound_to 6896
  151.3344  133.3981  159.2673 H   0  0  0  0  0  0  0  0  0  0  0  0  # atno 6908 bound_to 6896
  150.9854  134.9218  159.7926 H   0  0  0  0  0  0  0  0  0  0  0  0  # atno 6909 bound_to 6896
  146.2440  140.0977  142.8349 H   0  0  0  0  0  0  0  0  0  0  0  0  # atno 7974 bound_to 7965
  156.2932  140.2265  156.4871 H   0  0  0  0  0  0  0  0  0  0  0  0  # atno 8008 bound_to 7997
  154.7803  140.0460  157.1143 H   0  0  0  0  0  0  0  0  0  0  0  0  # atno 8009 bound_to 7997
  154.9767  140.3073  155.4967 H   0  0  0  0  0  0  0  0  0  0  0  0  # atno 8010 bound_to 7997
  140.7251  143.3862  151.1510 H   0  0  0  0  0  0  0  0  0  0  0  0  # atno 10167 bound_to 10162
  157.6673  130.9774  150.1497 H   0  0  0  0  0  0  0  0  0  0  0  0  # atno 10718 bound_to 10713
  154.8427  135.4428  154.1460 H   0  0  0  0  0  0  0  0  0  0  0  0  # atno 10763 bound_to 10752
  153.2633  135.6938  153.7562 H   0  0  0  0  0  0  0  0  0  0  0  0  # atno 10764 bound_to 10752
  153.6830  135.3400  155.3158 H   0  0  0  0  0  0  0  0  0  0  0  0  # atno 10765 bound_to 10752
  139.9190  134.9635  156.7826 H   0  0  0  0  0  0  0  0  0  0  0  0  # atno 11005 bound_to 11000
  145.0595  140.9077  143.4947 LP  0  0  0  0  0  0  0  0  0  0  0  0  # atno 17320 bound_to 7965
  145.1090  139.2770  143.5647 LP  0  0  0  0  0  0  0  0  0  0  0  0  # atno 17321 bound_to 7965
  139.7460  143.8851  152.3063 LP  0  0  0  0  0  0  0  0  0  0  0  0  # atno 17342 bound_to 10162
  139.8689  144.7079  150.9011 LP  0  0  0  0  0  0  0  0  0  0  0  0  # atno 17343 bound_to 10162
  156.2299  130.3681  149.8457 LP  0  0  0  0  0  0  0  0  0  0  0  0  # atno 17370 bound_to 10713
  156.6286  130.8656  151.3490 LP  0  0  0  0  0  0  0  0  0  0  0  0  # atno 17371 bound_to 10713
  140.6531  133.9713  155.7765 LP  0  0  0  0  0  0  0  0  0  0  0  0  # atno 17394 bound_to 11000
  141.0694  134.0228  157.3547 LP  0  0  0  0  0  0  0  0  0  0  0  0  # atno 17395 bound_to 11000

$$$$
