AV-unprocessed.smi:513|AV-procd|sdf|2773|dock3
  -GOLD-   2262023243D 1   1.00000     0.00000
 Structure written by MMmdl.
 42 44  0  0  0  0  0  0  0  0  1 V2000
  149.8964  139.5781  154.8360 C   0  0  0  0  0  0  0  0  0  0  0  0
  150.5525  140.8174  155.0310 O   0  0  0  0  0  0  0  0  0  0  0  0
  151.5733  140.7475  156.0133 C   0  0  0  0  0  0  0  0  0  0  0  0
  151.0338  141.2725  157.3507 C   0  0  0  0  0  0  0  0  0  0  0  0
  151.8738  140.8601  158.4736 N   0  0  0  0  0  0  0  0  0  0  0  0
  152.5334  141.6286  159.3859 C   0  0  0  0  0  0  0  0  0  0  0  0
  152.4474  143.0214  159.3963 N   0  0  0  0  0  0  0  0  0  0  0  0
  152.4180  143.8550  158.1978 C   0  0  0  0  0  0  0  0  0  0  0  0
  151.2943  144.9078  158.2863 C   0  0  0  0  0  0  0  0  0  0  0  0
  151.5162  145.7744  159.4392 N   0  0  0  0  0  0  0  0  0  0  0  0
  151.5322  144.9521  160.6441 C   0  0  0  0  0  0  0  0  0  0  0  0
  152.6628  143.9096  160.5366 C   0  0  0  0  0  0  0  0  0  0  0  0
  153.3011  140.9426  160.2382 N   0  0  0  0  0  0  0  0  0  0  0  0
  153.0911  139.6266  159.8595 C   0  0  0  0  0  0  0  0  0  0  0  0
  152.2438  139.5551  158.8032 C   0  0  0  0  0  0  0  0  0  0  0  0
  151.8775  138.2787  158.1756 C   0  0  0  0  0  0  0  0  0  0  0  0
  151.1243  138.1892  157.2084 O   0  0  0  0  0  0  0  0  0  0  0  0
  152.4607  137.2086  158.7686 N   0  0  0  0  0  0  0  0  0  0  0  0
  153.3180  137.2119  159.8351 C   0  0  0  0  0  0  0  0  0  0  0  0
  153.7690  136.1476  160.2572 O   0  0  0  0  0  0  0  0  0  0  0  0
  153.6396  138.4260  160.3897 N   0  0  0  0  0  0  0  0  0  0  0  0
  154.5518  138.5406  161.5293 C   0  0  0  0  0  0  0  0  0  0  0  0
  152.2406  136.3048  158.3758 H   0  0  0  0  0  0  0  0  0  0  0  0
  149.1265  139.6889  154.0725 H   0  0  0  0  0  0  0  0  0  0  0  0
  149.4151  139.2383  155.7540 H   0  0  0  0  0  0  0  0  0  0  0  0
  150.5953  138.8107  154.5004 H   0  0  0  0  0  0  0  0  0  0  0  0
  151.9097  139.7163  156.1297 H   0  0  0  0  0  0  0  0  0  0  0  0
  152.4352  141.3381  155.6989 H   0  0  0  0  0  0  0  0  0  0  0  0
  150.9570  142.3538  157.3072 H   0  0  0  0  0  0  0  0  0  0  0  0
  150.0162  140.9217  157.5171 H   0  0  0  0  0  0  0  0  0  0  0  0
  153.3875  144.3364  158.0602 H   0  0  0  0  0  0  0  0  0  0  0  0
  152.2553  143.2251  157.3227 H   0  0  0  0  0  0  0  0  0  0  0  0
  151.2790  145.5177  157.3829 H   0  0  0  0  0  0  0  0  0  0  0  0
  150.3185  144.4263  158.3649 H   0  0  0  0  0  0  0  0  0  0  0  0
  150.7723  146.4548  159.5016 H   0  0  0  0  0  0  0  0  0  0  0  0
  151.6947  145.5963  161.5085 H   0  0  0  0  0  0  0  0  0  0  0  0
  150.5640  144.4681  160.7789 H   0  0  0  0  0  0  0  0  0  0  0  0
  152.7480  143.3338  161.4572 H   0  0  0  0  0  0  0  0  0  0  0  0
  153.6234  144.4131  160.4183 H   0  0  0  0  0  0  0  0  0  0  0  0
  154.8922  137.5830  161.9245 H   0  0  0  0  0  0  0  0  0  0  0  0
  154.0625  139.0727  162.3457 H   0  0  0  0  0  0  0  0  0  0  0  0
  155.4359  139.1100  161.2412 H   0  0  0  0  0  0  0  0  0  0  0  0
  1  2  1  0  0  0  0
  1 24  1  0  0  0  0
  1 25  1  0  0  0  0
  1 26  1  0  0  0  0
  2  3  1  0  0  0  0
  3  4  1  0  0  0  0
  3 27  1  0  0  0  0
  3 28  1  0  0  0  0
  4  5  1  0  0  0  0
  4 29  1  0  0  0  0
  4 30  1  0  0  0  0
  5 15  1  0  0  0  0
  5  6  1  0  0  0  0
  6  7  1  0  0  0  0
  6 13  2  0  0  0  0
  7 12  1  0  0  0  0
  7  8  1  0  0  0  0
  8  9  1  0  0  0  0
  8 31  1  0  0  0  0
  8 32  1  0  0  0  0
  9 10  1  0  0  0  0
  9 33  1  0  0  0  0
  9 34  1  0  0  0  0
 10 11  1  0  0  0  0
 10 35  1  0  0  0  0
 11 12  1  0  0  0  0
 11 36  1  0  0  0  0
 11 37  1  0  0  0  0
 12 38  1  0  0  0  0
 12 39  1  0  0  0  0
 13 14  1  0  0  0  0
 14 21  1  0  0  0  0
 14 15  2  0  0  0  0
 15 16  1  0  0  0  0
 16 17  2  0  0  0  0
 16 18  1  0  0  0  0
 18 23  1  0  0  0  0
 18 19  1  0  0  0  0
 19 20  2  0  0  0  0
 19 21  1  0  0  0  0
 21 22  1  0  0  0  0
 22 40  1  0  0  0  0
 22 41  1  0  0  0  0
 22 42  1  0  0  0  0
M  END
> <s_m_source_file>
AV-unprocessed.smi

> <i_m_source_file_index>
513

> <i_lp_mmshare_version>
43012

> <i_f3d_flags>
0

> <s_epik_input>
W0NIM11uMWMoPU8pW25IXWMoPU8pYyhjMTIpbihbQ0gyXVtDSDJdT1tDSDNdKWMobjIpTjNbQ0gyXVtDSDJdW05IXVtDSDJdW0NIMl0z

> <s_epik_cmdline>
J2VwaWtfcHl0aG9uJywgJy1waCcsICc3LjAnLCAnLXRuJywgJzgnLCAnLW1hJywgJzIwMCcsICctbWV0YWxfYmluZGluZycsICctaW1hZScsICc8aW5maWxlLm1hZT4nLCAnLW9tYWUnLCAnPG91dGZpbGUubWFlPic=

> <r_epik_Ionization_Penalty>
2.51416

> <r_epik_Ionization_Penalty_Charging>
1.6225e-05

> <r_epik_Ionization_Penalty_Neutral>
2.51414

> <r_epik_State_Penalty>
2.67993

> <r_epik_Charging_Adjusted_Penalty>
2.67995

> <i_epik_Tot_Q>
0

> <i_epik_Tot_abs_Q>
0

> <r_epik_Metal_State_Penalty>
2.70812

> <b_epik_Metal_Only>
0

> <s_lp_Force_Field>
OPLS_2005

> <r_lp_Energy>
48.0947

> <b_lp_Chiralities_Consistent>
1

> <s_lp_Variant>
AV-unprocessed.smi:513-2

> <Gold.Version>
5.8.1

> <Gold.Id.Protein>
6NUR|6NUR_protein|mol2

> <Gold.PLP.Fitness>
45.5580

> <Gold.PLP.PLP>
-41.2919

> <Gold.PLP.part.hbond>
-3.0000

> <Gold.PLP.part.metal>
0.0000

> <Gold.PLP.part.buried>
-5.8400

> <Gold.PLP.part.nonpolar>
-31.8693

> <Gold.PLP.part.repulsive>
0.1756

> <Gold.PLP.ligand.clash>
0.0000

> <Gold.PLP.ligand.torsion>
0.8041

> <Gold.PLP.Chemscore.Hbond>
1.8553

> <Gold.PLP.Chemscore.CHOScore>
0.0000

> <Gold.PLP.Chemscore.Metal>
0.0000

> <Gold.Chemscore.Hbonds>
donor molecule, donor type, donor heavy atom, donor atom, acceptor molecule, acceptor atom, score
      P1  H  6896  6909       L1    20  0.98
      P1  H  7989  7998       L1     2  0.79

> <Gold.PLP.Chemscore.Internal.Correction>
0.3086

> <Gold.Rescore>
     Score         DG    S(hbond)    S(metal)    S(lipo)     H(rot)  DE(clash)    DE(int)     intcor
     11.27     -14.06       0.98        0.00      79.44       1.55       0.52       2.27       ----

> <Gold.Chemscore.Fitness>
11.2693

> <Gold.Chemscore.DG>
-14.0589

> <Gold.Chemscore.ZeroCoef>
-5.4800

> <Gold.Chemscore.Hbond>
0.9756

> <Gold.Chemscore.Metal>
0.0000

> <Gold.Chemscore.Lipo>
79.4441

> <Gold.Chemscore.Internal_Hbond>
0.0000

> <Gold.Chemscore.DEClash>
0.5206

> <Gold.Chemscore.DEInternal>
2.2690

> <Gold.Chemscore.Rot>
1.5526

> <Gold.Chemscore.Internal.Correction>
   9.000000E+99

> <Gold.Chemscore.Hbonds>
donor molecule, donor type, donor heavy atom, donor atom, acceptor molecule, acceptor atom, score
      P1  H  6896  6909       L1    20  0.77
      P1  H  7989  7998       L1     2  0.05

> <Gold.Chemscore.Hbond.Weighted>
-3.2585

> <Gold.Chemscore.Metal.Weighted>
-0.0000

> <Gold.Chemscore.Lipo.Weighted>
-9.2950

> <Gold.Chemscore.Internal_Hbond.Weighted>
0.0000

> <Gold.Chemscore.DEClash.Weighted>
0.5206

> <Gold.Chemscore.DEInternal.Weighted>
2.2690

> <Gold.Chemscore.Rot.Weighted>
3.9745

> <Gold.Chemscore.Internal.Correction.Weighted>
   9.000000E+99

> <Gold.Protein.RotatedTorsions>
[ 6907 6896 6895 6894 ] final -171.32 input  -60.11 | X-H torsion
[ 7974 7965 7964 7962 ] final  152.54 input  175.53 | X-H torsion
[ 8008 7997 7996 7995 ] final   36.05 input   59.86 | X-H torsion
[ 10167 10162 10161 10158 ] final -159.80 input  -65.29 | X-H torsion
[ 10718 10713 10712 10709 ] final -117.90 input   66.30 | X-H torsion
[ 10763 10752 10751 10750 ] final   -6.74 input  -60.55 | X-H torsion
[ 11005 11000 10999 10996 ] final  -84.70 input  -57.11 | X-H torsion

> <Gold.Protein.ActiveResidues>
 VAL166  LYS551  ARG553  GLY616  TRP617  ASP618  TYR619  PRO620  LYS621  CYS622 
 ASP623  PHE694  ASN695  SER759  ASP760  ASP761  ALA762  ILE779  LEU786  VAL792 
 PHE793  MET794  SER795  GLU796  ALA797  LYS798  CYS799  TRP800  GLU811  SER814 

> <Gold.Protein.RotatedAtoms>
  151.5219  133.3465  159.2902 H   0  0  0  0  0  0  0  0  0  0  0  0  # atno 6907 bound_to 6896
  150.8647  134.8010  159.7121 H   0  0  0  0  0  0  0  0  0  0  0  0  # atno 6908 bound_to 6896
  152.4655  134.5093  159.9801 H   0  0  0  0  0  0  0  0  0  0  0  0  # atno 6909 bound_to 6896
  144.8215  139.6682  143.6098 H   0  0  0  0  0  0  0  0  0  0  0  0  # atno 7974 bound_to 7965
  155.1811  140.3300  155.4375 H   0  0  0  0  0  0  0  0  0  0  0  0  # atno 8008 bound_to 7997
  156.2476  140.1926  156.6859 H   0  0  0  0  0  0  0  0  0  0  0  0  # atno 8009 bound_to 7997
  154.6271  140.0587  156.9672 H   0  0  0  0  0  0  0  0  0  0  0  0  # atno 8010 bound_to 7997
  139.6588  143.9950  152.2211 H   0  0  0  0  0  0  0  0  0  0  0  0  # atno 10167 bound_to 10162
  156.1067  130.6216  150.9222 H   0  0  0  0  0  0  0  0  0  0  0  0  # atno 10718 bound_to 10713
  153.4166  135.7009  153.6323 H   0  0  0  0  0  0  0  0  0  0  0  0  # atno 10763 bound_to 10752
  153.4795  135.3697  155.2434 H   0  0  0  0  0  0  0  0  0  0  0  0  # atno 10764 bound_to 10752
  154.8720  135.4062  154.3527 H   0  0  0  0  0  0  0  0  0  0  0  0  # atno 10765 bound_to 10752
  141.1648  133.7360  156.8907 H   0  0  0  0  0  0  0  0  0  0  0  0  # atno 11005 bound_to 11000
  146.2521  139.6222  142.9420 LP  0  0  0  0  0  0  0  0  0  0  0  0  # atno 17320 bound_to 7965
  145.5093  141.0436  143.2496 LP  0  0  0  0  0  0  0  0  0  0  0  0  # atno 17321 bound_to 7965
  139.9684  144.6510  150.8013 LP  0  0  0  0  0  0  0  0  0  0  0  0  # atno 17342 bound_to 10162
  140.7571  143.3079  151.2917 LP  0  0  0  0  0  0  0  0  0  0  0  0  # atno 17343 bound_to 10162
  157.6244  131.0927  150.8561 LP  0  0  0  0  0  0  0  0  0  0  0  0  # atno 17370 bound_to 10713
  156.8679  130.5136  149.5299 LP  0  0  0  0  0  0  0  0  0  0  0  0  # atno 17371 bound_to 10713
  140.1651  134.9139  157.2763 LP  0  0  0  0  0  0  0  0  0  0  0  0  # atno 17394 bound_to 11000
  140.2566  134.3620  155.7422 LP  0  0  0  0  0  0  0  0  0  0  0  0  # atno 17395 bound_to 11000

$$$$
