AV-unprocessed.smi:1047|AV-procd|sdf|4561|dock4
  -GOLD-   22720 3 03D 1   1.00000     0.00000
 Structure written by MMmdl.
 57 59  0  0  0  0  0  0  0  0  3 V2000
  146.1797  132.5481  154.4982 C   0  0  0  0  0  0  0  0  0  0  0  0
  145.6771  132.6823  153.0536 C   0  0  0  0  0  0  0  0  0  0  0  0
  144.4822  133.5616  152.9475 N   0  3  2  0  0  0  0  0  0  0  0  0
  143.9264  133.6432  151.5747 C   0  0  0  0  0  0  0  0  0  0  0  0
  144.7597  134.5896  150.6926 C   0  0  0  0  0  0  0  0  0  0  0  0
  144.8217  135.8731  151.3035 O   0  0  0  0  0  0  0  0  0  0  0  0
  145.4630  135.8436  152.5750 C   0  0  1  0  0  0  0  0  0  0  0  0
  145.5319  137.2839  153.1064 C   0  0  0  0  0  0  0  0  0  0  0  0
  145.7997  138.2463  152.0185 N   0  3  0  0  0  0  0  0  0  0  0  0
  147.1116  138.9176  152.1143 C   0  0  0  0  0  0  0  0  0  0  0  0
  147.4098  139.3568  153.5572 C   0  0  2  0  0  0  0  0  0  0  0  0
  146.2916  140.0673  154.0540 O   0  0  0  0  0  0  0  0  0  0  0  0
  148.6610  140.2523  153.6399 C   0  0  0  0  0  0  0  0  0  0  0  0
  149.6981  139.6792  154.4792 N   0  0  0  0  0  0  0  0  0  0  0  0
  150.3174  138.4940  154.3148 C   0  0  0  0  0  0  0  0  0  0  0  0
  151.2488  138.1655  155.2050 N   0  0  0  0  0  0  0  0  0  0  0  0
  151.2260  139.2613  156.0506 C   0  0  0  0  0  0  0  0  0  0  0  0
  151.9809  139.5400  157.2109 C   0  0  0  0  0  0  0  0  0  0  0  0
  151.7857  140.7399  157.9315 C   0  0  0  0  0  0  0  0  0  0  0  0
  152.6178  140.9973  159.1755 C   0  0  0  0  0  0  0  0  0  0  0  0
  150.8236  141.6845  157.4920 C   0  0  0  0  0  0  0  0  0  0  0  0
  150.5955  142.9786  158.2528 C   0  0  0  0  0  0  0  0  0  0  0  0
  150.0633  141.4236  156.3324 C   0  0  0  0  0  0  0  0  0  0  0  0
  150.2655  140.2252  155.6252 C   0  0  0  0  0  0  0  0  0  0  0  0
  144.6546  134.9231  153.5178 C   0  0  0  0  0  0  0  0  0  0  0  0
  146.9919  131.8229  154.5551 H   0  0  0  0  0  0  0  0  0  0  0  0
  145.3854  132.2046  155.1619 H   0  0  0  0  0  0  0  0  0  0  0  0
  146.5623  133.4901  154.8899 H   0  0  0  0  0  0  0  0  0  0  0  0
  146.4791  133.0304  152.4026 H   0  0  0  0  0  0  0  0  0  0  0  0
  145.4138  131.6835  152.7033 H   0  0  0  0  0  0  0  0  0  0  0  0
  143.8574  132.6522  151.1248 H   0  0  0  0  0  0  0  0  0  0  0  0
  142.9045  134.0198  151.6404 H   0  0  0  0  0  0  0  0  0  0  0  0
  145.7650  134.1986  150.5289 H   0  0  0  0  0  0  0  0  0  0  0  0
  144.2963  134.6906  149.7110 H   0  0  0  0  0  0  0  0  0  0  0  0
  146.4798  135.4636  152.4638 H   0  0  0  0  0  0  0  0  0  0  0  0
  144.6016  137.5485  153.6115 H   0  0  0  0  0  0  0  0  0  0  0  0
  146.3319  137.3644  153.8435 H   0  0  0  0  0  0  0  0  0  0  0  0
  145.7651  137.7573  151.1349 H   0  0  0  0  0  0  0  0  0  0  0  0
  147.8807  138.2228  151.7743 H   0  0  0  0  0  0  0  0  0  0  0  0
  147.1372  139.7768  151.4420 H   0  0  0  0  0  0  0  0  0  0  0  0
  147.5606  138.4745  154.1811 H   0  0  0  0  0  0  0  0  0  0  0  0
  145.7298  140.2900  153.3264 H   0  0  0  0  0  0  0  0  0  0  0  0
  149.0791  140.4097  152.6448 H   0  0  0  0  0  0  0  0  0  0  0  0
  148.4022  141.2386  154.0282 H   0  0  0  0  0  0  0  0  0  0  0  0
  150.0747  137.8379  153.4914 H   0  0  0  0  0  0  0  0  0  0  0  0
  152.7137  138.8204  157.5456 H   0  0  0  0  0  0  0  0  0  0  0  0
  151.9744  141.1425  160.0435 H   0  0  0  0  0  0  0  0  0  0  0  0
  153.2316  141.8887  159.0457 H   0  0  0  0  0  0  0  0  0  0  0  0
  153.2832  140.1607  159.3902 H   0  0  0  0  0  0  0  0  0  0  0  0
  149.8421  143.5993  157.7670 H   0  0  0  0  0  0  0  0  0  0  0  0
  151.5181  143.5565  158.3103 H   0  0  0  0  0  0  0  0  0  0  0  0
  150.2536  142.7698  159.2668 H   0  0  0  0  0  0  0  0  0  0  0  0
  149.3275  142.1345  155.9872 H   0  0  0  0  0  0  0  0  0  0  0  0
  143.6616  135.3485  153.6709 H   0  0  0  0  0  0  0  0  0  0  0  0
  145.1164  134.8783  154.5035 H   0  0  0  0  0  0  0  0  0  0  0  0
  145.0770  138.9521  152.0243 H   0  0  0  0  0  0  0  0  0  0  0  0
  143.7729  133.1036  153.5028 H   0  0  0  0  0  0  0  0  0  0  0  0
  1  2  1  0  0  0  0
  1 26  1  0  0  0  0
  1 27  1  0  0  0  0
  1 28  1  0  0  0  0
  2  3  1  0  0  0  0
  2 29  1  0  0  0  0
  2 30  1  0  0  0  0
  3 25  1  0  0  0  0
  3  4  1  0  0  0  0
  3 57  1  0  0  0  0
  4  5  1  0  0  0  0
  4 31  1  0  0  0  0
  4 32  1  0  0  0  0
  5  6  1  0  0  0  0
  5 33  1  0  0  0  0
  5 34  1  0  0  0  0
  6  7  1  0  0  0  0
  7  8  1  0  0  0  0
  7 25  1  0  0  0  0
  7 35  1  0  0  0  0
  8  9  1  0  0  0  0
  8 36  1  0  0  0  0
  8 37  1  0  0  0  0
  9 10  1  0  0  0  0
  9 38  1  0  0  0  0
  9 56  1  0  0  0  0
 10 11  1  0  0  0  0
 10 39  1  0  0  0  0
 10 40  1  0  0  0  0
 11 12  1  0  0  0  0
 11 13  1  0  0  0  0
 11 41  1  0  0  0  0
 12 42  1  0  0  0  0
 13 14  1  0  0  0  0
 13 43  1  0  0  0  0
 13 44  1  0  0  0  0
 14 24  1  0  0  0  0
 14 15  1  0  0  0  0
 15 16  2  0  0  0  0
 15 45  1  0  0  0  0
 16 17  1  0  0  0  0
 17 24  2  0  0  0  0
 17 18  1  0  0  0  0
 18 19  2  0  0  0  0
 18 46  1  0  0  0  0
 19 20  1  0  0  0  0
 19 21  1  0  0  0  0
 20 47  1  0  0  0  0
 20 48  1  0  0  0  0
 20 49  1  0  0  0  0
 21 22  1  0  0  0  0
 21 23  2  0  0  0  0
 22 50  1  0  0  0  0
 22 51  1  0  0  0  0
 22 52  1  0  0  0  0
 23 24  1  0  0  0  0
 23 53  1  0  0  0  0
 25 54  1  0  0  0  0
 25 55  1  0  0  0  0
M  CHG  1   3   1
M  CHG  1   9   1
M  END
> <s_m_source_file>
AV-unprocessed.smi

> <i_m_source_file_index>
1047

> <i_lp_mmshare_version>
43012

> <i_f3d_flags>
0

> <s_epik_input>
W0NIM11bQ0gyXU4xW0NIMl1bQ0gyXU9bQ0BIXShbQ0gyXTEpW0NIMl1bTkhdW0NIMl1bQ0BIXShbT0hdKVtDSDJdbihbY0hdbjIpYyhjMjMpW2NIXWMoW0NIM10pYyhbY0hdMylbQ0gzXQ==

> <s_epik_cmdline>
J2VwaWtfcHl0aG9uJywgJy1waCcsICc3LjAnLCAnLXRuJywgJzgnLCAnLW1hJywgJzIwMCcsICctbWV0YWxfYmluZGluZycsICctaW1hZScsICc8aW5maWxlLm1hZT4nLCAnLW9tYWUnLCAnPG91dGZpbGUubWFlPic=

> <r_epik_Ionization_Penalty>
0.528991

> <r_epik_Ionization_Penalty_Charging>
0.438567

> <r_epik_Ionization_Penalty_Neutral>
0.0904237

> <r_epik_State_Penalty>
0.533036

> <r_epik_Charging_Adjusted_Penalty>
0.971603

> <i_epik_Tot_Q>
2

> <i_epik_Tot_abs_Q>
2

> <r_epik_Metal_State_Penalty>
0.448985

> <b_epik_Metal_Only>
0

> <s_lp_Force_Field>
OPLS_2005

> <r_lp_Energy>
30.8403

> <b_lp_Chiralities_Consistent>
1

> <s_lp_Variant>
AV-unprocessed.smi:1047-2

> <Gold.Version>
5.8.1

> <Gold.Id.Protein>
6NUR|6NUR_protein|mol2

> <Gold.PLP.Fitness>
56.8553

> <Gold.PLP.PLP>
-40.3365

> <Gold.PLP.part.hbond>
-4.0000

> <Gold.PLP.part.metal>
0.0000

> <Gold.PLP.part.buried>
-2.2498

> <Gold.PLP.part.nonpolar>
-35.7759

> <Gold.PLP.part.repulsive>
0.3465

> <Gold.PLP.ligand.clash>
0.0000

> <Gold.PLP.ligand.torsion>
1.4710

> <Gold.PLP.Chemscore.Hbond>
5.2326

> <Gold.PLP.Chemscore.CHOScore>
1.0870

> <Gold.PLP.Chemscore.Metal>
0.0000

> <Gold.Chemscore.Hbonds>
donor molecule, donor type, donor heavy atom, donor atom, acceptor molecule, acceptor atom, score
      L1  H     3    57       P1 10957  1.40
      L1  H     9    56       P1 10175  1.69
      L1  H    12    42       P1 10175  0.52
      L1  C    15    45       P1  7948  1.00

> <Gold.PLP.Chemscore.Internal.Correction>
0.5019

> <Gold.Rescore>
     Score         DG    S(hbond)    S(metal)    S(lipo)     H(rot)  DE(clash)    DE(int)     intcor
     18.82     -21.68       3.24        0.00     104.92       2.70       1.26       1.60       ----

> <Gold.Chemscore.Fitness>
18.8173

> <Gold.Chemscore.DG>
-21.6806

> <Gold.Chemscore.ZeroCoef>
-5.4800

> <Gold.Chemscore.Hbond>
3.2435

> <Gold.Chemscore.Metal>
0.0000

> <Gold.Chemscore.Lipo>
104.9174

> <Gold.Chemscore.Internal_Hbond>
0.0000

> <Gold.Chemscore.DEClash>
1.2622

> <Gold.Chemscore.DEInternal>
1.6011

> <Gold.Chemscore.Rot>
2.6985

> <Gold.Chemscore.Internal.Correction>
   9.000000E+99

> <Gold.Chemscore.Hbonds>
donor molecule, donor type, donor heavy atom, donor atom, acceptor molecule, acceptor atom, score
      L1  H     3    57       P1 10957  0.62
      L1  H     9    38       P1 10171  0.01
      L1  H     9    56       P1 10175  0.82
      L1  H    12    42       P1 10175  0.48

> <Gold.Chemscore.Hbond.Weighted>
-10.8334

> <Gold.Chemscore.Metal.Weighted>
-0.0000

> <Gold.Chemscore.Lipo.Weighted>
-12.2753

> <Gold.Chemscore.Internal_Hbond.Weighted>
0.0000

> <Gold.Chemscore.DEClash.Weighted>
1.2622

> <Gold.Chemscore.DEInternal.Weighted>
1.6011

> <Gold.Chemscore.Rot.Weighted>
6.9081

> <Gold.Chemscore.Internal.Correction.Weighted>
   9.000000E+99

> <Gold.Protein.RotatedTorsions>
[ 6907 6896 6895 6894 ] final  -36.24 input  -60.11 | X-H torsion
[ 7974 7965 7964 7962 ] final   77.39 input  175.53 | X-H torsion
[ 8008 7997 7996 7995 ] final  -70.17 input   59.86 | X-H torsion
[ 10167 10162 10161 10158 ] final  -25.16 input  -65.29 | X-H torsion
[ 10718 10713 10712 10709 ] final -127.07 input   66.30 | X-H torsion
[ 10763 10752 10751 10750 ] final   43.40 input  -60.55 | X-H torsion
[ 11005 11000 10999 10996 ] final  -33.23 input  -57.11 | X-H torsion

> <Gold.Protein.ActiveResidues>
 VAL166  LYS551  ARG553  GLY616  TRP617  ASP618  TYR619  PRO620  LYS621  CYS622 
 ASP623  PHE694  ASN695  SER759  ASP760  ASP761  ALA762  ILE779  LEU786  VAL792 
 PHE793  MET794  SER795  GLU796  ALA797  LYS798  CYS799  TRP800  GLU811  SER814 

> <Gold.Protein.RotatedAtoms>
  151.0297  134.9530  159.8104 H   0  0  0  0  0  0  0  0  0  0  0  0  # atno 6907 bound_to 6896
  152.5343  134.2796  159.9012 H   0  0  0  0  0  0  0  0  0  0  0  0  # atno 6908 bound_to 6896
  151.2805  133.4169  159.2660 H   0  0  0  0  0  0  0  0  0  0  0  0  # atno 6909 bound_to 6896
  145.6906  139.2551  143.1762 H   0  0  0  0  0  0  0  0  0  0  0  0  # atno 7974 bound_to 7965
  154.4992  140.0839  156.7762 H   0  0  0  0  0  0  0  0  0  0  0  0  # atno 8008 bound_to 7997
  155.4042  140.3438  155.4241 H   0  0  0  0  0  0  0  0  0  0  0  0  # atno 8009 bound_to 7997
  156.1435  140.1536  156.8872 H   0  0  0  0  0  0  0  0  0  0  0  0  # atno 8010 bound_to 7997
  140.7287  143.4289  151.0833 H   0  0  0  0  0  0  0  0  0  0  0  0  # atno 10167 bound_to 10162
  156.1823  130.6740  151.0320 H   0  0  0  0  0  0  0  0  0  0  0  0  # atno 10718 bound_to 10713
  152.9861  135.6102  154.3105 H   0  0  0  0  0  0  0  0  0  0  0  0  # atno 10763 bound_to 10752
  154.2821  135.2777  155.2694 H   0  0  0  0  0  0  0  0  0  0  0  0  # atno 10764 bound_to 10752
  154.5028  135.5862  153.6601 H   0  0  0  0  0  0  0  0  0  0  0  0  # atno 10765 bound_to 10752
  140.9617  133.7160  156.1381 H   0  0  0  0  0  0  0  0  0  0  0  0  # atno 11005 bound_to 11000
  146.0885  140.7683  142.9607 LP  0  0  0  0  0  0  0  0  0  0  0  0  # atno 17320 bound_to 7965
  144.6998  140.3599  143.7166 LP  0  0  0  0  0  0  0  0  0  0  0  0  # atno 17321 bound_to 7965
  139.7943  143.8173  152.3155 LP  0  0  0  0  0  0  0  0  0  0  0  0  # atno 17342 bound_to 10162
  139.8168  144.7313  150.9624 LP  0  0  0  0  0  0  0  0  0  0  0  0  # atno 17343 bound_to 10162
  157.6876  131.0820  150.7198 LP  0  0  0  0  0  0  0  0  0  0  0  0  # atno 17370 bound_to 10713
  156.7255  130.4694  149.5512 LP  0  0  0  0  0  0  0  0  0  0  0  0  # atno 17371 bound_to 10713
  140.7457  134.4100  157.5548 LP  0  0  0  0  0  0  0  0  0  0  0  0  # atno 17394 bound_to 11000
  139.8880  134.8866  156.2495 LP  0  0  0  0  0  0  0  0  0  0  0  0  # atno 17395 bound_to 11000

$$$$
