AV-unprocessed.smi:2496|AV-procd|sdf|9828|dock4
  -GOLD-   2272013453D 1   1.00000     0.00000
 Structure written by MMmdl.
 40 40  0  0  0  0  0  0  0  0  1 V2000
  147.3009  142.0840  156.6623 C   0  0  0  0  0  0  0  0  0  0  0  0
  148.3217  141.3206  155.8650 C   0  0  0  0  0  0  0  0  0  0  0  0
  148.1798  141.2631  154.5492 N   0  0  0  0  0  0  0  0  0  0  0  0
  149.2238  140.5241  154.1402 N   0  0  0  0  0  0  0  0  0  0  0  0
  150.0296  140.1122  155.1743 C   0  0  0  0  0  0  0  0  0  0  0  0
  151.2442  139.2760  154.9473 C   0  0  0  0  0  0  0  0  0  0  0  0
  149.4790  140.6112  156.3246 C   0  0  0  0  0  0  0  0  0  0  0  0
  149.9922  140.4269  157.7383 C   0  0  1  0  0  0  0  0  0  0  0  0
  149.9070  138.9610  158.2032 C   0  0  0  0  0  0  0  0  0  0  0  0
  151.4059  141.0179  157.8534 C   0  0  0  0  0  0  0  0  0  0  0  0
  152.3652  140.4716  157.3075 O   0  0  0  0  0  0  0  0  0  0  0  0
  151.5122  142.1422  158.5810 N   0  0  0  0  0  0  0  0  0  0  0  0
  152.7339  142.9117  158.8145 C   0  0  1  0  0  0  0  0  0  0  0  0
  152.4801  144.3510  158.3338 C   0  0  0  0  0  0  0  0  0  0  0  0
  153.1587  142.8258  160.3055 C   0  0  0  0  0  0  0  0  0  0  0  0
  153.3970  141.3748  160.7611 C   0  0  0  0  0  0  0  0  0  0  0  0
  152.1390  143.4957  161.2472 C   0  0  0  0  0  0  0  0  0  0  0  0
  149.3720  140.3108  153.1641 H   0  0  0  0  0  0  0  0  0  0  0  0
  147.0432  141.5615  157.5827 H   0  0  0  0  0  0  0  0  0  0  0  0
  146.3765  142.2256  156.1013 H   0  0  0  0  0  0  0  0  0  0  0  0
  147.6758  143.0709  156.9326 H   0  0  0  0  0  0  0  0  0  0  0  0
  151.1534  138.3188  155.4609 H   0  0  0  0  0  0  0  0  0  0  0  0
  152.1345  139.7791  155.3249 H   0  0  0  0  0  0  0  0  0  0  0  0
  151.3959  139.0751  153.8863 H   0  0  0  0  0  0  0  0  0  0  0  0
  149.3737  141.0006  158.4299 H   0  0  0  0  0  0  0  0  0  0  0  0
  150.5169  138.2978  157.5903 H   0  0  0  0  0  0  0  0  0  0  0  0
  148.8790  138.6003  158.1577 H   0  0  0  0  0  0  0  0  0  0  0  0
  150.2426  138.8558  159.2356 H   0  0  0  0  0  0  0  0  0  0  0  0
  150.6661  142.5104  158.9904 H   0  0  0  0  0  0  0  0  0  0  0  0
  153.5462  142.5056  158.2090 H   0  0  0  0  0  0  0  0  0  0  0  0
  153.3861  144.9551  158.3645 H   0  0  0  0  0  0  0  0  0  0  0  0
  151.7243  144.8467  158.9442 H   0  0  0  0  0  0  0  0  0  0  0  0
  152.1288  144.3607  157.3013 H   0  0  0  0  0  0  0  0  0  0  0  0
  154.1019  143.3620  160.4201 H   0  0  0  0  0  0  0  0  0  0  0  0
  152.5080  140.7617  160.6105 H   0  0  0  0  0  0  0  0  0  0  0  0
  153.6509  141.3328  161.8207 H   0  0  0  0  0  0  0  0  0  0  0  0
  154.2212  140.9094  160.2220 H   0  0  0  0  0  0  0  0  0  0  0  0
  151.1505  143.0480  161.1407 H   0  0  0  0  0  0  0  0  0  0  0  0
  152.0440  144.5637  161.0508 H   0  0  0  0  0  0  0  0  0  0  0  0
  152.4392  143.3921  162.2902 H   0  0  0  0  0  0  0  0  0  0  0  0
  1  2  1  0  0  0  0
  1 19  1  0  0  0  0
  1 20  1  0  0  0  0
  1 21  1  0  0  0  0
  2  7  1  0  0  0  0
  2  3  2  0  0  0  0
  3  4  1  0  0  0  0
  4 18  1  0  0  0  0
  4  5  1  0  0  0  0
  5  6  1  0  0  0  0
  5  7  2  0  0  0  0
  6 22  1  0  0  0  0
  6 23  1  0  0  0  0
  6 24  1  0  0  0  0
  7  8  1  0  0  0  0
  8  9  1  0  0  0  0
  8 10  1  0  0  0  0
  8 25  1  0  0  0  0
  9 26  1  0  0  0  0
  9 27  1  0  0  0  0
  9 28  1  0  0  0  0
 10 11  2  0  0  0  0
 10 12  1  0  0  0  0
 12 13  1  0  0  0  0
 12 29  1  0  0  0  0
 13 14  1  0  0  0  0
 13 15  1  0  0  0  0
 13 30  1  0  0  0  0
 14 31  1  0  0  0  0
 14 32  1  0  0  0  0
 14 33  1  0  0  0  0
 15 16  1  0  0  0  0
 15 17  1  0  0  0  0
 15 34  1  0  0  0  0
 16 35  1  0  0  0  0
 16 36  1  0  0  0  0
 16 37  1  0  0  0  0
 17 38  1  0  0  0  0
 17 39  1  0  0  0  0
 17 40  1  0  0  0  0
M  END
> <s_m_source_file>
AV-unprocessed.smi

> <i_m_source_file_index>
2496

> <i_lp_mmshare_version>
43012

> <i_f3d_flags>
0

> <s_epik_input>
W0NIM11jMW5bbkhdYyhbQ0gzXSljMVtDQEhdKFtDSDNdKUMoPU8pW05IXVtDQEhdKFtDSDNdKVtDSF0oW0NIM10pW0NIM10=

> <s_epik_cmdline>
J2VwaWtfcHl0aG9uJywgJy1waCcsICc3LjAnLCAnLXRuJywgJzgnLCAnLW1hJywgJzIwMCcsICctbWV0YWxfYmluZGluZycsICctaW1hZScsICc8aW5maWxlLm1hZT4nLCAnLW9tYWUnLCAnPG91dGZpbGUubWFlPic=

> <r_lp_tautomer_probability>
1

> <r_epik_Ionization_Penalty>
0.000456212

> <r_epik_Ionization_Penalty_Charging>
0

> <r_epik_Ionization_Penalty_Neutral>
0.000456212

> <r_epik_State_Penalty>
-0

> <r_epik_Charging_Adjusted_Penalty>
0

> <i_epik_Tot_Q>
0

> <i_epik_Tot_abs_Q>
0

> <r_epik_Metal_State_Penalty>
-0

> <b_epik_Metal_Only>
0

> <s_lp_Force_Field>
OPLS_2005

> <r_lp_Energy>
2.25398

> <b_lp_Chiralities_Consistent>
1

> <s_lp_Variant>
AV-unprocessed.smi:2496-4

> <Gold.Version>
5.8.1

> <Gold.Id.Protein>
6NUR|6NUR_protein|mol2

> <Gold.PLP.Fitness>
40.6438

> <Gold.PLP.PLP>
-35.2362

> <Gold.PLP.part.hbond>
-2.0000

> <Gold.PLP.part.metal>
0.0000

> <Gold.PLP.part.buried>
-2.1462

> <Gold.PLP.part.nonpolar>
-30.1343

> <Gold.PLP.part.repulsive>
0.9560

> <Gold.PLP.ligand.clash>
0.0000

> <Gold.PLP.ligand.torsion>
0.2063

> <Gold.PLP.Chemscore.Hbond>
1.8960

> <Gold.PLP.Chemscore.CHOScore>
0.0000

> <Gold.PLP.Chemscore.Metal>
0.0000

> <Gold.Chemscore.Hbonds>
donor molecule, donor type, donor heavy atom, donor atom, acceptor molecule, acceptor atom, score
      L1  H     4    18       P1  7957  0.99
      P1  H  7997  8009       L1    11  0.64

> <Gold.PLP.Chemscore.Internal.Correction>
0.1323

> <Gold.Rescore>
     Score         DG    S(hbond)    S(metal)    S(lipo)     H(rot)  DE(clash)    DE(int)     intcor
     18.44     -18.88       1.91        0.00      92.03       1.47       0.00       0.43       ----

> <Gold.Chemscore.Fitness>
18.4398

> <Gold.Chemscore.DG>
-18.8757

> <Gold.Chemscore.ZeroCoef>
-5.4800

> <Gold.Chemscore.Hbond>
1.9107

> <Gold.Chemscore.Metal>
0.0000

> <Gold.Chemscore.Lipo>
92.0290

> <Gold.Chemscore.Internal_Hbond>
0.0000

> <Gold.Chemscore.DEClash>
0.0021

> <Gold.Chemscore.DEInternal>
0.4337

> <Gold.Chemscore.Rot>
1.4662

> <Gold.Chemscore.Internal.Correction>
   9.000000E+99

> <Gold.Chemscore.Hbonds>
donor molecule, donor type, donor heavy atom, donor atom, acceptor molecule, acceptor atom, score
      L1  H     4    18       P1  7957  0.92
      P1  H  7997  8009       L1    11  0.62

> <Gold.Chemscore.Hbond.Weighted>
-6.3817

> <Gold.Chemscore.Metal.Weighted>
-0.0000

> <Gold.Chemscore.Lipo.Weighted>
-10.7674

> <Gold.Chemscore.Internal_Hbond.Weighted>
0.0000

> <Gold.Chemscore.DEClash.Weighted>
0.0021

> <Gold.Chemscore.DEInternal.Weighted>
0.4337

> <Gold.Chemscore.Rot.Weighted>
3.7534

> <Gold.Chemscore.Internal.Correction.Weighted>
   9.000000E+99

> <Gold.Protein.RotatedTorsions>
[ 6907 6896 6895 6894 ] final  142.69 input  -60.11 | X-H torsion
[ 7974 7965 7964 7962 ] final  161.37 input  175.53 | X-H torsion
[ 8008 7997 7996 7995 ] final  176.88 input   59.86 | X-H torsion
[ 10167 10162 10161 10158 ] final -131.31 input  -65.29 | X-H torsion
[ 10718 10713 10712 10709 ] final  163.40 input   66.30 | X-H torsion
[ 10763 10752 10751 10750 ] final -172.69 input  -60.55 | X-H torsion
[ 11005 11000 10999 10996 ] final   93.72 input  -57.11 | X-H torsion

> <Gold.Protein.ActiveResidues>
 VAL166  LYS551  ARG553  GLY616  TRP617  ASP618  TYR619  PRO620  LYS621  CYS622 
 ASP623  PHE694  ASN695  SER759  ASP760  ASP761  ALA762  ILE779  LEU786  VAL792 
 PHE793  MET794  SER795  GLU796  ALA797  LYS798  CYS799  TRP800  GLU811  SER814 

> <Gold.Protein.RotatedAtoms>
  152.2155  133.4943  159.5133 H   0  0  0  0  0  0  0  0  0  0  0  0  # atno 6907 bound_to 6896
  150.7000  134.1411  159.4114 H   0  0  0  0  0  0  0  0  0  0  0  0  # atno 6908 bound_to 6896
  151.9331  135.0247  160.0581 H   0  0  0  0  0  0  0  0  0  0  0  0  # atno 6909 bound_to 6896
  144.7689  139.7888  143.6304 H   0  0  0  0  0  0  0  0  0  0  0  0  # atno 7974 bound_to 7965
  156.0716  140.1372  156.9821 H   0  0  0  0  0  0  0  0  0  0  0  0  # atno 8008 bound_to 7997
  154.4535  140.0970  156.6740 H   0  0  0  0  0  0  0  0  0  0  0  0  # atno 8009 bound_to 7997
  155.5218  140.3456  155.4410 H   0  0  0  0  0  0  0  0  0  0  0  0  # atno 8010 bound_to 7997
  139.9202  143.6391  152.2555 H   0  0  0  0  0  0  0  0  0  0  0  0  # atno 10167 bound_to 10162
  157.1090  131.0463  151.2465 H   0  0  0  0  0  0  0  0  0  0  0  0  # atno 10718 bound_to 10713
  154.6164  135.2870  155.0375 H   0  0  0  0  0  0  0  0  0  0  0  0  # atno 10763 bound_to 10752
  154.1585  135.6492  153.4984 H   0  0  0  0  0  0  0  0  0  0  0  0  # atno 10764 bound_to 10752
  153.0217  135.5372  154.6938 H   0  0  0  0  0  0  0  0  0  0  0  0  # atno 10765 bound_to 10752
  139.8806  134.8806  156.3760 H   0  0  0  0  0  0  0  0  0  0  0  0  # atno 11005 bound_to 11000
  146.1820  139.5017  142.9860 LP  0  0  0  0  0  0  0  0  0  0  0  0  # atno 17320 bound_to 7965
  145.6383  141.0289  143.1825 LP  0  0  0  0  0  0  0  0  0  0  0  0  # atno 17321 bound_to 7965
  139.6868  144.7651  151.1510 LP  0  0  0  0  0  0  0  0  0  0  0  0  # atno 17342 bound_to 10162
  140.7664  143.5646  150.9062 LP  0  0  0  0  0  0  0  0  0  0  0  0  # atno 17343 bound_to 10162
  157.4575  130.7634  149.7206 LP  0  0  0  0  0  0  0  0  0  0  0  0  # atno 17370 bound_to 10713
  155.9855  130.3982  150.3259 LP  0  0  0  0  0  0  0  0  0  0  0  0  # atno 17371 bound_to 10713
  140.9432  133.7501  156.0173 LP  0  0  0  0  0  0  0  0  0  0  0  0  # atno 17394 bound_to 11000
  140.8195  134.3306  157.5386 LP  0  0  0  0  0  0  0  0  0  0  0  0  # atno 17395 bound_to 11000

$$$$
