AV-unprocessed.smi:2508|AV-procd|sdf|9865|dock6
  -GOLD-   2272013493D 1   1.00000     0.00000
 Structure written by MMmdl.
 46 47  0  0  0  0  0  0  0  0  1 V2000
  145.9290  131.0576  151.8478 C   0  0  0  0  0  0  0  0  0  0  0  0
  145.4635  132.3605  151.3645 N   0  0  0  0  0  0  0  0  0  0  0  0
  146.1689  133.5063  151.7819 C   0  0  0  0  0  0  0  0  0  0  0  0
  145.8173  134.7519  151.3925 C   0  0  0  0  0  0  0  0  0  0  0  0
  146.4699  135.9386  151.7600 N   0  0  0  0  0  0  0  0  0  0  0  0
  145.9517  137.1236  152.1476 C   0  0  0  0  0  0  0  0  0  0  0  0
  144.7540  137.3859  152.2293 O   0  0  0  0  0  0  0  0  0  0  0  0
  146.8801  138.0498  152.4434 N   0  0  0  0  0  0  0  0  0  0  0  0
  146.6583  139.4261  152.8915 C   0  0  0  0  0  0  0  0  0  0  0  0
  147.3166  139.7197  154.2698 C   0  0  0  0  0  0  0  0  0  0  0  0
  147.0738  138.5283  155.2245 C   0  0  0  0  0  0  0  0  0  0  0  0
  148.8442  139.8811  154.0946 C   0  0  0  0  0  0  0  0  0  0  0  0
  146.7524  141.0157  154.9364 C   0  0  0  0  0  0  0  0  0  0  0  0
  145.2933  140.9758  155.4154 C   0  0  0  0  0  0  0  0  0  0  0  0
  144.9336  142.4380  155.6981 C   0  0  0  0  0  0  0  0  0  0  0  0
  145.8800  143.2890  154.8380 C   0  0  0  0  0  0  0  0  0  0  0  0
  146.8000  142.3065  154.1039 C   0  0  0  0  0  0  0  0  0  0  0  0
  144.6732  134.8627  150.5125 C   0  0  0  0  0  0  0  0  0  0  0  0
  143.9933  133.7719  150.1087 C   0  0  0  0  0  0  0  0  0  0  0  0
  144.3794  132.4263  150.5387 C   0  0  0  0  0  0  0  0  0  0  0  0
  143.7672  131.4205  150.1789 O   0  0  0  0  0  0  0  0  0  0  0  0
  146.8100  131.1313  152.4861 H   0  0  0  0  0  0  0  0  0  0  0  0
  146.1899  130.4090  151.0103 H   0  0  0  0  0  0  0  0  0  0  0  0
  145.1480  130.5646  152.4286 H   0  0  0  0  0  0  0  0  0  0  0  0
  147.0029  133.2839  152.4271 H   0  0  0  0  0  0  0  0  0  0  0  0
  147.4778  135.8915  151.7246 H   0  0  0  0  0  0  0  0  0  0  0  0
  147.8451  137.7738  152.3338 H   0  0  0  0  0  0  0  0  0  0  0  0
  147.0534  140.0959  152.1279 H   0  0  0  0  0  0  0  0  0  0  0  0
  145.5825  139.5929  152.9385 H   0  0  0  0  0  0  0  0  0  0  0  0
  147.4735  138.7278  156.2194 H   0  0  0  0  0  0  0  0  0  0  0  0
  147.5515  137.6156  154.8672 H   0  0  0  0  0  0  0  0  0  0  0  0
  146.0110  138.3122  155.3347 H   0  0  0  0  0  0  0  0  0  0  0  0
  149.3256  140.1479  155.0360 H   0  0  0  0  0  0  0  0  0  0  0  0
  149.0854  140.6596  153.3703 H   0  0  0  0  0  0  0  0  0  0  0  0
  149.3147  138.9615  153.7458 H   0  0  0  0  0  0  0  0  0  0  0  0
  147.3574  141.2073  155.8251 H   0  0  0  0  0  0  0  0  0  0  0  0
  144.6338  140.6007  154.6340 H   0  0  0  0  0  0  0  0  0  0  0  0
  145.1550  140.3461  156.2949 H   0  0  0  0  0  0  0  0  0  0  0  0
  143.8854  142.6413  155.4772 H   0  0  0  0  0  0  0  0  0  0  0  0
  145.0939  142.6649  156.7528 H   0  0  0  0  0  0  0  0  0  0  0  0
  145.3343  143.9194  154.1353 H   0  0  0  0  0  0  0  0  0  0  0  0
  146.4669  143.9488  155.4784 H   0  0  0  0  0  0  0  0  0  0  0  0
  147.8108  142.7010  153.9975 H   0  0  0  0  0  0  0  0  0  0  0  0
  146.4051  142.1424  153.1024 H   0  0  0  0  0  0  0  0  0  0  0  0
  144.3539  135.8366  150.1707 H   0  0  0  0  0  0  0  0  0  0  0  0
  143.1437  133.8905  149.4525 H   0  0  0  0  0  0  0  0  0  0  0  0
  1  2  1  0  0  0  0
  1 22  1  0  0  0  0
  1 23  1  0  0  0  0
  1 24  1  0  0  0  0
  2 20  1  0  0  0  0
  2  3  1  0  0  0  0
  3  4  2  0  0  0  0
  3 25  1  0  0  0  0
  4  5  1  0  0  0  0
  4 18  1  0  0  0  0
  5  6  1  0  0  0  0
  5 26  1  0  0  0  0
  6  7  2  0  0  0  0
  6  8  1  0  0  0  0
  8  9  1  0  0  0  0
  8 27  1  0  0  0  0
  9 10  1  0  0  0  0
  9 28  1  0  0  0  0
  9 29  1  0  0  0  0
 10 11  1  0  0  0  0
 10 12  1  0  0  0  0
 10 13  1  0  0  0  0
 11 30  1  0  0  0  0
 11 31  1  0  0  0  0
 11 32  1  0  0  0  0
 12 33  1  0  0  0  0
 12 34  1  0  0  0  0
 12 35  1  0  0  0  0
 13 17  1  0  0  0  0
 13 14  1  0  0  0  0
 13 36  1  0  0  0  0
 14 15  1  0  0  0  0
 14 37  1  0  0  0  0
 14 38  1  0  0  0  0
 15 16  1  0  0  0  0
 15 39  1  0  0  0  0
 15 40  1  0  0  0  0
 16 17  1  0  0  0  0
 16 41  1  0  0  0  0
 16 42  1  0  0  0  0
 17 43  1  0  0  0  0
 17 44  1  0  0  0  0
 18 19  2  0  0  0  0
 18 45  1  0  0  0  0
 19 20  1  0  0  0  0
 19 46  1  0  0  0  0
 20 21  2  0  0  0  0
M  END
> <s_m_source_file>
AV-unprocessed.smi

> <i_m_source_file_index>
2508

> <i_lp_mmshare_version>
43012

> <i_f3d_flags>
0

> <s_epik_input>
Tz1jMVtjSF1bY0hdYyhbY0hdbjFbQ0gzXSlbTkhdQyg9TylbTkhdW0NIMl1DKFtDSDNdKShbQ0gzXSlbQ0hdMltDSDJdW0NIMl1bQ0gyXVtDSDJdMg==

> <s_epik_cmdline>
J2VwaWtfcHl0aG9uJywgJy1waCcsICc3LjAnLCAnLXRuJywgJzgnLCAnLW1hJywgJzIwMCcsICctbWV0YWxfYmluZGluZycsICctaW1hZScsICc8aW5maWxlLm1hZT4nLCAnLW9tYWUnLCAnPG91dGZpbGUubWFlPic=

> <r_lp_tautomer_probability>
1

> <r_epik_Ionization_Penalty>
2.69566e-05

> <r_epik_Ionization_Penalty_Charging>
5.95678e-06

> <r_epik_Ionization_Penalty_Neutral>
2.09998e-05

> <r_epik_State_Penalty>
-0

> <r_epik_Charging_Adjusted_Penalty>
5.95678e-06

> <i_epik_Tot_Q>
0

> <i_epik_Tot_abs_Q>
0

> <r_epik_Metal_State_Penalty>
-0

> <b_epik_Metal_Only>
0

> <s_lp_Force_Field>
OPLS_2005

> <r_lp_Energy>
55.0143

> <b_lp_Chiralities_Consistent>
1

> <s_lp_Variant>
AV-unprocessed.smi:2508-1

> <Gold.Version>
5.8.1

> <Gold.Id.Protein>
6NUR|6NUR_protein|mol2

> <Gold.PLP.Fitness>
39.9358

> <Gold.PLP.PLP>
-33.6242

> <Gold.PLP.part.hbond>
-2.8056

> <Gold.PLP.part.metal>
0.0000

> <Gold.PLP.part.buried>
-3.5247

> <Gold.PLP.part.nonpolar>
-29.7167

> <Gold.PLP.part.repulsive>
2.1913

> <Gold.PLP.ligand.clash>
0.0000

> <Gold.PLP.ligand.torsion>
0.6395

> <Gold.PLP.Chemscore.Hbond>
2.5258

> <Gold.PLP.Chemscore.CHOScore>
0.0000

> <Gold.PLP.Chemscore.Metal>
0.0000

> <Gold.Chemscore.Hbonds>
donor molecule, donor type, donor heavy atom, donor atom, acceptor molecule, acceptor atom, score
      L1  H     5    26       P1  7948  0.89
      L1  H     8    27       P1  7948  0.85
      P1  H 10785 10796       L1    21  0.78

> <Gold.PLP.Chemscore.Internal.Correction>
0.0133

> <Gold.Rescore>
     Score         DG    S(hbond)    S(metal)    S(lipo)     H(rot)  DE(clash)    DE(int)     intcor
     16.62     -18.98       2.61        0.00      70.83       1.37       1.70       0.65       ----

> <Gold.Chemscore.Fitness>
16.6202

> <Gold.Chemscore.DG>
-18.9780

> <Gold.Chemscore.ZeroCoef>
-5.4800

> <Gold.Chemscore.Hbond>
2.6135

> <Gold.Chemscore.Metal>
0.0000

> <Gold.Chemscore.Lipo>
70.8276

> <Gold.Chemscore.Internal_Hbond>
0.0000

> <Gold.Chemscore.DEClash>
1.7042

> <Gold.Chemscore.DEInternal>
0.6536

> <Gold.Chemscore.Rot>
1.3742

> <Gold.Chemscore.Internal.Correction>
   9.000000E+99

> <Gold.Chemscore.Hbonds>
donor molecule, donor type, donor heavy atom, donor atom, acceptor molecule, acceptor atom, score
      L1  H     5    26       P1  7948  0.85
      L1  H     8    27       P1  7948  0.83
      P1  H 10785 10796       L1    21  0.75

> <Gold.Chemscore.Hbond.Weighted>
-8.7291

> <Gold.Chemscore.Metal.Weighted>
-0.0000

> <Gold.Chemscore.Lipo.Weighted>
-8.2868

> <Gold.Chemscore.Internal_Hbond.Weighted>
0.0000

> <Gold.Chemscore.DEClash.Weighted>
1.7042

> <Gold.Chemscore.DEInternal.Weighted>
0.6536

> <Gold.Chemscore.Rot.Weighted>
3.5179

> <Gold.Chemscore.Internal.Correction.Weighted>
   9.000000E+99

> <Gold.Protein.RotatedTorsions>
[ 6907 6896 6895 6894 ] final   70.52 input  -60.11 | X-H torsion
[ 7974 7965 7964 7962 ] final  -73.59 input  175.53 | X-H torsion
[ 8008 7997 7996 7995 ] final  -53.22 input   59.86 | X-H torsion
[ 10167 10162 10161 10158 ] final    1.78 input  -65.29 | X-H torsion
[ 10718 10713 10712 10709 ] final  147.72 input   66.30 | X-H torsion
[ 10763 10752 10751 10750 ] final -110.44 input  -60.55 | X-H torsion
[ 11005 11000 10999 10996 ] final  -92.27 input  -57.11 | X-H torsion

> <Gold.Protein.ActiveResidues>
 VAL166  LYS551  ARG553  GLY616  TRP617  ASP618  TYR619  PRO620  LYS621  CYS622 
 ASP623  PHE694  ASN695  SER759  ASP760  ASP761  ALA762  ILE779  LEU786  VAL792 
 PHE793  MET794  SER795  GLU796  ALA797  LYS798  CYS799  TRP800  GLU811  SER814 

> <Gold.Protein.RotatedAtoms>
  152.4754  134.4857  159.9679 H   0  0  0  0  0  0  0  0  0  0  0  0  # atno 6907 bound_to 6896
  151.4874  133.3526  159.2856 H   0  0  0  0  0  0  0  0  0  0  0  0  # atno 6908 bound_to 6896
  150.8789  134.8204  159.7272 H   0  0  0  0  0  0  0  0  0  0  0  0  # atno 6909 bound_to 6896
  145.6501  140.9285  143.0989 H   0  0  0  0  0  0  0  0  0  0  0  0  # atno 7974 bound_to 7965
  154.4127  140.1205  156.5118 H   0  0  0  0  0  0  0  0  0  0  0  0  # atno 8008 bound_to 7997
  155.6791  140.3496  155.4829 H   0  0  0  0  0  0  0  0  0  0  0  0  # atno 8009 bound_to 7997
  155.9566  140.1115  157.0921 H   0  0  0  0  0  0  0  0  0  0  0  0  # atno 8010 bound_to 7997
  140.6666  143.7161  150.7840 H   0  0  0  0  0  0  0  0  0  0  0  0  # atno 10167 bound_to 10162
  157.3175  131.0898  151.1267 H   0  0  0  0  0  0  0  0  0  0  0  0  # atno 10718 bound_to 10713
  154.8248  135.4564  154.0886 H   0  0  0  0  0  0  0  0  0  0  0  0  # atno 10763 bound_to 10752
  153.2209  135.6894  153.8008 H   0  0  0  0  0  0  0  0  0  0  0  0  # atno 10764 bound_to 10752
  153.7425  135.3310  155.3283 H   0  0  0  0  0  0  0  0  0  0  0  0  # atno 10765 bound_to 10752
  141.1526  133.7810  156.9996 H   0  0  0  0  0  0  0  0  0  0  0  0  # atno 11005 bound_to 11000
  144.7126  139.8315  143.7409 LP  0  0  0  0  0  0  0  0  0  0  0  0  # atno 17320 bound_to 7965
  146.1210  139.4229  143.0228 LP  0  0  0  0  0  0  0  0  0  0  0  0  # atno 17321 bound_to 7965
  140.0840  143.4941  152.2515 LP  0  0  0  0  0  0  0  0  0  0  0  0  # atno 17342 bound_to 10162
  139.5918  144.7553  151.3383 LP  0  0  0  0  0  0  0  0  0  0  0  0  # atno 17343 bound_to 10162
  157.2565  130.6638  149.5955 LP  0  0  0  0  0  0  0  0  0  0  0  0  # atno 17370 bound_to 10713
  155.9683  130.4522  150.5765 LP  0  0  0  0  0  0  0  0  0  0  0  0  # atno 17371 bound_to 10713
  140.0948  134.9571  157.1833 LP  0  0  0  0  0  0  0  0  0  0  0  0  # atno 17394 bound_to 11000
  140.3397  134.2718  155.7214 LP  0  0  0  0  0  0  0  0  0  0  0  0  # atno 17395 bound_to 11000

$$$$
