AV-unprocessed.smi:1570|AV-procd|sdf|6314|dock8
  -GOLD-   22720 6513D 1   1.00000     0.00000
 Structure written by MMmdl.
 51 53  0  0  0  0  0  0  0  0  1 V2000
  153.8433  141.6073  162.1312 C   0  0  0  0  0  0  0  0  0  0  0  0
  154.1917  141.0321  160.7528 C   0  0  0  0  0  0  0  0  0  0  0  0
  153.0938  141.2206  159.8079 N   0  0  0  0  0  0  0  0  0  0  0  0
  152.5890  140.2919  158.9618 C   0  0  0  0  0  0  0  0  0  0  0  0
  152.9712  139.1265  158.8547 O   0  0  0  0  0  0  0  0  0  0  0  0
  151.5986  140.8713  158.2432 N   0  0  0  0  0  0  0  0  0  0  0  0
  150.7866  140.2319  157.2090 C   0  0  0  0  0  0  0  0  0  0  0  0
  151.6431  139.7659  156.0149 C   0  0  2  0  0  0  0  0  0  0  0  0
  152.2235  140.9087  155.4185 O   0  0  0  0  0  0  0  0  0  0  0  0
  150.7775  139.0804  154.9381 C   0  0  0  0  0  0  0  0  0  0  0  0
  149.3963  139.5566  154.8412 N   0  0  0  0  0  0  0  0  0  0  0  0
  148.7127  138.9369  153.7129 C   0  0  0  0  0  0  0  0  0  0  0  0
  147.2426  139.3811  153.6135 C   0  0  2  0  0  0  0  0  0  0  0  0
  146.5465  138.7969  152.3797 C   0  0  0  0  0  0  0  0  0  0  0  0
  147.1836  140.8033  153.5234 O   0  0  0  0  0  0  0  0  0  0  0  0
  147.8549  141.5083  154.5688 C   0  0  1  0  0  0  0  0  0  0  0  0
  147.0671  141.4566  155.8889 C   0  0  0  0  0  0  0  0  0  0  0  0
  149.3076  141.0098  154.7060 C   0  0  0  0  0  0  0  0  0  0  0  0
  151.4797  142.2152  158.6260 C   0  0  0  0  0  0  0  0  0  0  0  0
  150.6272  143.2361  158.1706 C   0  0  0  0  0  0  0  0  0  0  0  0
  150.7680  144.5107  158.7676 C   0  0  0  0  0  0  0  0  0  0  0  0
  151.7349  144.7359  159.7815 C   0  0  0  0  0  0  0  0  0  0  0  0
  152.5825  143.6915  160.2193 C   0  0  0  0  0  0  0  0  0  0  0  0
  152.4205  142.4346  159.6106 C   0  0  0  0  0  0  0  0  0  0  0  0
  154.6661  141.4616  162.8313 H   0  0  0  0  0  0  0  0  0  0  0  0
  152.9609  141.1224  162.5497 H   0  0  0  0  0  0  0  0  0  0  0  0
  153.6424  142.6773  162.0728 H   0  0  0  0  0  0  0  0  0  0  0  0
  155.0957  141.5084  160.3706 H   0  0  0  0  0  0  0  0  0  0  0  0
  154.4233  139.9703  160.8380 H   0  0  0  0  0  0  0  0  0  0  0  0
  150.2971  139.3695  157.6647 H   0  0  0  0  0  0  0  0  0  0  0  0
  149.9770  140.8866  156.8842 H   0  0  0  0  0  0  0  0  0  0  0  0
  152.4282  139.0969  156.3648 H   0  0  0  0  0  0  0  0  0  0  0  0
  151.9611  141.6678  155.9171 H   0  0  0  0  0  0  0  0  0  0  0  0
  151.2581  139.1943  153.9651 H   0  0  0  0  0  0  0  0  0  0  0  0
  150.7767  138.0081  155.1405 H   0  0  0  0  0  0  0  0  0  0  0  0
  149.2325  139.1837  152.7857 H   0  0  0  0  0  0  0  0  0  0  0  0
  148.7505  137.8513  153.8113 H   0  0  0  0  0  0  0  0  0  0  0  0
  146.7018  139.0510  154.5009 H   0  0  0  0  0  0  0  0  0  0  0  0
  146.5584  137.7070  152.4015 H   0  0  0  0  0  0  0  0  0  0  0  0
  147.0371  139.1193  151.4610 H   0  0  0  0  0  0  0  0  0  0  0  0
  145.5054  139.1168  152.3315 H   0  0  0  0  0  0  0  0  0  0  0  0
  147.8883  142.5534  154.2597 H   0  0  0  0  0  0  0  0  0  0  0  0
  147.5335  142.0909  156.6431 H   0  0  0  0  0  0  0  0  0  0  0  0
  147.0182  140.4479  156.2984 H   0  0  0  0  0  0  0  0  0  0  0  0
  146.0458  141.8100  155.7460 H   0  0  0  0  0  0  0  0  0  0  0  0
  149.7670  141.5071  155.5588 H   0  0  0  0  0  0  0  0  0  0  0  0
  149.8716  141.3255  153.8267 H   0  0  0  0  0  0  0  0  0  0  0  0
  149.8969  143.0615  157.3947 H   0  0  0  0  0  0  0  0  0  0  0  0
  150.1327  145.3228  158.4458 H   0  0  0  0  0  0  0  0  0  0  0  0
  151.8266  145.7175  160.2226 H   0  0  0  0  0  0  0  0  0  0  0  0
  153.3234  143.8582  160.9870 H   0  0  0  0  0  0  0  0  0  0  0  0
  1  2  1  0  0  0  0
  1 25  1  0  0  0  0
  1 26  1  0  0  0  0
  1 27  1  0  0  0  0
  2  3  1  0  0  0  0
  2 28  1  0  0  0  0
  2 29  1  0  0  0  0
  3 24  1  0  0  0  0
  3  4  1  0  0  0  0
  4  5  2  0  0  0  0
  4  6  1  0  0  0  0
  6  7  1  0  0  0  0
  6 19  1  0  0  0  0
  7  8  1  0  0  0  0
  7 30  1  0  0  0  0
  7 31  1  0  0  0  0
  8  9  1  0  0  0  0
  8 10  1  0  0  0  0
  8 32  1  0  0  0  0
  9 33  1  0  0  0  0
 10 11  1  0  0  0  0
 10 34  1  0  0  0  0
 10 35  1  0  0  0  0
 11 18  1  0  0  0  0
 11 12  1  0  0  0  0
 12 13  1  0  0  0  0
 12 36  1  0  0  0  0
 12 37  1  0  0  0  0
 13 14  1  0  0  0  0
 13 15  1  0  0  0  0
 13 38  1  0  0  0  0
 14 39  1  0  0  0  0
 14 40  1  0  0  0  0
 14 41  1  0  0  0  0
 15 16  1  0  0  0  0
 16 17  1  0  0  0  0
 16 18  1  0  0  0  0
 16 42  1  0  0  0  0
 17 43  1  0  0  0  0
 17 44  1  0  0  0  0
 17 45  1  0  0  0  0
 18 46  1  0  0  0  0
 18 47  1  0  0  0  0
 19 24  2  0  0  0  0
 19 20  1  0  0  0  0
 20 21  2  0  0  0  0
 20 48  1  0  0  0  0
 21 22  1  0  0  0  0
 21 49  1  0  0  0  0
 22 23  2  0  0  0  0
 22 50  1  0  0  0  0
 23 24  1  0  0  0  0
 23 51  1  0  0  0  0
M  END
> <s_m_source_file>
AV-unprocessed.smi

> <i_m_source_file_index>
1570

> <i_lp_mmshare_version>
43012

> <i_f3d_flags>
0

> <s_epik_input>
W2NIXTFbY0hdW2NIXVtjSF1jKGMxMiluKFtDSDJdW0NIM10pYyg9TyluMltDSDJdW0NASF0oW09IXSlbQ0gyXU4zW0NIMl1bQ0BASF0oW0NIM10pT1tDQEBIXShbQ0gzXSlbQ0gyXTM=

> <s_epik_cmdline>
J2VwaWtfcHl0aG9uJywgJy1waCcsICc3LjAnLCAnLXRuJywgJzgnLCAnLW1hJywgJzIwMCcsICctbWV0YWxfYmluZGluZycsICctaW1hZScsICc8aW5maWxlLm1hZT4nLCAnLW9tYWUnLCAnPG91dGZpbGUubWFlPic=

> <r_epik_Ionization_Penalty>
0.214359

> <r_epik_Ionization_Penalty_Charging>
2.30976e-09

> <r_epik_Ionization_Penalty_Neutral>
0.214359

> <r_epik_State_Penalty>
0.204533

> <r_epik_Charging_Adjusted_Penalty>
0.204533

> <i_epik_Tot_Q>
0

> <i_epik_Tot_abs_Q>
0

> <r_epik_Metal_State_Penalty>
0.204533

> <b_epik_Metal_Only>
0

> <s_lp_Force_Field>
OPLS_2005

> <r_lp_Energy>
63.7902

> <b_lp_Chiralities_Consistent>
1

> <s_lp_Variant>
AV-unprocessed.smi:1570-3

> <Gold.Version>
5.8.1

> <Gold.Id.Protein>
6NUR|6NUR_protein|mol2

> <Gold.PLP.Fitness>
54.4200

> <Gold.PLP.PLP>
-52.1158

> <Gold.PLP.part.hbond>
-1.8859

> <Gold.PLP.part.metal>
0.0000

> <Gold.PLP.part.buried>
0.1816

> <Gold.PLP.part.nonpolar>
-50.6900

> <Gold.PLP.part.repulsive>
0.9128

> <Gold.PLP.ligand.clash>
0.0000

> <Gold.PLP.ligand.torsion>
0.5347

> <Gold.PLP.Chemscore.Hbond>
1.0961

> <Gold.PLP.Chemscore.CHOScore>
0.0000

> <Gold.PLP.Chemscore.Metal>
0.0000

> <Gold.Chemscore.Hbonds>
donor molecule, donor type, donor heavy atom, donor atom, acceptor molecule, acceptor atom, score
      P1  H  7989  7998       L1     9  0.40
      P1  H  7997  8008       L1     9  0.09

> <Gold.PLP.Chemscore.Internal.Correction>
0.0852

> <Gold.Rescore>
     Score         DG    S(hbond)    S(metal)    S(lipo)     H(rot)  DE(clash)    DE(int)     intcor
     17.14     -19.04       0.75        0.00     139.60       2.06       1.39       0.50       ----

> <Gold.Chemscore.Fitness>
17.1420

> <Gold.Chemscore.DG>
-19.0397

> <Gold.Chemscore.ZeroCoef>
-5.4800

> <Gold.Chemscore.Hbond>
0.7464

> <Gold.Chemscore.Metal>
0.0000

> <Gold.Chemscore.Lipo>
139.6030

> <Gold.Chemscore.Internal_Hbond>
0.0000

> <Gold.Chemscore.DEClash>
1.3947

> <Gold.Chemscore.DEInternal>
0.5030

> <Gold.Chemscore.Rot>
2.0574

> <Gold.Chemscore.Internal.Correction>
   9.000000E+99

> <Gold.Chemscore.Hbonds>
donor molecule, donor type, donor heavy atom, donor atom, acceptor molecule, acceptor atom, score
      P1  H  7989  7998       L1     9  0.22

> <Gold.Chemscore.Hbond.Weighted>
-2.4930

> <Gold.Chemscore.Metal.Weighted>
-0.0000

> <Gold.Chemscore.Lipo.Weighted>
-16.3336

> <Gold.Chemscore.Internal_Hbond.Weighted>
0.0000

> <Gold.Chemscore.DEClash.Weighted>
1.3947

> <Gold.Chemscore.DEInternal.Weighted>
0.5030

> <Gold.Chemscore.Rot.Weighted>
5.2669

> <Gold.Chemscore.Internal.Correction.Weighted>
   9.000000E+99

> <Gold.Protein.RotatedTorsions>
[ 6907 6896 6895 6894 ] final -178.52 input  -60.11 | X-H torsion
[ 7974 7965 7964 7962 ] final  -63.33 input  175.53 | X-H torsion
[ 8008 7997 7996 7995 ] final  -27.05 input   59.86 | X-H torsion
[ 10167 10162 10161 10158 ] final  167.41 input  -65.29 | X-H torsion
[ 10718 10713 10712 10709 ] final -152.10 input   66.30 | X-H torsion
[ 10763 10752 10751 10750 ] final    5.20 input  -60.55 | X-H torsion
[ 11005 11000 10999 10996 ] final  -79.80 input  -57.11 | X-H torsion

> <Gold.Protein.ActiveResidues>
 VAL166  LYS551  ARG553  GLY616  TRP617  ASP618  TYR619  PRO620  LYS621  CYS622 
 ASP623  PHE694  ASN695  SER759  ASP760  ASP761  ALA762  ILE779  LEU786  VAL792 
 PHE793  MET794  SER795  GLU796  ALA797  LYS798  CYS799  TRP800  GLU811  SER814 

> <Gold.Protein.RotatedAtoms>
  151.6385  133.3327  159.3124 H   0  0  0  0  0  0  0  0  0  0  0  0  # atno 6907 bound_to 6896
  150.8020  134.7123  159.6620 H   0  0  0  0  0  0  0  0  0  0  0  0  # atno 6908 bound_to 6896
  152.4113  134.6124  160.0080 H   0  0  0  0  0  0  0  0  0  0  0  0  # atno 6909 bound_to 6896
  145.7804  140.8765  143.0333 H   0  0  0  0  0  0  0  0  0  0  0  0  # atno 7974 bound_to 7965
  154.4396  140.1883  156.0871 H   0  0  0  0  0  0  0  0  0  0  0  0  # atno 8008 bound_to 7997
  156.0394  140.3321  155.7201 H   0  0  0  0  0  0  0  0  0  0  0  0  # atno 8009 bound_to 7997
  155.5722  140.0613  157.2794 H   0  0  0  0  0  0  0  0  0  0  0  0  # atno 8010 bound_to 7997
  139.4945  144.3925  151.9502 H   0  0  0  0  0  0  0  0  0  0  0  0  # atno 10167 bound_to 10162
  156.4680  130.8245  151.2475 H   0  0  0  0  0  0  0  0  0  0  0  0  # atno 10718 bound_to 10713
  153.2622  135.6924  153.7566 H   0  0  0  0  0  0  0  0  0  0  0  0  # atno 10763 bound_to 10752
  153.6621  135.3358  155.3131 H   0  0  0  0  0  0  0  0  0  0  0  0  # atno 10764 bound_to 10752
  154.8434  135.4479  154.1617 H   0  0  0  0  0  0  0  0  0  0  0  0  # atno 10765 bound_to 10752
  141.1667  133.7122  156.8177 H   0  0  0  0  0  0  0  0  0  0  0  0  # atno 11005 bound_to 11000
  144.6797  139.9981  143.7484 LP  0  0  0  0  0  0  0  0  0  0  0  0  # atno 17320 bound_to 7965
  146.0079  139.3145  143.0888 LP  0  0  0  0  0  0  0  0  0  0  0  0  # atno 17321 bound_to 7965
  140.3362  144.3257  150.5976 LP  0  0  0  0  0  0  0  0  0  0  0  0  # atno 17342 bound_to 10162
  140.5604  143.2193  151.7775 LP  0  0  0  0  0  0  0  0  0  0  0  0  # atno 17343 bound_to 10162
  157.7493  131.0085  150.3232 LP  0  0  0  0  0  0  0  0  0  0  0  0  # atno 17370 bound_to 10713
  156.3647  130.3853  149.7223 LP  0  0  0  0  0  0  0  0  0  0  0  0  # atno 17371 bound_to 10713
  140.2142  134.8805  157.3307 LP  0  0  0  0  0  0  0  0  0  0  0  0  # atno 17394 bound_to 11000
  140.2055  134.4202  155.7640 LP  0  0  0  0  0  0  0  0  0  0  0  0  # atno 17395 bound_to 11000

$$$$
