AV-unprocessed.smi:3263|AV-procd|sdf|12493|dock6
  -GOLD-   2272018393D 1   1.00000     0.00000
 Structure written by MMmdl.
 42 44  0  0  0  0  0  0  0  0  2 V2000
  151.6656  138.9676  158.7364 O   0  0  0  0  0  0  0  0  0  0  0  0
  151.8803  139.8169  157.8711 C   0  0  0  0  0  0  0  0  0  0  0  0
  152.5510  141.1446  158.2384 C   0  0  0  0  0  0  0  0  0  0  0  0
  151.6559  142.0454  159.1190 C   0  0  1  0  0  0  0  0  0  0  0  0
  152.4050  142.8904  160.1742 C   0  0  0  0  0  0  0  0  0  0  0  0
  151.8377  144.3043  159.9461 C   0  0  1  0  0  0  0  0  0  0  0  0
  152.4349  144.8824  158.6504 C   0  0  0  0  0  0  0  0  0  0  0  0
  151.7117  144.0757  157.5566 C   0  0  0  0  0  0  0  0  0  0  0  0
  150.8226  143.1124  158.3703 C   0  0  2  0  0  0  0  0  0  0  0  0
  150.4004  144.0134  159.5273 C   0  0  0  0  0  0  0  0  0  0  0  0
  151.5559  139.6464  156.5800 N   0  0  0  0  0  0  0  0  0  0  0  0
  150.9344  138.4486  156.0284 C   0  0  0  0  0  0  0  0  0  0  0  0
  150.7121  138.5759  154.5117 C   0  0  0  0  0  0  0  0  0  0  0  0
  149.4410  139.3323  154.1794 C   0  0  0  0  0  0  0  0  0  0  0  0
  149.2476  140.6807  154.5501 C   0  0  0  0  0  0  0  0  0  0  0  0
  148.0370  141.3210  154.2119 C   0  0  0  0  0  0  0  0  0  0  0  0
  147.0465  140.6004  153.5126 C   0  0  0  0  0  0  0  0  0  0  0  0
  147.2920  139.2554  153.1688 C   0  0  0  0  0  0  0  0  0  0  0  0
  148.4646  138.6772  153.5103 N   0  3  0  0  0  0  0  0  0  0  0  0
  153.4967  140.9364  158.7393 H   0  0  0  0  0  0  0  0  0  0  0  0
  152.7972  141.6663  157.3130 H   0  0  0  0  0  0  0  0  0  0  0  0
  150.9446  141.4040  159.6433 H   0  0  0  0  0  0  0  0  0  0  0  0
  152.1779  142.5333  161.1796 H   0  0  0  0  0  0  0  0  0  0  0  0
  153.4888  142.8656  160.0519 H   0  0  0  0  0  0  0  0  0  0  0  0
  151.9443  144.9632  160.8081 H   0  0  0  0  0  0  0  0  0  0  0  0
  152.2075  145.9449  158.5555 H   0  0  0  0  0  0  0  0  0  0  0  0
  153.5184  144.7672  158.6053 H   0  0  0  0  0  0  0  0  0  0  0  0
  151.0930  144.7386  156.9502 H   0  0  0  0  0  0  0  0  0  0  0  0
  152.3976  143.5702  156.8785 H   0  0  0  0  0  0  0  0  0  0  0  0
  149.9954  142.6935  157.7964 H   0  0  0  0  0  0  0  0  0  0  0  0
  149.8222  143.4964  160.2954 H   0  0  0  0  0  0  0  0  0  0  0  0
  149.8543  144.9032  159.2087 H   0  0  0  0  0  0  0  0  0  0  0  0
  151.7628  140.3953  155.9345 H   0  0  0  0  0  0  0  0  0  0  0  0
  151.5483  137.5756  156.2560 H   0  0  0  0  0  0  0  0  0  0  0  0
  149.9796  138.2967  156.5327 H   0  0  0  0  0  0  0  0  0  0  0  0
  151.5623  139.0812  154.0513 H   0  0  0  0  0  0  0  0  0  0  0  0
  150.6576  137.5882  154.0511 H   0  0  0  0  0  0  0  0  0  0  0  0
  150.0146  141.2190  155.0879 H   0  0  0  0  0  0  0  0  0  0  0  0
  147.8695  142.3523  154.4862 H   0  0  0  0  0  0  0  0  0  0  0  0
  146.1127  141.0727  153.2444 H   0  0  0  0  0  0  0  0  0  0  0  0
  146.5916  138.6292  152.6357 H   0  0  0  0  0  0  0  0  0  0  0  0
  148.6214  137.7023  153.2519 H   0  0  0  0  0  0  0  0  0  0  0  0
  1  2  2  0  0  0  0
  2  3  1  0  0  0  0
  2 11  1  0  0  0  0
  3  4  1  0  0  0  0
  3 20  1  0  0  0  0
  3 21  1  0  0  0  0
  4  9  1  0  0  0  0
  4  5  1  0  0  0  0
  4 22  1  0  0  0  0
  5  6  1  0  0  0  0
  5 23  1  0  0  0  0
  5 24  1  0  0  0  0
  6 10  1  0  0  0  0
  6  7  1  0  0  0  0
  6 25  1  0  0  0  0
  7  8  1  0  0  0  0
  7 26  1  0  0  0  0
  7 27  1  0  0  0  0
  8  9  1  0  0  0  0
  8 28  1  0  0  0  0
  8 29  1  0  0  0  0
  9 10  1  0  0  0  0
  9 30  1  0  0  0  0
 10 31  1  0  0  0  0
 10 32  1  0  0  0  0
 11 12  1  0  0  0  0
 11 33  1  0  0  0  0
 12 13  1  0  0  0  0
 12 34  1  0  0  0  0
 12 35  1  0  0  0  0
 13 14  1  0  0  0  0
 13 36  1  0  0  0  0
 13 37  1  0  0  0  0
 14 19  1  0  0  0  0
 14 15  2  0  0  0  0
 15 16  1  0  0  0  0
 15 38  1  0  0  0  0
 16 17  2  0  0  0  0
 16 39  1  0  0  0  0
 17 18  1  0  0  0  0
 17 40  1  0  0  0  0
 18 19  2  0  0  0  0
 18 41  1  0  0  0  0
 19 42  1  0  0  0  0
M  CHG  1  19   1
M  END
> <s_m_source_file>
AV-unprocessed.smi

> <i_m_source_file_index>
3263

> <i_lp_mmshare_version>
43012

> <i_f3d_flags>
0

> <s_epik_input>
W0NIMl0xW0NIMl1bQ0BASF0oW0NIMl0yKVtDQEBIXShbQ0gyXVtDQEhdMTIpW0NIMl1DKD1PKVtOSF1bQ0gyXVtDSDJdYzNbY0hdW2NIXVtjSF1bY0hdbjM=

> <s_epik_cmdline>
J2VwaWtfcHl0aG9uJywgJy1waCcsICc3LjAnLCAnLXRuJywgJzgnLCAnLW1hJywgJzIwMCcsICctbWV0YWxfYmluZGluZycsICctaW1hZScsICc8aW5maWxlLm1hZT4nLCAnLW9tYWUnLCAnPG91dGZpbGUubWFlPic=

> <r_epik_Ionization_Penalty>
1.83579

> <r_epik_Ionization_Penalty_Charging>
1.83579

> <r_epik_Ionization_Penalty_Neutral>
2.47288e-08

> <r_epik_State_Penalty>
1.95213

> <r_epik_Charging_Adjusted_Penalty>
3.78793

> <i_epik_Tot_Q>
1

> <i_epik_Tot_abs_Q>
1

> <r_epik_Metal_State_Penalty>
1.97847

> <b_epik_Metal_Only>
0

> <s_lp_Force_Field>
OPLS_2005

> <r_lp_Energy>
51.7701

> <b_lp_Chiralities_Consistent>
1

> <s_lp_Variant>
AV-unprocessed.smi:3263-8

> <Gold.Version>
5.8.1

> <Gold.Id.Protein>
6NUR|6NUR_protein|mol2

> <Gold.PLP.Fitness>
48.7428

> <Gold.PLP.PLP>
-44.0331

> <Gold.PLP.part.hbond>
-2.0000

> <Gold.PLP.part.metal>
0.0000

> <Gold.PLP.part.buried>
-3.6118

> <Gold.PLP.part.nonpolar>
-38.4192

> <Gold.PLP.part.repulsive>
0.1527

> <Gold.PLP.ligand.clash>
0.0000

> <Gold.PLP.ligand.torsion>
0.6631

> <Gold.PLP.Chemscore.Hbond>
2.0000

> <Gold.PLP.Chemscore.CHOScore>
0.0000

> <Gold.PLP.Chemscore.Metal>
0.0000

> <Gold.Chemscore.Hbonds>
donor molecule, donor type, donor heavy atom, donor atom, acceptor molecule, acceptor atom, score
      L1  H    19    42       P1  7948  1.98

> <Gold.PLP.Chemscore.Internal.Correction>
0.0358

> <Gold.Rescore>
     Score         DG    S(hbond)    S(metal)    S(lipo)     H(rot)  DE(clash)    DE(int)     intcor
     19.56     -20.35       0.98        0.00     133.36       1.56       0.14       0.65       ----

> <Gold.Chemscore.Fitness>
19.5626

> <Gold.Chemscore.DG>
-20.3538

> <Gold.Chemscore.ZeroCoef>
-5.4800

> <Gold.Chemscore.Hbond>
0.9804

> <Gold.Chemscore.Metal>
0.0000

> <Gold.Chemscore.Lipo>
133.3587

> <Gold.Chemscore.Internal_Hbond>
0.0000

> <Gold.Chemscore.DEClash>
0.1434

> <Gold.Chemscore.DEInternal>
0.6478

> <Gold.Chemscore.Rot>
1.5640

> <Gold.Chemscore.Internal.Correction>
   9.000000E+99

> <Gold.Chemscore.Hbonds>
donor molecule, donor type, donor heavy atom, donor atom, acceptor molecule, acceptor atom, score
      L1  H    19    42       P1  7948  0.88

> <Gold.Chemscore.Hbond.Weighted>
-3.2746

> <Gold.Chemscore.Metal.Weighted>
-0.0000

> <Gold.Chemscore.Lipo.Weighted>
-15.6030

> <Gold.Chemscore.Internal_Hbond.Weighted>
0.0000

> <Gold.Chemscore.DEClash.Weighted>
0.1434

> <Gold.Chemscore.DEInternal.Weighted>
0.6478

> <Gold.Chemscore.Rot.Weighted>
4.0038

> <Gold.Chemscore.Internal.Correction.Weighted>
   9.000000E+99

> <Gold.Protein.RotatedTorsions>
[ 6907 6896 6895 6894 ] final -103.90 input  -60.11 | X-H torsion
[ 7974 7965 7964 7962 ] final  136.91 input  175.53 | X-H torsion
[ 8008 7997 7996 7995 ] final   97.23 input   59.86 | X-H torsion
[ 10167 10162 10161 10158 ] final -177.39 input  -65.29 | X-H torsion
[ 10718 10713 10712 10709 ] final   16.25 input   66.30 | X-H torsion
[ 10763 10752 10751 10750 ] final  111.08 input  -60.55 | X-H torsion
[ 11005 11000 10999 10996 ] final  168.08 input  -57.11 | X-H torsion

> <Gold.Protein.ActiveResidues>
 VAL166  LYS551  ARG553  GLY616  TRP617  ASP618  TYR619  PRO620  LYS621  CYS622 
 ASP623  PHE694  ASN695  SER759  ASP760  ASP761  ALA762  ILE779  LEU786  VAL792 
 PHE793  MET794  SER795  GLU796  ALA797  LYS798  CYS799  TRP800  GLU811  SER814 

> <Gold.Protein.RotatedAtoms>
  150.7261  134.0359  159.3749 H   0  0  0  0  0  0  0  0  0  0  0  0  # atno 6907 bound_to 6896
  151.8331  135.0613  160.0448 H   0  0  0  0  0  0  0  0  0  0  0  0  # atno 6908 bound_to 6896
  152.2919  133.5533  159.5599 H   0  0  0  0  0  0  0  0  0  0  0  0  # atno 6909 bound_to 6896
  144.9519  139.4808  143.5521 H   0  0  0  0  0  0  0  0  0  0  0  0  # atno 7974 bound_to 7965
  156.0879  140.3261  155.7778 H   0  0  0  0  0  0  0  0  0  0  0  0  # atno 8008 bound_to 7997
  155.5045  140.0572  157.2951 H   0  0  0  0  0  0  0  0  0  0  0  0  # atno 8009 bound_to 7997
  154.4620  140.1971  156.0235 H   0  0  0  0  0  0  0  0  0  0  0  0  # atno 8010 bound_to 7997
  139.5482  144.2178  152.1029 H   0  0  0  0  0  0  0  0  0  0  0  0  # atno 10167 bound_to 10162
  157.0652  130.6325  149.5794 H   0  0  0  0  0  0  0  0  0  0  0  0  # atno 10718 bound_to 10713
  153.4581  135.3728  155.2323 H   0  0  0  0  0  0  0  0  0  0  0  0  # atno 10763 bound_to 10752
  154.8757  135.3902  154.3957 H   0  0  0  0  0  0  0  0  0  0  0  0  # atno 10764 bound_to 10752
  153.4526  135.7086  153.6163 H   0  0  0  0  0  0  0  0  0  0  0  0  # atno 10765 bound_to 10752
  140.2835  134.7731  157.3778 H   0  0  0  0  0  0  0  0  0  0  0  0  # atno 11005 bound_to 11000
  146.3324  139.8611  142.8856 LP  0  0  0  0  0  0  0  0  0  0  0  0  # atno 17320 bound_to 7965
  145.2831  141.0144  143.3706 LP  0  0  0  0  0  0  0  0  0  0  0  0  # atno 17321 bound_to 7965
  140.1668  144.4973  150.6601 LP  0  0  0  0  0  0  0  0  0  0  0  0  # atno 17342 bound_to 10162
  140.6737  143.2296  151.5560 LP  0  0  0  0  0  0  0  0  0  0  0  0  # atno 17343 bound_to 10162
  155.9966  130.5036  150.7504 LP  0  0  0  0  0  0  0  0  0  0  0  0  # atno 17370 bound_to 10713
  157.4922  131.0912  151.0413 LP  0  0  0  0  0  0  0  0  0  0  0  0  # atno 17371 bound_to 10713
  140.1261  134.5156  155.8143 LP  0  0  0  0  0  0  0  0  0  0  0  0  # atno 17394 bound_to 11000
  141.2159  133.6773  156.6955 LP  0  0  0  0  0  0  0  0  0  0  0  0  # atno 17395 bound_to 11000

$$$$
