AV-unprocessed.smi:3044|AV-procd|sdf|11607|dock1
  -GOLD-   2272016583D 1   1.00000     0.00000
 Structure written by MMmdl.
 41 42  0  0  0  0  0  0  0  0  1 V2000
  150.7875  138.2468  153.7902 C   0  0  0  0  0  0  0  0  0  0  0  0
  149.7073  139.2897  154.0206 C   0  0  0  0  0  0  0  0  0  0  0  0
  150.1520  140.5460  154.2478 N   0  0  0  0  0  0  0  0  0  0  0  0
  149.2401  141.5172  154.4611 C   0  0  0  0  0  0  0  0  0  0  0  0
  147.8522  141.2841  154.4658 C   0  0  0  0  0  0  0  0  0  0  0  0
  147.3905  139.9758  154.2286 C   0  0  0  0  0  0  0  0  0  0  0  0
  148.3331  138.9474  153.9862 C   0  0  0  0  0  0  0  0  0  0  0  0
  147.9659  137.5928  153.7565 N   0  0  0  0  0  0  0  0  0  0  0  0
  146.9328  136.9023  154.2739 C   0  0  0  0  0  0  0  0  0  0  0  0
  146.1239  137.3568  155.0820 O   0  0  0  0  0  0  0  0  0  0  0  0
  146.7819  135.4557  153.8002 C   0  0  0  0  0  0  0  0  0  0  0  0
  145.6033  135.3342  153.0123 O   0  0  0  0  0  0  0  0  0  0  0  0
  145.6594  134.3201  152.0187 C   0  0  2  0  0  0  0  0  0  0  0  0
  144.2689  134.2421  151.3666 C   0  0  0  0  0  0  0  0  0  0  0  0
  144.2018  133.1114  150.3293 C   0  0  0  0  0  0  0  0  0  0  0  0
  144.5838  131.7615  150.9565 C   0  0  0  0  0  0  0  0  0  0  0  0
  145.9751  131.8180  151.6168 C   0  0  2  0  0  0  0  0  0  0  0  0
  146.3489  130.4703  152.2505 C   0  0  0  0  0  0  0  0  0  0  0  0
  146.0400  132.9632  152.6469 C   0  0  0  0  0  0  0  0  0  0  0  0
  150.6713  137.7921  152.8061 H   0  0  0  0  0  0  0  0  0  0  0  0
  150.7234  137.4605  154.5426 H   0  0  0  0  0  0  0  0  0  0  0  0
  151.7858  138.6830  153.8436 H   0  0  0  0  0  0  0  0  0  0  0  0
  149.6286  142.5090  154.6396 H   0  0  0  0  0  0  0  0  0  0  0  0
  147.1574  142.0897  154.6521 H   0  0  0  0  0  0  0  0  0  0  0  0
  146.3290  139.7831  154.2509 H   0  0  0  0  0  0  0  0  0  0  0  0
  148.4937  137.1146  153.0405 H   0  0  0  0  0  0  0  0  0  0  0  0
  147.6605  135.1837  153.2137 H   0  0  0  0  0  0  0  0  0  0  0  0
  146.7416  134.7975  154.6684 H   0  0  0  0  0  0  0  0  0  0  0  0
  146.3849  134.5901  151.2487 H   0  0  0  0  0  0  0  0  0  0  0  0
  143.5112  134.0764  152.1338 H   0  0  0  0  0  0  0  0  0  0  0  0
  144.0265  135.1939  150.8930 H   0  0  0  0  0  0  0  0  0  0  0  0
  143.1983  133.0537  149.9067 H   0  0  0  0  0  0  0  0  0  0  0  0
  144.8744  133.3340  149.4999 H   0  0  0  0  0  0  0  0  0  0  0  0
  143.8343  131.4812  151.6980 H   0  0  0  0  0  0  0  0  0  0  0  0
  144.5649  130.9852  150.1910 H   0  0  0  0  0  0  0  0  0  0  0  0
  146.7080  132.0278  150.8364 H   0  0  0  0  0  0  0  0  0  0  0  0
  145.6557  130.2012  153.0482 H   0  0  0  0  0  0  0  0  0  0  0  0
  147.3517  130.5015  152.6777 H   0  0  0  0  0  0  0  0  0  0  0  0
  146.3316  129.6698  151.5105 H   0  0  0  0  0  0  0  0  0  0  0  0
  147.0434  133.0107  153.0697 H   0  0  0  0  0  0  0  0  0  0  0  0
  145.3668  132.7475  153.4777 H   0  0  0  0  0  0  0  0  0  0  0  0
  1  2  1  0  0  0  0
  1 20  1  0  0  0  0
  1 21  1  0  0  0  0
  1 22  1  0  0  0  0
  2  7  1  0  0  0  0
  2  3  2  0  0  0  0
  3  4  1  0  0  0  0
  4  5  2  0  0  0  0
  4 23  1  0  0  0  0
  5  6  1  0  0  0  0
  5 24  1  0  0  0  0
  6  7  2  0  0  0  0
  6 25  1  0  0  0  0
  7  8  1  0  0  0  0
  8  9  1  0  0  0  0
  8 26  1  0  0  0  0
  9 10  2  0  0  0  0
  9 11  1  0  0  0  0
 11 12  1  0  0  0  0
 11 27  1  0  0  0  0
 11 28  1  0  0  0  0
 12 13  1  0  0  0  0
 13 19  1  0  0  0  0
 13 14  1  0  0  0  0
 13 29  1  0  0  0  0
 14 15  1  0  0  0  0
 14 30  1  0  0  0  0
 14 31  1  0  0  0  0
 15 16  1  0  0  0  0
 15 32  1  0  0  0  0
 15 33  1  0  0  0  0
 16 17  1  0  0  0  0
 16 34  1  0  0  0  0
 16 35  1  0  0  0  0
 17 18  1  0  0  0  0
 17 19  1  0  0  0  0
 17 36  1  0  0  0  0
 18 37  1  0  0  0  0
 18 38  1  0  0  0  0
 18 39  1  0  0  0  0
 19 40  1  0  0  0  0
 19 41  1  0  0  0  0
M  END
> <s_m_source_file>
AV-unprocessed.smi

> <i_m_source_file_index>
3044

> <i_lp_mmshare_version>
43012

> <i_f3d_flags>
0

> <s_epik_input>
W0NIM11jMW5bY0hdW2NIXVtjSF1jMVtOSF1DKD1PKVtDSDJdT1tDQEBIXTJbQ0gyXVtDSDJdW0NIMl1bQ0BASF0oW0NIM10pW0NIMl0y

> <s_epik_cmdline>
J2VwaWtfcHl0aG9uJywgJy1waCcsICc3LjAnLCAnLXRuJywgJzgnLCAnLW1hJywgJzIwMCcsICctbWV0YWxfYmluZGluZycsICctaW1hZScsICc8aW5maWxlLm1hZT4nLCAnLW9tYWUnLCAnPG91dGZpbGUubWFlPic=

> <r_epik_Ionization_Penalty>
0.0077122

> <r_epik_Ionization_Penalty_Charging>
0

> <r_epik_Ionization_Penalty_Neutral>
0.0077122

> <r_epik_State_Penalty>
0.00577497

> <r_epik_Charging_Adjusted_Penalty>
0.00577497

> <i_epik_Tot_Q>
0

> <i_epik_Tot_abs_Q>
0

> <r_epik_Metal_State_Penalty>
-0

> <b_epik_Metal_Only>
0

> <s_lp_Force_Field>
OPLS_2005

> <r_lp_Energy>
17.0629

> <b_lp_Chiralities_Consistent>
1

> <s_lp_Variant>
AV-unprocessed.smi:3044-3

> <Gold.Version>
5.8.1

> <Gold.Id.Protein>
6NUR|6NUR_protein|mol2

> <Gold.PLP.Fitness>
40.9654

> <Gold.PLP.PLP>
-32.9866

> <Gold.PLP.part.hbond>
-2.0000

> <Gold.PLP.part.metal>
0.0000

> <Gold.PLP.part.buried>
-3.9540

> <Gold.PLP.part.nonpolar>
-27.4639

> <Gold.PLP.part.repulsive>
0.2552

> <Gold.PLP.ligand.clash>
0.0000

> <Gold.PLP.ligand.torsion>
0.4940

> <Gold.PLP.Chemscore.Hbond>
1.9760

> <Gold.PLP.Chemscore.CHOScore>
1.0000

> <Gold.PLP.Chemscore.Metal>
0.0000

> <Gold.Chemscore.Hbonds>
donor molecule, donor type, donor heavy atom, donor atom, acceptor molecule, acceptor atom, score
      L1  H     8    26       P1  7948  1.00
      P1  H  7989  7998       L1     3  0.82
      L1  C     4    23       P1  8028  1.00

> <Gold.PLP.Chemscore.Internal.Correction>
0.0387

> <Gold.Rescore>
     Score         DG    S(hbond)    S(metal)    S(lipo)     H(rot)  DE(clash)    DE(int)     intcor
     16.39     -18.25       1.80        0.00      86.43       1.31       0.24       1.62       ----

> <Gold.Chemscore.Fitness>
16.3942

> <Gold.Chemscore.DG>
-18.2494

> <Gold.Chemscore.ZeroCoef>
-5.4800

> <Gold.Chemscore.Hbond>
1.7970

> <Gold.Chemscore.Metal>
0.0000

> <Gold.Chemscore.Lipo>
86.4259

> <Gold.Chemscore.Internal_Hbond>
0.0000

> <Gold.Chemscore.DEClash>
0.2374

> <Gold.Chemscore.DEInternal>
1.6179

> <Gold.Chemscore.Rot>
1.3064

> <Gold.Chemscore.Internal.Correction>
   9.000000E+99

> <Gold.Chemscore.Hbonds>
donor molecule, donor type, donor heavy atom, donor atom, acceptor molecule, acceptor atom, score
      L1  H     8    26       P1  7948  0.93
      P1  H  7989  7998       L1     3  0.68

> <Gold.Chemscore.Hbond.Weighted>
-6.0019

> <Gold.Chemscore.Metal.Weighted>
-0.0000

> <Gold.Chemscore.Lipo.Weighted>
-10.1118

> <Gold.Chemscore.Internal_Hbond.Weighted>
0.0000

> <Gold.Chemscore.DEClash.Weighted>
0.2374

> <Gold.Chemscore.DEInternal.Weighted>
1.6179

> <Gold.Chemscore.Rot.Weighted>
3.3443

> <Gold.Chemscore.Internal.Correction.Weighted>
   9.000000E+99

> <Gold.Protein.RotatedTorsions>
[ 6907 6896 6895 6894 ] final -131.48 input  -60.11 | X-H torsion
[ 7974 7965 7964 7962 ] final   46.58 input  175.53 | X-H torsion
[ 8008 7997 7996 7995 ] final   16.01 input   59.86 | X-H torsion
[ 10167 10162 10161 10158 ] final  -12.58 input  -65.29 | X-H torsion
[ 10718 10713 10712 10709 ] final   90.11 input   66.30 | X-H torsion
[ 10763 10752 10751 10750 ] final   37.26 input  -60.55 | X-H torsion
[ 11005 11000 10999 10996 ] final  -23.79 input  -57.11 | X-H torsion

> <Gold.Protein.ActiveResidues>
 VAL166  LYS551  ARG553  GLY616  TRP617  ASP618  TYR619  PRO620  LYS621  CYS622 
 ASP623  PHE694  ASN695  SER759  ASP760  ASP761  ALA762  ILE779  LEU786  VAL792 
 PHE793  MET794  SER795  GLU796  ALA797  LYS798  CYS799  TRP800  GLU811  SER814 

> <Gold.Protein.RotatedAtoms>
  150.9514  133.6545  159.2771 H   0  0  0  0  0  0  0  0  0  0  0  0  # atno 6907 bound_to 6896
  151.3900  135.0953  159.9533 H   0  0  0  0  0  0  0  0  0  0  0  0  # atno 6908 bound_to 6896
  152.5111  133.9031  159.7505 H   0  0  0  0  0  0  0  0  0  0  0  0  # atno 6909 bound_to 6896
  146.0377  139.4840  142.9798 H   0  0  0  0  0  0  0  0  0  0  0  0  # atno 7974 bound_to 7965
  154.8708  140.2958  155.5482 H   0  0  0  0  0  0  0  0  0  0  0  0  # atno 8008 bound_to 7997
  156.3021  140.2460  156.3630 H   0  0  0  0  0  0  0  0  0  0  0  0  # atno 8009 bound_to 7997
  154.8819  140.0397  157.1776 H   0  0  0  0  0  0  0  0  0  0  0  0  # atno 8010 bound_to 7997
  140.7164  143.5517  150.9294 H   0  0  0  0  0  0  0  0  0  0  0  0  # atno 10167 bound_to 10162
  157.6958  131.0358  150.3528 H   0  0  0  0  0  0  0  0  0  0  0  0  # atno 10718 bound_to 10713
  153.0044  135.6283  154.2116 H   0  0  0  0  0  0  0  0  0  0  0  0  # atno 10763 bound_to 10752
  154.1859  135.2811  155.3039 H   0  0  0  0  0  0  0  0  0  0  0  0  # atno 10764 bound_to 10752
  154.5798  135.5651  153.7233 H   0  0  0  0  0  0  0  0  0  0  0  0  # atno 10765 bound_to 10752
  140.8785  133.7671  156.0272 H   0  0  0  0  0  0  0  0  0  0  0  0  # atno 11005 bound_to 11000
  145.6937  141.0156  143.1541 LP  0  0  0  0  0  0  0  0  0  0  0  0  # atno 17320 bound_to 7965
  144.7059  139.8563  143.7430 LP  0  0  0  0  0  0  0  0  0  0  0  0  # atno 17321 bound_to 7965
  139.9241  143.6570  152.3090 LP  0  0  0  0  0  0  0  0  0  0  0  0  # atno 17342 bound_to 10162
  139.6998  144.7636  151.1293 LP  0  0  0  0  0  0  0  0  0  0  0  0  # atno 17343 bound_to 10162
  156.3974  130.3909  149.6985 LP  0  0  0  0  0  0  0  0  0  0  0  0  # atno 17370 bound_to 10713
  156.4314  130.7817  151.2836 LP  0  0  0  0  0  0  0  0  0  0  0  0  # atno 17371 bound_to 10713
  140.8490  134.2977  157.5283 LP  0  0  0  0  0  0  0  0  0  0  0  0  # atno 17394 bound_to 11000
  139.8717  134.9457  156.3918 LP  0  0  0  0  0  0  0  0  0  0  0  0  # atno 17395 bound_to 11000

$$$$
