AV-unprocessed.smi:2135|AV-procd|sdf|8698|dock1
  -GOLD-   2272011453D 1   1.00000     0.00000
 Structure written by MMmdl.
 42 43  0  0  0  0  0  0  0  0  1 V2000
  142.3135  135.5794  162.8719 C   0  0  0  0  0  0  0  0  0  0  0  0
  143.7719  136.1704  161.9211 S   0  0  0  0  0  0  0  0  0  0  0  0
  143.5903  135.7947  160.5105 O   0  0  0  0  0  0  0  0  0  0  0  0
  144.0021  137.5785  162.2786 O   0  0  0  0  0  0  0  0  0  0  0  0
  145.1006  135.2490  162.5631 N   0  0  0  0  0  0  0  0  0  0  0  0
  145.1766  133.7917  162.3512 C   0  0  0  0  0  0  0  0  0  0  0  0
  146.3440  133.4196  161.4237 C   0  0  0  0  0  0  0  0  0  0  0  0
  147.6718  134.0266  161.9124 C   0  0  0  0  0  0  0  0  0  0  0  0
  147.5692  135.5563  162.1113 C   0  0  1  0  0  0  0  0  0  0  0  0
  147.5791  136.3531  160.7923 C   0  0  0  0  0  0  0  0  0  0  0  0
  146.7135  137.1921  160.5413 O   0  0  0  0  0  0  0  0  0  0  0  0
  148.5589  136.0445  159.9282 N   0  0  0  0  0  0  0  0  0  0  0  0
  148.7480  136.6565  158.6187 C   0  0  0  0  0  0  0  0  0  0  0  0
  150.1494  137.2728  158.4803 C   0  0  0  0  0  0  0  0  0  0  0  0
  150.5635  137.4274  157.0304 C   0  0  0  0  0  0  0  0  0  0  0  0
  150.7364  138.7048  156.4590 C   0  0  0  0  0  0  0  0  0  0  0  0
  151.1170  138.7967  155.1066 C   0  0  0  0  0  0  0  0  0  0  0  0
  151.3083  137.6038  154.3810 C   0  0  0  0  0  0  0  0  0  0  0  0
  151.1453  136.3752  154.9174 N   0  0  0  0  0  0  0  0  0  0  0  0
  150.7803  136.2959  156.2153 C   0  0  0  0  0  0  0  0  0  0  0  0
  146.3552  135.8869  163.0156 C   0  0  0  0  0  0  0  0  0  0  0  0
  141.4616  136.2232  162.6549 H   0  0  0  0  0  0  0  0  0  0  0  0
  142.5272  135.6140  163.9395 H   0  0  0  0  0  0  0  0  0  0  0  0
  142.0649  134.5631  162.5751 H   0  0  0  0  0  0  0  0  0  0  0  0
  145.3067  133.3086  163.3202 H   0  0  0  0  0  0  0  0  0  0  0  0
  144.2382  133.4188  161.9412 H   0  0  0  0  0  0  0  0  0  0  0  0
  146.4359  132.3345  161.3728 H   0  0  0  0  0  0  0  0  0  0  0  0
  146.1207  133.7446  160.4085 H   0  0  0  0  0  0  0  0  0  0  0  0
  147.9469  133.5628  162.8604 H   0  0  0  0  0  0  0  0  0  0  0  0
  148.4747  133.7796  161.2164 H   0  0  0  0  0  0  0  0  0  0  0  0
  148.4692  135.8702  162.6420 H   0  0  0  0  0  0  0  0  0  0  0  0
  149.2253  135.3360  160.1999 H   0  0  0  0  0  0  0  0  0  0  0  0
  148.5719  135.9211  157.8316 H   0  0  0  0  0  0  0  0  0  0  0  0
  147.9883  137.4292  158.4969 H   0  0  0  0  0  0  0  0  0  0  0  0
  150.1781  138.2499  158.9642 H   0  0  0  0  0  0  0  0  0  0  0  0
  150.8882  136.6544  158.9920 H   0  0  0  0  0  0  0  0  0  0  0  0
  150.5792  139.5991  157.0444 H   0  0  0  0  0  0  0  0  0  0  0  0
  151.2585  139.7583  154.6360 H   0  0  0  0  0  0  0  0  0  0  0  0
  151.6003  137.6374  153.3418 H   0  0  0  0  0  0  0  0  0  0  0  0
  150.6551  135.2997  156.6139 H   0  0  0  0  0  0  0  0  0  0  0  0
  146.2177  136.9643  163.1030 H   0  0  0  0  0  0  0  0  0  0  0  0
  146.5622  135.5381  164.0280 H   0  0  0  0  0  0  0  0  0  0  0  0
  1  2  1  0  0  0  0
  1 22  1  0  0  0  0
  1 23  1  0  0  0  0
  1 24  1  0  0  0  0
  2  3  2  0  0  0  0
  2  4  2  0  0  0  0
  2  5  1  0  0  0  0
  5 21  1  0  0  0  0
  5  6  1  0  0  0  0
  6  7  1  0  0  0  0
  6 25  1  0  0  0  0
  6 26  1  0  0  0  0
  7  8  1  0  0  0  0
  7 27  1  0  0  0  0
  7 28  1  0  0  0  0
  8  9  1  0  0  0  0
  8 29  1  0  0  0  0
  8 30  1  0  0  0  0
  9 10  1  0  0  0  0
  9 21  1  0  0  0  0
  9 31  1  0  0  0  0
 10 11  2  0  0  0  0
 10 12  1  0  0  0  0
 12 13  1  0  0  0  0
 12 32  1  0  0  0  0
 13 14  1  0  0  0  0
 13 33  1  0  0  0  0
 13 34  1  0  0  0  0
 14 15  1  0  0  0  0
 14 35  1  0  0  0  0
 14 36  1  0  0  0  0
 15 20  1  0  0  0  0
 15 16  2  0  0  0  0
 16 17  1  0  0  0  0
 16 37  1  0  0  0  0
 17 18  2  0  0  0  0
 17 38  1  0  0  0  0
 18 19  1  0  0  0  0
 18 39  1  0  0  0  0
 19 20  2  0  0  0  0
 20 40  1  0  0  0  0
 21 41  1  0  0  0  0
 21 42  1  0  0  0  0
M  END
> <s_m_source_file>
AV-unprocessed.smi

> <i_m_source_file_index>
2135

> <i_lp_mmshare_version>
43012

> <i_f3d_flags>
0

> <s_epik_input>
W0NIM11TKD1PKSg9TylOMVtDSDJdW0NIMl1bQ0gyXVtDQEhdKFtDSDJdMSlDKD1PKVtOSF1bQ0gyXVtDSDJdYzJbY0hdW2NIXVtjSF1uW2NIXTI=

> <s_epik_cmdline>
J2VwaWtfcHl0aG9uJywgJy1waCcsICc3LjAnLCAnLXRuJywgJzgnLCAnLW1hJywgJzIwMCcsICctbWV0YWxfYmluZGluZycsICctaW1hZScsICc8aW5maWxlLm1hZT4nLCAnLW9tYWUnLCAnPG91dGZpbGUubWFlPic=

> <r_epik_Ionization_Penalty>
0.0134582

> <r_epik_Ionization_Penalty_Charging>
0

> <r_epik_Ionization_Penalty_Neutral>
0.0134582

> <r_epik_State_Penalty>
0.010475

> <r_epik_Charging_Adjusted_Penalty>
0.010475

> <i_epik_Tot_Q>
0

> <i_epik_Tot_abs_Q>
0

> <r_epik_Metal_State_Penalty>
0.0102416

> <b_epik_Metal_Only>
0

> <s_lp_Force_Field>
OPLS_2005

> <r_lp_Energy>
-1.27584

> <b_lp_Chiralities_Consistent>
1

> <s_lp_Variant>
AV-unprocessed.smi:2135-1

> <Gold.Version>
5.8.1

> <Gold.Id.Protein>
6NUR|6NUR_protein|mol2

> <Gold.PLP.Fitness>
42.0978

> <Gold.PLP.PLP>
-33.6443

> <Gold.PLP.part.hbond>
-2.7559

> <Gold.PLP.part.metal>
0.0000

> <Gold.PLP.part.buried>
-6.4064

> <Gold.PLP.part.nonpolar>
-25.7945

> <Gold.PLP.part.repulsive>
0.3515

> <Gold.PLP.ligand.clash>
0.0000

> <Gold.PLP.ligand.torsion>
1.3364

> <Gold.PLP.Chemscore.Hbond>
2.0000

> <Gold.PLP.Chemscore.CHOScore>
1.0000

> <Gold.PLP.Chemscore.Metal>
0.0000

> <Gold.Chemscore.Hbonds>
donor molecule, donor type, donor heavy atom, donor atom, acceptor molecule, acceptor atom, score
      P1  H  6934  6947       L1    11  1.00
      P1  H 10752 10764       L1    19  0.94
      L1  C    18    39       P1  7949  1.00

> <Gold.PLP.Chemscore.Internal.Correction>
2.1263

> <Gold.Rescore>
     Score         DG    S(hbond)    S(metal)    S(lipo)     H(rot)  DE(clash)    DE(int)     intcor
     15.59     -16.86       1.88        0.00      77.72       1.56       0.00       1.27       ----

> <Gold.Chemscore.Fitness>
15.5884

> <Gold.Chemscore.DG>
-16.8587

> <Gold.Chemscore.ZeroCoef>
-5.4800

> <Gold.Chemscore.Hbond>
1.8834

> <Gold.Chemscore.Metal>
0.0000

> <Gold.Chemscore.Lipo>
77.7167

> <Gold.Chemscore.Internal_Hbond>
0.0000

> <Gold.Chemscore.DEClash>
0.0021

> <Gold.Chemscore.DEInternal>
1.2682

> <Gold.Chemscore.Rot>
1.5643

> <Gold.Chemscore.Internal.Correction>
   9.000000E+99

> <Gold.Chemscore.Hbonds>
donor molecule, donor type, donor heavy atom, donor atom, acceptor molecule, acceptor atom, score
      P1  H  6934  6947       L1    11  0.92
      P1  H 10752 10764       L1    19  0.22

> <Gold.Chemscore.Hbond.Weighted>
-6.2904

> <Gold.Chemscore.Metal.Weighted>
-0.0000

> <Gold.Chemscore.Lipo.Weighted>
-9.0929

> <Gold.Chemscore.Internal_Hbond.Weighted>
0.0000

> <Gold.Chemscore.DEClash.Weighted>
0.0021

> <Gold.Chemscore.DEInternal.Weighted>
1.2682

> <Gold.Chemscore.Rot.Weighted>
4.0046

> <Gold.Chemscore.Internal.Correction.Weighted>
   9.000000E+99

> <Gold.Protein.RotatedTorsions>
[ 6907 6896 6895 6894 ] final -134.42 input  -60.11 | X-H torsion
[ 7974 7965 7964 7962 ] final  -72.48 input  175.53 | X-H torsion
[ 8008 7997 7996 7995 ] final  116.48 input   59.86 | X-H torsion
[ 10167 10162 10161 10158 ] final  133.71 input  -65.29 | X-H torsion
[ 10718 10713 10712 10709 ] final   78.36 input   66.30 | X-H torsion
[ 10763 10752 10751 10750 ] final  -42.54 input  -60.55 | X-H torsion
[ 11005 11000 10999 10996 ] final  -15.07 input  -57.11 | X-H torsion

> <Gold.Protein.ActiveResidues>
 VAL166  LYS551  ARG553  GLY616  TRP617  ASP618  TYR619  PRO620  LYS621  CYS622 
 ASP623  PHE694  ASN695  SER759  ASP760  ASP761  ALA762  ILE779  LEU786  VAL792 
 PHE793  MET794  SER795  GLU796  ALA797  LYS798  CYS799  TRP800  GLU811  SER814 

> <Gold.Protein.RotatedAtoms>
  150.9856  133.6201  159.2715 H   0  0  0  0  0  0  0  0  0  0  0  0  # atno 6907 bound_to 6896
  151.3440  135.0869  159.9390 H   0  0  0  0  0  0  0  0  0  0  0  0  # atno 6908 bound_to 6896
  152.5230  133.9462  159.7704 H   0  0  0  0  0  0  0  0  0  0  0  0  # atno 6909 bound_to 6896
  145.6646  140.9241  143.0915 H   0  0  0  0  0  0  0  0  0  0  0  0  # atno 7974 bound_to 7965
  156.2441  140.2916  156.0530 H   0  0  0  0  0  0  0  0  0  0  0  0  # atno 8008 bound_to 7997
  155.1860  140.0405  157.2908 H   0  0  0  0  0  0  0  0  0  0  0  0  # atno 8009 bound_to 7997
  154.6227  140.2480  155.7537 H   0  0  0  0  0  0  0  0  0  0  0  0  # atno 8010 bound_to 7997
  139.5286  144.6602  151.5035 H   0  0  0  0  0  0  0  0  0  0  0  0  # atno 10167 bound_to 10162
  157.6742  130.9864  150.1775 H   0  0  0  0  0  0  0  0  0  0  0  0  # atno 10718 bound_to 10713
  153.9807  135.6717  153.4750 H   0  0  0  0  0  0  0  0  0  0  0  0  # atno 10763 bound_to 10752
  153.0750  135.4954  154.8381 H   0  0  0  0  0  0  0  0  0  0  0  0  # atno 10764 bound_to 10752
  154.7166  135.3108  154.9075 H   0  0  0  0  0  0  0  0  0  0  0  0  # atno 10765 bound_to 10752
  140.7928  133.8274  155.9396 H   0  0  0  0  0  0  0  0  0  0  0  0  # atno 11005 bound_to 11000
  144.7077  139.8494  143.7424 LP  0  0  0  0  0  0  0  0  0  0  0  0  # atno 17320 bound_to 7965
  146.1096  139.4100  143.0296 LP  0  0  0  0  0  0  0  0  0  0  0  0  # atno 17321 bound_to 7965
  140.6447  143.8818  150.6726 LP  0  0  0  0  0  0  0  0  0  0  0  0  # atno 17342 bound_to 10162
  140.2164  143.3843  152.1678 LP  0  0  0  0  0  0  0  0  0  0  0  0  # atno 17343 bound_to 10162
  156.2515  130.3701  149.8228 LP  0  0  0  0  0  0  0  0  0  0  0  0  # atno 17370 bound_to 10713
  156.5999  130.8542  151.3429 LP  0  0  0  0  0  0  0  0  0  0  0  0  # atno 17371 bound_to 10713
  140.9372  134.1947  157.4823 LP  0  0  0  0  0  0  0  0  0  0  0  0  # atno 17394 bound_to 11000
  139.8729  134.9857  156.5293 LP  0  0  0  0  0  0  0  0  0  0  0  0  # atno 17395 bound_to 11000

$$$$
