AV-unprocessed.smi:99|AV-procd|sdf|888|dock6
  -GOLD-   2262017373D 1   1.00000     0.00000
 Structure written by MMmdl.
 52 55  0  0  0  0  0  0  0  0  2 V2000
  146.8361  133.6777  158.2064 O   0  0  0  0  0  0  0  0  0  0  0  0
  146.6354  134.7783  158.7236 C   0  0  0  0  0  0  0  0  0  0  0  0
  146.1373  135.8391  158.0570 O   0  0  0  0  0  0  0  0  0  0  0  0
  145.7341  135.7049  156.7027 C   0  0  0  0  0  0  0  0  0  0  0  0
  146.0260  137.0082  155.9329 C   0  0  1  0  0  0  0  0  0  0  0  0
  147.3995  137.3297  156.1175 O   0  0  0  0  0  0  0  0  0  0  0  0
  148.1202  136.8614  155.0211 C   0  0  2  0  0  0  0  0  0  0  0  0
  149.5253  137.4467  155.0364 N   0  0  0  0  0  0  0  0  0  0  0  0
  149.7489  138.8085  155.1813 C   0  0  0  0  0  0  0  0  0  0  0  0
  150.9923  139.3306  155.1530 C   0  0  0  0  0  0  0  0  0  0  0  0
  152.1344  138.4481  154.9425 C   0  0  0  0  0  0  0  0  0  0  0  0
  153.2682  138.9229  154.9677 O   0  0  0  0  0  0  0  0  0  0  0  0
  151.8875  137.1266  154.7159 N   0  5  0  0  0  0  0  0  0  0  0  0
  150.6279  136.6003  154.7218 C   0  0  0  0  0  0  0  0  0  0  0  0
  150.4010  135.4203  154.4534 O   0  0  0  0  0  0  0  0  0  0  0  0
  147.2206  137.2519  153.8353 C   0  0  2  0  0  0  0  0  0  0  0  0
  147.2861  138.6222  153.4810 O   0  0  0  0  0  0  0  0  0  0  0  0
  145.8318  136.9671  154.3972 C   0  0  1  0  0  0  0  0  0  0  0  0
  145.3907  135.6932  153.9314 O   0  0  0  0  0  0  0  0  0  0  0  0
  144.6733  135.5693  152.7909 C   0  0  0  0  0  0  0  0  0  0  0  0
  143.9092  136.4345  152.3592 O   0  0  0  0  0  0  0  0  0  0  0  0
  144.8674  134.2469  152.1302 C   0  0  0  0  0  0  0  0  0  0  0  0
  143.9775  133.8477  151.1057 C   0  0  0  0  0  0  0  0  0  0  0  0
  144.1096  132.5875  150.4915 C   0  0  0  0  0  0  0  0  0  0  0  0
  145.1347  131.7114  150.8929 C   0  0  0  0  0  0  0  0  0  0  0  0
  146.0294  132.0985  151.9076 C   0  0  0  0  0  0  0  0  0  0  0  0
  145.8994  133.3588  152.5226 C   0  0  0  0  0  0  0  0  0  0  0  0
  146.8708  135.0631  160.1681 C   0  0  0  0  0  0  0  0  0  0  0  0
  147.0582  136.4004  160.5883 C   0  0  0  0  0  0  0  0  0  0  0  0
  147.3207  136.6973  161.9395 C   0  0  0  0  0  0  0  0  0  0  0  0
  147.3965  135.6603  162.8875 C   0  0  0  0  0  0  0  0  0  0  0  0
  147.2077  134.3261  162.4829 C   0  0  0  0  0  0  0  0  0  0  0  0
  146.9454  134.0273  161.1320 C   0  0  0  0  0  0  0  0  0  0  0  0
  146.2771  134.8730  156.2533 H   0  0  0  0  0  0  0  0  0  0  0  0
  144.6708  135.4689  156.6365 H   0  0  0  0  0  0  0  0  0  0  0  0
  145.4331  137.8166  156.3621 H   0  0  0  0  0  0  0  0  0  0  0  0
  148.2697  135.7822  155.0941 H   0  0  0  0  0  0  0  0  0  0  0  0
  148.9225  139.4915  155.2979 H   0  0  0  0  0  0  0  0  0  0  0  0
  151.1403  140.3949  155.2634 H   0  0  0  0  0  0  0  0  0  0  0  0
  147.4612  136.6442  152.9619 H   0  0  0  0  0  0  0  0  0  0  0  0
  146.4775  138.8558  153.0509 H   0  0  0  0  0  0  0  0  0  0  0  0
  145.1432  137.7571  154.0941 H   0  0  0  0  0  0  0  0  0  0  0  0
  143.1757  134.4985  150.7882 H   0  0  0  0  0  0  0  0  0  0  0  0
  143.4203  132.2916  149.7145 H   0  0  0  0  0  0  0  0  0  0  0  0
  145.2336  130.7434  150.4242 H   0  0  0  0  0  0  0  0  0  0  0  0
  146.8151  131.4259  152.2188 H   0  0  0  0  0  0  0  0  0  0  0  0
  146.5969  133.6202  153.3049 H   0  0  0  0  0  0  0  0  0  0  0  0
  147.0144  137.2122  159.8766 H   0  0  0  0  0  0  0  0  0  0  0  0
  147.4675  137.7218  162.2479 H   0  0  0  0  0  0  0  0  0  0  0  0
  147.6002  135.8880  163.9235 H   0  0  0  0  0  0  0  0  0  0  0  0
  147.2676  133.5290  163.2090 H   0  0  0  0  0  0  0  0  0  0  0  0
  146.8140  132.9921  160.8533 H   0  0  0  0  0  0  0  0  0  0  0  0
  1  2  2  0  0  0  0
  2  3  1  0  0  0  0
  2 28  1  0  0  0  0
  3  4  1  0  0  0  0
  4  5  1  0  0  0  0
  4 34  1  0  0  0  0
  4 35  1  0  0  0  0
  5 18  1  0  0  0  0
  5  6  1  0  0  0  0
  5 36  1  0  0  0  0
  6  7  1  0  0  0  0
  7  8  1  0  0  0  0
  7 16  1  0  0  0  0
  7 37  1  0  0  0  0
  8 14  1  0  0  0  0
  8  9  1  0  0  0  0
  9 10  2  0  0  0  0
  9 38  1  0  0  0  0
 10 11  1  0  0  0  0
 10 39  1  0  0  0  0
 11 12  2  0  0  0  0
 11 13  1  0  0  0  0
 13 14  1  0  0  0  0
 14 15  2  0  0  0  0
 16 17  1  0  0  0  0
 16 18  1  0  0  0  0
 16 40  1  0  0  0  0
 17 41  1  0  0  0  0
 18 19  1  0  0  0  0
 18 42  1  0  0  0  0
 19 20  1  0  0  0  0
 20 21  2  0  0  0  0
 20 22  1  0  0  0  0
 22 27  1  0  0  0  0
 22 23  2  0  0  0  0
 23 24  1  0  0  0  0
 23 43  1  0  0  0  0
 24 25  2  0  0  0  0
 24 44  1  0  0  0  0
 25 26  1  0  0  0  0
 25 45  1  0  0  0  0
 26 27  2  0  0  0  0
 26 46  1  0  0  0  0
 27 47  1  0  0  0  0
 28 33  1  0  0  0  0
 28 29  2  0  0  0  0
 29 30  1  0  0  0  0
 29 48  1  0  0  0  0
 30 31  2  0  0  0  0
 30 49  1  0  0  0  0
 31 32  1  0  0  0  0
 31 50  1  0  0  0  0
 32 33  2  0  0  0  0
 32 51  1  0  0  0  0
 33 52  1  0  0  0  0
M  CHG  1  13  -1
M  END
> <s_m_source_file>
AV-unprocessed.smi

> <i_m_source_file_index>
99

> <i_lp_mmshare_version>
43012

> <i_f3d_flags>
0

> <s_epik_input>
W2NIXTFbY0hdW2NIXVtjSF1bY0hdYzFDKD1PKU9bQ0gyXVtDQEBIXTJPW0NAQEhdKG4zW2NIXVtjSF1jKD1PKVtuSF1jMz1PKVtDQEBIXShbT0hdKVtDQEhdMk9DKD1PKWM0W2NIXVtjSF1bY0hdW2NIXVtjSF00

> <s_epik_cmdline>
J2VwaWtfcHl0aG9uJywgJy1waCcsICc3LjAnLCAnLXRuJywgJzgnLCAnLW1hJywgJzIwMCcsICctbWV0YWxfYmluZGluZycsICctaW1hZScsICc8aW5maWxlLm1hZT4nLCAnLW9tYWUnLCAnPG91dGZpbGUubWFlPic=

> <r_lp_tautomer_probability>
1

> <r_epik_Ionization_Penalty>
2.89159

> <r_epik_Ionization_Penalty_Charging>
2.1077e-08

> <r_epik_Ionization_Penalty_Neutral>
2.89159

> <r_epik_State_Penalty>
2.88671

> <r_epik_Charging_Adjusted_Penalty>
2.88671

> <i_epik_Tot_Q>
-1

> <i_epik_Tot_abs_Q>
1

> <r_epik_Metal_State_Penalty>
0.0727308

> <b_epik_Metal_Only>
1

> <s_epik_Chemistry_Notes>
This compound has an ester and may undergo hydrolysis at high or low pH. This compound contains an acetal/aminal-like group ( X-CH(R)-Y where X, Y are N, S, or O) that may be acid/base labile, releasing an aldehyde.

> <s_lp_Force_Field>
OPLS_2005

> <r_lp_Energy>
52.0393

> <b_lp_Chiralities_Consistent>
1

> <s_lp_Variant>
AV-unprocessed.smi:99-24

> <Gold.Version>
5.8.1

> <Gold.Id.Protein>
6NUR|6NUR_protein|mol2

> <Gold.PLP.Fitness>
48.9898

> <Gold.PLP.PLP>
-42.7542

> <Gold.PLP.part.hbond>
-2.1714

> <Gold.PLP.part.metal>
0.0000

> <Gold.PLP.part.buried>
-4.5806

> <Gold.PLP.part.nonpolar>
-36.9427

> <Gold.PLP.part.repulsive>
1.5412

> <Gold.PLP.ligand.clash>
0.0463

> <Gold.PLP.ligand.torsion>
1.5446

> <Gold.PLP.Chemscore.Hbond>
2.9840

> <Gold.PLP.Chemscore.CHOScore>
0.0000

> <Gold.PLP.Chemscore.Metal>
0.0000

> <Gold.Chemscore.Hbonds>
donor molecule, donor type, donor heavy atom, donor atom, acceptor molecule, acceptor atom, score
      P1  H  7997  8008       L1    12  1.00
      P1  H 10752 10765       L1    13  2.00

> <Gold.PLP.Chemscore.Internal.Correction>
0.4189

> <Gold.Rescore>
     Score         DG    S(hbond)    S(metal)    S(lipo)     H(rot)  DE(clash)    DE(int)     intcor
      9.81     -13.90       1.49        0.00      98.10       3.13       1.32       2.77       ----

> <Gold.Chemscore.Fitness>
9.8115

> <Gold.Chemscore.DG>
-13.8998

> <Gold.Chemscore.ZeroCoef>
-5.4800

> <Gold.Chemscore.Hbond>
1.4871

> <Gold.Chemscore.Metal>
0.0000

> <Gold.Chemscore.Lipo>
98.0965

> <Gold.Chemscore.Internal_Hbond>
0.0000

> <Gold.Chemscore.DEClash>
1.3215

> <Gold.Chemscore.DEInternal>
2.7667

> <Gold.Chemscore.Rot>
3.1346

> <Gold.Chemscore.Internal.Correction>
   9.000000E+99

> <Gold.Chemscore.Hbonds>
donor molecule, donor type, donor heavy atom, donor atom, acceptor molecule, acceptor atom, score
      P1  H  7997  8008       L1    12  0.98
      P1  H 10752 10765       L1    13  0.38

> <Gold.Chemscore.Hbond.Weighted>
-4.9670

> <Gold.Chemscore.Metal.Weighted>
-0.0000

> <Gold.Chemscore.Lipo.Weighted>
-11.4773

> <Gold.Chemscore.Internal_Hbond.Weighted>
0.0000

> <Gold.Chemscore.DEClash.Weighted>
1.3215

> <Gold.Chemscore.DEInternal.Weighted>
2.7667

> <Gold.Chemscore.Rot.Weighted>
8.0246

> <Gold.Chemscore.Internal.Correction.Weighted>
   9.000000E+99

> <Gold.Protein.RotatedTorsions>
[ 6907 6896 6895 6894 ] final -129.36 input  -60.11 | X-H torsion
[ 7974 7965 7964 7962 ] final  -74.05 input  175.53 | X-H torsion
[ 8008 7997 7996 7995 ] final  -16.81 input   59.86 | X-H torsion
[ 10167 10162 10161 10158 ] final  -32.78 input  -65.29 | X-H torsion
[ 10718 10713 10712 10709 ] final  -85.16 input   66.30 | X-H torsion
[ 10763 10752 10751 10750 ] final  168.31 input  -60.55 | X-H torsion
[ 11005 11000 10999 10996 ] final  103.07 input  -57.11 | X-H torsion

> <Gold.Protein.ActiveResidues>
 VAL166  LYS551  ARG553  GLY616  TRP617  ASP618  TYR619  PRO620  LYS621  CYS622 
 ASP623  PHE694  ASN695  SER759  ASP760  ASP761  ALA762  ILE779  LEU786  VAL792 
 PHE793  MET794  SER795  GLU796  ALA797  LYS798  CYS799  TRP800  GLU811  SER814 

> <Gold.Protein.RotatedAtoms>
  150.9279  133.6802  159.2817 H   0  0  0  0  0  0  0  0  0  0  0  0  # atno 6907 bound_to 6896
  151.4234  135.0999  159.9630 H   0  0  0  0  0  0  0  0  0  0  0  0  # atno 6908 bound_to 6896
  152.5012  133.8726  159.7361 H   0  0  0  0  0  0  0  0  0  0  0  0  # atno 6909 bound_to 6896
  145.6442  140.9302  143.1019 H   0  0  0  0  0  0  0  0  0  0  0  0  # atno 7974 bound_to 7965
  154.5025  140.2159  155.9317 H   0  0  0  0  0  0  0  0  0  0  0  0  # atno 8008 bound_to 7997
  156.1452  140.3172  155.8526 H   0  0  0  0  0  0  0  0  0  0  0  0  # atno 8009 bound_to 7997
  155.4044  140.0486  157.3026 H   0  0  0  0  0  0  0  0  0  0  0  0  # atno 8010 bound_to 7997
  140.7215  143.3669  151.1853 H   0  0  0  0  0  0  0  0  0  0  0  0  # atno 10167 bound_to 10162
  155.9999  130.4722  150.4520 H   0  0  0  0  0  0  0  0  0  0  0  0  # atno 10718 bound_to 10713
  154.3667  135.2753  155.2289 H   0  0  0  0  0  0  0  0  0  0  0  0  # atno 10763 bound_to 10752
  154.4455  135.5944  153.6160 H   0  0  0  0  0  0  0  0  0  0  0  0  # atno 10764 bound_to 10752
  152.9840  135.6029  154.3893 H   0  0  0  0  0  0  0  0  0  0  0  0  # atno 10765 bound_to 10752
  139.8781  134.9249  156.5154 H   0  0  0  0  0  0  0  0  0  0  0  0  # atno 11005 bound_to 11000
  144.7146  139.8243  143.7403 LP  0  0  0  0  0  0  0  0  0  0  0  0  # atno 17320 bound_to 7965
  146.1256  139.4282  143.0200 LP  0  0  0  0  0  0  0  0  0  0  0  0  # atno 17321 bound_to 7965
  139.7233  143.9189  152.2993 LP  0  0  0  0  0  0  0  0  0  0  0  0  # atno 17342 bound_to 10162
  139.8953  144.6942  150.8725 LP  0  0  0  0  0  0  0  0  0  0  0  0  # atno 17343 bound_to 10162
  157.2552  131.0555  151.2354 LP  0  0  0  0  0  0  0  0  0  0  0  0  # atno 17370 bound_to 10713
  157.3489  130.7072  149.6428 LP  0  0  0  0  0  0  0  0  0  0  0  0  # atno 17371 bound_to 10713
  140.8489  133.8147  155.9149 LP  0  0  0  0  0  0  0  0  0  0  0  0  # atno 17394 bound_to 11000
  140.9163  134.2197  157.4954 LP  0  0  0  0  0  0  0  0  0  0  0  0  # atno 17395 bound_to 11000

$$$$
