AV-unprocessed.smi:2496|AV-procd|sdf|9825|dock7
  -GOLD-   2272013453D 1   1.00000     0.00000
 Structure written by MMmdl.
 40 40  0  0  0  0  0  0  0  0  1 V2000
  152.1371  138.2105  155.9632 C   0  0  0  0  0  0  0  0  0  0  0  0
  151.1769  139.1077  155.2357 C   0  0  0  0  0  0  0  0  0  0  0  0
  151.0283  138.9681  153.9278 N   0  0  0  0  0  0  0  0  0  0  0  0
  150.1280  139.9104  153.6038 N   0  0  0  0  0  0  0  0  0  0  0  0
  149.7033  140.6489  154.6830 C   0  0  0  0  0  0  0  0  0  0  0  0
  148.7114  141.7541  154.5285 C   0  0  0  0  0  0  0  0  0  0  0  0
  150.3647  140.1519  155.7777 C   0  0  0  0  0  0  0  0  0  0  0  0
  150.2985  140.5847  157.2283 C   0  0  2  0  0  0  0  0  0  0  0  0
  149.1343  141.5581  157.4926 C   0  0  0  0  0  0  0  0  0  0  0  0
  151.6634  141.1491  157.6507 C   0  0  0  0  0  0  0  0  0  0  0  0
  152.7013  140.5288  157.4169 O   0  0  0  0  0  0  0  0  0  0  0  0
  151.6344  142.3324  158.2897 N   0  0  0  0  0  0  0  0  0  0  0  0
  152.7661  143.0647  158.8650 C   0  0  2  0  0  0  0  0  0  0  0  0
  153.2979  142.3460  160.1221 C   0  0  0  0  0  0  0  0  0  0  0  0
  152.4486  144.5721  159.0821 C   0  0  0  0  0  0  0  0  0  0  0  0
  151.3362  144.7937  160.1260 C   0  0  0  0  0  0  0  0  0  0  0  0
  152.0688  145.2804  157.7695 C   0  0  0  0  0  0  0  0  0  0  0  0
  149.8173  140.0408  152.6516 H   0  0  0  0  0  0  0  0  0  0  0  0
  152.9595  138.7864  156.3879 H   0  0  0  0  0  0  0  0  0  0  0  0
  152.5675  137.4557  155.3039 H   0  0  0  0  0  0  0  0  0  0  0  0
  151.6394  137.6885  156.7805 H   0  0  0  0  0  0  0  0  0  0  0  0
  148.9929  142.6189  155.1289 H   0  0  0  0  0  0  0  0  0  0  0  0
  147.7200  141.4297  154.8445 H   0  0  0  0  0  0  0  0  0  0  0  0
  148.6425  142.0796  153.4903 H   0  0  0  0  0  0  0  0  0  0  0  0
  150.1216  139.7165  157.8643 H   0  0  0  0  0  0  0  0  0  0  0  0
  149.2333  142.4832  156.9248 H   0  0  0  0  0  0  0  0  0  0  0  0
  149.0771  141.8253  158.5485 H   0  0  0  0  0  0  0  0  0  0  0  0
  148.1810  141.1047  157.2197 H   0  0  0  0  0  0  0  0  0  0  0  0
  150.7261  142.7512  158.4272 H   0  0  0  0  0  0  0  0  0  0  0  0
  153.5506  143.0014  158.1100 H   0  0  0  0  0  0  0  0  0  0  0  0
  154.2745  142.7280  160.4177 H   0  0  0  0  0  0  0  0  0  0  0  0
  153.4186  141.2774  159.9412 H   0  0  0  0  0  0  0  0  0  0  0  0
  152.6263  142.4659  160.9724 H   0  0  0  0  0  0  0  0  0  0  0  0
  153.3463  145.0631  159.4590 H   0  0  0  0  0  0  0  0  0  0  0  0
  150.4139  144.2914  159.8328 H   0  0  0  0  0  0  0  0  0  0  0  0
  151.1129  145.8544  160.2428 H   0  0  0  0  0  0  0  0  0  0  0  0
  151.6194  144.4212  161.1103 H   0  0  0  0  0  0  0  0  0  0  0  0
  151.2099  144.8040  157.2960 H   0  0  0  0  0  0  0  0  0  0  0  0
  152.8916  145.2764  157.0551 H   0  0  0  0  0  0  0  0  0  0  0  0
  151.8112  146.3249  157.9473 H   0  0  0  0  0  0  0  0  0  0  0  0
  1  2  1  0  0  0  0
  1 19  1  0  0  0  0
  1 20  1  0  0  0  0
  1 21  1  0  0  0  0
  2  7  1  0  0  0  0
  2  3  2  0  0  0  0
  3  4  1  0  0  0  0
  4 18  1  0  0  0  0
  4  5  1  0  0  0  0
  5  6  1  0  0  0  0
  5  7  2  0  0  0  0
  6 22  1  0  0  0  0
  6 23  1  0  0  0  0
  6 24  1  0  0  0  0
  7  8  1  0  0  0  0
  8  9  1  0  0  0  0
  8 10  1  0  0  0  0
  8 25  1  0  0  0  0
  9 26  1  0  0  0  0
  9 27  1  0  0  0  0
  9 28  1  0  0  0  0
 10 11  2  0  0  0  0
 10 12  1  0  0  0  0
 12 13  1  0  0  0  0
 12 29  1  0  0  0  0
 13 14  1  0  0  0  0
 13 15  1  0  0  0  0
 13 30  1  0  0  0  0
 14 31  1  0  0  0  0
 14 32  1  0  0  0  0
 14 33  1  0  0  0  0
 15 16  1  0  0  0  0
 15 17  1  0  0  0  0
 15 34  1  0  0  0  0
 16 35  1  0  0  0  0
 16 36  1  0  0  0  0
 16 37  1  0  0  0  0
 17 38  1  0  0  0  0
 17 39  1  0  0  0  0
 17 40  1  0  0  0  0
M  END
> <s_m_source_file>
AV-unprocessed.smi

> <i_m_source_file_index>
2496

> <i_lp_mmshare_version>
43012

> <i_f3d_flags>
0

> <s_epik_input>
W0NIM11jMW5bbkhdYyhbQ0gzXSljMVtDQEhdKFtDSDNdKUMoPU8pW05IXVtDQEhdKFtDSDNdKVtDSF0oW0NIM10pW0NIM10=

> <s_epik_cmdline>
J2VwaWtfcHl0aG9uJywgJy1waCcsICc3LjAnLCAnLXRuJywgJzgnLCAnLW1hJywgJzIwMCcsICctbWV0YWxfYmluZGluZycsICctaW1hZScsICc8aW5maWxlLm1hZT4nLCAnLW9tYWUnLCAnPG91dGZpbGUubWFlPic=

> <r_lp_tautomer_probability>
1

> <r_epik_Ionization_Penalty>
0.000456212

> <r_epik_Ionization_Penalty_Charging>
0

> <r_epik_Ionization_Penalty_Neutral>
0.000456212

> <r_epik_State_Penalty>
-0

> <r_epik_Charging_Adjusted_Penalty>
0

> <i_epik_Tot_Q>
0

> <i_epik_Tot_abs_Q>
0

> <r_epik_Metal_State_Penalty>
-0

> <b_epik_Metal_Only>
0

> <s_lp_Force_Field>
OPLS_2005

> <r_lp_Energy>
1.67244

> <b_lp_Chiralities_Consistent>
1

> <s_lp_Variant>
AV-unprocessed.smi:2496-1

> <Gold.Version>
5.8.1

> <Gold.Id.Protein>
6NUR|6NUR_protein|mol2

> <Gold.PLP.Fitness>
39.3418

> <Gold.PLP.PLP>
-34.6698

> <Gold.PLP.part.hbond>
-2.0000

> <Gold.PLP.part.metal>
0.0000

> <Gold.PLP.part.buried>
-4.8442

> <Gold.PLP.part.nonpolar>
-28.7947

> <Gold.PLP.part.repulsive>
1.3123

> <Gold.PLP.ligand.clash>
0.5095

> <Gold.PLP.ligand.torsion>
0.4888

> <Gold.PLP.Chemscore.Hbond>
2.0000

> <Gold.PLP.Chemscore.CHOScore>
0.0000

> <Gold.PLP.Chemscore.Metal>
0.0000

> <Gold.Chemscore.Hbonds>
donor molecule, donor type, donor heavy atom, donor atom, acceptor molecule, acceptor atom, score
      L1  H     4    18       P1  7957  0.93
      P1  H  7997  8009       L1    11  0.74

> <Gold.PLP.Chemscore.Internal.Correction>
0.1590

> <Gold.Rescore>
     Score         DG    S(hbond)    S(metal)    S(lipo)     H(rot)  DE(clash)    DE(int)     intcor
     15.83     -20.05       1.95        0.00     101.04       1.47       1.51       2.70       ----

> <Gold.Chemscore.Fitness>
15.8338

> <Gold.Chemscore.DG>
-20.0476

> <Gold.Chemscore.ZeroCoef>
-5.4800

> <Gold.Chemscore.Hbond>
1.9459

> <Gold.Chemscore.Metal>
0.0000

> <Gold.Chemscore.Lipo>
101.0402

> <Gold.Chemscore.Internal_Hbond>
0.0000

> <Gold.Chemscore.DEClash>
1.5136

> <Gold.Chemscore.DEInternal>
2.7001

> <Gold.Chemscore.Rot>
1.4662

> <Gold.Chemscore.Internal.Correction>
   9.000000E+99

> <Gold.Chemscore.Hbonds>
donor molecule, donor type, donor heavy atom, donor atom, acceptor molecule, acceptor atom, score
      L1  H     4    18       P1  7957  0.89
      P1  H  7997  8009       L1    11  0.74

> <Gold.Chemscore.Hbond.Weighted>
-6.4993

> <Gold.Chemscore.Metal.Weighted>
-0.0000

> <Gold.Chemscore.Lipo.Weighted>
-11.8217

> <Gold.Chemscore.Internal_Hbond.Weighted>
0.0000

> <Gold.Chemscore.DEClash.Weighted>
1.5136

> <Gold.Chemscore.DEInternal.Weighted>
2.7001

> <Gold.Chemscore.Rot.Weighted>
3.7534

> <Gold.Chemscore.Internal.Correction.Weighted>
   9.000000E+99

> <Gold.Protein.RotatedTorsions>
[ 6907 6896 6895 6894 ] final  163.94 input  -60.11 | X-H torsion
[ 7974 7965 7964 7962 ] final -169.57 input  175.53 | X-H torsion
[ 8008 7997 7996 7995 ] final  162.56 input   59.86 | X-H torsion
[ 10167 10162 10161 10158 ] final  -59.17 input  -65.29 | X-H torsion
[ 10718 10713 10712 10709 ] final -100.89 input   66.30 | X-H torsion
[ 10763 10752 10751 10750 ] final  -56.96 input  -60.55 | X-H torsion
[ 11005 11000 10999 10996 ] final  -89.49 input  -57.11 | X-H torsion

> <Gold.Protein.ActiveResidues>
 VAL166  LYS551  ARG553  GLY616  TRP617  ASP618  TYR619  PRO620  LYS621  CYS622 
 ASP623  PHE694  ASN695  SER759  ASP760  ASP761  ALA762  ILE779  LEU786  VAL792 
 PHE793  MET794  SER795  GLU796  ALA797  LYS798  CYS799  TRP800  GLU811  SER814 

> <Gold.Protein.RotatedAtoms>
  151.9175  133.3577  159.3884 H   0  0  0  0  0  0  0  0  0  0  0  0  # atno 6907 bound_to 6896
  150.7044  134.4669  159.5416 H   0  0  0  0  0  0  0  0  0  0  0  0  # atno 6908 bound_to 6896
  152.2287  134.8343  160.0527 H   0  0  0  0  0  0  0  0  0  0  0  0  # atno 6909 bound_to 6896
  144.7183  140.2201  143.6317 H   0  0  0  0  0  0  0  0  0  0  0  0  # atno 7974 bound_to 7965
  156.2022  140.1747  156.7875 H   0  0  0  0  0  0  0  0  0  0  0  0  # atno 8008 bound_to 7997
  154.5607  140.0700  156.8844 H   0  0  0  0  0  0  0  0  0  0  0  0  # atno 8009 bound_to 7997
  155.2854  140.3352  155.4258 H   0  0  0  0  0  0  0  0  0  0  0  0  # atno 8010 bound_to 7997
  140.6152  143.2400  151.5615 H   0  0  0  0  0  0  0  0  0  0  0  0  # atno 10167 bound_to 10162
  156.0177  130.5348  150.6883 H   0  0  0  0  0  0  0  0  0  0  0  0  # atno 10718 bound_to 10713
  154.2148  135.6388  153.5126 H   0  0  0  0  0  0  0  0  0  0  0  0  # atno 10763 bound_to 10752
  152.9982  135.5482  154.6176 H   0  0  0  0  0  0  0  0  0  0  0  0  # atno 10764 bound_to 10752
  154.5622  135.2910  155.0882 H   0  0  0  0  0  0  0  0  0  0  0  0  # atno 10765 bound_to 10752
  141.1584  133.7633  156.9602 H   0  0  0  0  0  0  0  0  0  0  0  0  # atno 11005 bound_to 11000
  145.8509  139.2175  143.1772 LP  0  0  0  0  0  0  0  0  0  0  0  0  # atno 17320 bound_to 7965
  146.0261  140.8302  142.9899 LP  0  0  0  0  0  0  0  0  0  0  0  0  # atno 17321 bound_to 7965
  139.5393  144.2693  152.1317 LP  0  0  0  0  0  0  0  0  0  0  0  0  # atno 17342 bound_to 10162
  140.1901  144.4760  150.6483 LP  0  0  0  0  0  0  0  0  0  0  0  0  # atno 17343 bound_to 10162
  157.4570  131.0879  151.0786 LP  0  0  0  0  0  0  0  0  0  0  0  0  # atno 17370 bound_to 10713
  157.1285  130.6092  149.5523 LP  0  0  0  0  0  0  0  0  0  0  0  0  # atno 17371 bound_to 10713
  140.1198  134.9424  157.2187 LP  0  0  0  0  0  0  0  0  0  0  0  0  # atno 17394 bound_to 11000
  140.3086  134.3049  155.7272 LP  0  0  0  0  0  0  0  0  0  0  0  0  # atno 17395 bound_to 11000

$$$$
