AV-unprocessed.smi:2671|AV-procd|sdf|10352|dock8
  -GOLD-   2272014373D 1   1.00000     0.00000
 Structure written by MMmdl.
 29 30  0  0  0  0  0  0  0  0  1 V2000
  151.4639  137.0118  154.1859 O   0  0  0  0  0  0  0  0  0  0  0  0
  150.9856  138.1848  154.6892 C   0  0  0  0  0  0  0  0  0  0  0  0
  149.9019  138.8277  154.0548 C   0  0  0  0  0  0  0  0  0  0  0  0
  149.4586  140.0409  154.6307 C   0  0  0  0  0  0  0  0  0  0  0  0
  148.3005  140.8367  154.0482 C   0  0  0  0  0  0  0  0  0  0  0  0
  147.8052  140.2525  152.9568 F   0  0  0  0  0  0  0  0  0  0  0  0
  147.3256  140.9395  154.9516 F   0  0  0  0  0  0  0  0  0  0  0  0
  148.7153  142.0607  153.7207 F   0  0  0  0  0  0  0  0  0  0  0  0
  150.0487  140.5536  155.7354 N   0  0  0  0  0  0  0  0  0  0  0  0
  151.0630  139.8537  156.2440 C   0  0  0  0  0  0  0  0  0  0  0  0
  151.8340  140.5326  157.6892 S   0  0  0  0  0  0  0  0  0  0  0  0
  150.7579  141.9701  157.9443 C   0  0  0  0  0  0  0  0  0  0  0  0
  151.4996  143.1261  158.6289 C   0  0  2  0  0  0  0  0  0  0  0  0
  152.0096  142.8110  160.0394 C   0  0  0  0  0  0  0  0  0  0  0  0
  151.8843  144.1309  160.7889 C   0  0  0  0  0  0  0  0  0  0  0  0
  151.2530  145.0813  159.7720 C   0  0  0  0  0  0  0  0  0  0  0  0
  150.6201  144.2193  158.8401 O   0  0  0  0  0  0  0  0  0  0  0  0
  151.5678  138.7049  155.7909 N   0  0  0  0  0  0  0  0  0  0  0  0
  151.3859  136.9609  153.2456 H   0  0  0  0  0  0  0  0  0  0  0  0
  149.4395  138.4080  153.1734 H   0  0  0  0  0  0  0  0  0  0  0  0
  150.3823  142.2947  156.9735 H   0  0  0  0  0  0  0  0  0  0  0  0
  149.8919  141.6688  158.5345 H   0  0  0  0  0  0  0  0  0  0  0  0
  152.3251  143.4680  158.0018 H   0  0  0  0  0  0  0  0  0  0  0  0
  151.3858  142.0567  160.5206 H   0  0  0  0  0  0  0  0  0  0  0  0
  153.0331  142.4350  160.0246 H   0  0  0  0  0  0  0  0  0  0  0  0
  151.2331  144.0077  161.6550 H   0  0  0  0  0  0  0  0  0  0  0  0
  152.8462  144.5023  161.1431 H   0  0  0  0  0  0  0  0  0  0  0  0
  150.5434  145.7736  160.2258 H   0  0  0  0  0  0  0  0  0  0  0  0
  152.0205  145.6646  159.2608 H   0  0  0  0  0  0  0  0  0  0  0  0
  1  2  1  0  0  0  0
  1 19  1  0  0  0  0
  2 18  1  0  0  0  0
  2  3  2  0  0  0  0
  3  4  1  0  0  0  0
  3 20  1  0  0  0  0
  4  5  1  0  0  0  0
  4  9  2  0  0  0  0
  5  6  1  0  0  0  0
  5  7  1  0  0  0  0
  5  8  1  0  0  0  0
  9 10  1  0  0  0  0
 10 11  1  0  0  0  0
 10 18  2  0  0  0  0
 11 12  1  0  0  0  0
 12 13  1  0  0  0  0
 12 21  1  0  0  0  0
 12 22  1  0  0  0  0
 13 17  1  0  0  0  0
 13 14  1  0  0  0  0
 13 23  1  0  0  0  0
 14 15  1  0  0  0  0
 14 24  1  0  0  0  0
 14 25  1  0  0  0  0
 15 16  1  0  0  0  0
 15 26  1  0  0  0  0
 15 27  1  0  0  0  0
 16 17  1  0  0  0  0
 16 28  1  0  0  0  0
 16 29  1  0  0  0  0
M  END
> <s_m_source_file>
AV-unprocessed.smi

> <i_m_source_file_index>
2671

> <i_lp_mmshare_version>
43012

> <i_f3d_flags>
0

> <s_epik_input>
W09IXWMxW2NIXWMoQyhGKShGKUYpbmMobjEpU1tDSDJdW0NAQEhdMltDSDJdW0NIMl1bQ0gyXU8y

> <s_epik_cmdline>
J2VwaWtfcHl0aG9uJywgJy1waCcsICc3LjAnLCAnLXRuJywgJzgnLCAnLW1hJywgJzIwMCcsICctbWV0YWxfYmluZGluZycsICctaW1hZScsICc8aW5maWxlLm1hZT4nLCAnLW9tYWUnLCAnPG91dGZpbGUubWFlPic=

> <r_lp_tautomer_probability>
0.0660145

> <r_epik_Ionization_Penalty>
3.60098

> <r_epik_Ionization_Penalty_Charging>
0

> <r_epik_Ionization_Penalty_Neutral>
3.60098

> <r_epik_State_Penalty>
2.71709

> <r_epik_Charging_Adjusted_Penalty>
2.71709

> <i_epik_Tot_Q>
0

> <i_epik_Tot_abs_Q>
0

> <r_epik_Metal_State_Penalty>
3.44057

> <b_epik_Metal_Only>
0

> <s_lp_Force_Field>
OPLS_2005

> <r_lp_Energy>
11.8845

> <b_lp_Chiralities_Consistent>
1

> <s_lp_Variant>
AV-unprocessed.smi:2671-7

> <Gold.Version>
5.8.1

> <Gold.Id.Protein>
6NUR|6NUR_protein|mol2

> <Gold.PLP.Fitness>
43.5018

> <Gold.PLP.PLP>
-37.8804

> <Gold.PLP.part.hbond>
-2.0000

> <Gold.PLP.part.metal>
0.0000

> <Gold.PLP.part.buried>
-4.8992

> <Gold.PLP.part.nonpolar>
-29.9659

> <Gold.PLP.part.repulsive>
0.2051

> <Gold.PLP.ligand.clash>
0.0000

> <Gold.PLP.ligand.torsion>
0.1926

> <Gold.PLP.Chemscore.Hbond>
2.0000

> <Gold.PLP.Chemscore.CHOScore>
0.0000

> <Gold.PLP.Chemscore.Metal>
0.0000

> <Gold.Chemscore.Hbonds>
donor molecule, donor type, donor heavy atom, donor atom, acceptor molecule, acceptor atom, score
      L1  H     1    19       P1  7949  1.00
      P1  H 10752 10764       L1     1  0.60

> <Gold.PLP.Chemscore.Internal.Correction>
0.0065

> <Gold.Rescore>
     Score         DG    S(hbond)    S(metal)    S(lipo)     H(rot)  DE(clash)    DE(int)     intcor
     14.22     -14.54       1.73        0.00      77.66       2.27       0.11       0.21       ----

> <Gold.Chemscore.Fitness>
14.2151

> <Gold.Chemscore.DG>
-14.5422

> <Gold.Chemscore.ZeroCoef>
-5.4800

> <Gold.Chemscore.Hbond>
1.7289

> <Gold.Chemscore.Metal>
0.0000

> <Gold.Chemscore.Lipo>
77.6586

> <Gold.Chemscore.Internal_Hbond>
0.0000

> <Gold.Chemscore.DEClash>
0.1127

> <Gold.Chemscore.DEInternal>
0.2144

> <Gold.Chemscore.Rot>
2.2650

> <Gold.Chemscore.Internal.Correction>
   9.000000E+99

> <Gold.Chemscore.Hbonds>
donor molecule, donor type, donor heavy atom, donor atom, acceptor molecule, acceptor atom, score
      L1  H     1    19       P1  7949  0.72
      P1  H 10752 10764       L1     1  0.04

> <Gold.Chemscore.Hbond.Weighted>
-5.7745

> <Gold.Chemscore.Metal.Weighted>
-0.0000

> <Gold.Chemscore.Lipo.Weighted>
-9.0861

> <Gold.Chemscore.Internal_Hbond.Weighted>
0.0000

> <Gold.Chemscore.DEClash.Weighted>
0.1127

> <Gold.Chemscore.DEInternal.Weighted>
0.2144

> <Gold.Chemscore.Rot.Weighted>
5.7984

> <Gold.Chemscore.Internal.Correction.Weighted>
   9.000000E+99

> <Gold.Protein.RotatedTorsions>
[ 6907 6896 6895 6894 ] final -117.71 input  -60.11 | X-H torsion
[ 7974 7965 7964 7962 ] final -151.50 input  175.53 | X-H torsion
[ 8008 7997 7996 7995 ] final   -3.82 input   59.86 | X-H torsion
[ 10167 10162 10161 10158 ] final  179.56 input  -65.29 | X-H torsion
[ 10718 10713 10712 10709 ] final   25.65 input   66.30 | X-H torsion
[ 10763 10752 10751 10750 ] final  -82.85 input  -60.55 | X-H torsion
[ 11005 11000 10999 10996 ] final  142.97 input  -57.11 | X-H torsion

> <Gold.Protein.ActiveResidues>
 VAL166  LYS551  ARG553  GLY616  TRP617  ASP618  TYR619  PRO620  LYS621  CYS622 
 ASP623  PHE694  ASN695  SER759  ASP760  ASP761  ALA762  ILE779  LEU786  VAL792 
 PHE793  MET794  SER795  GLU796  ALA797  LYS798  CYS799  TRP800  GLU811  SER814 

> <Gold.Protein.RotatedAtoms>
  150.8159  133.8339  159.3160 H   0  0  0  0  0  0  0  0  0  0  0  0  # atno 6907 bound_to 6896
  151.6111  135.1038  160.0091 H   0  0  0  0  0  0  0  0  0  0  0  0  # atno 6908 bound_to 6896
  152.4250  133.7139  159.6551 H   0  0  0  0  0  0  0  0  0  0  0  0  # atno 6909 bound_to 6896
  144.7846  140.4789  143.5815 H   0  0  0  0  0  0  0  0  0  0  0  0  # atno 7974 bound_to 7965
  154.6208  140.2499  155.7551 H   0  0  0  0  0  0  0  0  0  0  0  0  # atno 8008 bound_to 7997
  156.2426  140.2927  156.0435 H   0  0  0  0  0  0  0  0  0  0  0  0  # atno 8009 bound_to 7997
  155.1899  140.0391  157.2889 H   0  0  0  0  0  0  0  0  0  0  0  0  # atno 8010 bound_to 7997
  139.5342  144.2547  152.0756 H   0  0  0  0  0  0  0  0  0  0  0  0  # atno 10167 bound_to 10162
  157.1963  130.6869  149.6170 H   0  0  0  0  0  0  0  0  0  0  0  0  # atno 10718 bound_to 10713
  154.5808  135.5576  153.7183 H   0  0  0  0  0  0  0  0  0  0  0  0  # atno 10763 bound_to 10752
  153.0081  135.6319  154.1985 H   0  0  0  0  0  0  0  0  0  0  0  0  # atno 10764 bound_to 10752
  154.1926  135.2881  155.2997 H   0  0  0  0  0  0  0  0  0  0  0  0  # atno 10765 bound_to 10752
  140.0518  134.9252  157.1029 H   0  0  0  0  0  0  0  0  0  0  0  0  # atno 11005 bound_to 11000
  145.5956  139.1499  143.3158 LP  0  0  0  0  0  0  0  0  0  0  0  0  # atno 17320 bound_to 7965
  146.2072  140.6079  142.9076 LP  0  0  0  0  0  0  0  0  0  0  0  0  # atno 17321 bound_to 7965
  140.2015  144.4653  150.6429 LP  0  0  0  0  0  0  0  0  0  0  0  0  # atno 17342 bound_to 10162
  140.6538  143.2232  151.6016 LP  0  0  0  0  0  0  0  0  0  0  0  0  # atno 17343 bound_to 10162
  155.9705  130.4598  150.6048 LP  0  0  0  0  0  0  0  0  0  0  0  0  # atno 17370 bound_to 10713
  157.3811  131.0781  151.1476 LP  0  0  0  0  0  0  0  0  0  0  0  0  # atno 17371 bound_to 10713
  140.3906  134.2188  155.7166 LP  0  0  0  0  0  0  0  0  0  0  0  0  # atno 17394 bound_to 11000
  141.1933  133.8153  157.0802 LP  0  0  0  0  0  0  0  0  0  0  0  0  # atno 17395 bound_to 11000

$$$$
