AV-unprocessed.smi:193|AV-procd|sdf|1507|dock6
  -GOLD-   2262019343D 1   1.00000     0.00000
 Structure written by MMmdl.
 62 66  0  0  0  0  0  0  0  0  2 V2000
  146.4619  129.0650  151.6789 C   0  0  0  0  0  0  0  0  0  0  0  0
  146.1771  130.3908  152.4028 C   0  0  1  0  0  0  0  0  0  0  0  0
  147.0945  130.5084  153.6380 C   0  0  0  0  0  0  0  0  0  0  0  0
  146.5981  131.4151  154.6755 N   0  0  0  0  0  0  0  0  0  0  0  0
  147.1193  131.3008  155.9253 C   0  0  0  0  0  0  0  0  0  0  0  0
  148.1662  130.4574  156.1285 N   0  0  0  0  0  0  0  0  0  0  0  0
  148.7114  130.3348  157.3422 C   0  0  0  0  0  0  0  0  0  0  0  0
  148.3703  130.9501  158.4754 N   0  0  0  0  0  0  0  0  0  0  0  0
  147.3121  131.7883  158.2837 C   0  0  0  0  0  0  0  0  0  0  0  0
  146.6306  132.0195  157.0550 C   0  0  0  0  0  0  0  0  0  0  0  0
  145.5943  132.9248  157.2557 N   0  0  0  0  0  0  0  0  0  0  0  0
  145.6691  133.2221  158.5242 C   0  0  0  0  0  0  0  0  0  0  0  0
  146.6787  132.5919  159.2152 N   0  0  0  0  0  0  0  0  0  0  0  0
  146.9940  132.7440  160.6277 C   0  0  0  0  0  0  0  0  0  0  0  0
  146.9572  134.2113  161.1220 C   0  0  0  0  0  0  0  0  0  0  0  0
  145.5964  134.5812  161.2674 O   0  0  0  0  0  0  0  0  0  0  0  0
  147.6444  134.3347  162.4968 C   0  0  0  0  0  0  0  0  0  0  0  0
  147.7798  135.7995  162.9489 C   0  0  0  0  0  0  0  0  0  0  0  0
  148.4688  136.5524  161.9585 O   0  0  0  0  0  0  0  0  0  0  0  0
  147.7689  136.6041  160.7213 C   0  0  0  0  0  0  0  0  0  0  0  0
  147.6276  135.1893  160.1320 C   0  0  0  0  0  0  0  0  0  0  0  0
  145.8504  132.6319  154.3599 C   0  0  0  0  0  0  0  0  0  0  0  0
  146.3766  133.3684  153.1209 C   0  0  0  0  0  0  0  0  0  0  0  0
  145.7638  132.8374  151.8799 N   0  3  1  0  0  0  0  0  0  0  0  0
  145.7441  133.8471  150.7952 C   0  0  2  0  0  0  0  0  0  0  0  0
  144.4963  134.7017  150.7763 C   0  0  0  0  0  0  0  0  0  0  0  0
  144.6864  133.6292  149.7269 C   0  0  2  0  0  0  0  0  0  0  0  0
  143.7615  132.4260  149.6925 C   0  0  0  0  0  0  0  0  0  0  0  0
  146.3773  131.5668  151.4218 C   0  0  0  0  0  0  0  0  0  0  0  0
  147.4928  129.0189  151.3263 H   0  0  0  0  0  0  0  0  0  0  0  0
  145.8084  128.9361  150.8156 H   0  0  0  0  0  0  0  0  0  0  0  0
  146.2971  128.2123  152.3385 H   0  0  0  0  0  0  0  0  0  0  0  0
  145.1345  130.3560  152.7233 H   0  0  0  0  0  0  0  0  0  0  0  0
  147.1914  129.5208  154.0920 H   0  0  0  0  0  0  0  0  0  0  0  0
  148.1001  130.8056  153.3375 H   0  0  0  0  0  0  0  0  0  0  0  0
  149.5410  129.6467  157.4153 H   0  0  0  0  0  0  0  0  0  0  0  0
  144.9896  133.9184  158.9939 H   0  0  0  0  0  0  0  0  0  0  0  0
  146.2961  132.1322  161.2011 H   0  0  0  0  0  0  0  0  0  0  0  0
  147.9825  132.3168  160.8016 H   0  0  0  0  0  0  0  0  0  0  0  0
  145.4386  134.7942  162.1743 H   0  0  0  0  0  0  0  0  0  0  0  0
  147.1042  133.7587  163.2492 H   0  0  0  0  0  0  0  0  0  0  0  0
  148.6434  133.9004  162.4400 H   0  0  0  0  0  0  0  0  0  0  0  0
  146.8030  136.2437  163.1465 H   0  0  0  0  0  0  0  0  0  0  0  0
  148.3427  135.8502  163.8811 H   0  0  0  0  0  0  0  0  0  0  0  0
  146.7927  137.0706  160.8617 H   0  0  0  0  0  0  0  0  0  0  0  0
  148.3246  137.2395  160.0316 H   0  0  0  0  0  0  0  0  0  0  0  0
  148.6219  134.8186  159.8806 H   0  0  0  0  0  0  0  0  0  0  0  0
  147.0728  135.2376  159.1942 H   0  0  0  0  0  0  0  0  0  0  0  0
  144.7904  132.3972  154.2560 H   0  0  0  0  0  0  0  0  0  0  0  0
  145.9246  133.3299  155.1942 H   0  0  0  0  0  0  0  0  0  0  0  0
  146.0880  134.4149  153.2258 H   0  0  0  0  0  0  0  0  0  0  0  0
  147.4665  133.3622  153.0680 H   0  0  0  0  0  0  0  0  0  0  0  0
  146.7059  134.2896  150.5409 H   0  0  0  0  0  0  0  0  0  0  0  0
  143.7433  134.5307  151.5438 H   0  0  0  0  0  0  0  0  0  0  0  0
  144.6002  135.7356  150.4533 H   0  0  0  0  0  0  0  0  0  0  0  0
  144.9560  133.9836  148.7338 H   0  0  0  0  0  0  0  0  0  0  0  0
  143.4375  132.1429  150.6944 H   0  0  0  0  0  0  0  0  0  0  0  0
  144.2661  131.5759  149.2334 H   0  0  0  0  0  0  0  0  0  0  0  0
  142.8751  132.6583  149.1019 H   0  0  0  0  0  0  0  0  0  0  0  0
  147.4375  131.7189  151.2126 H   0  0  0  0  0  0  0  0  0  0  0  0
  145.9189  131.3046  150.4677 H   0  0  0  0  0  0  0  0  0  0  0  0
  144.7964  132.6414  152.0938 H   0  0  0  0  0  0  0  0  0  0  0  0
  1  2  1  0  0  0  0
  1 30  1  0  0  0  0
  1 31  1  0  0  0  0
  1 32  1  0  0  0  0
  2 29  1  0  0  0  0
  2  3  1  0  0  0  0
  2 33  1  0  0  0  0
  3  4  1  0  0  0  0
  3 34  1  0  0  0  0
  3 35  1  0  0  0  0
  4  5  1  0  0  0  0
  4 22  1  0  0  0  0
  5 10  1  0  0  0  0
  5  6  2  0  0  0  0
  6  7  1  0  0  0  0
  7  8  2  0  0  0  0
  7 36  1  0  0  0  0
  8  9  1  0  0  0  0
  9 13  1  0  0  0  0
  9 10  2  0  0  0  0
 10 11  1  0  0  0  0
 11 12  2  0  0  0  0
 12 13  1  0  0  0  0
 12 37  1  0  0  0  0
 13 14  1  0  0  0  0
 14 15  1  0  0  0  0
 14 38  1  0  0  0  0
 14 39  1  0  0  0  0
 15 21  1  0  0  0  0
 15 16  1  0  0  0  0
 15 17  1  0  0  0  0
 16 40  1  0  0  0  0
 17 18  1  0  0  0  0
 17 41  1  0  0  0  0
 17 42  1  0  0  0  0
 18 19  1  0  0  0  0
 18 43  1  0  0  0  0
 18 44  1  0  0  0  0
 19 20  1  0  0  0  0
 20 21  1  0  0  0  0
 20 45  1  0  0  0  0
 20 46  1  0  0  0  0
 21 47  1  0  0  0  0
 21 48  1  0  0  0  0
 22 23  1  0  0  0  0
 22 49  1  0  0  0  0
 22 50  1  0  0  0  0
 23 24  1  0  0  0  0
 23 51  1  0  0  0  0
 23 52  1  0  0  0  0
 24 25  1  0  0  0  0
 24 29  1  0  0  0  0
 24 62  1  0  0  0  0
 25 27  1  0  0  0  0
 25 26  1  0  0  0  0
 25 53  1  0  0  0  0
 26 27  1  0  0  0  0
 26 54  1  0  0  0  0
 26 55  1  0  0  0  0
 27 28  1  0  0  0  0
 27 56  1  0  0  0  0
 28 57  1  0  0  0  0
 28 58  1  0  0  0  0
 28 59  1  0  0  0  0
 29 60  1  0  0  0  0
 29 61  1  0  0  0  0
M  CHG  1  24   1
M  END
> <s_m_source_file>
AV-unprocessed.smi

> <i_m_source_file_index>
193

> <i_lp_mmshare_version>
43012

> <i_f3d_flags>
0

> <s_epik_input>
W0NIM11bQ0BASF0xW0NIMl1bQ0BIXTFOKFtDSDJdMilbQ0gyXVtDSDJdTihbQ0gyXVtDQEhdMltDSDNdKWMobltjSF1uMyljKGMzNCluW2NIXW40W0NIMl1DNShbT0hdKVtDSDJdW0NIMl1PW0NIMl1bQ0gyXTU=

> <s_epik_cmdline>
J2VwaWtfcHl0aG9uJywgJy1waCcsICc3LjAnLCAnLXRuJywgJzgnLCAnLW1hJywgJzIwMCcsICctbWV0YWxfYmluZGluZycsICctaW1hZScsICc8aW5maWxlLm1hZT4nLCAnLW9tYWUnLCAnPG91dGZpbGUubWFlPic=

> <r_lp_tautomer_probability>
1

> <r_epik_Ionization_Penalty>
0.0540825

> <r_epik_Ionization_Penalty_Charging>
0.0538476

> <r_epik_Ionization_Penalty_Neutral>
0.000234891

> <r_epik_State_Penalty>
0.0200719

> <r_epik_Charging_Adjusted_Penalty>
0.0739194

> <i_epik_Tot_Q>
1

> <i_epik_Tot_abs_Q>
1

> <r_epik_Metal_State_Penalty>
0.0199414

> <b_epik_Metal_Only>
0

> <s_lp_Force_Field>
OPLS_2005

> <r_lp_Energy>
56.3109

> <b_lp_Chiralities_Consistent>
1

> <s_lp_Variant>
AV-unprocessed.smi:193-12

> <Gold.Version>
5.8.1

> <Gold.Id.Protein>
6NUR|6NUR_protein|mol2

> <Gold.PLP.Fitness>
38.8698

> <Gold.PLP.PLP>
-36.8291

> <Gold.PLP.part.hbond>
-1.0000

> <Gold.PLP.part.metal>
0.0000

> <Gold.PLP.part.buried>
-1.3378

> <Gold.PLP.part.nonpolar>
-35.3216

> <Gold.PLP.part.repulsive>
0.0705

> <Gold.PLP.ligand.clash>
0.0000

> <Gold.PLP.ligand.torsion>
1.1622

> <Gold.PLP.Chemscore.Hbond>
1.0000

> <Gold.PLP.Chemscore.CHOScore>
0.0000

> <Gold.PLP.Chemscore.Metal>
0.0000

> <Gold.Chemscore.Hbonds>
donor molecule, donor type, donor heavy atom, donor atom, acceptor molecule, acceptor atom, score
      P1  H  6931  6943       L1    19  0.80

> <Gold.PLP.Chemscore.Internal.Correction>
1.3651

> <Gold.Rescore>
     Score         DG    S(hbond)    S(metal)    S(lipo)     H(rot)  DE(clash)    DE(int)     intcor
     13.94     -16.87       0.95        0.00     112.36       1.93       0.43       2.49       ----

> <Gold.Chemscore.Fitness>
13.9450

> <Gold.Chemscore.DG>
-16.8656

> <Gold.Chemscore.ZeroCoef>
-5.4800

> <Gold.Chemscore.Hbond>
0.9516

> <Gold.Chemscore.Metal>
0.0000

> <Gold.Chemscore.Lipo>
112.3561

> <Gold.Chemscore.Internal_Hbond>
0.0000

> <Gold.Chemscore.DEClash>
0.4347

> <Gold.Chemscore.DEInternal>
2.4859

> <Gold.Chemscore.Rot>
1.9290

> <Gold.Chemscore.Internal.Correction>
   9.000000E+99

> <Gold.Chemscore.Hbonds>
donor molecule, donor type, donor heavy atom, donor atom, acceptor molecule, acceptor atom, score
      P1  H  6931  6943       L1    19  0.12

> <Gold.Chemscore.Hbond.Weighted>
-3.1782

> <Gold.Chemscore.Metal.Weighted>
-0.0000

> <Gold.Chemscore.Lipo.Weighted>
-13.1457

> <Gold.Chemscore.Internal_Hbond.Weighted>
0.0000

> <Gold.Chemscore.DEClash.Weighted>
0.4347

> <Gold.Chemscore.DEInternal.Weighted>
2.4859

> <Gold.Chemscore.Rot.Weighted>
4.9383

> <Gold.Chemscore.Internal.Correction.Weighted>
   9.000000E+99

> <Gold.Protein.RotatedTorsions>
[ 6907 6896 6895 6894 ] final  -32.94 input  -60.11 | X-H torsion
[ 7974 7965 7964 7962 ] final   71.79 input  175.53 | X-H torsion
[ 8008 7997 7996 7995 ] final   -4.76 input   59.86 | X-H torsion
[ 10167 10162 10161 10158 ] final   61.58 input  -65.29 | X-H torsion
[ 10718 10713 10712 10709 ] final  140.21 input   66.30 | X-H torsion
[ 10763 10752 10751 10750 ] final   23.14 input  -60.55 | X-H torsion
[ 11005 11000 10999 10996 ] final -140.61 input  -57.11 | X-H torsion

> <Gold.Protein.ActiveResidues>
 VAL166  LYS551  ARG553  GLY616  TRP617  ASP618  TYR619  PRO620  LYS621  CYS622 
 ASP623  PHE694  ASN695  SER759  ASP760  ASP761  ALA762  ILE779  LEU786  VAL792 
 PHE793  MET794  SER795  GLU796  ALA797  LYS798  CYS799  TRP800  GLU811  SER814 

> <Gold.Protein.RotatedAtoms>
  151.0722  134.9805  159.8313 H   0  0  0  0  0  0  0  0  0  0  0  0  # atno 6907 bound_to 6896
  152.5410  134.2285  159.8826 H   0  0  0  0  0  0  0  0  0  0  0  0  # atno 6908 bound_to 6896
  151.2311  133.4406  159.2637 H   0  0  0  0  0  0  0  0  0  0  0  0  # atno 6909 bound_to 6896
  145.7615  139.2802  143.1373 H   0  0  0  0  0  0  0  0  0  0  0  0  # atno 7974 bound_to 7965
  154.6109  140.2475  155.7670 H   0  0  0  0  0  0  0  0  0  0  0  0  # atno 8008 bound_to 7997
  156.2370  140.2946  156.0289 H   0  0  0  0  0  0  0  0  0  0  0  0  # atno 8009 bound_to 7997
  155.2054  140.0395  157.2915 H   0  0  0  0  0  0  0  0  0  0  0  0  # atno 8010 bound_to 7997
  140.1532  144.4443  150.6748 H   0  0  0  0  0  0  0  0  0  0  0  0  # atno 10167 bound_to 10162
  157.4058  131.1022  151.0505 H   0  0  0  0  0  0  0  0  0  0  0  0  # atno 10718 bound_to 10713
  153.0861  135.6633  153.9947 H   0  0  0  0  0  0  0  0  0  0  0  0  # atno 10763 bound_to 10752
  153.9556  135.2979  155.3438 H   0  0  0  0  0  0  0  0  0  0  0  0  # atno 10764 bound_to 10752
  154.7269  135.5140  153.8973 H   0  0  0  0  0  0  0  0  0  0  0  0  # atno 10765 bound_to 10752
  140.8405  134.2407  157.4812 H   0  0  0  0  0  0  0  0  0  0  0  0  # atno 11005 bound_to 11000
  146.0259  140.8304  142.9900 LP  0  0  0  0  0  0  0  0  0  0  0  0  # atno 17320 bound_to 7965
  144.6829  140.2698  143.7307 LP  0  0  0  0  0  0  0  0  0  0  0  0  # atno 17321 bound_to 7965
  140.6689  143.2278  151.5673 LP  0  0  0  0  0  0  0  0  0  0  0  0  # atno 17342 bound_to 10162
  139.5416  144.2632  152.1361 LP  0  0  0  0  0  0  0  0  0  0  0  0  # atno 17343 bound_to 10162
  157.1487  130.6175  149.5576 LP  0  0  0  0  0  0  0  0  0  0  0  0  # atno 17370 bound_to 10713
  155.9836  130.4856  150.6941 LP  0  0  0  0  0  0  0  0  0  0  0  0  # atno 17371 bound_to 10713
  139.8703  134.9633  156.4457 LP  0  0  0  0  0  0  0  0  0  0  0  0  # atno 17394 bound_to 11000
  140.8900  133.7855  155.9561 LP  0  0  0  0  0  0  0  0  0  0  0  0  # atno 17395 bound_to 11000

$$$$
