#       Name:                AV-unprocessed.smi:675
#       Creating user name   scv26
#       Creation time:       Fri Mar 27 00:26:47 2020


#       File generated by GOLD software.
#

@<TRIPOS>MOLECULE
AV-unprocessed.smi:675
    35    36     1
SMALL
NO_CHARGES


@<TRIPOS>ATOM
      1 ****        -3.1308   3.5515  -0.7636 O.2            1 S1                 0.0000
      2 ****        -2.6496   2.4194  -0.7626 C.2            1 S1                 0.0000
      3 ****        -2.5356   1.6684   0.3716 N.pl3          1 S1                -1.0000
      4 ****        -1.9996   0.4094   0.3941 C.2            1 S1                 0.0000
      5 ****        -1.9037  -0.2428   1.4336 O.2            1 S1                 0.0000
      6 ****        -1.5511  -0.1358  -0.7766 N.am           1 S1                 0.0000
      7 ****        -0.9350  -1.4699  -0.8585 C.3            1 S1                 0.0000
      8 ****         0.6091  -1.4093  -0.8939 C.3            1 S1                 0.0000
      9 ****         1.0935  -2.7275  -1.0570 O.3            1 S1                 0.0000
     10 ****         1.2102  -0.7190   0.3309 C.ar           1 S1                 0.0000
     11 ****         1.2660  -1.4230   1.5556 C.ar           1 S1                 0.0000
     12 ****         1.7881  -0.8149   2.7124 C.ar           1 S1                 0.0000
     13 ****         2.2610   0.5081   2.6574 C.ar           1 S1                 0.0000
     14 ****         2.2085   1.2200   1.4453 C.ar           1 S1                 0.0000
     15 ****         1.6858   0.6174   0.2834 C.ar           1 S1                 0.0000
     16 ****         1.6377   1.5559  -1.1686 Cl             1 S1                 0.0000
     17 ****        -1.6530   0.5930  -1.9734 C.2            1 S1                 0.0000
     18 ****        -2.1749   1.8340  -2.0145 C.2            1 S1                 0.0000
     19 ****        -2.2736   2.7102  -3.5001 Cl             1 S1                 0.0000
     20 ****        -1.2628  -2.1084  -0.0367 H              1 S1                 0.0000
     21 ****        -1.3003  -1.9671  -1.7587 H              1 S1                 0.0000
     22 ****         0.9132  -0.8853  -1.7984 H              1 S1                 0.0000
     23 ****         2.0288  -2.6880  -1.1846 H              1 S1                 0.0000
     24 ****         0.8936  -2.4352   1.6157 H              1 S1                 0.0000
     25 ****         1.8200  -1.3621   3.6428 H              1 S1                 0.0000
     26 ****         2.6593   0.9783   3.5444 H              1 S1                 0.0000
     27 ****         2.5673   2.2380   1.4081 H              1 S1                 0.0000
     28 ****        -1.2718   0.0859  -2.8479 H              1 S1                 0.0000
     29 ****        -3.1956   4.0664  -1.6184 LP             1 S1                 0.0000
     30 ****        -3.4572   3.9568   0.0903 LP             1 S1                 0.0000
     31 ****        -2.8613   2.0593   1.2325 LP             1 S1                 0.0000
     32 ****        -2.2229   0.1448   2.2984 LP             1 S1                 0.0000
     33 ****        -1.5066  -1.1604   1.4133 LP             1 S1                 0.0000
     34 ****         0.6615  -3.1499  -1.8539 LP             1 S1                 0.0000
     35 ****         0.8865  -3.2668  -0.2407 LP             1 S1                 0.0000
@<TRIPOS>BOND
    1    1    2 2     
    2    2   18 1     
    3    2    3 1     
    4    3    4 1     
    5    4    5 2     
    6    4    6 am    
    7    6    7 1     
    8    6   17 1     
    9    7    8 1     
   10    7   20 1     
   11    7   21 1     
   12    8    9 1     
   13    8   10 1     
   14    8   22 1     
   15    9   23 1     
   16   10   15 ar    
   17   10   11 ar    
   18   11   12 ar    
   19   11   24 1     
   20   12   13 ar    
   21   12   25 1     
   22   13   14 ar    
   23   13   26 1     
   24   14   15 ar    
   25   14   27 1     
   26   15   16 1     
   27   17   18 2     
   28   17   28 1     
   29   18   19 1     
   30    1   29 1     
   31    1   30 1     
   32    3   31 1     
   33    5   32 1     
   34    5   33 1     
   35    9   34 1     
   36    9   35 1     
@<TRIPOS>SUBSTRUCTURE
      1 S1             1
@<TRIPOS>SET
LONE_PAIRS      STATIC     ATOMS    <user>   **** ""
7 29 30 31 32 33 34 35
DONOR_HYDROGENS      STATIC     ATOMS    <user>   **** ""
1 23
ATOM$BLUE        STATIC     ATOMS    COLORGROUP SYSTEM
7 29 30 31 32 33 34 35
ATOM$RED        STATIC     ATOMS    COLORGROUP SYSTEM
1 23
