AV-unprocessed.smi:540|AV-procd|sdf|2869|dock10
  -GOLD-   2262023363D 1   1.00000     0.00000
 Structure written by MMmdl.
 49 51  0  0  0  0  0  0  0  0  1 V2000
  150.4619  140.8578  156.4359 C   0  0  0  0  0  0  0  0  0  0  0  0
  151.3200  139.7189  155.8806 C   0  0  0  0  0  0  0  0  0  0  0  0
  152.5698  139.7186  156.5491 O   0  0  0  0  0  0  0  0  0  0  0  0
  152.5466  138.9693  157.7517 C   0  0  0  0  0  0  0  0  0  0  0  0
  152.0725  139.8797  158.8906 C   0  0  0  0  0  0  0  0  0  0  0  0
  152.9342  139.7611  160.0637 N   0  0  0  0  0  0  0  0  0  0  0  0
  153.4825  140.7551  160.8170 C   0  0  0  0  0  0  0  0  0  0  0  0
  153.2935  142.1079  160.5252 N   0  0  0  0  0  0  0  0  0  0  0  0
  153.5176  142.7632  159.2367 C   0  0  0  0  0  0  0  0  0  0  0  0
  152.2846  143.5695  158.7904 C   0  0  0  0  0  0  0  0  0  0  0  0
  151.9144  144.6284  159.8436 C   0  0  0  0  0  0  0  0  0  0  0  0
  150.6289  145.3790  159.4691 C   0  0  0  0  0  0  0  0  0  0  0  0
  151.8061  143.9608  161.2262 C   0  0  0  0  0  0  0  0  0  0  0  0
  153.0637  143.1313  161.5427 C   0  0  0  0  0  0  0  0  0  0  0  0
  154.1673  140.3304  161.8825 N   0  0  0  0  0  0  0  0  0  0  0  0
  154.0703  138.9510  161.7912 C   0  0  0  0  0  0  0  0  0  0  0  0
  153.3236  138.5889  160.7166 C   0  0  0  0  0  0  0  0  0  0  0  0
  153.0183  137.1831  160.4117 C   0  0  0  0  0  0  0  0  0  0  0  0
  152.3215  136.8267  159.4644 O   0  0  0  0  0  0  0  0  0  0  0  0
  153.5767  136.3144  161.2891 N   0  0  0  0  0  0  0  0  0  0  0  0
  154.3437  136.6125  162.3814 C   0  0  0  0  0  0  0  0  0  0  0  0
  154.7780  135.7075  163.0938 O   0  0  0  0  0  0  0  0  0  0  0  0
  154.5956  137.9354  162.6403 N   0  0  0  0  0  0  0  0  0  0  0  0
  155.4017  138.3137  163.8026 C   0  0  0  0  0  0  0  0  0  0  0  0
  153.4004  135.3347  161.1213 H   0  0  0  0  0  0  0  0  0  0  0  0
  149.4894  140.8884  155.9443 H   0  0  0  0  0  0  0  0  0  0  0  0
  150.9453  141.8230  156.2820 H   0  0  0  0  0  0  0  0  0  0  0  0
  150.2926  140.7336  157.5057 H   0  0  0  0  0  0  0  0  0  0  0  0
  150.8118  138.7652  156.0312 H   0  0  0  0  0  0  0  0  0  0  0  0
  151.4674  139.8505  154.8074 H   0  0  0  0  0  0  0  0  0  0  0  0
  151.8698  138.1205  157.6443 H   0  0  0  0  0  0  0  0  0  0  0  0
  153.5395  138.5739  157.9715 H   0  0  0  0  0  0  0  0  0  0  0  0
  152.0322  140.9147  158.5586 H   0  0  0  0  0  0  0  0  0  0  0  0
  151.0483  139.6415  159.1594 H   0  0  0  0  0  0  0  0  0  0  0  0
  154.3763  143.4297  159.3290 H   0  0  0  0  0  0  0  0  0  0  0  0
  153.8001  142.0320  158.4804 H   0  0  0  0  0  0  0  0  0  0  0  0
  152.4864  144.0494  157.8324 H   0  0  0  0  0  0  0  0  0  0  0  0
  151.4408  142.8985  158.6275 H   0  0  0  0  0  0  0  0  0  0  0  0
  152.7256  145.3567  159.8867 H   0  0  0  0  0  0  0  0  0  0  0  0
  149.7770  144.7009  159.4090 H   0  0  0  0  0  0  0  0  0  0  0  0
  150.7311  145.8724  158.5022 H   0  0  0  0  0  0  0  0  0  0  0  0
  150.3938  146.1460  160.2074 H   0  0  0  0  0  0  0  0  0  0  0  0
  151.6609  144.7185  161.9967 H   0  0  0  0  0  0  0  0  0  0  0  0
  150.9280  143.3144  161.2587 H   0  0  0  0  0  0  0  0  0  0  0  0
  152.9497  142.6582  162.5186 H   0  0  0  0  0  0  0  0  0  0  0  0
  153.9394  143.7779  161.6124 H   0  0  0  0  0  0  0  0  0  0  0  0
  156.3525  137.7784  163.8070 H   0  0  0  0  0  0  0  0  0  0  0  0
  154.8714  138.0740  164.7250 H   0  0  0  0  0  0  0  0  0  0  0  0
  155.6338  139.3785  163.8224 H   0  0  0  0  0  0  0  0  0  0  0  0
  1  2  1  0  0  0  0
  1 26  1  0  0  0  0
  1 27  1  0  0  0  0
  1 28  1  0  0  0  0
  2  3  1  0  0  0  0
  2 29  1  0  0  0  0
  2 30  1  0  0  0  0
  3  4  1  0  0  0  0
  4  5  1  0  0  0  0
  4 31  1  0  0  0  0
  4 32  1  0  0  0  0
  5  6  1  0  0  0  0
  5 33  1  0  0  0  0
  5 34  1  0  0  0  0
  6 17  1  0  0  0  0
  6  7  1  0  0  0  0
  7  8  1  0  0  0  0
  7 15  2  0  0  0  0
  8 14  1  0  0  0  0
  8  9  1  0  0  0  0
  9 10  1  0  0  0  0
  9 35  1  0  0  0  0
  9 36  1  0  0  0  0
 10 11  1  0  0  0  0
 10 37  1  0  0  0  0
 10 38  1  0  0  0  0
 11 12  1  0  0  0  0
 11 13  1  0  0  0  0
 11 39  1  0  0  0  0
 12 40  1  0  0  0  0
 12 41  1  0  0  0  0
 12 42  1  0  0  0  0
 13 14  1  0  0  0  0
 13 43  1  0  0  0  0
 13 44  1  0  0  0  0
 14 45  1  0  0  0  0
 14 46  1  0  0  0  0
 15 16  1  0  0  0  0
 16 23  1  0  0  0  0
 16 17  2  0  0  0  0
 17 18  1  0  0  0  0
 18 19  2  0  0  0  0
 18 20  1  0  0  0  0
 20 25  1  0  0  0  0
 20 21  1  0  0  0  0
 21 22  2  0  0  0  0
 21 23  1  0  0  0  0
 23 24  1  0  0  0  0
 24 47  1  0  0  0  0
 24 48  1  0  0  0  0
 24 49  1  0  0  0  0
M  END
> <s_m_source_file>
AV-unprocessed.smi

> <i_m_source_file_index>
540

> <i_lp_mmshare_version>
43012

> <i_f3d_flags>
0

> <s_epik_input>
W0NIM11uMWMoPU8pW25IXWMoPU8pYyhjMTIpbihbQ0gyXVtDSDJdT1tDSDJdW0NIM10pYyhuMilOM1tDSDJdW0NIMl1bQ0hdKFtDSDNdKVtDSDJdW0NIMl0z

> <s_epik_cmdline>
J2VwaWtfcHl0aG9uJywgJy1waCcsICc3LjAnLCAnLXRuJywgJzgnLCAnLW1hJywgJzIwMCcsICctbWV0YWxfYmluZGluZycsICctaW1hZScsICc8aW5maWxlLm1hZT4nLCAnLW9tYWUnLCAnPG91dGZpbGUubWFlPic=

> <r_lp_tautomer_probability>
1

> <r_epik_Ionization_Penalty>
0.000763957

> <r_epik_Ionization_Penalty_Charging>
0.000121351

> <r_epik_Ionization_Penalty_Neutral>
0.000642606

> <r_epik_State_Penalty>
-0

> <r_epik_Charging_Adjusted_Penalty>
0.000121351

> <i_epik_Tot_Q>
0

> <i_epik_Tot_abs_Q>
0

> <r_epik_Metal_State_Penalty>
0.0930422

> <b_epik_Metal_Only>
0

> <s_lp_Force_Field>
OPLS_2005

> <r_lp_Energy>
38.5385

> <b_lp_Chiralities_Consistent>
1

> <s_lp_Variant>
AV-unprocessed.smi:540-1

> <Gold.Version>
5.8.1

> <Gold.Id.Protein>
6NUR|6NUR_protein|mol2

> <Gold.PLP.Fitness>
51.5812

> <Gold.PLP.PLP>
-48.1042

> <Gold.PLP.part.hbond>
-2.0000

> <Gold.PLP.part.metal>
0.0000

> <Gold.PLP.part.buried>
-4.7205

> <Gold.PLP.part.nonpolar>
-39.9315

> <Gold.PLP.part.repulsive>
0.0898

> <Gold.PLP.ligand.clash>
0.0000

> <Gold.PLP.ligand.torsion>
1.4986

> <Gold.PLP.Chemscore.Hbond>
2.0000

> <Gold.PLP.Chemscore.CHOScore>
0.0000

> <Gold.PLP.Chemscore.Metal>
0.0000

> <Gold.Chemscore.Hbonds>
donor molecule, donor type, donor heavy atom, donor atom, acceptor molecule, acceptor atom, score
      P1  H  6896  6908       L1    19  0.95
      P1  H  7997  8010       L1     3  1.00

> <Gold.PLP.Chemscore.Internal.Correction>
0.4741

> <Gold.Rescore>
     Score         DG    S(hbond)    S(metal)    S(lipo)     H(rot)  DE(clash)    DE(int)     intcor
     16.63     -19.69       1.90        0.00     101.87       1.58       0.18       2.87       ----

> <Gold.Chemscore.Fitness>
16.6342

> <Gold.Chemscore.DG>
-19.6860

> <Gold.Chemscore.ZeroCoef>
-5.4800

> <Gold.Chemscore.Hbond>
1.8964

> <Gold.Chemscore.Metal>
0.0000

> <Gold.Chemscore.Lipo>
101.8672

> <Gold.Chemscore.Internal_Hbond>
0.0000

> <Gold.Chemscore.DEClash>
0.1781

> <Gold.Chemscore.DEInternal>
2.8737

> <Gold.Chemscore.Rot>
1.5806

> <Gold.Chemscore.Internal.Correction>
   9.000000E+99

> <Gold.Chemscore.Hbonds>
donor molecule, donor type, donor heavy atom, donor atom, acceptor molecule, acceptor atom, score
      P1  H  6896  6908       L1    19  0.21
      P1  H  7997  8010       L1     3  0.59

> <Gold.Chemscore.Hbond.Weighted>
-6.3338

> <Gold.Chemscore.Metal.Weighted>
-0.0000

> <Gold.Chemscore.Lipo.Weighted>
-11.9185

> <Gold.Chemscore.Internal_Hbond.Weighted>
0.0000

> <Gold.Chemscore.DEClash.Weighted>
0.1781

> <Gold.Chemscore.DEInternal.Weighted>
2.8737

> <Gold.Chemscore.Rot.Weighted>
4.0463

> <Gold.Chemscore.Internal.Correction.Weighted>
   9.000000E+99

> <Gold.Protein.RotatedTorsions>
[ 6907 6896 6895 6894 ] final  -99.07 input  -60.11 | X-H torsion
[ 7974 7965 7964 7962 ] final   68.13 input  175.53 | X-H torsion
[ 8008 7997 7996 7995 ] final   85.90 input   59.86 | X-H torsion
[ 10167 10162 10161 10158 ] final  -63.98 input  -65.29 | X-H torsion
[ 10718 10713 10712 10709 ] final   75.95 input   66.30 | X-H torsion
[ 10763 10752 10751 10750 ] final    8.61 input  -60.55 | X-H torsion
[ 11005 11000 10999 10996 ] final  130.36 input  -57.11 | X-H torsion

> <Gold.Protein.ActiveResidues>
 VAL166  LYS551  ARG553  GLY616  TRP617  ASP618  TYR619  PRO620  LYS621  CYS622 
 ASP623  PHE694  ASN695  SER759  ASP760  ASP761  ALA762  ILE779  LEU786  VAL792 
 PHE793  MET794  SER795  GLU796  ALA797  LYS798  CYS799  TRP800  GLU811  SER814 

> <Gold.Protein.RotatedAtoms>
  150.7068  134.1096  159.3995 H   0  0  0  0  0  0  0  0  0  0  0  0  # atno 6907 bound_to 6896
  151.9083  135.0347  160.0521 H   0  0  0  0  0  0  0  0  0  0  0  0  # atno 6908 bound_to 6896
  152.2357  133.5059  159.5278 H   0  0  0  0  0  0  0  0  0  0  0  0  # atno 6909 bound_to 6896
  145.8062  139.3008  143.1125 H   0  0  0  0  0  0  0  0  0  0  0  0  # atno 7974 bound_to 7965
  155.9560  140.3397  155.6449 H   0  0  0  0  0  0  0  0  0  0  0  0  # atno 8008 bound_to 7997
  155.6859  140.0743  157.2485 H   0  0  0  0  0  0  0  0  0  0  0  0  # atno 8009 bound_to 7997
  154.4132  140.1666  156.2021 H   0  0  0  0  0  0  0  0  0  0  0  0  # atno 8010 bound_to 7997
  140.5833  143.2330  151.6296 H   0  0  0  0  0  0  0  0  0  0  0  0  # atno 10167 bound_to 10162
  157.6654  130.9751  150.1427 H   0  0  0  0  0  0  0  0  0  0  0  0  # atno 10718 bound_to 10713
  153.2231  135.6883  153.7977 H   0  0  0  0  0  0  0  0  0  0  0  0  # atno 10763 bound_to 10752
  153.7168  135.3273  155.3259 H   0  0  0  0  0  0  0  0  0  0  0  0  # atno 10764 bound_to 10752
  154.8279  135.4603  154.1086 H   0  0  0  0  0  0  0  0  0  0  0  0  # atno 10765 bound_to 10752
  139.9667  134.9588  156.9282 H   0  0  0  0  0  0  0  0  0  0  0  0  # atno 11005 bound_to 11000
  145.9825  140.8670  143.0107 LP  0  0  0  0  0  0  0  0  0  0  0  0  # atno 17320 bound_to 7965
  144.6762  140.2101  143.7378 LP  0  0  0  0  0  0  0  0  0  0  0  0  # atno 17321 bound_to 7965
  139.5182  144.3290  152.0843 LP  0  0  0  0  0  0  0  0  0  0  0  0  # atno 17342 bound_to 10162
  140.2443  144.4236  150.6247 LP  0  0  0  0  0  0  0  0  0  0  0  0  # atno 17343 bound_to 10162
  156.2246  130.3677  149.8516 LP  0  0  0  0  0  0  0  0  0  0  0  0  # atno 17370 bound_to 10713
  156.6359  130.8685  151.3504 LP  0  0  0  0  0  0  0  0  0  0  0  0  # atno 17371 bound_to 10713
  140.5381  134.0747  155.7334 LP  0  0  0  0  0  0  0  0  0  0  0  0  # atno 17394 bound_to 11000
  141.1347  133.9242  157.2460 LP  0  0  0  0  0  0  0  0  0  0  0  0  # atno 17395 bound_to 11000

$$$$
