AV-unprocessed.smi:2066|AV-procd|sdf|8420|dock4
  -GOLD-   2272011113D 1   1.00000     0.00000
 Structure written by MMmdl.
 40 41  0  0  0  0  0  0  0  0  2 V2000
  146.1431  141.6405  155.3028 C   0  0  0  0  0  0  0  0  0  0  0  0
  146.8784  141.0305  154.0839 C   0  0  0  0  0  0  0  0  0  0  0  0
  146.7917  142.0522  152.9190 C   0  0  0  0  0  0  0  0  0  0  0  0
  148.3894  140.8037  154.4005 C   0  0  0  0  0  0  0  0  0  0  0  0
  148.9600  141.7699  155.3399 N   0  0  0  0  0  0  0  0  0  0  0  0
  150.0516  141.5738  156.0940 C   0  0  0  0  0  0  0  0  0  0  0  0
  150.7010  140.5276  156.0880 O   0  0  0  0  0  0  0  0  0  0  0  0
  150.3261  142.6558  156.8430 N   0  0  0  0  0  0  0  0  0  0  0  0
  151.3818  142.8318  157.7754 C   0  0  0  0  0  0  0  0  0  0  0  0
  152.0397  141.8289  158.3686 N   0  0  0  0  0  0  0  0  0  0  0  0
  153.0286  142.2933  159.2394 C   0  0  0  0  0  0  0  0  0  0  0  0
  153.1098  143.6622  159.2981 C   0  0  0  0  0  0  0  0  0  0  0  0
  151.9393  144.4275  158.2568 S   0  0  0  0  0  0  0  0  0  0  0  0
  146.2699  139.7046  153.6920 N   0  3  0  0  0  0  0  0  0  0  0  0
  146.8742  139.0557  152.4921 C   0  0  0  0  0  0  0  0  0  0  0  0
  146.0572  137.8259  152.0682 C   0  0  0  0  0  0  0  0  0  0  0  0
  146.0126  136.9008  153.1442 O   0  0  0  0  0  0  0  0  0  0  0  0
  145.3645  137.4534  154.2803 C   0  0  0  0  0  0  0  0  0  0  0  0
  146.1290  138.6929  154.7791 C   0  0  0  0  0  0  0  0  0  0  0  0
  146.4838  142.6556  155.5079 H   0  0  0  0  0  0  0  0  0  0  0  0
  146.3110  141.0645  156.2130 H   0  0  0  0  0  0  0  0  0  0  0  0
  145.0671  141.6986  155.1388 H   0  0  0  0  0  0  0  0  0  0  0  0
  147.3103  142.9827  153.1502 H   0  0  0  0  0  0  0  0  0  0  0  0
  145.7641  142.3433  152.7010 H   0  0  0  0  0  0  0  0  0  0  0  0
  147.2343  141.6547  152.0049 H   0  0  0  0  0  0  0  0  0  0  0  0
  148.5785  139.8013  154.7814 H   0  0  0  0  0  0  0  0  0  0  0  0
  148.9670  140.8756  153.4783 H   0  0  0  0  0  0  0  0  0  0  0  0
  148.4913  142.6612  155.4124 H   0  0  0  0  0  0  0  0  0  0  0  0
  149.7075  143.4462  156.7362 H   0  0  0  0  0  0  0  0  0  0  0  0
  153.6308  141.5774  159.7789 H   0  0  0  0  0  0  0  0  0  0  0  0
  153.7843  144.2642  159.8886 H   0  0  0  0  0  0  0  0  0  0  0  0
  146.9275  139.7373  151.6464 H   0  0  0  0  0  0  0  0  0  0  0  0
  147.8952  138.7394  152.7095 H   0  0  0  0  0  0  0  0  0  0  0  0
  145.0476  138.1091  151.7655 H   0  0  0  0  0  0  0  0  0  0  0  0
  146.5246  137.3434  151.2095 H   0  0  0  0  0  0  0  0  0  0  0  0
  144.3322  137.7080  154.0348 H   0  0  0  0  0  0  0  0  0  0  0  0
  145.3249  136.6970  155.0645 H   0  0  0  0  0  0  0  0  0  0  0  0
  147.1131  138.4011  155.1476 H   0  0  0  0  0  0  0  0  0  0  0  0
  145.5676  139.0862  155.6249 H   0  0  0  0  0  0  0  0  0  0  0  0
  145.3210  139.9292  153.4290 H   0  0  0  0  0  0  0  0  0  0  0  0
  1  2  1  0  0  0  0
  1 20  1  0  0  0  0
  1 21  1  0  0  0  0
  1 22  1  0  0  0  0
  2  3  1  0  0  0  0
  2  4  1  0  0  0  0
  2 14  1  0  0  0  0
  3 23  1  0  0  0  0
  3 24  1  0  0  0  0
  3 25  1  0  0  0  0
  4  5  1  0  0  0  0
  4 26  1  0  0  0  0
  4 27  1  0  0  0  0
  5  6  1  0  0  0  0
  5 28  1  0  0  0  0
  6  7  2  0  0  0  0
  6  8  1  0  0  0  0
  8  9  1  0  0  0  0
  8 29  1  0  0  0  0
  9 13  1  0  0  0  0
  9 10  2  0  0  0  0
 10 11  1  0  0  0  0
 11 12  2  0  0  0  0
 11 30  1  0  0  0  0
 12 13  1  0  0  0  0
 12 31  1  0  0  0  0
 14 19  1  0  0  0  0
 14 15  1  0  0  0  0
 14 40  1  0  0  0  0
 15 16  1  0  0  0  0
 15 32  1  0  0  0  0
 15 33  1  0  0  0  0
 16 17  1  0  0  0  0
 16 34  1  0  0  0  0
 16 35  1  0  0  0  0
 17 18  1  0  0  0  0
 18 19  1  0  0  0  0
 18 36  1  0  0  0  0
 18 37  1  0  0  0  0
 19 38  1  0  0  0  0
 19 39  1  0  0  0  0
M  CHG  1  14   1
M  END
> <s_m_source_file>
AV-unprocessed.smi

> <i_m_source_file_index>
2066

> <i_lp_mmshare_version>
43012

> <i_f3d_flags>
0

> <s_epik_input>
W0NIMl0xW0NIMl1PW0NIMl1bQ0gyXU4xQyhbQ0gzXSkoW0NIM10pW0NIMl1bTkhdQyg9TylbTkhdYzJuW2NIXVtjSF1zMg==

> <s_epik_cmdline>
J2VwaWtfcHl0aG9uJywgJy1waCcsICc3LjAnLCAnLXRuJywgJzgnLCAnLW1hJywgJzIwMCcsICctbWV0YWxfYmluZGluZycsICctaW1hZScsICc8aW5maWxlLm1hZT4nLCAnLW9tYWUnLCAnPG91dGZpbGUubWFlPic=

> <r_lp_tautomer_probability>
0.999

> <r_epik_Ionization_Penalty>
0.695839

> <r_epik_Ionization_Penalty_Charging>
0.695697

> <r_epik_Ionization_Penalty_Neutral>
0.000141498

> <r_epik_State_Penalty>
0.717972

> <r_epik_Charging_Adjusted_Penalty>
1.41367

> <i_epik_Tot_Q>
1

> <i_epik_Tot_abs_Q>
1

> <r_epik_Metal_State_Penalty>
0.756569

> <b_epik_Metal_Only>
0

> <s_lp_Force_Field>
OPLS_2005

> <r_lp_Energy>
24.1099

> <b_lp_Chiralities_Consistent>
1

> <s_lp_Variant>
AV-unprocessed.smi:2066-2

> <Gold.Version>
5.8.1

> <Gold.Id.Protein>
6NUR|6NUR_protein|mol2

> <Gold.PLP.Fitness>
43.2451

> <Gold.PLP.PLP>
-32.9197

> <Gold.PLP.part.hbond>
-3.0000

> <Gold.PLP.part.metal>
0.0000

> <Gold.PLP.part.buried>
-6.2146

> <Gold.PLP.part.nonpolar>
-24.1113

> <Gold.PLP.part.repulsive>
0.3844

> <Gold.PLP.ligand.clash>
0.0000

> <Gold.PLP.ligand.torsion>
0.7979

> <Gold.PLP.Chemscore.Hbond>
3.9440

> <Gold.PLP.Chemscore.CHOScore>
0.0000

> <Gold.PLP.Chemscore.Metal>
0.0000

> <Gold.Chemscore.Hbonds>
donor molecule, donor type, donor heavy atom, donor atom, acceptor molecule, acceptor atom, score
      L1  H     5    28       P1  8028  0.70
      L1  H     8    29       P1  8028  1.00
      L1  H    14    40       P1 10175  2.00

> <Gold.PLP.Chemscore.Internal.Correction>
0.0893

> <Gold.Rescore>
     Score         DG    S(hbond)    S(metal)    S(lipo)     H(rot)  DE(clash)    DE(int)     intcor
     16.47     -20.84       2.86        0.00      85.29       1.62       2.31       2.06       ----

> <Gold.Chemscore.Fitness>
16.4697

> <Gold.Chemscore.DG>
-20.8412

> <Gold.Chemscore.ZeroCoef>
-5.4800

> <Gold.Chemscore.Hbond>
2.8562

> <Gold.Chemscore.Metal>
0.0000

> <Gold.Chemscore.Lipo>
85.2863

> <Gold.Chemscore.Internal_Hbond>
0.0000

> <Gold.Chemscore.DEClash>
2.3075

> <Gold.Chemscore.DEInternal>
2.0640

> <Gold.Chemscore.Rot>
1.6238

> <Gold.Chemscore.Internal.Correction>
   9.000000E+99

> <Gold.Chemscore.Hbonds>
donor molecule, donor type, donor heavy atom, donor atom, acceptor molecule, acceptor atom, score
      L1  H     5    28       P1  8028  0.68
      L1  H     8    29       P1  8028  0.95
      L1  H    14    40       P1 10175  0.98

> <Gold.Chemscore.Hbond.Weighted>
-9.5397

> <Gold.Chemscore.Metal.Weighted>
-0.0000

> <Gold.Chemscore.Lipo.Weighted>
-9.9785

> <Gold.Chemscore.Internal_Hbond.Weighted>
0.0000

> <Gold.Chemscore.DEClash.Weighted>
2.3075

> <Gold.Chemscore.DEInternal.Weighted>
2.0640

> <Gold.Chemscore.Rot.Weighted>
4.1570

> <Gold.Chemscore.Internal.Correction.Weighted>
   9.000000E+99

> <Gold.Protein.RotatedTorsions>
[ 6907 6896 6895 6894 ] final  133.14 input  -60.11 | X-H torsion
[ 7974 7965 7964 7962 ] final  176.48 input  175.53 | X-H torsion
[ 8008 7997 7996 7995 ] final  -35.37 input   59.86 | X-H torsion
[ 10167 10162 10161 10158 ] final  155.07 input  -65.29 | X-H torsion
[ 10718 10713 10712 10709 ] final  -52.89 input   66.30 | X-H torsion
[ 10763 10752 10751 10750 ] final  170.00 input  -60.55 | X-H torsion
[ 11005 11000 10999 10996 ] final   69.63 input  -57.11 | X-H torsion

> <Gold.Protein.ActiveResidues>
 VAL166  LYS551  ARG553  GLY616  TRP617  ASP618  TYR619  PRO620  LYS621  CYS622 
 ASP623  PHE694  ASN695  SER759  ASP760  ASP761  ALA762  ILE779  LEU786  VAL792 
 PHE793  MET794  SER795  GLU796  ALA797  LYS798  CYS799  TRP800  GLU811  SER814 

> <Gold.Protein.RotatedAtoms>
  152.3251  133.5896  159.5770 H   0  0  0  0  0  0  0  0  0  0  0  0  # atno 6907 bound_to 6896
  150.7392  133.9953  159.3629 H   0  0  0  0  0  0  0  0  0  0  0  0  # atno 6908 bound_to 6896
  151.7833  135.0756  160.0428 H   0  0  0  0  0  0  0  0  0  0  0  0  # atno 6909 bound_to 6896
  144.7184  140.0102  143.6440 H   0  0  0  0  0  0  0  0  0  0  0  0  # atno 7974 bound_to 7965
  154.4097  140.1659  156.2201 H   0  0  0  0  0  0  0  0  0  0  0  0  # atno 8008 bound_to 7997
  155.9371  140.3410  155.6273 H   0  0  0  0  0  0  0  0  0  0  0  0  # atno 8009 bound_to 7997
  155.7035  140.0748  157.2391 H   0  0  0  0  0  0  0  0  0  0  0  0  # atno 8010 bound_to 7997
  139.4822  144.5131  151.7994 H   0  0  0  0  0  0  0  0  0  0  0  0  # atno 10167 bound_to 10162
  156.1582  130.4150  149.9835 H   0  0  0  0  0  0  0  0  0  0  0  0  # atno 10718 bound_to 10713
  154.3913  135.2754  155.2153 H   0  0  0  0  0  0  0  0  0  0  0  0  # atno 10763 bound_to 10752
  154.4218  135.5998  153.6018 H   0  0  0  0  0  0  0  0  0  0  0  0  # atno 10764 bound_to 10752
  152.9832  135.5974  154.4168 H   0  0  0  0  0  0  0  0  0  0  0  0  # atno 10765 bound_to 10752
  139.9643  134.7007  156.0579 H   0  0  0  0  0  0  0  0  0  0  0  0  # atno 11005 bound_to 11000
  146.0264  139.3296  143.0782 LP  0  0  0  0  0  0  0  0  0  0  0  0  # atno 17320 bound_to 7965
  145.8506  140.9531  143.0751 LP  0  0  0  0  0  0  0  0  0  0  0  0  # atno 17321 bound_to 7965
  140.4636  144.1686  150.5909 LP  0  0  0  0  0  0  0  0  0  0  0  0  # atno 17342 bound_to 10162
  140.4458  143.2507  151.9413 LP  0  0  0  0  0  0  0  0  0  0  0  0  # atno 17343 bound_to 10162
  156.7672  130.9173  151.3643 LP  0  0  0  0  0  0  0  0  0  0  0  0  # atno 17370 bound_to 10713
  157.6712  130.9053  150.0044 LP  0  0  0  0  0  0  0  0  0  0  0  0  # atno 17371 bound_to 10713
  141.1322  133.6583  156.3495 LP  0  0  0  0  0  0  0  0  0  0  0  0  # atno 17394 bound_to 11000
  140.5431  134.6101  157.5386 LP  0  0  0  0  0  0  0  0  0  0  0  0  # atno 17395 bound_to 11000

$$$$
