AV-unprocessed.smi:609|AV-procd|sdf|3052|dock10
  -GOLD-   2262023573D 1   1.00000     0.00000
 Structure written by MMmdl.
 43 45  0  0  0  0  0  0  0  0  2 V2000
  151.3331  140.9721  157.7810 C   0  0  0  0  0  0  0  0  0  0  0  0
  150.3697  140.8517  156.6124 C   0  0  0  0  0  0  0  0  0  0  0  0
  149.1396  141.5441  156.6778 C   0  0  0  0  0  0  0  0  0  0  0  0
  148.2802  141.4149  155.5932 C   0  0  0  0  0  0  0  0  0  0  0  0
  147.0185  141.9646  155.3562 N   0  3  0  0  0  0  0  0  0  0  0  0
  146.5635  141.5505  154.1413 C   0  0  0  0  0  0  0  0  0  0  0  0
  147.5152  140.7435  153.5995 N   0  0  0  0  0  0  0  0  0  0  0  0
  147.5226  140.0420  152.3079 C   0  0  0  0  0  0  0  0  0  0  0  0
  146.3896  139.0051  152.1866 C   0  0  1  0  0  0  0  0  0  0  0  0
  146.5150  138.2893  150.9729 O   0  0  0  0  0  0  0  0  0  0  0  0
  146.3964  138.0080  153.3605 C   0  0  0  0  0  0  0  0  0  0  0  0
  144.7506  137.3061  153.7022 S   0  0  0  0  0  0  0  0  0  0  0  0
  144.6352  136.1208  152.3952 C   0  0  0  0  0  0  0  0  0  0  0  0
  145.5567  135.9292  151.4542 N   0  0  0  0  0  0  0  0  0  0  0  0
  145.0473  134.9164  150.6497 C   0  0  0  0  0  0  0  0  0  0  0  0
  143.8220  134.5270  151.1325 C   0  0  0  0  0  0  0  0  0  0  0  0
  143.5701  135.3104  152.2509 N   0  0  0  0  0  0  0  0  0  0  0  0
  142.3873  135.2489  153.0870 C   0  0  0  0  0  0  0  0  0  0  0  0
  148.6057  140.6294  154.4702 C   0  0  0  0  0  0  0  0  0  0  0  0
  149.8137  139.9406  154.3902 C   0  0  0  0  0  0  0  0  0  0  0  0
  150.7021  140.0598  155.4827 C   0  0  0  0  0  0  0  0  0  0  0  0
  152.0280  139.3207  155.4213 C   0  0  0  0  0  0  0  0  0  0  0  0
  150.9560  141.6583  158.5400 H   0  0  0  0  0  0  0  0  0  0  0  0
  152.2999  141.3478  157.4456 H   0  0  0  0  0  0  0  0  0  0  0  0
  151.4831  140.0008  158.2530 H   0  0  0  0  0  0  0  0  0  0  0  0
  148.8798  142.1489  157.5343 H   0  0  0  0  0  0  0  0  0  0  0  0
  145.6188  141.8156  153.6886 H   0  0  0  0  0  0  0  0  0  0  0  0
  147.4867  140.7712  151.4981 H   0  0  0  0  0  0  0  0  0  0  0  0
  148.4884  139.5420  152.2254 H   0  0  0  0  0  0  0  0  0  0  0  0
  145.4382  139.5363  152.1592 H   0  0  0  0  0  0  0  0  0  0  0  0
  145.8410  138.5861  150.3802 H   0  0  0  0  0  0  0  0  0  0  0  0
  147.0799  137.1859  153.1449 H   0  0  0  0  0  0  0  0  0  0  0  0
  146.7725  138.4832  154.2668 H   0  0  0  0  0  0  0  0  0  0  0  0
  145.5962  134.5506  149.7945 H   0  0  0  0  0  0  0  0  0  0  0  0
  143.1269  133.7784  150.7815 H   0  0  0  0  0  0  0  0  0  0  0  0
  141.7044  134.4830  152.7180 H   0  0  0  0  0  0  0  0  0  0  0  0
  141.8768  136.2122  153.0758 H   0  0  0  0  0  0  0  0  0  0  0  0
  142.6717  135.0045  154.1108 H   0  0  0  0  0  0  0  0  0  0  0  0
  150.0705  139.3436  153.5277 H   0  0  0  0  0  0  0  0  0  0  0  0
  152.1131  138.7286  154.5097 H   0  0  0  0  0  0  0  0  0  0  0  0
  152.1287  138.6425  156.2690 H   0  0  0  0  0  0  0  0  0  0  0  0
  152.8595  140.0256  155.4395 H   0  0  0  0  0  0  0  0  0  0  0  0
  146.5045  142.5782  155.9752 H   0  0  0  0  0  0  0  0  0  0  0  0
  1  2  1  0  0  0  0
  1 23  1  0  0  0  0
  1 24  1  0  0  0  0
  1 25  1  0  0  0  0
  2 21  1  0  0  0  0
  2  3  2  0  0  0  0
  3  4  1  0  0  0  0
  3 26  1  0  0  0  0
  4 19  2  0  0  0  0
  4  5  1  0  0  0  0
  5  6  2  0  0  0  0
  5 43  1  0  0  0  0
  6  7  1  0  0  0  0
  6 27  1  0  0  0  0
  7  8  1  0  0  0  0
  7 19  1  0  0  0  0
  8  9  1  0  0  0  0
  8 28  1  0  0  0  0
  8 29  1  0  0  0  0
  9 10  1  0  0  0  0
  9 11  1  0  0  0  0
  9 30  1  0  0  0  0
 10 31  1  0  0  0  0
 11 12  1  0  0  0  0
 11 32  1  0  0  0  0
 11 33  1  0  0  0  0
 12 13  1  0  0  0  0
 13 17  1  0  0  0  0
 13 14  2  0  0  0  0
 14 15  1  0  0  0  0
 15 16  2  0  0  0  0
 15 34  1  0  0  0  0
 16 17  1  0  0  0  0
 16 35  1  0  0  0  0
 17 18  1  0  0  0  0
 18 36  1  0  0  0  0
 18 37  1  0  0  0  0
 18 38  1  0  0  0  0
 19 20  1  0  0  0  0
 20 21  2  0  0  0  0
 20 39  1  0  0  0  0
 21 22  1  0  0  0  0
 22 40  1  0  0  0  0
 22 41  1  0  0  0  0
 22 42  1  0  0  0  0
M  CHG  1   5   1
M  END
> <s_m_source_file>
AV-unprocessed.smi

> <i_m_source_file_index>
609

> <i_lp_mmshare_version>
43012

> <i_f3d_flags>
0

> <s_epik_input>
W0NIM11jKFtjSF0xKWMoW0NIM10pW2NIXWMoYzEyKW4oW2NIXW4yKVtDSDJdW0NASF0oW09IXSlbQ0gyXVNjM25bY0hdW2NIXW4zW0NIM10=

> <s_epik_cmdline>
J2VwaWtfcHl0aG9uJywgJy1waCcsICc3LjAnLCAnLXRuJywgJzgnLCAnLW1hJywgJzIwMCcsICctbWV0YWxfYmluZGluZycsICctaW1hZScsICc8aW5maWxlLm1hZT4nLCAnLW9tYWUnLCAnPG91dGZpbGUubWFlPic=

> <r_epik_Ionization_Penalty>
2.09683

> <r_epik_Ionization_Penalty_Charging>
2.09682

> <r_epik_Ionization_Penalty_Neutral>
2.49751e-06

> <r_epik_State_Penalty>
2.21514

> <r_epik_Charging_Adjusted_Penalty>
4.31197

> <i_epik_Tot_Q>
1

> <i_epik_Tot_abs_Q>
1

> <r_epik_Metal_State_Penalty>
1.52634

> <b_epik_Metal_Only>
0

> <s_lp_Force_Field>
OPLS_2005

> <r_lp_Energy>
12.6573

> <b_lp_Chiralities_Consistent>
1

> <s_lp_Variant>
AV-unprocessed.smi:609-8

> <Gold.Version>
5.8.1

> <Gold.Id.Protein>
6NUR|6NUR_protein|mol2

> <Gold.PLP.Fitness>
50.8523

> <Gold.PLP.PLP>
-38.6347

> <Gold.PLP.part.hbond>
-2.3862

> <Gold.PLP.part.metal>
0.0000

> <Gold.PLP.part.buried>
0.8969

> <Gold.PLP.part.nonpolar>
-39.3969

> <Gold.PLP.part.repulsive>
0.2548

> <Gold.PLP.ligand.clash>
0.0000

> <Gold.PLP.ligand.torsion>
0.3864

> <Gold.PLP.Chemscore.Hbond>
2.0000

> <Gold.PLP.Chemscore.CHOScore>
2.3100

> <Gold.PLP.Chemscore.Metal>
0.0000

> <Gold.Chemscore.Hbonds>
donor molecule, donor type, donor heavy atom, donor atom, acceptor molecule, acceptor atom, score
      L1  H    10    31       P1 10171  1.00
      P1  H  7954  7966       L1    10  1.00
      L1  C     6    27       P1 10175  0.53
      L1  C    15    34       P1  7921  1.00
      L1  C    16    35       P1 10186  0.82

> <Gold.PLP.Chemscore.Internal.Correction>
0.0604

> <Gold.Rescore>
     Score         DG    S(hbond)    S(metal)    S(lipo)     H(rot)  DE(clash)    DE(int)     intcor
     12.57     -16.35       1.92        0.00      92.40       2.48       1.93       1.85       ----

> <Gold.Chemscore.Fitness>
12.5706

> <Gold.Chemscore.DG>
-16.3513

> <Gold.Chemscore.ZeroCoef>
-5.4800

> <Gold.Chemscore.Hbond>
1.9183

> <Gold.Chemscore.Metal>
0.0000

> <Gold.Chemscore.Lipo>
92.3951

> <Gold.Chemscore.Internal_Hbond>
0.0000

> <Gold.Chemscore.DEClash>
1.9342

> <Gold.Chemscore.DEInternal>
1.8465

> <Gold.Chemscore.Rot>
2.4789

> <Gold.Chemscore.Internal.Correction>
   9.000000E+99

> <Gold.Chemscore.Hbonds>
donor molecule, donor type, donor heavy atom, donor atom, acceptor molecule, acceptor atom, score
      L1  H    10    31       P1 10171  0.89
      P1  H  7954  7966       L1    10  0.61

> <Gold.Chemscore.Hbond.Weighted>
-6.4070

> <Gold.Chemscore.Metal.Weighted>
-0.0000

> <Gold.Chemscore.Lipo.Weighted>
-10.8102

> <Gold.Chemscore.Internal_Hbond.Weighted>
0.0000

> <Gold.Chemscore.DEClash.Weighted>
1.9342

> <Gold.Chemscore.DEInternal.Weighted>
1.8465

> <Gold.Chemscore.Rot.Weighted>
6.3459

> <Gold.Chemscore.Internal.Correction.Weighted>
   9.000000E+99

> <Gold.Protein.RotatedTorsions>
[ 6907 6896 6895 6894 ] final    1.22 input  -60.11 | X-H torsion
[ 7974 7965 7964 7962 ] final  -43.87 input  175.53 | X-H torsion
[ 8008 7997 7996 7995 ] final    3.01 input   59.86 | X-H torsion
[ 10167 10162 10161 10158 ] final -134.51 input  -65.29 | X-H torsion
[ 10718 10713 10712 10709 ] final   47.96 input   66.30 | X-H torsion
[ 10763 10752 10751 10750 ] final  -55.35 input  -60.55 | X-H torsion
[ 11005 11000 10999 10996 ] final   36.40 input  -57.11 | X-H torsion

> <Gold.Protein.ActiveResidues>
 VAL166  LYS551  ARG553  GLY616  TRP617  ASP618  TYR619  PRO620  LYS621  CYS622 
 ASP623  PHE694  ASN695  SER759  ASP760  ASP761  ALA762  ILE779  LEU786  VAL792 
 PHE793  MET794  SER795  GLU796  ALA797  LYS798  CYS799  TRP800  GLU811  SER814 

> <Gold.Protein.RotatedAtoms>
  151.5890  135.1054  160.0034 H   0  0  0  0  0  0  0  0  0  0  0  0  # atno 6907 bound_to 6896
  152.4316  133.7283  159.6583 H   0  0  0  0  0  0  0  0  0  0  0  0  # atno 6908 bound_to 6896
  150.8209  133.8184  159.3162 H   0  0  0  0  0  0  0  0  0  0  0  0  # atno 6909 bound_to 6896
  145.9977  140.7110  142.9286 H   0  0  0  0  0  0  0  0  0  0  0  0  # atno 7974 bound_to 7965
  154.6985  140.2668  155.6743 H   0  0  0  0  0  0  0  0  0  0  0  0  # atno 8008 bound_to 7997
  156.2757  140.2777  156.1511 H   0  0  0  0  0  0  0  0  0  0  0  0  # atno 8009 bound_to 7997
  155.0798  140.0372  157.2625 H   0  0  0  0  0  0  0  0  0  0  0  0  # atno 8010 bound_to 7997
  139.8873  143.6766  152.2618 H   0  0  0  0  0  0  0  0  0  0  0  0  # atno 10167 bound_to 10162
  157.4638  130.8213  149.7914 H   0  0  0  0  0  0  0  0  0  0  0  0  # atno 10718 bound_to 10713
  154.1894  135.6430  153.5056 H   0  0  0  0  0  0  0  0  0  0  0  0  # atno 10763 bound_to 10752
  153.0039  135.5425  154.6431 H   0  0  0  0  0  0  0  0  0  0  0  0  # atno 10764 bound_to 10752
  154.5816  135.2925  155.0700 H   0  0  0  0  0  0  0  0  0  0  0  0  # atno 10765 bound_to 10752
  140.2329  134.3506  155.7956 H   0  0  0  0  0  0  0  0  0  0  0  0  # atno 11005 bound_to 11000
  144.6909  140.3178  143.7237 LP  0  0  0  0  0  0  0  0  0  0  0  0  # atno 17320 bound_to 7965
  145.7535  139.1801  143.2308 LP  0  0  0  0  0  0  0  0  0  0  0  0  # atno 17321 bound_to 7965
  139.7142  144.7615  151.1062 LP  0  0  0  0  0  0  0  0  0  0  0  0  # atno 17342 bound_to 10162
  140.7733  143.5291  150.9444 LP  0  0  0  0  0  0  0  0  0  0  0  0  # atno 17343 bound_to 10162
  156.0041  130.3865  150.2496 LP  0  0  0  0  0  0  0  0  0  0  0  0  # atno 17370 bound_to 10713
  157.0675  131.0107  151.3201 LP  0  0  0  0  0  0  0  0  0  0  0  0  # atno 17371 bound_to 10713
  141.2216  133.7255  156.8761 LP  0  0  0  0  0  0  0  0  0  0  0  0  # atno 17394 bound_to 11000
  140.1732  134.9085  157.2858 LP  0  0  0  0  0  0  0  0  0  0  0  0  # atno 17395 bound_to 11000

$$$$
