AV-unprocessed.smi:653|AV-procd|sdf|3206|dock10
  -GOLD-   22720 0143D 1   1.00000     0.00000
 Structure written by MMmdl.
 44 45  0  0  0  0  0  0  0  0  1 V2000
  153.4300  143.1785  163.3732 C   0  0  0  0  0  0  0  0  0  0  0  0
  153.0083  143.2464  161.9200 C   0  0  0  0  0  0  0  0  0  0  0  0
  153.4635  142.2835  160.9952 C   0  0  0  0  0  0  0  0  0  0  0  0
  153.0452  142.3903  159.6550 C   0  0  0  0  0  0  0  0  0  0  0  0
  152.1930  143.4532  159.2906 C   0  0  0  0  0  0  0  0  0  0  0  0
  151.7136  143.6133  157.8586 C   0  0  0  0  0  0  0  0  0  0  0  0
  151.1584  142.2932  157.3176 C   0  0  0  0  0  0  0  0  0  0  0  0
  151.8308  141.2637  157.3829 O   0  0  0  0  0  0  0  0  0  0  0  0
  149.9290  142.3377  156.7822 N   0  0  0  0  0  0  0  0  0  0  0  0
  149.2190  141.1961  156.2150 C   0  0  0  0  0  0  0  0  0  0  0  0
  149.1775  141.2341  154.6662 C   0  0  2  0  0  0  0  0  0  0  0  0
  147.9325  141.9301  154.1327 C   0  0  0  0  0  0  0  0  0  0  0  0
  146.8989  140.8035  154.0504 C   0  0  0  0  0  0  0  0  0  0  0  0
  147.6313  139.5867  154.1652 O   0  0  0  0  0  0  0  0  0  0  0  0
  149.0169  139.8571  153.9995 C   0  0  2  0  0  0  0  0  0  0  0  0
  149.8924  138.7000  154.5330 C   0  0  0  0  0  0  0  0  0  0  0  0
  149.4161  138.2140  155.9131 C   0  0  0  0  0  0  0  0  0  0  0  0
  151.3704  139.1161  154.6069 C   0  0  0  0  0  0  0  0  0  0  0  0
  151.7974  144.3646  160.2930 C   0  0  0  0  0  0  0  0  0  0  0  0
  152.1931  144.2696  161.5807 N   0  0  0  0  0  0  0  0  0  0  0  0
  153.6069  142.1464  163.6773 H   0  0  0  0  0  0  0  0  0  0  0  0
  152.6608  143.5943  164.0250 H   0  0  0  0  0  0  0  0  0  0  0  0
  154.3504  143.7429  163.5241 H   0  0  0  0  0  0  0  0  0  0  0  0
  154.1172  141.4810  161.3038 H   0  0  0  0  0  0  0  0  0  0  0  0
  153.3727  141.6679  158.9218 H   0  0  0  0  0  0  0  0  0  0  0  0
  150.9537  144.3954  157.8183 H   0  0  0  0  0  0  0  0  0  0  0  0
  152.5370  143.9400  157.2224 H   0  0  0  0  0  0  0  0  0  0  0  0
  149.4484  143.2256  156.7691 H   0  0  0  0  0  0  0  0  0  0  0  0
  149.6942  140.2823  156.5722 H   0  0  0  0  0  0  0  0  0  0  0  0
  148.2073  141.1918  156.6212 H   0  0  0  0  0  0  0  0  0  0  0  0
  150.0768  141.7271  154.2950 H   0  0  0  0  0  0  0  0  0  0  0  0
  147.5948  142.7703  154.7398 H   0  0  0  0  0  0  0  0  0  0  0  0
  148.1322  142.3139  153.1314 H   0  0  0  0  0  0  0  0  0  0  0  0
  146.1778  140.8631  154.8660 H   0  0  0  0  0  0  0  0  0  0  0  0
  146.3502  140.8364  153.1088 H   0  0  0  0  0  0  0  0  0  0  0  0
  149.1999  139.9675  152.9285 H   0  0  0  0  0  0  0  0  0  0  0  0
  149.8323  137.8623  153.8382 H   0  0  0  0  0  0  0  0  0  0  0  0
  149.4678  139.0138  156.6524 H   0  0  0  0  0  0  0  0  0  0  0  0
  150.0329  137.3899  156.2726 H   0  0  0  0  0  0  0  0  0  0  0  0
  148.3868  137.8566  155.8844 H   0  0  0  0  0  0  0  0  0  0  0  0
  151.5117  139.9623  155.2800 H   0  0  0  0  0  0  0  0  0  0  0  0
  151.7514  139.4038  153.6267 H   0  0  0  0  0  0  0  0  0  0  0  0
  151.9918  138.2966  154.9691 H   0  0  0  0  0  0  0  0  0  0  0  0
  151.1445  145.1919  160.0557 H   0  0  0  0  0  0  0  0  0  0  0  0
  1  2  1  0  0  0  0
  1 21  1  0  0  0  0
  1 22  1  0  0  0  0
  1 23  1  0  0  0  0
  2 20  1  0  0  0  0
  2  3  2  0  0  0  0
  3  4  1  0  0  0  0
  3 24  1  0  0  0  0
  4  5  2  0  0  0  0
  4 25  1  0  0  0  0
  5  6  1  0  0  0  0
  5 19  1  0  0  0  0
  6  7  1  0  0  0  0
  6 26  1  0  0  0  0
  6 27  1  0  0  0  0
  7  8  2  0  0  0  0
  7  9  1  0  0  0  0
  9 10  1  0  0  0  0
  9 28  1  0  0  0  0
 10 11  1  0  0  0  0
 10 29  1  0  0  0  0
 10 30  1  0  0  0  0
 11 15  1  0  0  0  0
 11 12  1  0  0  0  0
 11 31  1  0  0  0  0
 12 13  1  0  0  0  0
 12 32  1  0  0  0  0
 12 33  1  0  0  0  0
 13 14  1  0  0  0  0
 13 34  1  0  0  0  0
 13 35  1  0  0  0  0
 14 15  1  0  0  0  0
 15 16  1  0  0  0  0
 15 36  1  0  0  0  0
 16 17  1  0  0  0  0
 16 18  1  0  0  0  0
 16 37  1  0  0  0  0
 17 38  1  0  0  0  0
 17 39  1  0  0  0  0
 17 40  1  0  0  0  0
 18 41  1  0  0  0  0
 18 42  1  0  0  0  0
 18 43  1  0  0  0  0
 19 20  2  0  0  0  0
 19 44  1  0  0  0  0
M  END
> <s_m_source_file>
AV-unprocessed.smi

> <i_m_source_file_index>
653

> <i_lp_mmshare_version>
43012

> <i_f3d_flags>
0

> <s_epik_input>
W0NIM11jMVtjSF1bY0hdYyhbY0hdbjEpW0NIMl1DKD1PKVtOSF1bQ0gyXVtDQEBIXTJbQ0gyXVtDSDJdT1tDQEhdMltDSF0oW0NIM10pW0NIM10=

> <s_epik_cmdline>
J2VwaWtfcHl0aG9uJywgJy1waCcsICc3LjAnLCAnLXRuJywgJzgnLCAnLW1hJywgJzIwMCcsICctbWV0YWxfYmluZGluZycsICctaW1hZScsICc8aW5maWxlLm1hZT4nLCAnLW9tYWUnLCAnPG91dGZpbGUubWFlPic=

> <r_epik_Ionization_Penalty>
0.0166429

> <r_epik_Ionization_Penalty_Charging>
0

> <r_epik_Ionization_Penalty_Neutral>
0.0166429

> <r_epik_State_Penalty>
0.0131478

> <r_epik_Charging_Adjusted_Penalty>
0.0131478

> <i_epik_Tot_Q>
0

> <i_epik_Tot_abs_Q>
0

> <r_epik_Metal_State_Penalty>
0.012786

> <b_epik_Metal_Only>
0

> <s_lp_Force_Field>
OPLS_2005

> <r_lp_Energy>
20.8525

> <b_lp_Chiralities_Consistent>
1

> <s_lp_Variant>
AV-unprocessed.smi:653-3

> <Gold.Version>
5.8.1

> <Gold.Id.Protein>
6NUR|6NUR_protein|mol2

> <Gold.PLP.Fitness>
49.3220

> <Gold.PLP.PLP>
-47.8255

> <Gold.PLP.part.hbond>
-1.0000

> <Gold.PLP.part.metal>
0.0000

> <Gold.PLP.part.buried>
-2.9070

> <Gold.PLP.part.nonpolar>
-42.0670

> <Gold.PLP.part.repulsive>
0.3495

> <Gold.PLP.ligand.clash>
0.0000

> <Gold.PLP.ligand.torsion>
0.7411

> <Gold.PLP.Chemscore.Hbond>
0.9760

> <Gold.PLP.Chemscore.CHOScore>
0.0000

> <Gold.PLP.Chemscore.Metal>
0.0000

> <Gold.Chemscore.Hbonds>
donor molecule, donor type, donor heavy atom, donor atom, acceptor molecule, acceptor atom, score
      L1  H     9    28       P1  8028  0.91

> <Gold.PLP.Chemscore.Internal.Correction>
0.0508

> <Gold.Rescore>
     Score         DG    S(hbond)    S(metal)    S(lipo)     H(rot)  DE(clash)    DE(int)     intcor
     17.78     -19.85       0.90        0.00     129.64       1.48       0.09       1.98       ----

> <Gold.Chemscore.Fitness>
17.7834

> <Gold.Chemscore.DG>
-19.8547

> <Gold.Chemscore.ZeroCoef>
-5.4800

> <Gold.Chemscore.Hbond>
0.9008

> <Gold.Chemscore.Metal>
0.0000

> <Gold.Chemscore.Lipo>
129.6381

> <Gold.Chemscore.Internal_Hbond>
0.0000

> <Gold.Chemscore.DEClash>
0.0906

> <Gold.Chemscore.DEInternal>
1.9808

> <Gold.Chemscore.Rot>
1.4850

> <Gold.Chemscore.Internal.Correction>
   9.000000E+99

> <Gold.Chemscore.Hbonds>
donor molecule, donor type, donor heavy atom, donor atom, acceptor molecule, acceptor atom, score
      L1  H     9    28       P1  8028  0.88

> <Gold.Chemscore.Hbond.Weighted>
-3.0086

> <Gold.Chemscore.Metal.Weighted>
-0.0000

> <Gold.Chemscore.Lipo.Weighted>
-15.1677

> <Gold.Chemscore.Internal_Hbond.Weighted>
0.0000

> <Gold.Chemscore.DEClash.Weighted>
0.0906

> <Gold.Chemscore.DEInternal.Weighted>
1.9808

> <Gold.Chemscore.Rot.Weighted>
3.8015

> <Gold.Chemscore.Internal.Correction.Weighted>
   9.000000E+99

> <Gold.Protein.RotatedTorsions>
[ 6907 6896 6895 6894 ] final   -8.67 input  -60.11 | X-H torsion
[ 7974 7965 7964 7962 ] final  -35.77 input  175.53 | X-H torsion
[ 8008 7997 7996 7995 ] final  105.24 input   59.86 | X-H torsion
[ 10167 10162 10161 10158 ] final  106.62 input  -65.29 | X-H torsion
[ 10718 10713 10712 10709 ] final  -72.72 input   66.30 | X-H torsion
[ 10763 10752 10751 10750 ] final  -95.58 input  -60.55 | X-H torsion
[ 11005 11000 10999 10996 ] final  -47.30 input  -57.11 | X-H torsion

> <Gold.Protein.ActiveResidues>
 VAL166  LYS551  ARG553  GLY616  TRP617  ASP618  TYR619  PRO620  LYS621  CYS622 
 ASP623  PHE694  ASN695  SER759  ASP760  ASP761  ALA762  ILE779  LEU786  VAL792 
 PHE793  MET794  SER795  GLU796  ALA797  LYS798  CYS799  TRP800  GLU811  SER814 

> <Gold.Protein.RotatedAtoms>
  151.4300  135.1008  159.9639 H   0  0  0  0  0  0  0  0  0  0  0  0  # atno 6907 bound_to 6896
  152.4959  133.8627  159.7269 H   0  0  0  0  0  0  0  0  0  0  0  0  # atno 6908 bound_to 6896
  150.9162  133.6878  159.2870 H   0  0  0  0  0  0  0  0  0  0  0  0  # atno 6909 bound_to 6896
  146.0718  140.6199  142.8949 H   0  0  0  0  0  0  0  0  0  0  0  0  # atno 7974 bound_to 7965
  156.1642  140.3134  155.8860 H   0  0  0  0  0  0  0  0  0  0  0  0  # atno 8008 bound_to 7997
  155.3720  140.0482  157.3062 H   0  0  0  0  0  0  0  0  0  0  0  0  # atno 8009 bound_to 7997
  154.5176  140.2187  155.9047 H   0  0  0  0  0  0  0  0  0  0  0  0  # atno 8010 bound_to 7997
  139.6994  144.7096  151.1211 H   0  0  0  0  0  0  0  0  0  0  0  0  # atno 10167 bound_to 10162
  156.0309  130.4378  150.2634 H   0  0  0  0  0  0  0  0  0  0  0  0  # atno 10718 bound_to 10713
  154.7161  135.5115  153.8740 H   0  0  0  0  0  0  0  0  0  0  0  0  # atno 10763 bound_to 10752
  153.0822  135.6634  154.0031 H   0  0  0  0  0  0  0  0  0  0  0  0  # atno 10764 bound_to 10752
  153.9863  135.3024  155.3395 H   0  0  0  0  0  0  0  0  0  0  0  0  # atno 10765 bound_to 10752
  141.0632  133.6702  156.3278 H   0  0  0  0  0  0  0  0  0  0  0  0  # atno 11005 bound_to 11000
  144.7237  140.4455  143.6989 LP  0  0  0  0  0  0  0  0  0  0  0  0  # atno 17320 bound_to 7965
  145.6377  139.1545  143.2933 LP  0  0  0  0  0  0  0  0  0  0  0  0  # atno 17321 bound_to 7965
  140.7705  143.5445  150.9275 LP  0  0  0  0  0  0  0  0  0  0  0  0  # atno 17342 bound_to 10162
  139.9126  143.6702  152.3112 LP  0  0  0  0  0  0  0  0  0  0  0  0  # atno 17343 bound_to 10162
  157.0736  131.0124  151.3181 LP  0  0  0  0  0  0  0  0  0  0  0  0  # atno 17370 bound_to 10713
  157.4980  130.7863  149.7575 LP  0  0  0  0  0  0  0  0  0  0  0  0  # atno 17371 bound_to 10713
  140.5826  134.5730  157.5483 LP  0  0  0  0  0  0  0  0  0  0  0  0  # atno 17394 bound_to 11000
  139.9452  134.7715  156.0580 LP  0  0  0  0  0  0  0  0  0  0  0  0  # atno 17395 bound_to 11000

$$$$
