AV-unprocessed.smi:3191|AV-procd|sdf|12196|dock6
  -GOLD-   2272018 33D 1   1.00000     0.00000
 Structure written by MMmdl.
 36 37  0  0  0  0  0  0  0  0  2 V2000
  147.1362  141.9299  153.8962 C   0  0  0  0  0  0  0  0  0  0  0  0
  147.9697  140.7365  153.7261 N   0  0  0  0  0  0  0  0  0  0  0  0
  147.6245  139.7416  152.8987 C   0  0  0  0  0  0  0  0  0  0  0  0
  148.5829  138.8160  152.9847 N   0  3  0  0  0  0  0  0  0  0  0  0
  149.5450  139.2180  153.8698 C   0  0  0  0  0  0  0  0  0  0  0  0
  149.1635  140.4471  154.3486 C   0  0  0  0  0  0  0  0  0  0  0  0
  149.8285  141.3604  155.3272 C   0  0  0  0  0  0  0  0  0  0  0  0
  150.4812  140.5753  156.4777 C   0  0  0  0  0  0  0  0  0  0  0  0
  150.8929  141.4607  157.5601 N   0  0  0  0  0  0  0  0  0  0  0  0
  152.0476  141.3571  158.2362 C   0  0  0  0  0  0  0  0  0  0  0  0
  152.8776  140.4773  158.0023 O   0  0  0  0  0  0  0  0  0  0  0  0
  152.2244  142.4047  159.2916 C   0  0  1  0  0  0  0  0  0  0  0  0
  153.4828  143.2473  159.2538 C   0  0  0  0  0  0  0  0  0  0  0  0
  152.1514  143.8861  158.9270 C   0  0  0  0  0  0  0  0  0  0  0  0
  151.8849  144.3773  157.5092 C   0  0  0  0  0  0  0  0  0  0  0  0
  151.5091  144.8332  159.9256 C   0  0  0  0  0  0  0  0  0  0  0  0
  151.8435  142.1403  160.2772 H   0  0  0  0  0  0  0  0  0  0  0  0
  146.2817  141.8932  153.2194 H   0  0  0  0  0  0  0  0  0  0  0  0
  147.7288  142.8185  153.6788 H   0  0  0  0  0  0  0  0  0  0  0  0
  146.7793  141.9717  154.9257 H   0  0  0  0  0  0  0  0  0  0  0  0
  146.7445  139.6930  152.2822 H   0  0  0  0  0  0  0  0  0  0  0  0
  150.4141  138.6149  154.0891 H   0  0  0  0  0  0  0  0  0  0  0  0
  150.5675  141.9679  154.8040 H   0  0  0  0  0  0  0  0  0  0  0  0
  149.0846  142.0530  155.7230 H   0  0  0  0  0  0  0  0  0  0  0  0
  149.7761  139.8472  156.8796 H   0  0  0  0  0  0  0  0  0  0  0  0
  151.3417  140.0069  156.1212 H   0  0  0  0  0  0  0  0  0  0  0  0
  150.2591  142.2057  157.8113 H   0  0  0  0  0  0  0  0  0  0  0  0
  153.9443  143.4825  160.2109 H   0  0  0  0  0  0  0  0  0  0  0  0
  154.1866  143.0995  158.4364 H   0  0  0  0  0  0  0  0  0  0  0  0
  152.1090  145.4413  157.4267 H   0  0  0  0  0  0  0  0  0  0  0  0
  150.8379  144.2237  157.2468 H   0  0  0  0  0  0  0  0  0  0  0  0
  152.5055  143.8585  156.7795 H   0  0  0  0  0  0  0  0  0  0  0  0
  151.9230  145.8364  159.8204 H   0  0  0  0  0  0  0  0  0  0  0  0
  151.6882  144.4987  160.9480 H   0  0  0  0  0  0  0  0  0  0  0  0
  150.4318  144.8809  159.7641 H   0  0  0  0  0  0  0  0  0  0  0  0
  148.5931  137.9451  152.4686 H   0  0  0  0  0  0  0  0  0  0  0  0
  1  2  1  0  0  0  0
  1 18  1  0  0  0  0
  1 19  1  0  0  0  0
  1 20  1  0  0  0  0
  2  6  1  0  0  0  0
  2  3  1  0  0  0  0
  3  4  2  0  0  0  0
  3 21  1  0  0  0  0
  4  5  1  0  0  0  0
  4 36  1  0  0  0  0
  5  6  2  0  0  0  0
  5 22  1  0  0  0  0
  6  7  1  0  0  0  0
  7  8  1  0  0  0  0
  7 23  1  0  0  0  0
  7 24  1  0  0  0  0
  8  9  1  0  0  0  0
  8 25  1  0  0  0  0
  8 26  1  0  0  0  0
  9 10  1  0  0  0  0
  9 27  1  0  0  0  0
 10 11  2  0  0  0  0
 10 12  1  0  0  0  0
 12 17  1  0  0  0  0
 12 14  1  0  0  0  0
 12 13  1  0  0  0  0
 13 14  1  0  0  0  0
 13 28  1  0  0  0  0
 13 29  1  0  0  0  0
 14 15  1  0  0  0  0
 14 16  1  0  0  0  0
 15 30  1  0  0  0  0
 15 31  1  0  0  0  0
 15 32  1  0  0  0  0
 16 33  1  0  0  0  0
 16 34  1  0  0  0  0
 16 35  1  0  0  0  0
M  CHG  1   4   1
M  END
> <s_m_source_file>
AV-unprocessed.smi

> <i_m_source_file_index>
3191

> <i_lp_mmshare_version>
43012

> <i_f3d_flags>
0

> <s_epik_input>
W0NIM11uMVtjSF1uW2NIXWMxW0NIMl1bQ0gyXVtOSF1DKD1PKVtDQEBIXShbQ0gyXTIpQzIoW0NIM10pW0NIM10=

> <s_epik_cmdline>
J2VwaWtfcHl0aG9uJywgJy1waCcsICc3LjAnLCAnLXRuJywgJzgnLCAnLW1hJywgJzIwMCcsICctbWV0YWxfYmluZGluZycsICctaW1hZScsICc8aW5maWxlLm1hZT4nLCAnLW9tYWUnLCAnPG91dGZpbGUubWFlPic=

> <r_lp_tautomer_probability>
1

> <r_epik_Ionization_Penalty>
0.153817

> <r_epik_Ionization_Penalty_Charging>
0

> <r_epik_Ionization_Penalty_Neutral>
0.153817

> <r_epik_State_Penalty>
0.14311

> <r_epik_Charging_Adjusted_Penalty>
0.14311

> <i_epik_Tot_Q>
1

> <i_epik_Tot_abs_Q>
1

> <r_epik_Metal_State_Penalty>
0.464688

> <b_epik_Metal_Only>
0

> <s_lp_Force_Field>
OPLS_2005

> <r_lp_Energy>
13.4151

> <b_lp_Chiralities_Consistent>
1

> <s_lp_Variant>
AV-unprocessed.smi:3191-1

> <Gold.Version>
5.8.1

> <Gold.Id.Protein>
6NUR|6NUR_protein|mol2

> <Gold.PLP.Fitness>
47.9077

> <Gold.PLP.PLP>
-39.7502

> <Gold.PLP.part.hbond>
-3.0000

> <Gold.PLP.part.metal>
0.0000

> <Gold.PLP.part.buried>
-1.5131

> <Gold.PLP.part.nonpolar>
-34.8907

> <Gold.PLP.part.repulsive>
0.0984

> <Gold.PLP.ligand.clash>
0.0000

> <Gold.PLP.ligand.torsion>
0.5162

> <Gold.PLP.Chemscore.Hbond>
2.7531

> <Gold.PLP.Chemscore.CHOScore>
0.2805

> <Gold.PLP.Chemscore.Metal>
0.0000

> <Gold.Chemscore.Hbonds>
donor molecule, donor type, donor heavy atom, donor atom, acceptor molecule, acceptor atom, score
      L1  H     4    36       P1  7948  2.00
      P1  H  7997  8010       L1    11  0.80

> <Gold.PLP.Chemscore.Internal.Correction>
0.0888

> <Gold.Rescore>
     Score         DG    S(hbond)    S(metal)    S(lipo)     H(rot)  DE(clash)    DE(int)     intcor
     16.90     -18.05       1.78        0.00      95.00       1.76       0.17       0.97       ----

> <Gold.Chemscore.Fitness>
16.9032

> <Gold.Chemscore.DG>
-18.0500

> <Gold.Chemscore.ZeroCoef>
-5.4800

> <Gold.Chemscore.Hbond>
1.7818

> <Gold.Chemscore.Metal>
0.0000

> <Gold.Chemscore.Lipo>
94.9955

> <Gold.Chemscore.Internal_Hbond>
0.0000

> <Gold.Chemscore.DEClash>
0.1730

> <Gold.Chemscore.DEInternal>
0.9738

> <Gold.Chemscore.Rot>
1.7561

> <Gold.Chemscore.Internal.Correction>
   9.000000E+99

> <Gold.Chemscore.Hbonds>
donor molecule, donor type, donor heavy atom, donor atom, acceptor molecule, acceptor atom, score
      L1  H     4    36       P1  7948  1.00
      P1  H  7997  8010       L1    11  0.76

> <Gold.Chemscore.Hbond.Weighted>
-5.9511

> <Gold.Chemscore.Metal.Weighted>
-0.0000

> <Gold.Chemscore.Lipo.Weighted>
-11.1145

> <Gold.Chemscore.Internal_Hbond.Weighted>
0.0000

> <Gold.Chemscore.DEClash.Weighted>
0.1730

> <Gold.Chemscore.DEInternal.Weighted>
0.9738

> <Gold.Chemscore.Rot.Weighted>
4.4956

> <Gold.Chemscore.Internal.Correction.Weighted>
   9.000000E+99

> <Gold.Protein.RotatedTorsions>
[ 6907 6896 6895 6894 ] final -112.73 input  -60.11 | X-H torsion
[ 7974 7965 7964 7962 ] final  149.15 input  175.53 | X-H torsion
[ 8008 7997 7996 7995 ] final   36.13 input   59.86 | X-H torsion
[ 10167 10162 10161 10158 ] final   -6.30 input  -65.29 | X-H torsion
[ 10718 10713 10712 10709 ] final  -11.27 input   66.30 | X-H torsion
[ 10763 10752 10751 10750 ] final  -73.22 input  -60.55 | X-H torsion
[ 11005 11000 10999 10996 ] final  -52.59 input  -57.11 | X-H torsion

> <Gold.Protein.ActiveResidues>
 VAL166  LYS551  ARG553  GLY616  TRP617  ASP618  TYR619  PRO620  LYS621  CYS622 
 ASP623  PHE694  ASN695  SER759  ASP760  ASP761  ALA762  ILE779  LEU786  VAL792 
 PHE793  MET794  SER795  GLU796  ALA797  LYS798  CYS799  TRP800  GLU811  SER814 

> <Gold.Protein.RotatedAtoms>
  150.7779  133.9047  159.3351 H   0  0  0  0  0  0  0  0  0  0  0  0  # atno 6907 bound_to 6896
  151.6917  135.0943  160.0244 H   0  0  0  0  0  0  0  0  0  0  0  0  # atno 6908 bound_to 6896
  152.3821  133.6522  159.6205 H   0  0  0  0  0  0  0  0  0  0  0  0  # atno 6909 bound_to 6896
  144.8460  139.6243  143.5995 H   0  0  0  0  0  0  0  0  0  0  0  0  # atno 7974 bound_to 7965
  155.1824  140.3301  155.4373 H   0  0  0  0  0  0  0  0  0  0  0  0  # atno 8008 bound_to 7997
  156.2472  140.1924  156.6872 H   0  0  0  0  0  0  0  0  0  0  0  0  # atno 8009 bound_to 7997
  154.6262  140.0588  156.9662 H   0  0  0  0  0  0  0  0  0  0  0  0  # atno 8010 bound_to 7997
  140.6992  143.6210  150.8613 H   0  0  0  0  0  0  0  0  0  0  0  0  # atno 10167 bound_to 10162
  156.6615  130.4983  149.6029 H   0  0  0  0  0  0  0  0  0  0  0  0  # atno 10718 bound_to 10713
  154.4565  135.5904  153.6226 H   0  0  0  0  0  0  0  0  0  0  0  0  # atno 10763 bound_to 10752
  152.9819  135.6033  154.3540 H   0  0  0  0  0  0  0  0  0  0  0  0  # atno 10764 bound_to 10752
  154.3407  135.2841  155.2403 H   0  0  0  0  0  0  0  0  0  0  0  0  # atno 10765 bound_to 10752
  141.0932  133.6629  156.4047 H   0  0  0  0  0  0  0  0  0  0  0  0  # atno 11005 bound_to 11000
  146.2744  139.6716  142.9273 LP  0  0  0  0  0  0  0  0  0  0  0  0  # atno 17320 bound_to 7965
  145.4596  141.0432  143.2759 LP  0  0  0  0  0  0  0  0  0  0  0  0  # atno 17321 bound_to 7965
  139.9931  143.5826  152.2903 LP  0  0  0  0  0  0  0  0  0  0  0  0  # atno 17342 bound_to 10162
  139.6488  144.7659  151.2190 LP  0  0  0  0  0  0  0  0  0  0  0  0  # atno 17343 bound_to 10162
  156.2008  130.6618  151.1164 LP  0  0  0  0  0  0  0  0  0  0  0  0  # atno 17370 bound_to 10713
  157.7108  131.0735  150.6507 LP  0  0  0  0  0  0  0  0  0  0  0  0  # atno 17371 bound_to 10713
  140.5202  134.6312  157.5315 LP  0  0  0  0  0  0  0  0  0  0  0  0  # atno 17394 bound_to 11000
  139.9763  134.7210  155.9944 LP  0  0  0  0  0  0  0  0  0  0  0  0  # atno 17395 bound_to 11000

$$$$
