AV-unprocessed.smi:1661|AV-procd|sdf|6656|dock4
  -GOLD-   22720 7363D 1   1.00000     0.00000
 Structure written by MMmdl.
 37 38  0  0  0  0  0  0  0  0  3 V2000
  142.9606  134.6995  152.3252 C   0  0  0  0  0  0  0  0  0  0  0  0
  144.0923  135.5543  151.7282 C   0  0  2  0  0  0  0  0  0  0  0  0
  145.0769  134.7305  150.8789 C   0  0  0  0  0  0  0  0  0  0  0  0
  146.0047  133.8581  151.7436 C   0  0  0  0  0  0  0  0  0  0  0  0
  146.7378  134.6760  152.7443 N   0  3  2  0  0  0  0  0  0  0  0  0
  147.7330  133.8750  153.4997 C   0  0  0  0  0  0  0  0  0  0  0  0
  148.2419  134.6063  154.7562 C   0  0  0  0  0  0  0  0  0  0  0  0
  149.4898  135.3112  154.4894 N   0  0  0  0  0  0  0  0  0  0  0  0
  150.2247  135.9704  155.3964 C   0  0  0  0  0  0  0  0  0  0  0  0
  149.8591  136.0075  156.5735 O   0  0  0  0  0  0  0  0  0  0  0  0
  151.3324  136.5493  154.8816 N   0  5  0  0  0  0  0  0  0  0  0  0
  151.6174  137.8295  155.1720 C   0  0  0  0  0  0  0  0  0  0  0  0
  152.6341  138.4880  154.5928 N   0  0  0  0  0  0  0  0  0  0  0  0
  152.7534  139.8008  155.0286 N   0  0  0  0  0  0  0  0  0  0  0  0
  151.8136  140.1025  155.9242 C   0  0  0  0  0  0  0  0  0  0  0  0
  150.6965  138.8117  156.3144 S   0  0  0  0  0  0  0  0  0  0  0  0
  145.8054  135.4318  153.6222 C   0  0  0  0  0  0  0  0  0  0  0  0
  144.8733  136.3382  152.7981 C   0  0  0  0  0  0  0  0  0  0  0  0
  143.3358  133.9350  153.0047 H   0  0  0  0  0  0  0  0  0  0  0  0
  142.3977  134.1943  151.5398 H   0  0  0  0  0  0  0  0  0  0  0  0
  142.2572  135.3188  152.8827 H   0  0  0  0  0  0  0  0  0  0  0  0
  143.6150  136.2805  151.0691 H   0  0  0  0  0  0  0  0  0  0  0  0
  144.5337  134.1083  150.1668 H   0  0  0  0  0  0  0  0  0  0  0  0
  145.6874  135.4091  150.2817 H   0  0  0  0  0  0  0  0  0  0  0  0
  145.4360  133.0786  152.2524 H   0  0  0  0  0  0  0  0  0  0  0  0
  146.7174  133.3509  151.0924 H   0  0  0  0  0  0  0  0  0  0  0  0
  147.3089  132.9039  153.7602 H   0  0  0  0  0  0  0  0  0  0  0  0
  148.5870  133.6715  152.8521 H   0  0  0  0  0  0  0  0  0  0  0  0
  147.4899  135.3052  155.1263 H   0  0  0  0  0  0  0  0  0  0  0  0
  148.4370  133.9036  155.5649 H   0  0  0  0  0  0  0  0  0  0  0  0
  149.8288  135.3009  153.5384 H   0  0  0  0  0  0  0  0  0  0  0  0
  151.7755  141.0917  156.3551 H   0  0  0  0  0  0  0  0  0  0  0  0
  145.2233  134.7340  154.2255 H   0  0  0  0  0  0  0  0  0  0  0  0
  146.3646  136.0532  154.3205 H   0  0  0  0  0  0  0  0  0  0  0  0
  145.4715  137.1093  152.3105 H   0  0  0  0  0  0  0  0  0  0  0  0
  144.1836  136.8648  153.4587 H   0  0  0  0  0  0  0  0  0  0  0  0
  147.2651  135.3566  152.2164 H   0  0  0  0  0  0  0  0  0  0  0  0
  1  2  1  0  0  0  0
  1 19  1  0  0  0  0
  1 20  1  0  0  0  0
  1 21  1  0  0  0  0
  2 18  1  0  0  0  0
  2  3  1  0  0  0  0
  2 22  1  0  0  0  0
  3  4  1  0  0  0  0
  3 23  1  0  0  0  0
  3 24  1  0  0  0  0
  4  5  1  0  0  0  0
  4 25  1  0  0  0  0
  4 26  1  0  0  0  0
  5  6  1  0  0  0  0
  5 17  1  0  0  0  0
  5 37  1  0  0  0  0
  6  7  1  0  0  0  0
  6 27  1  0  0  0  0
  6 28  1  0  0  0  0
  7  8  1  0  0  0  0
  7 29  1  0  0  0  0
  7 30  1  0  0  0  0
  8  9  1  0  0  0  0
  8 31  1  0  0  0  0
  9 10  2  0  0  0  0
  9 11  1  0  0  0  0
 11 12  1  0  0  0  0
 12 16  1  0  0  0  0
 12 13  2  0  0  0  0
 13 14  1  0  0  0  0
 14 15  2  0  0  0  0
 15 16  1  0  0  0  0
 15 32  1  0  0  0  0
 17 18  1  0  0  0  0
 17 33  1  0  0  0  0
 17 34  1  0  0  0  0
 18 35  1  0  0  0  0
 18 36  1  0  0  0  0
M  CHG  1   5   1
M  CHG  1  11  -1
M  END
> <s_m_source_file>
AV-unprocessed.smi

> <i_m_source_file_index>
1661

> <i_lp_mmshare_version>
43012

> <i_f3d_flags>
0

> <s_epik_input>
W0NIM11bQ0hdMVtDSDJdW0NIMl1OKFtDSDJdW0NIMl0xKVtDSDJdW0NIMl1bTkhdQyg9TylbTkhdYzJubltjSF1zMg==

> <s_epik_cmdline>
J2VwaWtfcHl0aG9uJywgJy1waCcsICc3LjAnLCAnLXRuJywgJzgnLCAnLW1hJywgJzIwMCcsICctbWV0YWxfYmluZGluZycsICctaW1hZScsICc8aW5maWxlLm1hZT4nLCAnLW9tYWUnLCAnPG91dGZpbGUubWFlPic=

> <r_lp_tautomer_probability>
1

> <r_epik_Ionization_Penalty>
3.04466

> <r_epik_Ionization_Penalty_Charging>
3.01305

> <r_epik_Ionization_Penalty_Neutral>
0.0316037

> <r_epik_State_Penalty>
3.00821

> <r_epik_Charging_Adjusted_Penalty>
6.02127

> <i_epik_Tot_Q>
0

> <i_epik_Tot_abs_Q>
2

> <r_epik_Metal_State_Penalty>
0.454395

> <b_epik_Metal_Only>
1

> <s_lp_Force_Field>
OPLS_2005

> <r_lp_Energy>
9.834

> <b_lp_Chiralities_Consistent>
1

> <s_lp_Variant>
AV-unprocessed.smi:1661-4

> <Gold.Version>
5.8.1

> <Gold.Id.Protein>
6NUR|6NUR_protein|mol2

> <Gold.PLP.Fitness>
39.9554

> <Gold.PLP.PLP>
-24.9666

> <Gold.PLP.part.hbond>
-5.0000

> <Gold.PLP.part.metal>
0.0000

> <Gold.PLP.part.buried>
-3.3945

> <Gold.PLP.part.nonpolar>
-16.7361

> <Gold.PLP.part.repulsive>
0.2476

> <Gold.PLP.ligand.clash>
0.0000

> <Gold.PLP.ligand.torsion>
0.8295

> <Gold.PLP.Chemscore.Hbond>
5.5152

> <Gold.PLP.Chemscore.CHOScore>
0.0000

> <Gold.PLP.Chemscore.Metal>
0.0000

> <Gold.Chemscore.Hbonds>
donor molecule, donor type, donor heavy atom, donor atom, acceptor molecule, acceptor atom, score
      L1  H     5    37       P1  7948  1.95
      L1  H     8    31       P1  7948  0.21
      P1  H  7989  7998       L1    14  0.20
      P1  H  7997  8009       L1    14  0.90
      P1  H 10752 10765       L1    11  2.00

> <Gold.PLP.Chemscore.Internal.Correction>
0.1024

> <Gold.Rescore>
     Score         DG    S(hbond)    S(metal)    S(lipo)     H(rot)  DE(clash)    DE(int)     intcor
     13.71     -15.64       2.75        0.00      45.06       1.68       0.00       1.92       ----

> <Gold.Chemscore.Fitness>
13.7143

> <Gold.Chemscore.DG>
-15.6434

> <Gold.Chemscore.ZeroCoef>
-5.4800

> <Gold.Chemscore.Hbond>
2.7503

> <Gold.Chemscore.Metal>
0.0000

> <Gold.Chemscore.Lipo>
45.0615

> <Gold.Chemscore.Internal_Hbond>
0.0000

> <Gold.Chemscore.DEClash>
0.0048

> <Gold.Chemscore.DEInternal>
1.9242

> <Gold.Chemscore.Rot>
1.6777

> <Gold.Chemscore.Internal.Correction>
   9.000000E+99

> <Gold.Chemscore.Hbonds>
donor molecule, donor type, donor heavy atom, donor atom, acceptor molecule, acceptor atom, score
      L1  H     5    37       P1  7948  0.93
      L1  H     8    31       P1  7948  0.01
      P1  H  7997  8009       L1    14  0.15
      P1  H 10752 10765       L1    11  0.74

> <Gold.Chemscore.Hbond.Weighted>
-9.1861

> <Gold.Chemscore.Metal.Weighted>
-0.0000

> <Gold.Chemscore.Lipo.Weighted>
-5.2722

> <Gold.Chemscore.Internal_Hbond.Weighted>
0.0000

> <Gold.Chemscore.DEClash.Weighted>
0.0048

> <Gold.Chemscore.DEInternal.Weighted>
1.9242

> <Gold.Chemscore.Rot.Weighted>
4.2950

> <Gold.Chemscore.Internal.Correction.Weighted>
   9.000000E+99

> <Gold.Protein.RotatedTorsions>
[ 6907 6896 6895 6894 ] final   97.40 input  -60.11 | X-H torsion
[ 7974 7965 7964 7962 ] final  156.77 input  175.53 | X-H torsion
[ 8008 7997 7996 7995 ] final -154.56 input   59.86 | X-H torsion
[ 10167 10162 10161 10158 ] final    8.38 input  -65.29 | X-H torsion
[ 10718 10713 10712 10709 ] final  -56.30 input   66.30 | X-H torsion
[ 10763 10752 10751 10750 ] final  174.98 input  -60.55 | X-H torsion
[ 11005 11000 10999 10996 ] final  142.33 input  -57.11 | X-H torsion

> <Gold.Protein.ActiveResidues>
 VAL166  LYS551  ARG553  GLY616  TRP617  ASP618  TYR619  PRO620  LYS621  CYS622 
 ASP623  PHE694  ASN695  SER759  ASP760  ASP761  ALA762  ILE779  LEU786  VAL792 
 PHE793  MET794  SER795  GLU796  ALA797  LYS798  CYS799  TRP800  GLU811  SER814 

> <Gold.Protein.RotatedAtoms>
  152.5424  134.0739  159.8205 H   0  0  0  0  0  0  0  0  0  0  0  0  # atno 6907 bound_to 6896
  151.0850  133.5353  159.2625 H   0  0  0  0  0  0  0  0  0  0  0  0  # atno 6908 bound_to 6896
  151.2166  135.0511  159.8987 H   0  0  0  0  0  0  0  0  0  0  0  0  # atno 6909 bound_to 6896
  144.7943  139.7249  143.6208 H   0  0  0  0  0  0  0  0  0  0  0  0  # atno 7974 bound_to 7965
  155.6883  140.0752  157.2458 H   0  0  0  0  0  0  0  0  0  0  0  0  # atno 8008 bound_to 7997
  154.4093  140.1669  156.2110 H   0  0  0  0  0  0  0  0  0  0  0  0  # atno 8009 bound_to 7997
  155.9475  140.3380  155.6382 H   0  0  0  0  0  0  0  0  0  0  0  0  # atno 8010 bound_to 7997
  140.6317  143.7978  150.7305 H   0  0  0  0  0  0  0  0  0  0  0  0  # atno 10167 bound_to 10162
  156.1299  130.4160  150.0286 H   0  0  0  0  0  0  0  0  0  0  0  0  # atno 10718 bound_to 10713
  154.4614  135.2768  155.1710 H   0  0  0  0  0  0  0  0  0  0  0  0  # atno 10763 bound_to 10752
  154.3497  135.6152  153.5640 H   0  0  0  0  0  0  0  0  0  0  0  0  # atno 10764 bound_to 10752
  152.9855  135.5808  154.4977 H   0  0  0  0  0  0  0  0  0  0  0  0  # atno 10765 bound_to 10752
  140.0469  134.9276  157.0946 H   0  0  0  0  0  0  0  0  0  0  0  0  # atno 11005 bound_to 11000
  146.2206  139.5628  142.9621 LP  0  0  0  0  0  0  0  0  0  0  0  0  # atno 17320 bound_to 7965
  145.5714  141.0393  143.2172 LP  0  0  0  0  0  0  0  0  0  0  0  0  # atno 17321 bound_to 7965
  140.1590  143.4292  152.2080 LP  0  0  0  0  0  0  0  0  0  0  0  0  # atno 17342 bound_to 10162
  139.5531  144.7353  151.4375 LP  0  0  0  0  0  0  0  0  0  0  0  0  # atno 17343 bound_to 10162
  156.8202  130.9356  151.3641 LP  0  0  0  0  0  0  0  0  0  0  0  0  # atno 17370 bound_to 10713
  157.6478  130.8859  149.9573 LP  0  0  0  0  0  0  0  0  0  0  0  0  # atno 17371 bound_to 10713
  140.3980  134.2113  155.7164 LP  0  0  0  0  0  0  0  0  0  0  0  0  # atno 17394 bound_to 11000
  141.1911  133.8202  157.0892 LP  0  0  0  0  0  0  0  0  0  0  0  0  # atno 17395 bound_to 11000

$$$$
