AV-unprocessed.smi:2225|AV-procd|sdf|8999|dock8
  -GOLD-   2272012213D 1   1.00000     0.00000
 Structure written by MMmdl.
 33 34  0  0  0  0  0  0  0  0  1 V2000
  148.7429  141.1813  156.0899 O   0  0  0  0  0  0  0  0  0  0  0  0
  149.3819  140.7690  155.1226 C   0  0  0  0  0  0  0  0  0  0  0  0
  150.8408  140.3244  155.3277 C   0  0  0  0  0  0  0  0  0  0  0  0
  151.3885  140.5738  156.6743 N   0  0  0  0  0  0  0  0  0  0  0  0
  151.8611  139.4554  157.3837 C   0  0  0  0  0  0  0  0  0  0  0  0
  152.3741  139.5668  158.6164 C   0  0  0  0  0  0  0  0  0  0  0  0
  152.4309  140.8778  159.2154 C   0  0  0  0  0  0  0  0  0  0  0  0
  151.9904  141.9736  158.5551 C   0  0  0  0  0  0  0  0  0  0  0  0
  152.0380  143.3676  159.1768 C   0  0  0  0  0  0  0  0  0  0  0  0
  152.8281  144.1701  158.4624 F   0  0  0  0  0  0  0  0  0  0  0  0
  150.8195  143.9081  159.2145 F   0  0  0  0  0  0  0  0  0  0  0  0
  152.5084  143.3373  160.4246 F   0  0  0  0  0  0  0  0  0  0  0  0
  151.4349  141.8404  157.1927 C   0  0  0  0  0  0  0  0  0  0  0  0
  151.0368  142.8099  156.5452 O   0  0  0  0  0  0  0  0  0  0  0  0
  148.8569  140.6885  153.8885 N   0  0  0  0  0  0  0  0  0  0  0  0
  147.4972  141.0754  153.5261 C   0  0  2  0  0  0  0  0  0  0  0  0
  147.2265  142.5544  153.8018 C   0  0  0  0  0  0  0  0  0  0  0  0
  145.9100  142.5456  154.5706 C   0  0  0  0  0  0  0  0  0  0  0  0
  145.9695  141.3282  155.2923 O   0  0  0  0  0  0  0  0  0  0  0  0
  146.4716  140.3421  154.4026 C   0  0  0  0  0  0  0  0  0  0  0  0
  150.9167  139.2644  155.0782 H   0  0  0  0  0  0  0  0  0  0  0  0
  151.4515  140.8291  154.5777 H   0  0  0  0  0  0  0  0  0  0  0  0
  151.7861  138.5120  156.8622 H   0  0  0  0  0  0  0  0  0  0  0  0
  152.7363  138.6983  159.1468 H   0  0  0  0  0  0  0  0  0  0  0  0
  152.8353  140.9683  160.2125 H   0  0  0  0  0  0  0  0  0  0  0  0
  149.4421  140.3357  153.1451 H   0  0  0  0  0  0  0  0  0  0  0  0
  147.3118  140.8341  152.4778 H   0  0  0  0  0  0  0  0  0  0  0  0
  148.0076  142.9834  154.4315 H   0  0  0  0  0  0  0  0  0  0  0  0
  147.1716  143.1501  152.8900 H   0  0  0  0  0  0  0  0  0  0  0  0
  145.8023  143.4045  155.2331 H   0  0  0  0  0  0  0  0  0  0  0  0
  145.0591  142.5258  153.8877 H   0  0  0  0  0  0  0  0  0  0  0  0
  145.6489  139.9696  153.7904 H   0  0  0  0  0  0  0  0  0  0  0  0
  146.8890  139.4948  154.9484 H   0  0  0  0  0  0  0  0  0  0  0  0
  1  2  2  0  0  0  0
  2  3  1  0  0  0  0
  2 15  1  0  0  0  0
  3  4  1  0  0  0  0
  3 21  1  0  0  0  0
  3 22  1  0  0  0  0
  4 13  1  0  0  0  0
  4  5  1  0  0  0  0
  5  6  2  0  0  0  0
  5 23  1  0  0  0  0
  6  7  1  0  0  0  0
  6 24  1  0  0  0  0
  7  8  2  0  0  0  0
  7 25  1  0  0  0  0
  8  9  1  0  0  0  0
  8 13  1  0  0  0  0
  9 10  1  0  0  0  0
  9 11  1  0  0  0  0
  9 12  1  0  0  0  0
 13 14  2  0  0  0  0
 15 16  1  0  0  0  0
 15 26  1  0  0  0  0
 16 20  1  0  0  0  0
 16 17  1  0  0  0  0
 16 27  1  0  0  0  0
 17 18  1  0  0  0  0
 17 28  1  0  0  0  0
 17 29  1  0  0  0  0
 18 19  1  0  0  0  0
 18 30  1  0  0  0  0
 18 31  1  0  0  0  0
 19 20  1  0  0  0  0
 20 32  1  0  0  0  0
 20 33  1  0  0  0  0
M  END
> <s_m_source_file>
AV-unprocessed.smi

> <i_m_source_file_index>
2225

> <i_lp_mmshare_version>
43012

> <i_f3d_flags>
0

> <s_epik_input>
W0NIMl0xT1tDSDJdW0NIMl1bQ0BIXTFbTkhdQyg9TylbQ0gyXW4yW2NIXVtjSF1bY0hdYyhDKEYpKEYpRiljMj1P

> <s_epik_cmdline>
J2VwaWtfcHl0aG9uJywgJy1waCcsICc3LjAnLCAnLXRuJywgJzgnLCAnLW1hJywgJzIwMCcsICctbWV0YWxfYmluZGluZycsICctaW1hZScsICc8aW5maWxlLm1hZT4nLCAnLW9tYWUnLCAnPG91dGZpbGUubWFlPic=

> <r_lp_tautomer_probability>
1

> <r_epik_Ionization_Penalty>
3.32109e-08

> <r_epik_Ionization_Penalty_Charging>
1.91399e-09

> <r_epik_Ionization_Penalty_Neutral>
3.1297e-08

> <r_epik_State_Penalty>
-0

> <r_epik_Charging_Adjusted_Penalty>
1.91399e-09

> <i_epik_Tot_Q>
0

> <i_epik_Tot_abs_Q>
0

> <r_epik_Metal_State_Penalty>
-0

> <b_epik_Metal_Only>
0

> <s_lp_Force_Field>
OPLS_2005

> <r_lp_Energy>
26.4099

> <b_lp_Chiralities_Consistent>
1

> <s_lp_Variant>
AV-unprocessed.smi:2225-1

> <Gold.Version>
5.8.1

> <Gold.Id.Protein>
6NUR|6NUR_protein|mol2

> <Gold.PLP.Fitness>
41.9029

> <Gold.PLP.PLP>
-39.2320

> <Gold.PLP.part.hbond>
-1.0000

> <Gold.PLP.part.metal>
0.0000

> <Gold.PLP.part.buried>
-4.7069

> <Gold.PLP.part.nonpolar>
-34.4324

> <Gold.PLP.part.repulsive>
1.2066

> <Gold.PLP.ligand.clash>
0.3008

> <Gold.PLP.ligand.torsion>
0.0724

> <Gold.PLP.Chemscore.Hbond>
0.9280

> <Gold.PLP.Chemscore.CHOScore>
0.0000

> <Gold.PLP.Chemscore.Metal>
0.0000

> <Gold.Chemscore.Hbonds>
donor molecule, donor type, donor heavy atom, donor atom, acceptor molecule, acceptor atom, score
      L1  H    15    26       P1  7957  0.91

> <Gold.PLP.Chemscore.Internal.Correction>
0.3324

> <Gold.Rescore>
     Score         DG    S(hbond)    S(metal)    S(lipo)     H(rot)  DE(clash)    DE(int)     intcor
      5.72     -11.69       0.82        0.00      65.55       1.64       0.76       5.21       ----

> <Gold.Chemscore.Fitness>
5.7223

> <Gold.Chemscore.DG>
-11.6878

> <Gold.Chemscore.ZeroCoef>
-5.4800

> <Gold.Chemscore.Hbond>
0.8187

> <Gold.Chemscore.Metal>
0.0000

> <Gold.Chemscore.Lipo>
65.5468

> <Gold.Chemscore.Internal_Hbond>
0.0000

> <Gold.Chemscore.DEClash>
0.7553

> <Gold.Chemscore.DEInternal>
5.2103

> <Gold.Chemscore.Rot>
1.6389

> <Gold.Chemscore.Internal.Correction>
   9.000000E+99

> <Gold.Chemscore.Hbonds>
donor molecule, donor type, donor heavy atom, donor atom, acceptor molecule, acceptor atom, score
      L1  H    15    26       P1  7957  0.85

> <Gold.Chemscore.Hbond.Weighted>
-2.7344

> <Gold.Chemscore.Metal.Weighted>
-0.0000

> <Gold.Chemscore.Lipo.Weighted>
-7.6690

> <Gold.Chemscore.Internal_Hbond.Weighted>
0.0000

> <Gold.Chemscore.DEClash.Weighted>
0.7553

> <Gold.Chemscore.DEInternal.Weighted>
5.2103

> <Gold.Chemscore.Rot.Weighted>
4.1956

> <Gold.Chemscore.Internal.Correction.Weighted>
   9.000000E+99

> <Gold.Protein.RotatedTorsions>
[ 6907 6896 6895 6894 ] final   40.77 input  -60.11 | X-H torsion
[ 7974 7965 7964 7962 ] final  131.37 input  175.53 | X-H torsion
[ 8008 7997 7996 7995 ] final   50.90 input   59.86 | X-H torsion
[ 10167 10162 10161 10158 ] final   54.20 input  -65.29 | X-H torsion
[ 10718 10713 10712 10709 ] final -173.33 input   66.30 | X-H torsion
[ 10763 10752 10751 10750 ] final -158.64 input  -60.55 | X-H torsion
[ 11005 11000 10999 10996 ] final  -40.14 input  -57.11 | X-H torsion

> <Gold.Protein.ActiveResidues>
 VAL166  LYS551  ARG553  GLY616  TRP617  ASP618  TYR619  PRO620  LYS621  CYS622 
 ASP623  PHE694  ASN695  SER759  ASP760  ASP761  ALA762  ILE779  LEU786  VAL792 
 PHE793  MET794  SER795  GLU796  ALA797  LYS798  CYS799  TRP800  GLU811  SER814 

> <Gold.Protein.RotatedAtoms>
  152.1868  134.8707  160.0521 H   0  0  0  0  0  0  0  0  0  0  0  0  # atno 6907 bound_to 6896
  151.9610  133.3690  159.4043 H   0  0  0  0  0  0  0  0  0  0  0  0  # atno 6908 bound_to 6896
  150.6927  134.4164  159.5229 H   0  0  0  0  0  0  0  0  0  0  0  0  # atno 6909 bound_to 6896
  145.0080  139.4247  143.5259 H   0  0  0  0  0  0  0  0  0  0  0  0  # atno 7974 bound_to 7965
  155.4263  140.3448  155.4276 H   0  0  0  0  0  0  0  0  0  0  0  0  # atno 8008 bound_to 7997
  156.1363  140.1529  156.9020 H   0  0  0  0  0  0  0  0  0  0  0  0  # atno 8009 bound_to 7997
  154.4934  140.0834  156.7625 H   0  0  0  0  0  0  0  0  0  0  0  0  # atno 8010 bound_to 7997
  140.2327  144.3670  150.6408 H   0  0  0  0  0  0  0  0  0  0  0  0  # atno 10167 bound_to 10162
  156.7687  130.9440  151.3119 H   0  0  0  0  0  0  0  0  0  0  0  0  # atno 10718 bound_to 10713
  154.7540  135.3100  154.8505 H   0  0  0  0  0  0  0  0  0  0  0  0  # atno 10763 bound_to 10752
  153.9284  135.6788  153.4750 H   0  0  0  0  0  0  0  0  0  0  0  0  # atno 10764 bound_to 10752
  153.1136  135.4855  154.9007 H   0  0  0  0  0  0  0  0  0  0  0  0  # atno 10765 bound_to 10752
  141.0153  133.6888  156.2281 H   0  0  0  0  0  0  0  0  0  0  0  0  # atno 11005 bound_to 11000
  146.3465  139.9508  142.8729 LP  0  0  0  0  0  0  0  0  0  0  0  0  # atno 17320 bound_to 7965
  145.2062  140.9876  143.4127 LP  0  0  0  0  0  0  0  0  0  0  0  0  # atno 17321 bound_to 7965
  140.6173  143.2173  151.6765 LP  0  0  0  0  0  0  0  0  0  0  0  0  # atno 17342 bound_to 10162
  139.5104  144.3542  152.0623 LP  0  0  0  0  0  0  0  0  0  0  0  0  # atno 17343 bound_to 10162
  157.6701  130.9043  150.0021 LP  0  0  0  0  0  0  0  0  0  0  0  0  # atno 17370 bound_to 10713
  156.1292  130.3644  149.9759 LP  0  0  0  0  0  0  0  0  0  0  0  0  # atno 17371 bound_to 10713
  140.6665  134.4913  157.5585 LP  0  0  0  0  0  0  0  0  0  0  0  0  # atno 17394 bound_to 11000
  139.9113  134.8338  156.1518 LP  0  0  0  0  0  0  0  0  0  0  0  0  # atno 17395 bound_to 11000

$$$$
