AV-unprocessed.smi:1908|AV-procd|sdf|7733|dock6
  -GOLD-   22720 9473D 1   1.00000     0.00000
 Structure written by MMmdl.
 28 28  0  0  0  0  0  0  0  0  1 V2000
  152.7597  144.7476  158.2411 C   0  0  0  0  0  0  0  0  0  0  0  0
  151.2279  144.7978  158.3107 C   0  0  0  0  0  0  0  0  0  0  0  0
  150.7293  144.9668  159.7542 C   0  0  0  0  0  0  0  0  0  0  0  0
  150.6735  143.5818  157.7231 N   0  0  0  0  0  0  0  0  0  0  0  0
  150.7894  142.3465  158.2353 C   0  0  0  0  0  0  0  0  0  0  0  0
  151.4007  142.1016  159.2763 O   0  0  0  0  0  0  0  0  0  0  0  0
  150.1378  141.2144  157.4291 C   0  0  0  0  0  0  0  0  0  0  0  0
  151.0397  140.0721  157.2251 N   0  0  0  0  0  0  0  0  0  0  0  0
  151.4989  139.3382  158.3098 C   0  0  0  0  0  0  0  0  0  0  0  0
  152.3215  138.2690  158.1919 C   0  0  0  0  0  0  0  0  0  0  0  0
  152.7756  137.8279  156.8774 C   0  0  0  0  0  0  0  0  0  0  0  0
  153.5219  136.8742  156.6680 O   0  0  0  0  0  0  0  0  0  0  0  0
  152.2895  138.5897  155.8116 N   0  0  0  0  0  0  0  0  0  0  0  0
  151.4395  139.6906  155.9259 C   0  0  0  0  0  0  0  0  0  0  0  0
  151.0654  140.2901  154.9186 O   0  0  0  0  0  0  0  0  0  0  0  0
  152.5745  138.3197  154.8815 H   0  0  0  0  0  0  0  0  0  0  0  0
  153.1998  145.6586  158.6479 H   0  0  0  0  0  0  0  0  0  0  0  0
  153.1030  144.6490  157.2107 H   0  0  0  0  0  0  0  0  0  0  0  0
  153.1570  143.9050  158.8079 H   0  0  0  0  0  0  0  0  0  0  0  0
  150.8994  145.6597  157.7271 H   0  0  0  0  0  0  0  0  0  0  0  0
  151.1352  145.8731  160.2046 H   0  0  0  0  0  0  0  0  0  0  0  0
  151.0266  144.1236  160.3784 H   0  0  0  0  0  0  0  0  0  0  0  0
  149.6419  145.0419  159.7912 H   0  0  0  0  0  0  0  0  0  0  0  0
  150.1588  143.6883  156.8609 H   0  0  0  0  0  0  0  0  0  0  0  0
  149.2172  140.8865  157.9164 H   0  0  0  0  0  0  0  0  0  0  0  0
  149.8231  141.6234  156.4679 H   0  0  0  0  0  0  0  0  0  0  0  0
  151.1841  139.6262  159.3030 H   0  0  0  0  0  0  0  0  0  0  0  0
  152.6443  137.7362  159.0747 H   0  0  0  0  0  0  0  0  0  0  0  0
  1  2  1  0  0  0  0
  1 17  1  0  0  0  0
  1 18  1  0  0  0  0
  1 19  1  0  0  0  0
  2  3  1  0  0  0  0
  2  4  1  0  0  0  0
  2 20  1  0  0  0  0
  3 21  1  0  0  0  0
  3 22  1  0  0  0  0
  3 23  1  0  0  0  0
  4  5  1  0  0  0  0
  4 24  1  0  0  0  0
  5  6  2  0  0  0  0
  5  7  1  0  0  0  0
  7  8  1  0  0  0  0
  7 25  1  0  0  0  0
  7 26  1  0  0  0  0
  8 14  1  0  0  0  0
  8  9  1  0  0  0  0
  9 10  2  0  0  0  0
  9 27  1  0  0  0  0
 10 11  1  0  0  0  0
 10 28  1  0  0  0  0
 11 12  2  0  0  0  0
 11 13  1  0  0  0  0
 13 16  1  0  0  0  0
 13 14  1  0  0  0  0
 14 15  2  0  0  0  0
M  END
> <s_m_source_file>
AV-unprocessed.smi

> <i_m_source_file_index>
1908

> <i_lp_mmshare_version>
43012

> <i_f3d_flags>
0

> <s_epik_input>
W0NIM11bQ0hdKFtDSDNdKVtOSF1DKD1PKVtDSDJdbjFbY0hdW2NIXWMoPU8pW25IXWMxPU8=

> <s_epik_cmdline>
J2VwaWtfcHl0aG9uJywgJy1waCcsICc3LjAnLCAnLXRuJywgJzgnLCAnLW1hJywgJzIwMCcsICctbWV0YWxfYmluZGluZycsICctaW1hZScsICc8aW5maWxlLm1hZT4nLCAnLW9tYWUnLCAnPG91dGZpbGUubWFlPic=

> <r_lp_tautomer_probability>
0.999537

> <r_epik_Ionization_Penalty>
0.00328918

> <r_epik_Ionization_Penalty_Charging>
0.00328916

> <r_epik_Ionization_Penalty_Neutral>
2.06703e-08

> <r_epik_State_Penalty>
0.00232387

> <r_epik_Charging_Adjusted_Penalty>
0.00561303

> <i_epik_Tot_Q>
0

> <i_epik_Tot_abs_Q>
0

> <r_epik_Metal_State_Penalty>
0.365273

> <b_epik_Metal_Only>
0

> <s_lp_Force_Field>
OPLS_2005

> <r_lp_Energy>
1.74707

> <b_lp_Chiralities_Consistent>
1

> <s_lp_Variant>
AV-unprocessed.smi:1908-1

> <Gold.Version>
5.8.1

> <Gold.Id.Protein>
6NUR|6NUR_protein|mol2

> <Gold.PLP.Fitness>
36.2680

> <Gold.PLP.PLP>
-27.9475

> <Gold.PLP.part.hbond>
-3.0000

> <Gold.PLP.part.metal>
0.0000

> <Gold.PLP.part.buried>
-6.0686

> <Gold.PLP.part.nonpolar>
-19.1186

> <Gold.PLP.part.repulsive>
0.2270

> <Gold.PLP.ligand.clash>
0.0000

> <Gold.PLP.ligand.torsion>
0.1754

> <Gold.PLP.Chemscore.Hbond>
2.8880

> <Gold.PLP.Chemscore.CHOScore>
0.0000

> <Gold.PLP.Chemscore.Metal>
0.0000

> <Gold.Chemscore.Hbonds>
donor molecule, donor type, donor heavy atom, donor atom, acceptor molecule, acceptor atom, score
      L1  H     4    24       P1  8028  1.00
      P1  H  7989  7998       L1    15  1.00
      P1  H 10752 10764       L1    12  0.80

> <Gold.PLP.Chemscore.Internal.Correction>
0.0073

> <Gold.Rescore>
     Score         DG    S(hbond)    S(metal)    S(lipo)     H(rot)  DE(clash)    DE(int)     intcor
     14.34     -16.78       2.95        0.00      50.87       1.76       0.00       2.43       ----

> <Gold.Chemscore.Fitness>
14.3430

> <Gold.Chemscore.DG>
-16.7788

> <Gold.Chemscore.ZeroCoef>
-5.4800

> <Gold.Chemscore.Hbond>
2.9468

> <Gold.Chemscore.Metal>
0.0000

> <Gold.Chemscore.Lipo>
50.8745

> <Gold.Chemscore.Internal_Hbond>
0.0000

> <Gold.Chemscore.DEClash>
0.0009

> <Gold.Chemscore.DEInternal>
2.4348

> <Gold.Chemscore.Rot>
1.7562

> <Gold.Chemscore.Internal.Correction>
   9.000000E+99

> <Gold.Chemscore.Hbonds>
donor molecule, donor type, donor heavy atom, donor atom, acceptor molecule, acceptor atom, score
      L1  H     4    24       P1  8028  0.89
      P1  H  7989  7998       L1    15  0.99
      P1  H 10752 10764       L1    12  0.77

> <Gold.Chemscore.Hbond.Weighted>
-9.8422

> <Gold.Chemscore.Metal.Weighted>
-0.0000

> <Gold.Chemscore.Lipo.Weighted>
-5.9523

> <Gold.Chemscore.Internal_Hbond.Weighted>
0.0000

> <Gold.Chemscore.DEClash.Weighted>
0.0009

> <Gold.Chemscore.DEInternal.Weighted>
2.4348

> <Gold.Chemscore.Rot.Weighted>
4.4958

> <Gold.Chemscore.Internal.Correction.Weighted>
   9.000000E+99

> <Gold.Protein.RotatedTorsions>
[ 6907 6896 6895 6894 ] final   23.44 input  -60.11 | X-H torsion
[ 7974 7965 7964 7962 ] final  115.94 input  175.53 | X-H torsion
[ 8008 7997 7996 7995 ] final -127.92 input   59.86 | X-H torsion
[ 10167 10162 10161 10158 ] final  -97.30 input  -65.29 | X-H torsion
[ 10718 10713 10712 10709 ] final   53.61 input   66.30 | X-H torsion
[ 10763 10752 10751 10750 ] final   -3.02 input  -60.55 | X-H torsion
[ 11005 11000 10999 10996 ] final  142.08 input  -57.11 | X-H torsion

> <Gold.Protein.ActiveResidues>
 VAL166  LYS551  ARG553  GLY616  TRP617  ASP618  TYR619  PRO620  LYS621  CYS622 
 ASP623  PHE694  ASN695  SER759  ASP760  ASP761  ALA762  ILE779  LEU786  VAL792 
 PHE793  MET794  SER795  GLU796  ALA797  LYS798  CYS799  TRP800  GLU811  SER814 

> <Gold.Protein.RotatedAtoms>
  151.9424  135.0207  160.0536 H   0  0  0  0  0  0  0  0  0  0  0  0  # atno 6907 bound_to 6896
  152.2025  133.4846  159.5074 H   0  0  0  0  0  0  0  0  0  0  0  0  # atno 6908 bound_to 6896
  150.6958  134.1489  159.4176 H   0  0  0  0  0  0  0  0  0  0  0  0  # atno 6909 bound_to 6896
  145.1857  139.3026  143.4394 H   0  0  0  0  0  0  0  0  0  0  0  0  # atno 7974 bound_to 7965
  155.2541  140.0433  157.2990 H   0  0  0  0  0  0  0  0  0  0  0  0  # atno 8008 bound_to 7997
  154.5751  140.2385  155.8104 H   0  0  0  0  0  0  0  0  0  0  0  0  # atno 8009 bound_to 7997
  156.2151  140.2987  155.9830 H   0  0  0  0  0  0  0  0  0  0  0  0  # atno 8010 bound_to 7997
  140.2848  143.3258  152.0405 H   0  0  0  0  0  0  0  0  0  0  0  0  # atno 10167 bound_to 10162
  157.5183  130.8547  149.8524 H   0  0  0  0  0  0  0  0  0  0  0  0  # atno 10718 bound_to 10713
  153.3658  135.6992  153.6676 H   0  0  0  0  0  0  0  0  0  0  0  0  # atno 10763 bound_to 10752
  153.5346  135.3585  155.2692 H   0  0  0  0  0  0  0  0  0  0  0  0  # atno 10764 bound_to 10752
  154.8674  135.4189  154.2926 H   0  0  0  0  0  0  0  0  0  0  0  0  # atno 10765 bound_to 10752
  140.0450  134.9285  157.0913 H   0  0  0  0  0  0  0  0  0  0  0  0  # atno 11005 bound_to 11000
  146.3445  140.2053  142.8589 LP  0  0  0  0  0  0  0  0  0  0  0  0  # atno 17320 bound_to 7965
  145.0091  140.8698  143.5235 LP  0  0  0  0  0  0  0  0  0  0  0  0  # atno 17321 bound_to 7965
  139.4953  144.6566  151.6558 LP  0  0  0  0  0  0  0  0  0  0  0  0  # atno 17342 bound_to 10162
  140.5781  143.9993  150.6253 LP  0  0  0  0  0  0  0  0  0  0  0  0  # atno 17343 bound_to 10162
  156.0335  130.3758  150.1622 LP  0  0  0  0  0  0  0  0  0  0  0  0  # atno 17370 bound_to 10713
  156.9811  130.9864  151.3437 LP  0  0  0  0  0  0  0  0  0  0  0  0  # atno 17371 bound_to 10713
  140.4008  134.2085  155.7163 LP  0  0  0  0  0  0  0  0  0  0  0  0  # atno 17394 bound_to 11000
  141.1902  133.8221  157.0926 LP  0  0  0  0  0  0  0  0  0  0  0  0  # atno 17395 bound_to 11000

$$$$
