#       Name:                AV-unprocessed.smi:769
#       Creating user name   scv26
#       Creation time:       Fri Mar 27 01:09:05 2020


#       File generated by GOLD software.
#

@<TRIPOS>MOLECULE
AV-unprocessed.smi:769
    55    57     1
SMALL
NO_CHARGES


@<TRIPOS>ATOM
      1 ****        -2.6884   1.4858  -0.6142 O.2            1 S1                 0.0000
      2 ****        -2.8088   1.3250  -1.8284 C.2            1 S1                 0.0000
      3 ****        -2.2005   0.3381  -2.5022 N.am           1 S1                 0.0000
      4 ****        -1.3527  -0.6840  -1.8982 C.3            1 S1                 0.0000
      5 ****         0.0496  -0.1375  -1.5653 C.3            1 S1                 0.0000
      6 ****         0.9439  -1.1743  -0.9920 N.4            1 S1                 1.0000
      7 ****         2.3816  -0.8295  -1.1642 C.3            1 S1                 0.0000
      8 ****         3.3013  -1.9097  -0.5653 C.3            1 S1                 0.0000
      9 ****         2.9425  -2.1093   0.8414 N.am           1 S1                 0.0000
     10 ****         3.7620  -1.7687   1.8660 C.2            1 S1                 0.0000
     11 ****         4.9059  -1.3544   1.6747 O.2            1 S1                 0.0000
     12 ****         3.2294  -1.8616   3.3124 C.3            1 S1                 0.0000
     13 ****         4.1584  -1.3318   4.4234 C.3            1 S1                 0.0000
     14 ****         4.5555  -2.7732   4.7556 C.3            1 S1                 0.0000
     15 ****         3.3566  -3.2619   3.9364 C.3            1 S1                 0.0000
     16 ****         1.5678  -2.6014   0.9677 C.3            1 S1                 0.0000
     17 ****         0.6035  -1.5374   0.4129 C.3            1 S1                 0.0000
     18 ****        -3.5341   2.1040  -2.6500 N.am           1 S1                 0.0000
     19 ****        -4.3332   3.2361  -2.3295 C.ar           1 S1                 0.0000
     20 ****        -4.6708   4.1138  -3.3839 C.ar           1 S1                 0.0000
     21 ****        -5.4729   5.2429  -3.1211 C.ar           1 S1                 0.0000
     22 ****        -5.9196   5.4730  -1.8681 N.pl3          1 S1                 1.0000
     23 ****        -5.6355   4.6569  -0.8307 C.ar           1 S1                 0.0000
     24 ****        -4.8380   3.5117  -1.0326 C.ar           1 S1                 0.0000
     25 ****        -2.3481   0.2777  -3.4995 H              1 S1                 0.0000
     26 ****        -1.8510  -1.0768  -1.0114 H              1 S1                 0.0000
     27 ****        -1.2706  -1.5139  -2.6006 H              1 S1                 0.0000
     28 ****         0.4907   0.2440  -2.4876 H              1 S1                 0.0000
     29 ****        -0.0086   0.7097  -0.8801 H              1 S1                 0.0000
     30 ****         2.6053  -0.7089  -2.2249 H              1 S1                 0.0000
     31 ****         2.5814   0.1310  -0.6858 H              1 S1                 0.0000
     32 ****         3.1792  -2.8500  -1.1050 H              1 S1                 0.0000
     33 ****         4.3443  -1.6221  -0.7038 H              1 S1                 0.0000
     34 ****         2.2312  -1.4328   3.4084 H              1 S1                 0.0000
     35 ****         4.9927  -0.7053   4.1063 H              1 S1                 0.0000
     36 ****         3.6037  -0.8539   5.2319 H              1 S1                 0.0000
     37 ****         5.5110  -3.0577   4.3126 H              1 S1                 0.0000
     38 ****         4.5112  -3.0220   5.8163 H              1 S1                 0.0000
     39 ****         2.4957  -3.5226   4.5536 H              1 S1                 0.0000
     40 ****         3.6007  -4.0644   3.2387 H              1 S1                 0.0000
     41 ****         1.4690  -3.5242   0.3942 H              1 S1                 0.0000
     42 ****         1.2868  -2.8687   1.9851 H              1 S1                 0.0000
     43 ****         0.6423  -0.6443   1.0388 H              1 S1                 0.0000
     44 ****        -0.4149  -1.9195   0.4695 H              1 S1                 0.0000
     45 ****        -3.4705   1.8867  -3.6340 H              1 S1                 0.0000
     46 ****        -4.3161   3.9298  -4.3878 H              1 S1                 0.0000
     47 ****        -5.7696   5.9624  -3.8705 H              1 S1                 0.0000
     48 ****        -6.0568   4.9388   0.1234 H              1 S1                 0.0000
     49 ****        -4.6426   2.8655  -0.1909 H              1 S1                 0.0000
     50 ****         0.8010  -2.0090  -1.5426 H              1 S1                 0.0000
     51 ****        -6.4996   6.2954  -1.6986 H              1 S1                 0.0000
     52 ****        -2.1146   0.8635  -0.0819 LP             1 S1                 0.0000
     53 ****        -3.1645   2.2389  -0.1599 LP             1 S1                 0.0000
     54 ****         5.2544  -1.2611   0.7421 LP             1 S1                 0.0000
     55 ****         5.4861  -1.1112   2.4520 LP             1 S1                 0.0000
@<TRIPOS>BOND
    1    1    2 2     
    2    2    3 am    
    3    2   18 am    
    4    3    4 1     
    5    3   25 1     
    6    4    5 1     
    7    4   26 1     
    8    4   27 1     
    9    5    6 1     
   10    5   28 1     
   11    5   29 1     
   12    6   17 1     
   13    6    7 1     
   14    6   50 1     
   15    7    8 1     
   16    7   30 1     
   17    7   31 1     
   18    8    9 1     
   19    8   32 1     
   20    8   33 1     
   21    9   10 am    
   22    9   16 1     
   23   10   11 2     
   24   10   12 1     
   25   12   15 1     
   26   12   13 1     
   27   12   34 1     
   28   13   14 1     
   29   13   35 1     
   30   13   36 1     
   31   14   15 1     
   32   14   37 1     
   33   14   38 1     
   34   15   39 1     
   35   15   40 1     
   36   16   17 1     
   37   16   41 1     
   38   16   42 1     
   39   17   43 1     
   40   17   44 1     
   41   18   19 1     
   42   18   45 1     
   43   19   24 ar    
   44   19   20 ar    
   45   20   21 ar    
   46   20   46 1     
   47   21   22 ar    
   48   21   47 1     
   49   22   23 ar    
   50   22   51 1     
   51   23   24 ar    
   52   23   48 1     
   53   24   49 1     
   54    1   52 1     
   55    1   53 1     
   56   11   54 1     
   57   11   55 1     
@<TRIPOS>SUBSTRUCTURE
      1 S1             1
@<TRIPOS>SET
LONE_PAIRS      STATIC     ATOMS    <user>   **** ""
4 52 53 54 55
DONOR_HYDROGENS      STATIC     ATOMS    <user>   **** ""
4 25 50 45 51
ATOM$BLUE        STATIC     ATOMS    COLORGROUP SYSTEM
4 52 53 54 55
ATOM$RED        STATIC     ATOMS    COLORGROUP SYSTEM
4 25 50 45 51
