AV-unprocessed.smi:262|AV-procd|sdf|1999|dock10
  -GOLD-   2262021193D 1   1.00000     0.00000
 Structure written by MMmdl.
 60 64  0  0  0  0  0  0  0  0  2 V2000
  151.7492  136.7900  154.1577 O   0  0  0  0  0  0  0  0  0  0  0  0
  151.3657  137.3110  155.4189 C   0  0  0  0  0  0  0  0  0  0  0  0
  151.1648  136.1157  156.3834 C   0  0  0  0  0  0  0  0  0  0  0  0
  149.8937  135.4266  156.2183 N   0  0  0  0  0  0  0  0  0  0  0  0
  149.3161  135.0377  155.0298 C   0  0  0  0  0  0  0  0  0  0  0  0
  148.1672  134.4276  155.1411 N   0  0  0  0  0  0  0  0  0  0  0  0
  147.9408  134.3876  156.5104 C   0  0  0  0  0  0  0  0  0  0  0  0
  146.8964  133.8743  157.3220 C   0  0  0  0  0  0  0  0  0  0  0  0
  145.8209  133.2533  156.7905 N   0  0  0  0  0  0  0  0  0  0  0  0
  144.6847  134.1125  156.4776 C   0  0  0  0  0  0  0  0  0  0  0  0
  144.7399  134.6371  155.0299 C   0  0  0  0  0  0  0  0  0  0  0  0
  144.9298  133.5241  154.0616 N   0  3  0  0  0  0  0  0  0  0  0  0
  144.9109  133.9566  152.6401 C   0  0  0  0  0  0  0  0  0  0  0  0
  144.9918  132.7807  151.6455 C   0  0  2  0  0  0  0  0  0  0  0  0
  146.0450  132.9364  150.5658 C   0  0  0  0  0  0  0  0  0  0  0  0
  145.5692  131.9394  149.5131 C   0  0  0  0  0  0  0  0  0  0  0  0
  144.1506  131.8896  149.6367 O   0  0  0  0  0  0  0  0  0  0  0  0
  143.7346  132.6101  150.7924 C   0  0  0  0  0  0  0  0  0  0  0  0
  146.1372  132.7190  154.3814 C   0  0  0  0  0  0  0  0  0  0  0  0
  146.0986  132.1921  155.8290 C   0  0  0  0  0  0  0  0  0  0  0  0
  147.0053  134.0163  158.6681 N   0  0  0  0  0  0  0  0  0  0  0  0
  148.0777  134.6214  159.1890 C   0  0  0  0  0  0  0  0  0  0  0  0
  149.1307  135.1444  158.5564 N   0  0  0  0  0  0  0  0  0  0  0  0
  149.0173  135.0063  157.2039 C   0  0  0  0  0  0  0  0  0  0  0  0
  152.4959  138.2269  155.9298 C   0  0  0  0  0  0  0  0  0  0  0  0
  152.6174  139.5183  155.1012 C   0  0  0  0  0  0  0  0  0  0  0  0
  151.3703  140.2018  155.0798 O   0  0  0  0  0  0  0  0  0  0  0  0
  150.3426  139.4473  154.4495 C   0  0  0  0  0  0  0  0  0  0  0  0
  150.0817  138.1489  155.2334 C   0  0  0  0  0  0  0  0  0  0  0  0
  151.2984  137.2746  153.4831 H   0  0  0  0  0  0  0  0  0  0  0  0
  151.9652  135.3860  156.2521 H   0  0  0  0  0  0  0  0  0  0  0  0
  151.2337  136.4544  157.4181 H   0  0  0  0  0  0  0  0  0  0  0  0
  149.7768  135.2251  154.0704 H   0  0  0  0  0  0  0  0  0  0  0  0
  143.7731  133.5318  156.6233 H   0  0  0  0  0  0  0  0  0  0  0  0
  144.6344  134.9463  157.1794 H   0  0  0  0  0  0  0  0  0  0  0  0
  143.8150  135.1735  154.8248 H   0  0  0  0  0  0  0  0  0  0  0  0
  145.5508  135.3579  154.9169 H   0  0  0  0  0  0  0  0  0  0  0  0
  144.0147  134.5498  152.4526 H   0  0  0  0  0  0  0  0  0  0  0  0
  145.7593  134.6189  152.4605 H   0  0  0  0  0  0  0  0  0  0  0  0
  145.1603  131.8418  152.1730 H   0  0  0  0  0  0  0  0  0  0  0  0
  146.0276  133.9477  150.1568 H   0  0  0  0  0  0  0  0  0  0  0  0
  147.0555  132.7266  150.9174 H   0  0  0  0  0  0  0  0  0  0  0  0
  145.8730  132.2222  148.5049 H   0  0  0  0  0  0  0  0  0  0  0  0
  145.9694  130.9465  149.7214 H   0  0  0  0  0  0  0  0  0  0  0  0
  142.9372  132.0874  151.3211 H   0  0  0  0  0  0  0  0  0  0  0  0
  143.3476  133.5780  150.4707 H   0  0  0  0  0  0  0  0  0  0  0  0
  146.2115  131.8734  153.6968 H   0  0  0  0  0  0  0  0  0  0  0  0
  147.0282  133.3280  154.2235 H   0  0  0  0  0  0  0  0  0  0  0  0
  147.0379  131.6941  156.0751 H   0  0  0  0  0  0  0  0  0  0  0  0
  145.3164  131.4385  155.9257 H   0  0  0  0  0  0  0  0  0  0  0  0
  148.0960  134.6978  160.2665 H   0  0  0  0  0  0  0  0  0  0  0  0
  152.2958  138.5015  156.9664 H   0  0  0  0  0  0  0  0  0  0  0  0
  153.4480  137.6950  155.9342 H   0  0  0  0  0  0  0  0  0  0  0  0
  153.3675  140.1742  155.5439 H   0  0  0  0  0  0  0  0  0  0  0  0
  152.9468  139.3049  154.0831 H   0  0  0  0  0  0  0  0  0  0  0  0
  149.4352  140.0506  154.4188 H   0  0  0  0  0  0  0  0  0  0  0  0
  150.6142  139.2343  153.4145 H   0  0  0  0  0  0  0  0  0  0  0  0
  149.3064  137.5693  154.7316 H   0  0  0  0  0  0  0  0  0  0  0  0
  149.6820  138.4129  156.2135 H   0  0  0  0  0  0  0  0  0  0  0  0
  144.1432  132.9019  154.1796 H   0  0  0  0  0  0  0  0  0  0  0  0
  1  2  1  0  0  0  0
  1 30  1  0  0  0  0
  2 29  1  0  0  0  0
  2  3  1  0  0  0  0
  2 25  1  0  0  0  0
  3  4  1  0  0  0  0
  3 31  1  0  0  0  0
  3 32  1  0  0  0  0
  4 24  1  0  0  0  0
  4  5  1  0  0  0  0
  5  6  2  0  0  0  0
  5 33  1  0  0  0  0
  6  7  1  0  0  0  0
  7 24  2  0  0  0  0
  7  8  1  0  0  0  0
  8  9  1  0  0  0  0
  8 21  2  0  0  0  0
  9 20  1  0  0  0  0
  9 10  1  0  0  0  0
 10 11  1  0  0  0  0
 10 34  1  0  0  0  0
 10 35  1  0  0  0  0
 11 12  1  0  0  0  0
 11 36  1  0  0  0  0
 11 37  1  0  0  0  0
 12 13  1  0  0  0  0
 12 19  1  0  0  0  0
 12 60  1  0  0  0  0
 13 14  1  0  0  0  0
 13 38  1  0  0  0  0
 13 39  1  0  0  0  0
 14 18  1  0  0  0  0
 14 15  1  0  0  0  0
 14 40  1  0  0  0  0
 15 16  1  0  0  0  0
 15 41  1  0  0  0  0
 15 42  1  0  0  0  0
 16 17  1  0  0  0  0
 16 43  1  0  0  0  0
 16 44  1  0  0  0  0
 17 18  1  0  0  0  0
 18 45  1  0  0  0  0
 18 46  1  0  0  0  0
 19 20  1  0  0  0  0
 19 47  1  0  0  0  0
 19 48  1  0  0  0  0
 20 49  1  0  0  0  0
 20 50  1  0  0  0  0
 21 22  1  0  0  0  0
 22 23  2  0  0  0  0
 22 51  1  0  0  0  0
 23 24  1  0  0  0  0
 25 26  1  0  0  0  0
 25 52  1  0  0  0  0
 25 53  1  0  0  0  0
 26 27  1  0  0  0  0
 26 54  1  0  0  0  0
 26 55  1  0  0  0  0
 27 28  1  0  0  0  0
 28 29  1  0  0  0  0
 28 56  1  0  0  0  0
 28 57  1  0  0  0  0
 29 58  1  0  0  0  0
 29 59  1  0  0  0  0
M  CHG  1  12   1
M  END
> <s_m_source_file>
AV-unprocessed.smi

> <i_m_source_file_index>
262

> <i_lp_mmshare_version>
43012

> <i_f3d_flags>
0

> <s_epik_input>
W0NIMl0xW0NIMl1PW0NIMl1bQ0gyXUMxKFtPSF0pW0NIMl1uKFtjSF1uMiljKGMyMyluW2NIXW5jM040W0NIMl1bQ0gyXU4oW0NIMl1bQ0gyXTQpW0NIMl1bQ0BASF01W0NIMl1bQ0gyXU9bQ0gyXTU=

> <s_epik_cmdline>
J2VwaWtfcHl0aG9uJywgJy1waCcsICc3LjAnLCAnLXRuJywgJzgnLCAnLW1hJywgJzIwMCcsICctbWV0YWxfYmluZGluZycsICctaW1hZScsICc8aW5maWxlLm1hZT4nLCAnLW9tYWUnLCAnPG91dGZpbGUubWFlPic=

> <r_lp_tautomer_probability>
1

> <r_epik_Ionization_Penalty>
0.010889

> <r_epik_Ionization_Penalty_Charging>
0.0108222

> <r_epik_Ionization_Penalty_Neutral>
6.6801e-05

> <r_epik_State_Penalty>
0.00829663

> <r_epik_Charging_Adjusted_Penalty>
0.0191189

> <i_epik_Tot_Q>
1

> <i_epik_Tot_abs_Q>
1

> <r_epik_Metal_State_Penalty>
0.00842341

> <b_epik_Metal_Only>
0

> <s_lp_Force_Field>
OPLS_2005

> <r_lp_Energy>
57.8888

> <b_lp_Chiralities_Consistent>
1

> <s_lp_Variant>
AV-unprocessed.smi:262-1

> <Gold.Version>
5.8.1

> <Gold.Id.Protein>
6NUR|6NUR_protein|mol2

> <Gold.PLP.Fitness>
51.6004

> <Gold.PLP.PLP>
-36.6743

> <Gold.PLP.part.hbond>
-6.0000

> <Gold.PLP.part.metal>
0.0000

> <Gold.PLP.part.buried>
-6.3598

> <Gold.PLP.part.nonpolar>
-26.9609

> <Gold.PLP.part.repulsive>
0.3454

> <Gold.PLP.ligand.clash>
0.0000

> <Gold.PLP.ligand.torsion>
1.6099

> <Gold.PLP.Chemscore.Hbond>
5.1963

> <Gold.PLP.Chemscore.CHOScore>
0.7044

> <Gold.PLP.Chemscore.Metal>
0.0000

> <Gold.Chemscore.Hbonds>
donor molecule, donor type, donor heavy atom, donor atom, acceptor molecule, acceptor atom, score
      L1  H     1    30       P1  7949  0.03
      L1  H    12    60       P1 10957  2.00
      P1  H  6896  6907       L1    23  1.00
      P1  H  7989  7998       L1    27  0.20
      P1  H 10752 10763       L1     1  1.00
      P1  H 10785 10796       L1    17  0.44
      L1  C     5    33       P1  7948  0.73

> <Gold.PLP.Chemscore.Internal.Correction>
0.4441

> <Gold.Rescore>
     Score         DG    S(hbond)    S(metal)    S(lipo)     H(rot)  DE(clash)    DE(int)     intcor
     16.34     -19.47       3.18        0.00      84.27       2.53       0.09       3.04       ----

> <Gold.Chemscore.Fitness>
16.3421

> <Gold.Chemscore.DG>
-19.4743

> <Gold.Chemscore.ZeroCoef>
-5.4800

> <Gold.Chemscore.Hbond>
3.1762

> <Gold.Chemscore.Metal>
0.0000

> <Gold.Chemscore.Lipo>
84.2694

> <Gold.Chemscore.Internal_Hbond>
0.0000

> <Gold.Chemscore.DEClash>
0.0934

> <Gold.Chemscore.DEInternal>
3.0388

> <Gold.Chemscore.Rot>
2.5288

> <Gold.Chemscore.Internal.Correction>
   9.000000E+99

> <Gold.Chemscore.Hbonds>
donor molecule, donor type, donor heavy atom, donor atom, acceptor molecule, acceptor atom, score
      L1  H     1    30       P1  7949  0.02
      L1  H    12    60       P1 10957  0.97
      P1  H  6896  6907       L1    23  0.49
      P1  H 10752 10763       L1     1  0.74
      P1  H 10785 10796       L1    17  0.40

> <Gold.Chemscore.Hbond.Weighted>
-10.6086

> <Gold.Chemscore.Metal.Weighted>
-0.0000

> <Gold.Chemscore.Lipo.Weighted>
-9.8595

> <Gold.Chemscore.Internal_Hbond.Weighted>
0.0000

> <Gold.Chemscore.DEClash.Weighted>
0.0934

> <Gold.Chemscore.DEInternal.Weighted>
3.0388

> <Gold.Chemscore.Rot.Weighted>
6.4738

> <Gold.Chemscore.Internal.Correction.Weighted>
   9.000000E+99

> <Gold.Protein.RotatedTorsions>
[ 6907 6896 6895 6894 ] final  -73.78 input  -60.11 | X-H torsion
[ 7974 7965 7964 7962 ] final   95.05 input  175.53 | X-H torsion
[ 8008 7997 7996 7995 ] final  -67.38 input   59.86 | X-H torsion
[ 10167 10162 10161 10158 ] final  103.71 input  -65.29 | X-H torsion
[ 10718 10713 10712 10709 ] final -117.70 input   66.30 | X-H torsion
[ 10763 10752 10751 10750 ] final   45.76 input  -60.55 | X-H torsion
[ 11005 11000 10999 10996 ] final  -87.19 input  -57.11 | X-H torsion

> <Gold.Protein.ActiveResidues>
 VAL166  LYS551  ARG553  GLY616  TRP617  ASP618  TYR619  PRO620  LYS621  CYS622 
 ASP623  PHE694  ASN695  SER759  ASP760  ASP761  ALA762  ILE779  LEU786  VAL792 
 PHE793  MET794  SER795  GLU796  ALA797  LYS798  CYS799  TRP800  GLU811  SER814 

> <Gold.Protein.RotatedAtoms>
  150.7117  134.4966  159.5540 H   0  0  0  0  0  0  0  0  0  0  0  0  # atno 6907 bound_to 6896
  152.2572  134.8068  160.0445 H   0  0  0  0  0  0  0  0  0  0  0  0  # atno 6908 bound_to 6896
  151.8795  133.3457  159.3798 H   0  0  0  0  0  0  0  0  0  0  0  0  # atno 6909 bound_to 6896
  145.4574  139.2289  143.3006 H   0  0  0  0  0  0  0  0  0  0  0  0  # atno 7974 bound_to 7965
  154.4796  140.0894  156.7345 H   0  0  0  0  0  0  0  0  0  0  0  0  # atno 8008 bound_to 7997
  155.4506  140.3457  155.4282 H   0  0  0  0  0  0  0  0  0  0  0  0  # atno 8009 bound_to 7997
  156.1170  140.1463  156.9246 H   0  0  0  0  0  0  0  0  0  0  0  0  # atno 8010 bound_to 7997
  139.7239  144.7052  151.0828 H   0  0  0  0  0  0  0  0  0  0  0  0  # atno 10167 bound_to 10162
  156.1052  130.6205  150.9197 H   0  0  0  0  0  0  0  0  0  0  0  0  # atno 10718 bound_to 10713
  152.9820  135.6029  154.3489 H   0  0  0  0  0  0  0  0  0  0  0  0  # atno 10763 bound_to 10752
  154.3180  135.2770  155.2535 H   0  0  0  0  0  0  0  0  0  0  0  0  # atno 10764 bound_to 10752
  154.4715  135.5940  153.6381 H   0  0  0  0  0  0  0  0  0  0  0  0  # atno 10765 bound_to 10752
  141.1620  133.7497  156.9271 H   0  0  0  0  0  0  0  0  0  0  0  0  # atno 11005 bound_to 11000
  146.2470  140.5339  142.8909 LP  0  0  0  0  0  0  0  0  0  0  0  0  # atno 17320 bound_to 7965
  144.8024  140.6237  143.6469 LP  0  0  0  0  0  0  0  0  0  0  0  0  # atno 17321 bound_to 7965
  140.7759  143.5130  150.9629 LP  0  0  0  0  0  0  0  0  0  0  0  0  # atno 17342 bound_to 10162
  139.8817  143.7063  152.3156 LP  0  0  0  0  0  0  0  0  0  0  0  0  # atno 17343 bound_to 10162
  157.6228  131.0928  150.8590 LP  0  0  0  0  0  0  0  0  0  0  0  0  # atno 17370 bound_to 10713
  156.8710  130.5146  149.5297 LP  0  0  0  0  0  0  0  0  0  0  0  0  # atno 17371 bound_to 10713
  140.1411  134.9292  157.2468 LP  0  0  0  0  0  0  0  0  0  0  0  0  # atno 17394 bound_to 11000
  140.2835  134.3322  155.7336 LP  0  0  0  0  0  0  0  0  0  0  0  0  # atno 17395 bound_to 11000

$$$$
