#       Name:                AV-unprocessed.smi:3163
#       Creating user name   scv26
#       Creation time:       Fri Mar 27 17:50:36 2020


#       File generated by GOLD software.
#

@<TRIPOS>MOLECULE
AV-unprocessed.smi:3163
    39    40     1
SMALL
NO_CHARGES


@<TRIPOS>ATOM
      1 ****        -4.0037  -2.0760  -0.0183 C.3            1 S1                 0.0000
      2 ****        -2.8012  -2.6035   0.6600 N.4            1 S1                 1.0000
      3 ****        -2.8320  -2.4754   2.1328 C.3            1 S1                 0.0000
      4 ****        -1.3731  -2.3282   2.5560 C.3            1 S1                 0.0000
      5 ****        -0.7796  -1.5040   1.4169 C.3            1 S1                 0.0000
      6 ****         0.7574  -1.5738   1.3291 C.3            1 S1                 0.0000
      7 ****         1.2840  -0.8008   0.2085 N.am           1 S1                 0.0000
      8 ****         1.4170   0.5334   0.1895 C.2            1 S1                 0.0000
      9 ****         1.0960   1.2569   1.1314 O.2            1 S1                 0.0000
     10 ****         1.9476   0.9528  -0.9727 N.am           1 S1                 0.0000
     11 ****         2.2488   2.2773  -1.3961 C.ar           1 S1                 0.0000
     12 ****         3.0946   2.4199  -2.5188 C.ar           1 S1                 0.0000
     13 ****         3.4174   3.7089  -2.9897 C.ar           1 S1                 0.0000
     14 ****         2.9115   4.7968  -2.3709 N.pl3          1 S1                 1.0000
     15 ****         2.0903   4.7123  -1.3026 C.ar           1 S1                 0.0000
     16 ****         1.7319   3.4499  -0.7868 C.ar           1 S1                 0.0000
     17 ****        -1.5222  -2.0295   0.1785 C.3            1 S1                 0.0000
     18 ****        -4.1068  -1.0020   0.1426 H              1 S1                 0.0000
     19 ****        -4.9001  -2.5684   0.3597 H              1 S1                 0.0000
     20 ****        -3.9467  -2.2587  -1.0918 H              1 S1                 0.0000
     21 ****        -3.3832  -1.5775   2.4174 H              1 S1                 0.0000
     22 ****        -3.3212  -3.3309   2.5994 H              1 S1                 0.0000
     23 ****        -1.2622  -1.8494   3.5295 H              1 S1                 0.0000
     24 ****        -0.8988  -3.3095   2.6049 H              1 S1                 0.0000
     25 ****        -1.0810  -0.4667   1.5748 H              1 S1                 0.0000
     26 ****         1.2045  -1.2242   2.2613 H              1 S1                 0.0000
     27 ****         1.0785  -2.6084   1.2051 H              1 S1                 0.0000
     28 ****         1.5825  -1.3224  -0.6029 H              1 S1                 0.0000
     29 ****         2.2131   0.2253  -1.6203 H              1 S1                 0.0000
     30 ****         3.4991   1.5504  -3.0166 H              1 S1                 0.0000
     31 ****         4.0592   3.9006  -3.8372 H              1 S1                 0.0000
     32 ****         1.7423   5.6510  -0.8971 H              1 S1                 0.0000
     33 ****         1.0612   3.4136   0.0571 H              1 S1                 0.0000
     34 ****        -0.9584  -2.8283  -0.3045 H              1 S1                 0.0000
     35 ****        -1.6672  -1.2392  -0.5598 H              1 S1                 0.0000
     36 ****        -2.7562  -3.5925   0.4591 H              1 S1                 0.0000
     37 ****         3.1564   5.7211  -2.7276 H              1 S1                 0.0000
     38 ****         0.7147   0.8545   1.9636 LP             1 S1                 0.0000
     39 ****         1.2164   2.2474   1.0647 LP             1 S1                 0.0000
@<TRIPOS>BOND
    1    1    2 1     
    2    1   18 1     
    3    1   19 1     
    4    1   20 1     
    5    2   17 1     
    6    2    3 1     
    7    2   36 1     
    8    3    4 1     
    9    3   21 1     
   10    3   22 1     
   11    4    5 1     
   12    4   23 1     
   13    4   24 1     
   14    5    6 1     
   15    5   17 1     
   16    5   25 1     
   17    6    7 1     
   18    6   26 1     
   19    6   27 1     
   20    7    8 am    
   21    7   28 1     
   22    8    9 2     
   23    8   10 am    
   24   10   11 1     
   25   10   29 1     
   26   11   16 ar    
   27   11   12 ar    
   28   12   13 ar    
   29   12   30 1     
   30   13   14 ar    
   31   13   31 1     
   32   14   15 ar    
   33   14   37 1     
   34   15   16 ar    
   35   15   32 1     
   36   16   33 1     
   37   17   34 1     
   38   17   35 1     
   39    9   38 1     
   40    9   39 1     
@<TRIPOS>SUBSTRUCTURE
      1 S1             1
@<TRIPOS>SET
LONE_PAIRS      STATIC     ATOMS    <user>   **** ""
2 38 39
DONOR_HYDROGENS      STATIC     ATOMS    <user>   **** ""
4 36 28 29 37
ATOM$BLUE        STATIC     ATOMS    COLORGROUP SYSTEM
2 38 39
ATOM$RED        STATIC     ATOMS    COLORGROUP SYSTEM
4 36 28 29 37
