AV-unprocessed.smi:2414|AV-procd|sdf|9538|dock5
  -GOLD-   2272013173D 1   1.00000     0.00000
 Structure written by MMmdl.
 43 44  0  0  0  0  0  0  0  0  1 V2000
  153.9353  140.4890  161.9388 C   0  0  0  0  0  0  0  0  0  0  0  0
  153.3093  141.7465  161.4389 C   0  0  0  0  0  0  0  0  0  0  0  0
  152.5975  142.6747  162.1577 C   0  0  0  0  0  0  0  0  0  0  0  0
  152.1316  143.7457  161.3917 N   0  0  0  0  0  0  0  0  0  0  0  0
  152.4817  143.6446  160.1063 C   0  0  0  0  0  0  0  0  0  0  0  0
  152.0923  144.6381  159.0536 C   0  0  2  0  0  0  0  0  0  0  0  0
  150.7658  145.3382  159.3794 C   0  0  0  0  0  0  0  0  0  0  0  0
  152.1307  144.0562  157.6224 C   0  0  0  0  0  0  0  0  0  0  0  0
  150.8117  143.6663  157.1328 N   0  0  0  0  0  0  0  0  0  0  0  0
  150.4038  142.4053  156.9394 C   0  0  0  0  0  0  0  0  0  0  0  0
  151.1182  141.4161  157.1020 O   0  0  0  0  0  0  0  0  0  0  0  0
  149.1160  142.3559  156.5747 N   0  0  0  0  0  0  0  0  0  0  0  0
  148.3424  141.1419  156.3278 C   0  0  0  0  0  0  0  0  0  0  0  0
  147.1500  141.3786  155.3722 C   0  0  1  0  0  0  0  0  0  0  0  0
  146.0392  142.1591  156.0962 C   0  0  0  0  0  0  0  0  0  0  0  0
  147.5255  142.0670  154.0443 C   0  0  0  0  0  0  0  0  0  0  0  0
  146.6628  141.3484  153.0303 C   0  0  0  0  0  0  0  0  0  0  0  0
  146.6577  139.9351  153.5936 C   0  0  0  0  0  0  0  0  0  0  0  0
  146.5868  140.1167  155.0029 O   0  0  0  0  0  0  0  0  0  0  0  0
  153.4277  142.2015  159.7599 S   0  0  0  0  0  0  0  0  0  0  0  0
  153.7969  140.3819  163.0148 H   0  0  0  0  0  0  0  0  0  0  0  0
  155.0059  140.4823  161.7344 H   0  0  0  0  0  0  0  0  0  0  0  0
  153.4928  139.6183  161.4553 H   0  0  0  0  0  0  0  0  0  0  0  0
  152.3716  142.6506  163.2136 H   0  0  0  0  0  0  0  0  0  0  0  0
  152.8534  145.4186  159.0878 H   0  0  0  0  0  0  0  0  0  0  0  0
  150.8094  145.8271  160.3531 H   0  0  0  0  0  0  0  0  0  0  0  0
  149.9380  144.6288  159.3990 H   0  0  0  0  0  0  0  0  0  0  0  0
  150.5324  146.1013  158.6367 H   0  0  0  0  0  0  0  0  0  0  0  0
  152.5166  144.8092  156.9346 H   0  0  0  0  0  0  0  0  0  0  0  0
  152.8176  143.2100  157.5689 H   0  0  0  0  0  0  0  0  0  0  0  0
  150.1496  144.4107  156.9703 H   0  0  0  0  0  0  0  0  0  0  0  0
  148.6186  143.2292  156.4808 H   0  0  0  0  0  0  0  0  0  0  0  0
  149.0248  140.4147  155.8871 H   0  0  0  0  0  0  0  0  0  0  0  0
  147.9930  140.6986  157.2618 H   0  0  0  0  0  0  0  0  0  0  0  0
  146.3873  143.1448  156.4066 H   0  0  0  0  0  0  0  0  0  0  0  0
  145.7040  141.6305  156.9890 H   0  0  0  0  0  0  0  0  0  0  0  0
  145.1686  142.3018  155.4551 H   0  0  0  0  0  0  0  0  0  0  0  0
  147.3563  143.1441  154.0533 H   0  0  0  0  0  0  0  0  0  0  0  0
  148.5724  141.9092  153.7900 H   0  0  0  0  0  0  0  0  0  0  0  0
  145.6527  141.7595  153.0305 H   0  0  0  0  0  0  0  0  0  0  0  0
  147.0555  141.4050  152.0151 H   0  0  0  0  0  0  0  0  0  0  0  0
  145.8269  139.3348  153.2231 H   0  0  0  0  0  0  0  0  0  0  0  0
  147.5883  139.4217  153.3469 H   0  0  0  0  0  0  0  0  0  0  0  0
  1  2  1  0  0  0  0
  1 21  1  0  0  0  0
  1 22  1  0  0  0  0
  1 23  1  0  0  0  0
  2 20  1  0  0  0  0
  2  3  2  0  0  0  0
  3  4  1  0  0  0  0
  3 24  1  0  0  0  0
  4  5  2  0  0  0  0
  5  6  1  0  0  0  0
  5 20  1  0  0  0  0
  6  7  1  0  0  0  0
  6  8  1  0  0  0  0
  6 25  1  0  0  0  0
  7 26  1  0  0  0  0
  7 27  1  0  0  0  0
  7 28  1  0  0  0  0
  8  9  1  0  0  0  0
  8 29  1  0  0  0  0
  8 30  1  0  0  0  0
  9 10  1  0  0  0  0
  9 31  1  0  0  0  0
 10 11  2  0  0  0  0
 10 12  1  0  0  0  0
 12 13  1  0  0  0  0
 12 32  1  0  0  0  0
 13 14  1  0  0  0  0
 13 33  1  0  0  0  0
 13 34  1  0  0  0  0
 14 19  1  0  0  0  0
 14 15  1  0  0  0  0
 14 16  1  0  0  0  0
 15 35  1  0  0  0  0
 15 36  1  0  0  0  0
 15 37  1  0  0  0  0
 16 17  1  0  0  0  0
 16 38  1  0  0  0  0
 16 39  1  0  0  0  0
 17 18  1  0  0  0  0
 17 40  1  0  0  0  0
 17 41  1  0  0  0  0
 18 19  1  0  0  0  0
 18 42  1  0  0  0  0
 18 43  1  0  0  0  0
M  END
> <s_m_source_file>
AV-unprocessed.smi

> <i_m_source_file_index>
2414

> <i_lp_mmshare_version>
43012

> <i_f3d_flags>
0

> <s_epik_input>
W0NIM11jMVtjSF1uYyhzMSlbQ0BIXShbQ0gzXSlbQ0gyXVtOSF1DKD1PKVtOSF1bQ0gyXVtDQEBdMihbQ0gzXSlbQ0gyXVtDSDJdW0NIMl1PMg==

> <s_epik_cmdline>
J2VwaWtfcHl0aG9uJywgJy1waCcsICc3LjAnLCAnLXRuJywgJzgnLCAnLW1hJywgJzIwMCcsICctbWV0YWxfYmluZGluZycsICctaW1hZScsICc8aW5maWxlLm1hZT4nLCAnLW9tYWUnLCAnPG91dGZpbGUubWFlPic=

> <r_epik_Ionization_Penalty>
0.000646956

> <r_epik_Ionization_Penalty_Charging>
0

> <r_epik_Ionization_Penalty_Neutral>
0.000646956

> <r_epik_State_Penalty>
0.000375727

> <r_epik_Charging_Adjusted_Penalty>
0.000375727

> <i_epik_Tot_Q>
0

> <i_epik_Tot_abs_Q>
0

> <r_epik_Metal_State_Penalty>
-0

> <b_epik_Metal_Only>
0

> <s_lp_Force_Field>
OPLS_2005

> <r_lp_Energy>
5.80605

> <b_lp_Chiralities_Consistent>
1

> <s_lp_Variant>
AV-unprocessed.smi:2414-1

> <Gold.Version>
5.8.1

> <Gold.Id.Protein>
6NUR|6NUR_protein|mol2

> <Gold.PLP.Fitness>
49.0403

> <Gold.PLP.PLP>
-46.7395

> <Gold.PLP.part.hbond>
-2.0000

> <Gold.PLP.part.metal>
0.0000

> <Gold.PLP.part.buried>
-6.6521

> <Gold.PLP.part.nonpolar>
-37.8719

> <Gold.PLP.part.repulsive>
0.2538

> <Gold.PLP.ligand.clash>
0.0000

> <Gold.PLP.ligand.torsion>
1.4572

> <Gold.PLP.Chemscore.Hbond>
1.6960

> <Gold.PLP.Chemscore.CHOScore>
0.0000

> <Gold.PLP.Chemscore.Metal>
0.0000

> <Gold.Chemscore.Hbonds>
donor molecule, donor type, donor heavy atom, donor atom, acceptor molecule, acceptor atom, score
      L1  H     9    31       P1  8028  0.70
      L1  H    12    32       P1  8028  0.74

> <Gold.PLP.Chemscore.Internal.Correction>
0.1272

> <Gold.Rescore>
     Score         DG    S(hbond)    S(metal)    S(lipo)     H(rot)  DE(clash)    DE(int)     intcor
     18.61     -20.23       1.38        0.00     122.73       1.65       0.58       1.05       ----

> <Gold.Chemscore.Fitness>
18.6051

> <Gold.Chemscore.DG>
-20.2341

> <Gold.Chemscore.ZeroCoef>
-5.4800

> <Gold.Chemscore.Hbond>
1.3844

> <Gold.Chemscore.Metal>
0.0000

> <Gold.Chemscore.Lipo>
122.7331

> <Gold.Chemscore.Internal_Hbond>
0.0000

> <Gold.Chemscore.DEClash>
0.5802

> <Gold.Chemscore.DEInternal>
1.0488

> <Gold.Chemscore.Rot>
1.6522

> <Gold.Chemscore.Internal.Correction>
   9.000000E+99

> <Gold.Chemscore.Hbonds>
donor molecule, donor type, donor heavy atom, donor atom, acceptor molecule, acceptor atom, score
      L1  H     9    31       P1  8028  0.55
      L1  H    12    32       P1  8028  0.61

> <Gold.Chemscore.Hbond.Weighted>
-4.6239

> <Gold.Chemscore.Metal.Weighted>
-0.0000

> <Gold.Chemscore.Lipo.Weighted>
-14.3598

> <Gold.Chemscore.Internal_Hbond.Weighted>
0.0000

> <Gold.Chemscore.DEClash.Weighted>
0.5802

> <Gold.Chemscore.DEInternal.Weighted>
1.0488

> <Gold.Chemscore.Rot.Weighted>
4.2295

> <Gold.Chemscore.Internal.Correction.Weighted>
   9.000000E+99

> <Gold.Protein.RotatedTorsions>
[ 6907 6896 6895 6894 ] final -154.77 input  -60.11 | X-H torsion
[ 7974 7965 7964 7962 ] final  -15.24 input  175.53 | X-H torsion
[ 8008 7997 7996 7995 ] final -100.37 input   59.86 | X-H torsion
[ 10167 10162 10161 10158 ] final   33.72 input  -65.29 | X-H torsion
[ 10718 10713 10712 10709 ] final -135.80 input   66.30 | X-H torsion
[ 10763 10752 10751 10750 ] final   73.74 input  -60.55 | X-H torsion
[ 11005 11000 10999 10996 ] final  -32.18 input  -57.11 | X-H torsion

> <Gold.Protein.ActiveResidues>
 VAL166  LYS551  ARG553  GLY616  TRP617  ASP618  TYR619  PRO620  LYS621  CYS622 
 ASP623  PHE694  ASN695  SER759  ASP760  ASP761  ALA762  ILE779  LEU786  VAL792 
 PHE793  MET794  SER795  GLU796  ALA797  LYS798  CYS799  TRP800  GLU811  SER814 

> <Gold.Protein.RotatedAtoms>
  151.2624  133.4295  159.2616 H   0  0  0  0  0  0  0  0  0  0  0  0  # atno 6907 bound_to 6896
  151.0518  134.9678  159.8226 H   0  0  0  0  0  0  0  0  0  0  0  0  # atno 6908 bound_to 6896
  152.5384  134.2578  159.8976 H   0  0  0  0  0  0  0  0  0  0  0  0  # atno 6909 bound_to 6896
  146.2040  140.3465  142.8413 H   0  0  0  0  0  0  0  0  0  0  0  0  # atno 7974 bound_to 7965
  154.8277  140.0441  157.1455 H   0  0  0  0  0  0  0  0  0  0  0  0  # atno 8008 bound_to 7997
  154.9187  140.3024  155.5207 H   0  0  0  0  0  0  0  0  0  0  0  0  # atno 8009 bound_to 7997
  156.2985  140.2344  156.4235 H   0  0  0  0  0  0  0  0  0  0  0  0  # atno 8010 bound_to 7997
  140.4381  144.1227  150.6169 H   0  0  0  0  0  0  0  0  0  0  0  0  # atno 10167 bound_to 10162
  156.2701  130.7261  151.1225 H   0  0  0  0  0  0  0  0  0  0  0  0  # atno 10718 bound_to 10713
  153.0541  135.5052  154.7938 H   0  0  0  0  0  0  0  0  0  0  0  0  # atno 10763 bound_to 10752
  154.6778  135.2963  154.9657 H   0  0  0  0  0  0  0  0  0  0  0  0  # atno 10764 bound_to 10752
  154.0454  135.6711  153.4847 H   0  0  0  0  0  0  0  0  0  0  0  0  # atno 10765 bound_to 10752
  140.9531  133.7209  156.1250 H   0  0  0  0  0  0  0  0  0  0  0  0  # atno 11005 bound_to 11000
  144.8749  140.7323  143.6023 LP  0  0  0  0  0  0  0  0  0  0  0  0  # atno 17320 bound_to 7965
  145.3384  139.1739  143.4499 LP  0  0  0  0  0  0  0  0  0  0  0  0  # atno 17321 bound_to 7965
  140.4350  143.2551  151.9546 LP  0  0  0  0  0  0  0  0  0  0  0  0  # atno 17342 bound_to 10162
  139.4788  144.5708  151.8091 LP  0  0  0  0  0  0  0  0  0  0  0  0  # atno 17343 bound_to 10162
  157.7281  131.0634  150.5835 LP  0  0  0  0  0  0  0  0  0  0  0  0  # atno 17370 bound_to 10713
  156.5931  130.4334  149.5928 LP  0  0  0  0  0  0  0  0  0  0  0  0  # atno 17371 bound_to 10713
  140.7575  134.3976  157.5531 LP  0  0  0  0  0  0  0  0  0  0  0  0  # atno 17394 bound_to 11000
  139.8853  134.8940  156.2648 LP  0  0  0  0  0  0  0  0  0  0  0  0  # atno 17395 bound_to 11000

$$$$
