AV-unprocessed.smi:551|AV-procd|sdf|2898|dock1
  -GOLD-   2262023393D 1   1.00000     0.00000
 Structure written by MMmdl.
 39 40  0  0  0  0  0  0  0  0  2 V2000
  151.0155  139.2241  155.5491 C   0  0  0  0  0  0  0  0  0  0  0  0
  150.1273  140.4496  155.8230 C   0  0  2  0  0  0  0  0  0  0  0  0
  149.6098  141.0963  154.5167 C   0  0  0  0  0  0  0  0  0  0  0  0
  148.1469  141.0906  154.4160 N   0  0  0  0  0  0  0  0  0  0  0  0
  147.2595  141.8224  155.1632 C   0  0  0  0  0  0  0  0  0  0  0  0
  146.0064  141.4887  154.7185 C   0  0  0  0  0  0  0  0  0  0  0  0
  146.1819  140.5703  153.7180 N   0  3  0  0  0  0  0  0  0  0  0  0
  147.4846  140.3314  153.5341 C   0  0  0  0  0  0  0  0  0  0  0  0
  150.7968  141.4041  156.7116 N   0  0  0  0  0  0  0  0  0  0  0  0
  151.2202  141.1925  157.9697 C   0  0  0  0  0  0  0  0  0  0  0  0
  151.0795  140.1239  158.5644 O   0  0  0  0  0  0  0  0  0  0  0  0
  151.9295  142.3682  158.6535 C   0  0  0  0  0  0  0  0  0  0  0  0
  152.2800  142.0176  160.1157 C   0  0  0  0  0  0  0  0  0  0  0  0
  152.9811  143.1909  160.8193 C   0  0  0  0  0  0  0  0  0  0  0  0
  152.1274  144.4671  160.7559 C   0  0  0  0  0  0  0  0  0  0  0  0
  151.7654  144.8228  159.3050 C   0  0  0  0  0  0  0  0  0  0  0  0
  151.0672  143.6478  158.6005 C   0  0  0  0  0  0  0  0  0  0  0  0
  150.4691  138.4652  154.9885 H   0  0  0  0  0  0  0  0  0  0  0  0
  151.3517  138.7656  156.4794 H   0  0  0  0  0  0  0  0  0  0  0  0
  151.8998  139.4868  154.9678 H   0  0  0  0  0  0  0  0  0  0  0  0
  149.2597  140.0951  156.3806 H   0  0  0  0  0  0  0  0  0  0  0  0
  149.9509  142.1270  154.4164 H   0  0  0  0  0  0  0  0  0  0  0  0
  150.0009  140.5593  153.6514 H   0  0  0  0  0  0  0  0  0  0  0  0
  147.5788  142.5052  155.9379 H   0  0  0  0  0  0  0  0  0  0  0  0
  145.0289  141.8276  155.0305 H   0  0  0  0  0  0  0  0  0  0  0  0
  147.9160  139.6564  152.8165 H   0  0  0  0  0  0  0  0  0  0  0  0
  150.9597  142.3235  156.3267 H   0  0  0  0  0  0  0  0  0  0  0  0
  152.8602  142.5664  158.1185 H   0  0  0  0  0  0  0  0  0  0  0  0
  151.3752  141.7587  160.6682 H   0  0  0  0  0  0  0  0  0  0  0  0
  152.9231  141.1370  160.1482 H   0  0  0  0  0  0  0  0  0  0  0  0
  153.1856  142.9323  161.8587 H   0  0  0  0  0  0  0  0  0  0  0  0
  153.9485  143.3740  160.3501 H   0  0  0  0  0  0  0  0  0  0  0  0
  151.2140  144.3245  161.3347 H   0  0  0  0  0  0  0  0  0  0  0  0
  152.6621  145.2960  161.2203 H   0  0  0  0  0  0  0  0  0  0  0  0
  151.1206  145.7020  159.2886 H   0  0  0  0  0  0  0  0  0  0  0  0
  152.6698  145.0921  158.7580 H   0  0  0  0  0  0  0  0  0  0  0  0
  150.8580  143.9177  157.5645 H   0  0  0  0  0  0  0  0  0  0  0  0
  150.1001  143.4714  159.0742 H   0  0  0  0  0  0  0  0  0  0  0  0
  145.4355  140.1346  153.1908 H   0  0  0  0  0  0  0  0  0  0  0  0
  1  2  1  0  0  0  0
  1 18  1  0  0  0  0
  1 19  1  0  0  0  0
  1 20  1  0  0  0  0
  2  3  1  0  0  0  0
  2  9  1  0  0  0  0
  2 21  1  0  0  0  0
  3  4  1  0  0  0  0
  3 22  1  0  0  0  0
  3 23  1  0  0  0  0
  4  8  1  0  0  0  0
  4  5  1  0  0  0  0
  5  6  2  0  0  0  0
  5 24  1  0  0  0  0
  6  7  1  0  0  0  0
  6 25  1  0  0  0  0
  7  8  2  0  0  0  0
  7 39  1  0  0  0  0
  8 26  1  0  0  0  0
  9 10  1  0  0  0  0
  9 27  1  0  0  0  0
 10 11  2  0  0  0  0
 10 12  1  0  0  0  0
 12 17  1  0  0  0  0
 12 13  1  0  0  0  0
 12 28  1  0  0  0  0
 13 14  1  0  0  0  0
 13 29  1  0  0  0  0
 13 30  1  0  0  0  0
 14 15  1  0  0  0  0
 14 31  1  0  0  0  0
 14 32  1  0  0  0  0
 15 16  1  0  0  0  0
 15 33  1  0  0  0  0
 15 34  1  0  0  0  0
 16 17  1  0  0  0  0
 16 35  1  0  0  0  0
 16 36  1  0  0  0  0
 17 37  1  0  0  0  0
 17 38  1  0  0  0  0
M  CHG  1   7   1
M  END
> <s_m_source_file>
AV-unprocessed.smi

> <i_m_source_file_index>
551

> <i_lp_mmshare_version>
43012

> <i_f3d_flags>
0

> <s_epik_input>
W2NIXTFuW2NIXVtjSF1uMVtDSDJdW0NAQEhdKFtDSDNdKVtOSF1DKD1PKVtDSF0yW0NIMl1bQ0gyXVtDSDJdW0NIMl1bQ0gyXTI=

> <s_epik_cmdline>
J2VwaWtfcHl0aG9uJywgJy1waCcsICc3LjAnLCAnLXRuJywgJzgnLCAnLW1hJywgJzIwMCcsICctbWV0YWxfYmluZGluZycsICctaW1hZScsICc8aW5maWxlLm1hZT4nLCAnLW9tYWUnLCAnPG91dGZpbGUubWFlPic=

> <r_lp_tautomer_probability>
1

> <r_epik_Ionization_Penalty>
0.244425

> <r_epik_Ionization_Penalty_Charging>
0

> <r_epik_Ionization_Penalty_Neutral>
0.244425

> <r_epik_State_Penalty>
0.23553

> <r_epik_Charging_Adjusted_Penalty>
0.23553

> <i_epik_Tot_Q>
1

> <i_epik_Tot_abs_Q>
1

> <r_epik_Metal_State_Penalty>
0.528799

> <b_epik_Metal_Only>
0

> <s_lp_Force_Field>
OPLS_2005

> <r_lp_Energy>
14.3189

> <b_lp_Chiralities_Consistent>
1

> <s_lp_Variant>
AV-unprocessed.smi:551-1

> <Gold.Version>
5.8.1

> <Gold.Id.Protein>
6NUR|6NUR_protein|mol2

> <Gold.PLP.Fitness>
47.8526

> <Gold.PLP.PLP>
-38.2085

> <Gold.PLP.part.hbond>
-1.0000

> <Gold.PLP.part.metal>
0.0000

> <Gold.PLP.part.buried>
-2.9412

> <Gold.PLP.part.nonpolar>
-33.6068

> <Gold.PLP.part.repulsive>
0.0702

> <Gold.PLP.ligand.clash>
0.0000

> <Gold.PLP.ligand.torsion>
0.9219

> <Gold.PLP.Chemscore.Hbond>
2.0000

> <Gold.PLP.Chemscore.CHOScore>
1.7975

> <Gold.PLP.Chemscore.Metal>
0.0000

> <Gold.Chemscore.Hbonds>
donor molecule, donor type, donor heavy atom, donor atom, acceptor molecule, acceptor atom, score
      L1  H     7    39       P1 10175  1.66
      L1  C     5    24       P1  8028  0.88
      L1  C     8    26       P1  7957  1.00

> <Gold.PLP.Chemscore.Internal.Correction>
0.0955

> <Gold.Rescore>
     Score         DG    S(hbond)    S(metal)    S(lipo)     H(rot)  DE(clash)    DE(int)     intcor
     13.91     -15.13       0.90        0.00      96.19       1.80       0.08       1.14       ----

> <Gold.Chemscore.Fitness>
13.9109

> <Gold.Chemscore.DG>
-15.1331

> <Gold.Chemscore.ZeroCoef>
-5.4800

> <Gold.Chemscore.Hbond>
0.8996

> <Gold.Chemscore.Metal>
0.0000

> <Gold.Chemscore.Lipo>
96.1906

> <Gold.Chemscore.Internal_Hbond>
0.0000

> <Gold.Chemscore.DEClash>
0.0811

> <Gold.Chemscore.DEInternal>
1.1412

> <Gold.Chemscore.Rot>
1.7991

> <Gold.Chemscore.Internal.Correction>
   9.000000E+99

> <Gold.Chemscore.Hbonds>
donor molecule, donor type, donor heavy atom, donor atom, acceptor molecule, acceptor atom, score
      L1  H     7    39       P1 10175  0.83

> <Gold.Chemscore.Hbond.Weighted>
-3.0046

> <Gold.Chemscore.Metal.Weighted>
-0.0000

> <Gold.Chemscore.Lipo.Weighted>
-11.2543

> <Gold.Chemscore.Internal_Hbond.Weighted>
0.0000

> <Gold.Chemscore.DEClash.Weighted>
0.0811

> <Gold.Chemscore.DEInternal.Weighted>
1.1412

> <Gold.Chemscore.Rot.Weighted>
4.6058

> <Gold.Chemscore.Internal.Correction.Weighted>
   9.000000E+99

> <Gold.Protein.RotatedTorsions>
[ 6907 6896 6895 6894 ] final  134.79 input  -60.11 | X-H torsion
[ 7974 7965 7964 7962 ] final  162.43 input  175.53 | X-H torsion
[ 8008 7997 7996 7995 ] final -154.78 input   59.86 | X-H torsion
[ 10167 10162 10161 10158 ] final  132.03 input  -65.29 | X-H torsion
[ 10718 10713 10712 10709 ] final  -10.35 input   66.30 | X-H torsion
[ 10763 10752 10751 10750 ] final   95.54 input  -60.55 | X-H torsion
[ 11005 11000 10999 10996 ] final -126.07 input  -57.11 | X-H torsion

> <Gold.Protein.ActiveResidues>
 VAL166  LYS551  ARG553  GLY616  TRP617  ASP618  TYR619  PRO620  LYS621  CYS622 
 ASP623  PHE694  ASN695  SER759  ASP760  ASP761  ALA762  ILE779  LEU786  VAL792 
 PHE793  MET794  SER795  GLU796  ALA797  LYS798  CYS799  TRP800  GLU811  SER814 

> <Gold.Protein.RotatedAtoms>
  152.3075  133.5718  159.5658 H   0  0  0  0  0  0  0  0  0  0  0  0  # atno 6907 bound_to 6896
  150.7307  134.0201  159.3707 H   0  0  0  0  0  0  0  0  0  0  0  0  # atno 6908 bound_to 6896
  151.8096  135.0685  160.0462 H   0  0  0  0  0  0  0  0  0  0  0  0  # atno 6909 bound_to 6896
  144.7637  139.8039  143.6323 H   0  0  0  0  0  0  0  0  0  0  0  0  # atno 7974 bound_to 7965
  155.6917  140.0756  157.2445 H   0  0  0  0  0  0  0  0  0  0  0  0  # atno 8008 bound_to 7997
  154.4087  140.1663  156.2146 H   0  0  0  0  0  0  0  0  0  0  0  0  # atno 8009 bound_to 7997
  155.9446  140.3382  155.6359 H   0  0  0  0  0  0  0  0  0  0  0  0  # atno 8010 bound_to 7997
  139.5358  144.6680  151.4792 H   0  0  0  0  0  0  0  0  0  0  0  0  # atno 10167 bound_to 10162
  156.6747  130.5019  149.5989 H   0  0  0  0  0  0  0  0  0  0  0  0  # atno 10718 bound_to 10713
  153.2543  135.4250  155.0830 H   0  0  0  0  0  0  0  0  0  0  0  0  # atno 10763 bound_to 10752
  154.8395  135.3433  154.6467 H   0  0  0  0  0  0  0  0  0  0  0  0  # atno 10764 bound_to 10752
  153.6888  135.7035  153.5153 H   0  0  0  0  0  0  0  0  0  0  0  0  # atno 10765 bound_to 10752
  140.9711  134.0804  157.3868 H   0  0  0  0  0  0  0  0  0  0  0  0  # atno 11005 bound_to 11000
  146.1724  139.4881  142.9919 LP  0  0  0  0  0  0  0  0  0  0  0  0  # atno 17320 bound_to 7965
  145.6538  141.0257  143.1746 LP  0  0  0  0  0  0  0  0  0  0  0  0  # atno 17321 bound_to 7965
  140.6563  143.8593  150.6838 LP  0  0  0  0  0  0  0  0  0  0  0  0  # atno 17342 bound_to 10162
  140.1973  143.3987  152.1818 LP  0  0  0  0  0  0  0  0  0  0  0  0  # atno 17343 bound_to 10162
  156.1912  130.6561  151.1063 LP  0  0  0  0  0  0  0  0  0  0  0  0  # atno 17370 bound_to 10713
  157.7065  131.0754  150.6650 LP  0  0  0  0  0  0  0  0  0  0  0  0  # atno 17371 bound_to 10713
  139.8912  135.0117  156.6781 LP  0  0  0  0  0  0  0  0  0  0  0  0  # atno 17394 bound_to 11000
  140.7327  133.9045  155.8223 LP  0  0  0  0  0  0  0  0  0  0  0  0  # atno 17395 bound_to 11000

$$$$
