AV-unprocessed.smi:407|AV-procd|sdf|2502|dock9
  -GOLD-   2262022453D 1   1.00000     0.00000
 Structure written by MMmdl.
 45 47  0  0  0  0  0  0  0  0  1 V2000
  155.9919  133.1428  165.2185 C   0  0  0  0  0  0  0  0  0  0  0  0
  156.0671  133.3305  163.7041 C   0  0  0  0  0  0  0  0  0  0  0  0
  156.0096  132.3359  162.9817 O   0  0  0  0  0  0  0  0  0  0  0  0
  156.2093  134.7192  163.1815 C   0  0  0  0  0  0  0  0  0  0  0  0
  156.1277  135.8476  164.0298 C   0  0  0  0  0  0  0  0  0  0  0  0
  156.2683  137.1466  163.5047 C   0  0  0  0  0  0  0  0  0  0  0  0
  156.4943  137.3520  162.1295 C   0  0  0  0  0  0  0  0  0  0  0  0
  156.6242  138.6565  161.7039 O   0  0  0  0  0  0  0  0  0  0  0  0
  156.7298  138.9027  160.3076 C   0  0  0  0  0  0  0  0  0  0  0  0
  156.0346  140.2360  159.9856 C   0  0  1  0  0  0  0  0  0  0  0  0
  156.4089  140.5968  158.6705 O   0  0  0  0  0  0  0  0  0  0  0  0
  154.4973  140.1071  160.0178 C   0  0  0  0  0  0  0  0  0  0  0  0
  153.8927  141.0797  160.9272 N   0  0  0  0  0  0  0  0  0  0  0  0
  154.2851  141.3484  162.1954 C   0  0  0  0  0  0  0  0  0  0  0  0
  155.2162  140.8075  162.7922 O   0  0  0  0  0  0  0  0  0  0  0  0
  153.4818  142.3207  162.6861 N   0  0  0  0  0  0  0  0  0  0  0  0
  153.5490  142.9280  164.0098 C   0  0  0  0  0  0  0  0  0  0  0  0
  152.5594  142.6955  161.7010 C   0  0  0  0  0  0  0  0  0  0  0  0
  151.5373  143.6600  161.7141 C   0  0  0  0  0  0  0  0  0  0  0  0
  150.7690  143.8021  160.5349 C   0  0  0  0  0  0  0  0  0  0  0  0
  151.0322  142.9993  159.3944 C   0  0  0  0  0  0  0  0  0  0  0  0
  152.0687  142.0366  159.4090 C   0  0  0  0  0  0  0  0  0  0  0  0
  152.8159  141.9143  160.5937 C   0  0  0  0  0  0  0  0  0  0  0  0
  156.5729  136.2230  161.2781 C   0  0  0  0  0  0  0  0  0  0  0  0
  156.4315  134.9231  161.8011 C   0  0  0  0  0  0  0  0  0  0  0  0
  156.8960  133.5213  165.6957 H   0  0  0  0  0  0  0  0  0  0  0  0
  155.8924  132.0861  165.4675 H   0  0  0  0  0  0  0  0  0  0  0  0
  155.1306  133.6714  165.6276 H   0  0  0  0  0  0  0  0  0  0  0  0
  155.9583  135.7419  165.0908 H   0  0  0  0  0  0  0  0  0  0  0  0
  156.2041  137.9970  164.1678 H   0  0  0  0  0  0  0  0  0  0  0  0
  157.7699  138.9165  159.9762 H   0  0  0  0  0  0  0  0  0  0  0  0
  156.2227  138.0926  159.7811 H   0  0  0  0  0  0  0  0  0  0  0  0
  156.3657  140.9986  160.6920 H   0  0  0  0  0  0  0  0  0  0  0  0
  156.7610  141.4734  158.6880 H   0  0  0  0  0  0  0  0  0  0  0  0
  154.0711  140.1876  159.0169 H   0  0  0  0  0  0  0  0  0  0  0  0
  154.2183  139.1134  160.3720 H   0  0  0  0  0  0  0  0  0  0  0  0
  152.5530  142.9972  164.4486 H   0  0  0  0  0  0  0  0  0  0  0  0
  153.9627  143.9343  163.9395 H   0  0  0  0  0  0  0  0  0  0  0  0
  154.1740  142.3501  164.6922 H   0  0  0  0  0  0  0  0  0  0  0  0
  151.3453  144.2687  162.5852 H   0  0  0  0  0  0  0  0  0  0  0  0
  149.9730  144.5314  160.5016 H   0  0  0  0  0  0  0  0  0  0  0  0
  150.4350  143.1258  158.5036 H   0  0  0  0  0  0  0  0  0  0  0  0
  152.2748  141.4263  158.5423 H   0  0  0  0  0  0  0  0  0  0  0  0
  156.7405  136.3258  160.2169 H   0  0  0  0  0  0  0  0  0  0  0  0
  156.4979  134.0827  161.1252 H   0  0  0  0  0  0  0  0  0  0  0  0
  1  2  1  0  0  0  0
  1 26  1  0  0  0  0
  1 27  1  0  0  0  0
  1 28  1  0  0  0  0
  2  3  2  0  0  0  0
  2  4  1  0  0  0  0
  4 25  1  0  0  0  0
  4  5  2  0  0  0  0
  5  6  1  0  0  0  0
  5 29  1  0  0  0  0
  6  7  2  0  0  0  0
  6 30  1  0  0  0  0
  7  8  1  0  0  0  0
  7 24  1  0  0  0  0
  8  9  1  0  0  0  0
  9 10  1  0  0  0  0
  9 31  1  0  0  0  0
  9 32  1  0  0  0  0
 10 11  1  0  0  0  0
 10 12  1  0  0  0  0
 10 33  1  0  0  0  0
 11 34  1  0  0  0  0
 12 13  1  0  0  0  0
 12 35  1  0  0  0  0
 12 36  1  0  0  0  0
 13 23  1  0  0  0  0
 13 14  1  0  0  0  0
 14 15  2  0  0  0  0
 14 16  1  0  0  0  0
 16 17  1  0  0  0  0
 16 18  1  0  0  0  0
 17 37  1  0  0  0  0
 17 38  1  0  0  0  0
 17 39  1  0  0  0  0
 18 23  2  0  0  0  0
 18 19  1  0  0  0  0
 19 20  2  0  0  0  0
 19 40  1  0  0  0  0
 20 21  1  0  0  0  0
 20 41  1  0  0  0  0
 21 22  2  0  0  0  0
 21 42  1  0  0  0  0
 22 23  1  0  0  0  0
 22 43  1  0  0  0  0
 24 25  2  0  0  0  0
 24 44  1  0  0  0  0
 25 45  1  0  0  0  0
M  END
> <s_m_source_file>
AV-unprocessed.smi

> <i_m_source_file_index>
407

> <i_lp_mmshare_version>
43012

> <i_f3d_flags>
0

> <s_epik_input>
W0NIM11DKD1PKWMxW2NIXVtjSF1jKFtjSF1bY0hdMSlPW0NIMl1bQ0BIXShbT0hdKVtDSDJdbihjKD1PKW4yW0NIM10pYyhjMjMpW2NIXVtjSF1bY0hdW2NIXTM=

> <s_epik_cmdline>
J2VwaWtfcHl0aG9uJywgJy1waCcsICc3LjAnLCAnLXRuJywgJzgnLCAnLW1hJywgJzIwMCcsICctbWV0YWxfYmluZGluZycsICctaW1hZScsICc8aW5maWxlLm1hZT4nLCAnLW9tYWUnLCAnPG91dGZpbGUubWFlPic=

> <r_lp_tautomer_probability>
1

> <r_epik_Ionization_Penalty>
2.40123e-06

> <r_epik_Ionization_Penalty_Charging>
1.9356e-09

> <r_epik_Ionization_Penalty_Neutral>
2.3993e-06

> <r_epik_State_Penalty>
-0

> <r_epik_Charging_Adjusted_Penalty>
1.9356e-09

> <i_epik_Tot_Q>
0

> <i_epik_Tot_abs_Q>
0

> <r_epik_Metal_State_Penalty>
-0

> <b_epik_Metal_Only>
0

> <s_lp_Force_Field>
OPLS_2005

> <r_lp_Energy>
53.7359

> <b_lp_Chiralities_Consistent>
1

> <s_lp_Variant>
AV-unprocessed.smi:407-2

> <Gold.Version>
5.8.1

> <Gold.Id.Protein>
6NUR|6NUR_protein|mol2

> <Gold.PLP.Fitness>
57.2931

> <Gold.PLP.PLP>
-56.7475

> <Gold.PLP.part.hbond>
-1.9226

> <Gold.PLP.part.metal>
0.0000

> <Gold.PLP.part.buried>
-4.9663

> <Gold.PLP.part.nonpolar>
-49.7076

> <Gold.PLP.part.repulsive>
0.0000

> <Gold.PLP.ligand.clash>
0.0000

> <Gold.PLP.ligand.torsion>
1.2397

> <Gold.PLP.Chemscore.Hbond>
0.9440

> <Gold.PLP.Chemscore.CHOScore>
0.0000

> <Gold.PLP.Chemscore.Metal>
0.0000

> <Gold.Chemscore.Hbonds>
donor molecule, donor type, donor heavy atom, donor atom, acceptor molecule, acceptor atom, score
      P1  H  7997  8009       L1    11  0.64

> <Gold.PLP.Chemscore.Internal.Correction>
0.1930

> <Gold.Rescore>
     Score         DG    S(hbond)    S(metal)    S(lipo)     H(rot)  DE(clash)    DE(int)     intcor
     15.14     -18.95       0.88        0.00     140.23       2.30       0.00       3.81       ----

> <Gold.Chemscore.Fitness>
15.1409

> <Gold.Chemscore.DG>
-18.9494

> <Gold.Chemscore.ZeroCoef>
-5.4800

> <Gold.Chemscore.Hbond>
0.8823

> <Gold.Chemscore.Metal>
0.0000

> <Gold.Chemscore.Lipo>
140.2262

> <Gold.Chemscore.Internal_Hbond>
0.0000

> <Gold.Chemscore.DEClash>
0.0025

> <Gold.Chemscore.DEInternal>
3.8060

> <Gold.Chemscore.Rot>
2.2984

> <Gold.Chemscore.Internal.Correction>
   9.000000E+99

> <Gold.Chemscore.Hbonds>
donor molecule, donor type, donor heavy atom, donor atom, acceptor molecule, acceptor atom, score
      P1  H  7997  8009       L1    11  0.52

> <Gold.Chemscore.Hbond.Weighted>
-2.9468

> <Gold.Chemscore.Metal.Weighted>
-0.0000

> <Gold.Chemscore.Lipo.Weighted>
-16.4065

> <Gold.Chemscore.Internal_Hbond.Weighted>
0.0000

> <Gold.Chemscore.DEClash.Weighted>
0.0025

> <Gold.Chemscore.DEInternal.Weighted>
3.8060

> <Gold.Chemscore.Rot.Weighted>
5.8839

> <Gold.Chemscore.Internal.Correction.Weighted>
   9.000000E+99

> <Gold.Protein.RotatedTorsions>
[ 6907 6896 6895 6894 ] final  133.87 input  -60.11 | X-H torsion
[ 7974 7965 7964 7962 ] final   10.26 input  175.53 | X-H torsion
[ 8008 7997 7996 7995 ] final   66.76 input   59.86 | X-H torsion
[ 10167 10162 10161 10158 ] final -121.31 input  -65.29 | X-H torsion
[ 10718 10713 10712 10709 ] final  -91.49 input   66.30 | X-H torsion
[ 10763 10752 10751 10750 ] final  -66.95 input  -60.55 | X-H torsion
[ 11005 11000 10999 10996 ] final  150.47 input  -57.11 | X-H torsion

> <Gold.Protein.ActiveResidues>
 VAL166  LYS551  ARG553  GLY616  TRP617  ASP618  TYR619  PRO620  LYS621  CYS622 
 ASP623  PHE694  ASN695  SER759  ASP760  ASP761  ALA762  ILE779  LEU786  VAL792 
 PHE793  MET794  SER795  GLU796  ALA797  LYS798  CYS799  TRP800  GLU811  SER814 

> <Gold.Protein.RotatedAtoms>
  152.3174  133.5817  159.5721 H   0  0  0  0  0  0  0  0  0  0  0  0  # atno 6907 bound_to 6896
  150.7353  134.0062  159.3663 H   0  0  0  0  0  0  0  0  0  0  0  0  # atno 6908 bound_to 6896
  151.7950  135.0725  160.0443 H   0  0  0  0  0  0  0  0  0  0  0  0  # atno 6909 bound_to 6896
  146.2391  139.9661  142.8452 H   0  0  0  0  0  0  0  0  0  0  0  0  # atno 7974 bound_to 7965
  155.6824  140.3496  155.4861 H   0  0  0  0  0  0  0  0  0  0  0  0  # atno 8008 bound_to 7997
  155.9595  140.1134  157.0931 H   0  0  0  0  0  0  0  0  0  0  0  0  # atno 8009 bound_to 7997
  154.4140  140.1178  156.5146 H   0  0  0  0  0  0  0  0  0  0  0  0  # atno 8010 bound_to 7997
  140.0264  143.5292  152.2197 H   0  0  0  0  0  0  0  0  0  0  0  0  # atno 10167 bound_to 10162
  155.9994  130.4950  150.5483 H   0  0  0  0  0  0  0  0  0  0  0  0  # atno 10718 bound_to 10713
  154.3674  135.6103  153.5722 H   0  0  0  0  0  0  0  0  0  0  0  0  # atno 10763 bound_to 10752
  152.9791  135.5830  154.4562 H   0  0  0  0  0  0  0  0  0  0  0  0  # atno 10764 bound_to 10752
  154.4310  135.2848  155.1890 H   0  0  0  0  0  0  0  0  0  0  0  0  # atno 10765 bound_to 10752
  140.1134  134.8909  157.1969 H   0  0  0  0  0  0  0  0  0  0  0  0  # atno 11005 bound_to 11000
  145.1725  140.9728  143.4313 LP  0  0  0  0  0  0  0  0  0  0  0  0  # atno 17320 bound_to 7965
  145.0016  139.3593  143.6165 LP  0  0  0  0  0  0  0  0  0  0  0  0  # atno 17321 bound_to 7965
  139.6105  144.7607  151.2963 LP  0  0  0  0  0  0  0  0  0  0  0  0  # atno 17342 bound_to 10162
  140.7321  143.6834  150.7982 LP  0  0  0  0  0  0  0  0  0  0  0  0  # atno 17343 bound_to 10162
  157.3409  131.0716  151.1788 LP  0  0  0  0  0  0  0  0  0  0  0  0  # atno 17370 bound_to 10713
  157.2637  130.6671  149.5986 LP  0  0  0  0  0  0  0  0  0  0  0  0  # atno 17371 bound_to 10713
  140.3060  134.3077  155.7278 LP  0  0  0  0  0  0  0  0  0  0  0  0  # atno 17394 bound_to 11000
  141.2135  133.7621  156.9709 LP  0  0  0  0  0  0  0  0  0  0  0  0  # atno 17395 bound_to 11000

$$$$
