AV-unprocessed.smi:249|AV-procd|sdf|1907|dock10
  -GOLD-   2262020593D 1   1.00000     0.00000
 Structure written by MMmdl.
 64 67  0  0  0  0  0  0  0  0  2 V2000
  148.8214  129.8056  154.0864 C   0  0  0  0  0  0  0  0  0  0  0  0
  149.4589  130.7027  155.1585 C   0  0  0  0  0  0  0  0  0  0  0  0
  150.3007  131.7943  154.5859 N   0  3  1  0  0  0  0  0  0  0  0  0
  149.5600  132.7299  153.6926 C   0  0  0  0  0  0  0  0  0  0  0  0
  148.6293  133.6680  154.4853 C   0  0  0  0  0  0  0  0  0  0  0  0
  149.4194  134.4445  155.5555 C   0  0  1  0  0  0  0  0  0  0  0  0
  148.5605  135.3338  156.3413 N   0  0  0  0  0  0  0  0  0  0  0  0
  147.1203  135.4020  156.1043 C   0  0  0  0  0  0  0  0  0  0  0  0
  149.1180  136.2380  157.1890 C   0  0  0  0  0  0  0  0  0  0  0  0
  148.8560  136.1258  158.5180 N   0  0  0  0  0  0  0  0  0  0  0  0
  149.3694  137.0008  159.3871 C   0  0  0  0  0  0  0  0  0  0  0  0
  150.1650  138.0439  159.1480 N   0  0  0  0  0  0  0  0  0  0  0  0
  150.4517  138.1526  157.8198 C   0  0  0  0  0  0  0  0  0  0  0  0
  149.9748  137.3030  156.7803 C   0  0  0  0  0  0  0  0  0  0  0  0
  150.4913  137.7245  155.5592 N   0  0  0  0  0  0  0  0  0  0  0  0
  151.2149  138.7685  155.8572 C   0  0  0  0  0  0  0  0  0  0  0  0
  151.2621  139.0852  157.1954 N   0  0  0  0  0  0  0  0  0  0  0  0
  151.9787  140.1962  157.7978 C   0  0  0  0  0  0  0  0  0  0  0  0
  151.1437  141.4933  157.9909 C   0  0  2  0  0  0  0  0  0  0  0  0
  150.3297  141.7666  156.7027 C   0  0  0  0  0  0  0  0  0  0  0  0
  149.1286  142.4542  156.9875 O   0  0  0  0  0  0  0  0  0  0  0  0
  152.0087  142.7260  158.3917 C   0  0  1  0  0  0  0  0  0  0  0  0
  151.3058  144.0714  158.2794 C   0  0  0  0  0  0  0  0  0  0  0  0
  152.1790  144.9689  159.1431 C   0  0  0  0  0  0  0  0  0  0  0  0
  152.5540  144.1474  160.2365 O   0  0  0  0  0  0  0  0  0  0  0  0
  152.4609  142.7763  159.8616 C   0  0  0  0  0  0  0  0  0  0  0  0
  150.2248  133.4774  156.4446 C   0  0  0  0  0  0  0  0  0  0  0  0
  151.1140  132.5583  155.5817 C   0  0  1  0  0  0  0  0  0  0  0  0
  152.0459  131.6729  156.4280 C   0  0  0  0  0  0  0  0  0  0  0  0
  148.3495  128.9381  154.5485 H   0  0  0  0  0  0  0  0  0  0  0  0
  149.5681  129.4369  153.3826 H   0  0  0  0  0  0  0  0  0  0  0  0
  148.0464  130.3236  153.5225 H   0  0  0  0  0  0  0  0  0  0  0  0
  148.6885  131.1063  155.8153 H   0  0  0  0  0  0  0  0  0  0  0  0
  150.0728  130.0511  155.7770 H   0  0  0  0  0  0  0  0  0  0  0  0
  150.2894  133.3287  153.1454 H   0  0  0  0  0  0  0  0  0  0  0  0
  149.0003  132.1928  152.9287 H   0  0  0  0  0  0  0  0  0  0  0  0
  148.1503  134.3696  153.8012 H   0  0  0  0  0  0  0  0  0  0  0  0
  147.8238  133.0909  154.9390 H   0  0  0  0  0  0  0  0  0  0  0  0
  150.1351  135.0482  154.9991 H   0  0  0  0  0  0  0  0  0  0  0  0
  146.5803  135.5356  157.0424 H   0  0  0  0  0  0  0  0  0  0  0  0
  146.7497  134.4910  155.6358 H   0  0  0  0  0  0  0  0  0  0  0  0
  146.8817  136.2389  155.4471 H   0  0  0  0  0  0  0  0  0  0  0  0
  149.1050  136.8421  160.4221 H   0  0  0  0  0  0  0  0  0  0  0  0
  151.7476  139.3321  155.1050 H   0  0  0  0  0  0  0  0  0  0  0  0
  152.3791  139.8690  158.7582 H   0  0  0  0  0  0  0  0  0  0  0  0
  152.8427  140.3892  157.1617 H   0  0  0  0  0  0  0  0  0  0  0  0
  150.4210  141.3263  158.7906 H   0  0  0  0  0  0  0  0  0  0  0  0
  150.8823  142.3936  156.0045 H   0  0  0  0  0  0  0  0  0  0  0  0
  150.0984  140.8354  156.1845 H   0  0  0  0  0  0  0  0  0  0  0  0
  149.2232  143.3534  156.7125 H   0  0  0  0  0  0  0  0  0  0  0  0
  152.8948  142.7615  157.7554 H   0  0  0  0  0  0  0  0  0  0  0  0
  151.2333  144.4376  157.2551 H   0  0  0  0  0  0  0  0  0  0  0  0
  150.2997  144.0151  158.6981 H   0  0  0  0  0  0  0  0  0  0  0  0
  153.0763  145.2683  158.5998 H   0  0  0  0  0  0  0  0  0  0  0  0
  151.6625  145.8694  159.4756 H   0  0  0  0  0  0  0  0  0  0  0  0
  151.7311  142.3007  160.5174 H   0  0  0  0  0  0  0  0  0  0  0  0
  153.4223  142.2871  160.0127 H   0  0  0  0  0  0  0  0  0  0  0  0
  150.8484  134.0509  157.1317 H   0  0  0  0  0  0  0  0  0  0  0  0
  149.5607  132.8776  157.0669 H   0  0  0  0  0  0  0  0  0  0  0  0
  151.7734  133.2026  154.9975 H   0  0  0  0  0  0  0  0  0  0  0  0
  152.7608  132.2864  156.9771 H   0  0  0  0  0  0  0  0  0  0  0  0
  152.6179  130.9874  155.8020 H   0  0  0  0  0  0  0  0  0  0  0  0
  151.5007  131.0864  157.1675 H   0  0  0  0  0  0  0  0  0  0  0  0
  150.9719  131.3238  153.9954 H   0  0  0  0  0  0  0  0  0  0  0  0
  1  2  1  0  0  0  0
  1 30  1  0  0  0  0
  1 31  1  0  0  0  0
  1 32  1  0  0  0  0
  2  3  1  0  0  0  0
  2 33  1  0  0  0  0
  2 34  1  0  0  0  0
  3 28  1  0  0  0  0
  3  4  1  0  0  0  0
  3 64  1  0  0  0  0
  4  5  1  0  0  0  0
  4 35  1  0  0  0  0
  4 36  1  0  0  0  0
  5  6  1  0  0  0  0
  5 37  1  0  0  0  0
  5 38  1  0  0  0  0
  6  7  1  0  0  0  0
  6 27  1  0  0  0  0
  6 39  1  0  0  0  0
  7  8  1  0  0  0  0
  7  9  1  0  0  0  0
  8 40  1  0  0  0  0
  8 41  1  0  0  0  0
  8 42  1  0  0  0  0
  9 14  1  0  0  0  0
  9 10  2  0  0  0  0
 10 11  1  0  0  0  0
 11 12  2  0  0  0  0
 11 43  1  0  0  0  0
 12 13  1  0  0  0  0
 13 17  1  0  0  0  0
 13 14  2  0  0  0  0
 14 15  1  0  0  0  0
 15 16  2  0  0  0  0
 16 17  1  0  0  0  0
 16 44  1  0  0  0  0
 17 18  1  0  0  0  0
 18 19  1  0  0  0  0
 18 45  1  0  0  0  0
 18 46  1  0  0  0  0
 19 20  1  0  0  0  0
 19 22  1  0  0  0  0
 19 47  1  0  0  0  0
 20 21  1  0  0  0  0
 20 48  1  0  0  0  0
 20 49  1  0  0  0  0
 21 50  1  0  0  0  0
 22 26  1  0  0  0  0
 22 23  1  0  0  0  0
 22 51  1  0  0  0  0
 23 24  1  0  0  0  0
 23 52  1  0  0  0  0
 23 53  1  0  0  0  0
 24 25  1  0  0  0  0
 24 54  1  0  0  0  0
 24 55  1  0  0  0  0
 25 26  1  0  0  0  0
 26 56  1  0  0  0  0
 26 57  1  0  0  0  0
 27 28  1  0  0  0  0
 27 58  1  0  0  0  0
 27 59  1  0  0  0  0
 28 29  1  0  0  0  0
 28 60  1  0  0  0  0
 29 61  1  0  0  0  0
 29 62  1  0  0  0  0
 29 63  1  0  0  0  0
M  CHG  1   3   1
M  END
> <s_m_source_file>
AV-unprocessed.smi

> <i_m_source_file_index>
249

> <i_lp_mmshare_version>
43012

> <i_f3d_flags>
0

> <s_epik_input>
W0NIM11bQ0gyXU4xW0NIMl1bQ0gyXVtDQEhdKFtDSDJdW0NASF0xW0NIM10pTihbQ0gzXSljKG5bY0hdbjIpYyhjMjMpbltjSF1uM1tDSDJdW0NASF0oW0NIMl1bT0hdKVtDQEBIXTRbQ0gyXVtDSDJdT1tDSDJdNA==

> <s_epik_cmdline>
J2VwaWtfcHl0aG9uJywgJy1waCcsICc3LjAnLCAnLXRuJywgJzgnLCAnLW1hJywgJzIwMCcsICctbWV0YWxfYmluZGluZycsICctaW1hZScsICc8aW5maWxlLm1hZT4nLCAnLW9tYWUnLCAnPG91dGZpbGUubWFlPic=

> <r_lp_tautomer_probability>
1

> <r_epik_Ionization_Penalty>
0.00294688

> <r_epik_Ionization_Penalty_Charging>
0.00169971

> <r_epik_Ionization_Penalty_Neutral>
0.00124717

> <r_epik_State_Penalty>
-0

> <r_epik_Charging_Adjusted_Penalty>
0.00169971

> <i_epik_Tot_Q>
1

> <i_epik_Tot_abs_Q>
1

> <r_epik_Metal_State_Penalty>
-0

> <b_epik_Metal_Only>
0

> <s_lp_Force_Field>
OPLS_2005

> <r_lp_Energy>
54.7906

> <b_lp_Chiralities_Consistent>
1

> <s_lp_Variant>
AV-unprocessed.smi:249-10

> <Gold.Version>
5.8.1

> <Gold.Id.Protein>
6NUR|6NUR_protein|mol2

> <Gold.PLP.Fitness>
40.3977

> <Gold.PLP.PLP>
-41.8455

> <Gold.PLP.part.hbond>
-1.7200

> <Gold.PLP.part.metal>
0.0000

> <Gold.PLP.part.buried>
-6.1468

> <Gold.PLP.part.nonpolar>
-34.2686

> <Gold.PLP.part.repulsive>
0.1023

> <Gold.PLP.ligand.clash>
0.0000

> <Gold.PLP.ligand.torsion>
2.3761

> <Gold.PLP.Chemscore.Hbond>
1.0000

> <Gold.PLP.Chemscore.CHOScore>
0.0000

> <Gold.PLP.Chemscore.Metal>
0.0000

> <Gold.Chemscore.Hbonds>
donor molecule, donor type, donor heavy atom, donor atom, acceptor molecule, acceptor atom, score
      L1  H    21    50       P1  8028  1.00

> <Gold.PLP.Chemscore.Internal.Correction>
0.3044

> <Gold.Rescore>
     Score         DG    S(hbond)    S(metal)    S(lipo)     H(rot)  DE(clash)    DE(int)     intcor
     11.36     -14.55       0.98        0.00     107.58       2.65       0.04       3.14       ----

> <Gold.Chemscore.Fitness>
11.3644

> <Gold.Chemscore.DG>
-14.5452

> <Gold.Chemscore.ZeroCoef>
-5.4800

> <Gold.Chemscore.Hbond>
0.9779

> <Gold.Chemscore.Metal>
0.0000

> <Gold.Chemscore.Lipo>
107.5804

> <Gold.Chemscore.Internal_Hbond>
0.0000

> <Gold.Chemscore.DEClash>
0.0417

> <Gold.Chemscore.DEInternal>
3.1391

> <Gold.Chemscore.Rot>
2.6515

> <Gold.Chemscore.Internal.Correction>
   9.000000E+99

> <Gold.Chemscore.Hbonds>
donor molecule, donor type, donor heavy atom, donor atom, acceptor molecule, acceptor atom, score
      L1  H    21    50       P1  8028  0.95

> <Gold.Chemscore.Hbond.Weighted>
-3.2662

> <Gold.Chemscore.Metal.Weighted>
-0.0000

> <Gold.Chemscore.Lipo.Weighted>
-12.5869

> <Gold.Chemscore.Internal_Hbond.Weighted>
0.0000

> <Gold.Chemscore.DEClash.Weighted>
0.0417

> <Gold.Chemscore.DEInternal.Weighted>
3.1391

> <Gold.Chemscore.Rot.Weighted>
6.7880

> <Gold.Chemscore.Internal.Correction.Weighted>
   9.000000E+99

> <Gold.Protein.RotatedTorsions>
[ 6907 6896 6895 6894 ] final  -77.78 input  -60.11 | X-H torsion
[ 7974 7965 7964 7962 ] final  -32.34 input  175.53 | X-H torsion
[ 8008 7997 7996 7995 ] final  -31.36 input   59.86 | X-H torsion
[ 10167 10162 10161 10158 ] final   61.64 input  -65.29 | X-H torsion
[ 10718 10713 10712 10709 ] final  -22.33 input   66.30 | X-H torsion
[ 10763 10752 10751 10750 ] final  -50.91 input  -60.55 | X-H torsion
[ 11005 11000 10999 10996 ] final  111.69 input  -57.11 | X-H torsion

> <Gold.Protein.ActiveResidues>
 VAL166  LYS551  ARG553  GLY616  TRP617  ASP618  TYR619  PRO620  LYS621  CYS622 
 ASP623  PHE694  ASN695  SER759  ASP760  ASP761  ALA762  ILE779  LEU786  VAL792 
 PHE793  MET794  SER795  GLU796  ALA797  LYS798  CYS799  TRP800  GLU811  SER814 

> <Gold.Protein.RotatedAtoms>
  150.6989  134.4370  159.5274 H   0  0  0  0  0  0  0  0  0  0  0  0  # atno 6907 bound_to 6896
  152.2087  134.8519  160.0509 H   0  0  0  0  0  0  0  0  0  0  0  0  # atno 6908 bound_to 6896
  151.9412  133.3603  159.4002 H   0  0  0  0  0  0  0  0  0  0  0  0  # atno 6909 bound_to 6896
  146.0998  140.5780  142.8826 H   0  0  0  0  0  0  0  0  0  0  0  0  # atno 7974 bound_to 7965
  154.4217  140.1766  156.1554 H   0  0  0  0  0  0  0  0  0  0  0  0  # atno 8008 bound_to 7997
  155.9881  140.3371  155.6703 H   0  0  0  0  0  0  0  0  0  0  0  0  # atno 8009 bound_to 7997
  155.6409  140.0680  157.2609 H   0  0  0  0  0  0  0  0  0  0  0  0  # atno 8010 bound_to 7997
  140.1526  144.4448  150.6751 H   0  0  0  0  0  0  0  0  0  0  0  0  # atno 10167 bound_to 10162
  156.5060  130.4599  149.6674 H   0  0  0  0  0  0  0  0  0  0  0  0  # atno 10718 bound_to 10713
  154.1180  135.6539  153.4897 H   0  0  0  0  0  0  0  0  0  0  0  0  # atno 10763 bound_to 10752
  153.0234  135.5263  154.7125 H   0  0  0  0  0  0  0  0  0  0  0  0  # atno 10764 bound_to 10752
  154.6325  135.2978  155.0170 H   0  0  0  0  0  0  0  0  0  0  0  0  # atno 10765 bound_to 10752
  139.8909  134.9513  156.6471 H   0  0  0  0  0  0  0  0  0  0  0  0  # atno 11005 bound_to 11000
  144.7423  140.4976  143.6860 LP  0  0  0  0  0  0  0  0  0  0  0  0  # atno 17320 bound_to 7965
  145.5878  139.1493  143.3199 LP  0  0  0  0  0  0  0  0  0  0  0  0  # atno 17321 bound_to 7965
  140.6693  143.2279  151.5665 LP  0  0  0  0  0  0  0  0  0  0  0  0  # atno 17342 bound_to 10162
  139.5418  144.2626  152.1366 LP  0  0  0  0  0  0  0  0  0  0  0  0  # atno 17343 bound_to 10162
  156.3286  130.7319  151.2245 LP  0  0  0  0  0  0  0  0  0  0  0  0  # atno 17370 bound_to 10713
  157.7457  131.0436  150.4751 LP  0  0  0  0  0  0  0  0  0  0  0  0  # atno 17371 bound_to 10713
  140.7549  133.8866  155.8374 LP  0  0  0  0  0  0  0  0  0  0  0  0  # atno 17394 bound_to 11000
  140.9970  134.1202  157.4354 LP  0  0  0  0  0  0  0  0  0  0  0  0  # atno 17395 bound_to 11000

$$$$
