AV-unprocessed.smi:240|AV-procd|sdf|1828|dock4
  -GOLD-   2262020433D 1   1.00000     0.00000
 Structure written by MMmdl.
 55 59  0  0  0  0  0  0  0  0  1 V2000
  147.9386  132.2311  152.0020 O   0  0  0  0  0  0  0  0  0  0  0  0
  147.2481  132.7628  153.1136 C   0  0  2  0  0  0  0  0  0  0  0  0
  146.0303  133.5665  152.6616 C   0  0  0  0  0  0  0  0  0  0  0  0
  145.7173  134.4527  153.8647 C   0  0  0  0  0  0  0  0  0  0  0  0
  147.0773  134.7817  154.4956 C   0  0  0  0  0  0  0  0  0  0  0  0
  148.0943  133.7761  153.9127 C   0  0  1  0  0  0  0  0  0  0  0  0
  149.0951  133.1904  154.9604 C   0  0  1  0  0  0  0  0  0  0  0  0
  149.7086  131.8331  154.5256 C   0  0  0  0  0  0  0  0  0  0  0  0
  150.5817  131.3414  155.5340 O   0  0  0  0  0  0  0  0  0  0  0  0
  151.6838  132.2144  155.7380 C   0  0  0  0  0  0  0  0  0  0  0  0
  151.1597  133.5653  156.2410 C   0  0  0  0  0  0  0  0  0  0  0  0
  150.1796  134.1214  155.3124 N   0  0  0  0  0  0  0  0  0  0  0  0
  149.8311  135.3657  155.7183 C   0  0  0  0  0  0  0  0  0  0  0  0
  148.8592  135.5373  156.6540 N   0  0  0  0  0  0  0  0  0  0  0  0
  148.5229  136.7686  157.0498 C   0  0  0  0  0  0  0  0  0  0  0  0
  149.0255  137.9398  156.6523 N   0  0  0  0  0  0  0  0  0  0  0  0
  150.0136  137.7680  155.7274 C   0  0  0  0  0  0  0  0  0  0  0  0
  150.4773  136.5251  155.2144 C   0  0  0  0  0  0  0  0  0  0  0  0
  151.4923  136.7379  154.2910 N   0  0  0  0  0  0  0  0  0  0  0  0
  151.6155  138.0366  154.2520 C   0  0  0  0  0  0  0  0  0  0  0  0
  150.7713  138.7340  155.0878 N   0  0  0  0  0  0  0  0  0  0  0  0
  150.6910  140.1790  155.2396 C   0  0  0  0  0  0  0  0  0  0  0  0
  151.3519  140.7043  156.5354 C   0  0  1  0  0  0  0  0  0  0  0  0
  152.7052  140.2835  156.5622 O   0  0  0  0  0  0  0  0  0  0  0  0
  151.3212  142.2234  156.6439 C   0  0  0  0  0  0  0  0  0  0  0  0
  151.3199  142.4515  158.1494 C   0  0  0  0  0  0  0  0  0  0  0  0
  150.4680  141.4237  158.6263 O   0  0  0  0  0  0  0  0  0  0  0  0
  150.6720  140.2503  157.8440 C   0  0  0  0  0  0  0  0  0  0  0  0
  147.6467  132.6802  151.2235 H   0  0  0  0  0  0  0  0  0  0  0  0
  146.9054  131.9422  153.7413 H   0  0  0  0  0  0  0  0  0  0  0  0
  146.2848  134.1935  151.8055 H   0  0  0  0  0  0  0  0  0  0  0  0
  145.1897  132.9340  152.3748 H   0  0  0  0  0  0  0  0  0  0  0  0
  145.1569  135.3464  153.5890 H   0  0  0  0  0  0  0  0  0  0  0  0
  145.1126  133.8922  154.5790 H   0  0  0  0  0  0  0  0  0  0  0  0
  147.3778  135.7983  154.2387 H   0  0  0  0  0  0  0  0  0  0  0  0
  147.0100  134.7477  155.5819 H   0  0  0  0  0  0  0  0  0  0  0  0
  148.6539  134.3578  153.1799 H   0  0  0  0  0  0  0  0  0  0  0  0
  148.5317  133.0023  155.8756 H   0  0  0  0  0  0  0  0  0  0  0  0
  148.9360  131.0836  154.3626 H   0  0  0  0  0  0  0  0  0  0  0  0
  150.2664  131.9151  153.5932 H   0  0  0  0  0  0  0  0  0  0  0  0
  152.3554  131.7743  156.4749 H   0  0  0  0  0  0  0  0  0  0  0  0
  152.2542  132.3326  154.8150 H   0  0  0  0  0  0  0  0  0  0  0  0
  150.6995  133.4394  157.2225 H   0  0  0  0  0  0  0  0  0  0  0  0
  151.9954  134.2560  156.3642 H   0  0  0  0  0  0  0  0  0  0  0  0
  147.7383  136.8229  157.7899 H   0  0  0  0  0  0  0  0  0  0  0  0
  152.3331  138.5253  153.6088 H   0  0  0  0  0  0  0  0  0  0  0  0
  151.1531  140.6406  154.3659 H   0  0  0  0  0  0  0  0  0  0  0  0
  149.6389  140.4653  155.2138 H   0  0  0  0  0  0  0  0  0  0  0  0
  153.2472  141.0023  156.2748 H   0  0  0  0  0  0  0  0  0  0  0  0
  152.1491  142.7186  156.1346 H   0  0  0  0  0  0  0  0  0  0  0  0
  150.3927  142.6145  156.2256 H   0  0  0  0  0  0  0  0  0  0  0  0
  152.3198  142.3229  158.5664 H   0  0  0  0  0  0  0  0  0  0  0  0
  150.9538  143.4397  158.4276 H   0  0  0  0  0  0  0  0  0  0  0  0
  149.6986  139.7939  157.6681 H   0  0  0  0  0  0  0  0  0  0  0  0
  151.2756  139.5284  158.3965 H   0  0  0  0  0  0  0  0  0  0  0  0
  1  2  1  0  0  0  0
  1 29  1  0  0  0  0
  2  6  1  0  0  0  0
  2  3  1  0  0  0  0
  2 30  1  0  0  0  0
  3  4  1  0  0  0  0
  3 31  1  0  0  0  0
  3 32  1  0  0  0  0
  4  5  1  0  0  0  0
  4 33  1  0  0  0  0
  4 34  1  0  0  0  0
  5  6  1  0  0  0  0
  5 35  1  0  0  0  0
  5 36  1  0  0  0  0
  6  7  1  0  0  0  0
  6 37  1  0  0  0  0
  7 12  1  0  0  0  0
  7  8  1  0  0  0  0
  7 38  1  0  0  0  0
  8  9  1  0  0  0  0
  8 39  1  0  0  0  0
  8 40  1  0  0  0  0
  9 10  1  0  0  0  0
 10 11  1  0  0  0  0
 10 41  1  0  0  0  0
 10 42  1  0  0  0  0
 11 12  1  0  0  0  0
 11 43  1  0  0  0  0
 11 44  1  0  0  0  0
 12 13  1  0  0  0  0
 13 18  1  0  0  0  0
 13 14  2  0  0  0  0
 14 15  1  0  0  0  0
 15 16  2  0  0  0  0
 15 45  1  0  0  0  0
 16 17  1  0  0  0  0
 17 21  1  0  0  0  0
 17 18  2  0  0  0  0
 18 19  1  0  0  0  0
 19 20  2  0  0  0  0
 20 21  1  0  0  0  0
 20 46  1  0  0  0  0
 21 22  1  0  0  0  0
 22 23  1  0  0  0  0
 22 47  1  0  0  0  0
 22 48  1  0  0  0  0
 23 28  1  0  0  0  0
 23 24  1  0  0  0  0
 23 25  1  0  0  0  0
 24 49  1  0  0  0  0
 25 26  1  0  0  0  0
 25 50  1  0  0  0  0
 25 51  1  0  0  0  0
 26 27  1  0  0  0  0
 26 52  1  0  0  0  0
 26 53  1  0  0  0  0
 27 28  1  0  0  0  0
 28 54  1  0  0  0  0
 28 55  1  0  0  0  0
M  END
> <s_m_source_file>
AV-unprocessed.smi

> <i_m_source_file_index>
240

> <i_lp_mmshare_version>
43012

> <i_f3d_flags>
0

> <s_epik_input>
W09IXVtDQEBIXTFbQ0gyXVtDSDJdW0NIMl1bQ0BIXTFbQ0BASF0yW0NIMl1PW0NIMl1bQ0gyXU4yYyhuW2NIXW4zKWMoYzM0KW5bY0hdbjRbQ0gyXVtDQEBdNShbT0hdKVtDSDJdW0NIMl1PW0NIMl01

> <s_epik_cmdline>
J2VwaWtfcHl0aG9uJywgJy1waCcsICc3LjAnLCAnLXRuJywgJzgnLCAnLW1hJywgJzIwMCcsICctbWV0YWxfYmluZGluZycsICctaW1hZScsICc8aW5maWxlLm1hZT4nLCAnLW9tYWUnLCAnPG91dGZpbGUubWFlPic=

> <r_lp_tautomer_probability>
1

> <r_epik_Ionization_Penalty>
0.000130618

> <r_epik_Ionization_Penalty_Charging>
0

> <r_epik_Ionization_Penalty_Neutral>
0.000130618

> <r_epik_State_Penalty>
-0

> <r_epik_Charging_Adjusted_Penalty>
0

> <i_epik_Tot_Q>
0

> <i_epik_Tot_abs_Q>
0

> <r_epik_Metal_State_Penalty>
-0

> <b_epik_Metal_Only>
0

> <s_lp_Force_Field>
OPLS_2005

> <r_lp_Energy>
59.9569

> <b_lp_Chiralities_Consistent>
1

> <s_lp_Variant>
AV-unprocessed.smi:240-5

> <Gold.Version>
5.8.1

> <Gold.Id.Protein>
6NUR|6NUR_protein|mol2

> <Gold.PLP.Fitness>
37.0206

> <Gold.PLP.PLP>
-36.1616

> <Gold.PLP.part.hbond>
-2.2869

> <Gold.PLP.part.metal>
0.0000

> <Gold.PLP.part.buried>
-3.3115

> <Gold.PLP.part.nonpolar>
-29.7420

> <Gold.PLP.part.repulsive>
1.0473

> <Gold.PLP.ligand.clash>
0.0000

> <Gold.PLP.ligand.torsion>
1.1716

> <Gold.PLP.Chemscore.Hbond>
1.0000

> <Gold.PLP.Chemscore.CHOScore>
0.0000

> <Gold.PLP.Chemscore.Metal>
0.0000

> <Gold.Chemscore.Hbonds>
donor molecule, donor type, donor heavy atom, donor atom, acceptor molecule, acceptor atom, score
      P1  H 10752 10763       L1    19  1.00

> <Gold.PLP.Chemscore.Internal.Correction>
0.2023

> <Gold.Rescore>
     Score         DG    S(hbond)    S(metal)    S(lipo)     H(rot)  DE(clash)    DE(int)     intcor
      7.01     -10.13       1.00        0.00      77.01       3.00       0.09       3.03       ----

> <Gold.Chemscore.Fitness>
7.0095

> <Gold.Chemscore.DG>
-10.1277

> <Gold.Chemscore.ZeroCoef>
-5.4800

> <Gold.Chemscore.Hbond>
0.9961

> <Gold.Chemscore.Metal>
0.0000

> <Gold.Chemscore.Lipo>
77.0147

> <Gold.Chemscore.Internal_Hbond>
0.0000

> <Gold.Chemscore.DEClash>
0.0920

> <Gold.Chemscore.DEInternal>
3.0261

> <Gold.Chemscore.Rot>
3.0039

> <Gold.Chemscore.Internal.Correction>
   9.000000E+99

> <Gold.Chemscore.Hbonds>
donor molecule, donor type, donor heavy atom, donor atom, acceptor molecule, acceptor atom, score
      P1  H 10752 10763       L1    19  0.84

> <Gold.Chemscore.Hbond.Weighted>
-3.3269

> <Gold.Chemscore.Metal.Weighted>
-0.0000

> <Gold.Chemscore.Lipo.Weighted>
-9.0107

> <Gold.Chemscore.Internal_Hbond.Weighted>
0.0000

> <Gold.Chemscore.DEClash.Weighted>
0.0920

> <Gold.Chemscore.DEInternal.Weighted>
3.0261

> <Gold.Chemscore.Rot.Weighted>
7.6899

> <Gold.Chemscore.Internal.Correction.Weighted>
   9.000000E+99

> <Gold.Protein.RotatedTorsions>
[ 6907 6896 6895 6894 ] final  -56.79 input  -60.11 | X-H torsion
[ 7974 7965 7964 7962 ] final   -3.62 input  175.53 | X-H torsion
[ 8008 7997 7996 7995 ] final  -27.38 input   59.86 | X-H torsion
[ 10167 10162 10161 10158 ] final  173.39 input  -65.29 | X-H torsion
[ 10718 10713 10712 10709 ] final -104.62 input   66.30 | X-H torsion
[ 10763 10752 10751 10750 ] final   57.12 input  -60.55 | X-H torsion
[ 11005 11000 10999 10996 ] final   26.88 input  -57.11 | X-H torsion

> <Gold.Protein.ActiveResidues>
 VAL166  LYS551  ARG553  GLY616  TRP617  ASP618  TYR619  PRO620  LYS621  CYS622 
 ASP623  PHE694  ASN695  SER759  ASP760  ASP761  ALA762  ILE779  LEU786  VAL792 
 PHE793  MET794  SER795  GLU796  ALA797  LYS798  CYS799  TRP800  GLU811  SER814 

> <Gold.Protein.RotatedAtoms>
  150.8138  134.7309  159.6711 H   0  0  0  0  0  0  0  0  0  0  0  0  # atno 6907 bound_to 6896
  152.4258  134.5868  159.9973 H   0  0  0  0  0  0  0  0  0  0  0  0  # atno 6908 bound_to 6896
  151.6071  133.3313  159.3095 H   0  0  0  0  0  0  0  0  0  0  0  0  # atno 6909 bound_to 6896
  146.2386  140.1749  142.8332 H   0  0  0  0  0  0  0  0  0  0  0  0  # atno 7974 bound_to 7965
  154.4380  140.1874  156.0923 H   0  0  0  0  0  0  0  0  0  0  0  0  # atno 8008 bound_to 7997
  156.0356  140.3325  155.7161 H   0  0  0  0  0  0  0  0  0  0  0  0  # atno 8009 bound_to 7997
  155.5775  140.0618  157.2782 H   0  0  0  0  0  0  0  0  0  0  0  0  # atno 8010 bound_to 7997
  139.5107  144.3266  152.0152 H   0  0  0  0  0  0  0  0  0  0  0  0  # atno 10167 bound_to 10162
  156.0312  130.5524  150.7423 H   0  0  0  0  0  0  0  0  0  0  0  0  # atno 10718 bound_to 10713
  152.9844  135.5652  154.5340 H   0  0  0  0  0  0  0  0  0  0  0  0  # atno 10763 bound_to 10752
  154.4806  135.2788  155.1575 H   0  0  0  0  0  0  0  0  0  0  0  0  # atno 10764 bound_to 10752
  154.3085  135.6293  153.5508 H   0  0  0  0  0  0  0  0  0  0  0  0  # atno 10765 bound_to 10752
  140.3322  134.2425  155.7701 H   0  0  0  0  0  0  0  0  0  0  0  0  # atno 11005 bound_to 11000
  144.9981  140.8607  143.5298 LP  0  0  0  0  0  0  0  0  0  0  0  0  # atno 17320 bound_to 7965
  145.1765  139.2375  143.5315 LP  0  0  0  0  0  0  0  0  0  0  0  0  # atno 17321 bound_to 7965
  140.2706  144.3968  150.6152 LP  0  0  0  0  0  0  0  0  0  0  0  0  # atno 17342 bound_to 10162
  140.6091  143.2169  151.6922 LP  0  0  0  0  0  0  0  0  0  0  0  0  # atno 17343 bound_to 10162
  157.4988  131.0917  151.0339 LP  0  0  0  0  0  0  0  0  0  0  0  0  # atno 17370 bound_to 10713
  157.0725  130.5870  149.5405 LP  0  0  0  0  0  0  0  0  0  0  0  0  # atno 17371 bound_to 10713
  141.2060  133.7844  157.0200 LP  0  0  0  0  0  0  0  0  0  0  0  0  # atno 17394 bound_to 11000
  140.0851  134.9625  157.1687 LP  0  0  0  0  0  0  0  0  0  0  0  0  # atno 17395 bound_to 11000

$$$$
