AV-unprocessed.smi:2205|AV-procd|sdf|8941|dock5
  -GOLD-   2272012163D 1   1.00000     0.00000
 Structure written by MMmdl.
 36 37  0  0  0  0  0  0  0  0  1 V2000
  145.5229  143.1828  154.6055 C   0  0  0  0  0  0  0  0  0  0  0  0
  146.7320  142.5945  154.1604 O   0  0  0  0  0  0  0  0  0  0  0  0
  146.7361  141.1835  154.3036 C   0  0  0  0  0  0  0  0  0  0  0  0
  147.9348  140.5952  153.5418 C   0  0  0  0  0  0  0  0  0  0  0  0
  149.1420  140.5467  154.3796 N   0  0  0  0  0  0  0  0  0  0  0  0
  149.4525  141.7040  155.1207 C   0  0  0  0  0  0  0  0  0  0  0  0
  150.5309  141.7789  155.9315 C   0  0  0  0  0  0  0  0  0  0  0  0
  150.8980  142.8912  156.7046 N   0  0  0  0  0  0  0  0  0  0  0  0
  151.7157  142.9654  157.7737 C   0  0  0  0  0  0  0  0  0  0  0  0
  152.3040  142.0139  158.2875 O   0  0  0  0  0  0  0  0  0  0  0  0
  151.8877  144.3737  158.3635 C   0  0  0  0  0  0  0  0  0  0  0  0
  152.5342  144.4067  159.7584 C   0  0  0  0  0  0  0  0  0  0  0  0
  151.1805  144.7714  160.3755 C   0  0  0  0  0  0  0  0  0  0  0  0
  150.6086  144.9758  158.9690 C   0  0  0  0  0  0  0  0  0  0  0  0
  151.3688  140.6016  156.0121 C   0  0  0  0  0  0  0  0  0  0  0  0
  151.0771  139.4873  155.3142 C   0  0  0  0  0  0  0  0  0  0  0  0
  149.9031  139.4140  154.4418 C   0  0  0  0  0  0  0  0  0  0  0  0
  149.6217  138.3960  153.8089 O   0  0  0  0  0  0  0  0  0  0  0  0
  145.5658  144.2618  154.4593 H   0  0  0  0  0  0  0  0  0  0  0  0
  145.3611  142.9935  155.6675 H   0  0  0  0  0  0  0  0  0  0  0  0
  144.6677  142.8005  154.0469 H   0  0  0  0  0  0  0  0  0  0  0  0
  146.7765  140.9045  155.3577 H   0  0  0  0  0  0  0  0  0  0  0  0
  145.8096  140.7758  153.8969 H   0  0  0  0  0  0  0  0  0  0  0  0
  147.6853  139.5944  153.1856 H   0  0  0  0  0  0  0  0  0  0  0  0
  148.1162  141.1758  152.6361 H   0  0  0  0  0  0  0  0  0  0  0  0
  148.7398  142.5003  154.9784 H   0  0  0  0  0  0  0  0  0  0  0  0
  150.4817  143.7623  156.4098 H   0  0  0  0  0  0  0  0  0  0  0  0
  152.3741  145.0597  157.6681 H   0  0  0  0  0  0  0  0  0  0  0  0
  152.9304  143.4531  160.1105 H   0  0  0  0  0  0  0  0  0  0  0  0
  153.2755  145.2005  159.8578 H   0  0  0  0  0  0  0  0  0  0  0  0
  150.7185  143.9353  160.9019 H   0  0  0  0  0  0  0  0  0  0  0  0
  151.1968  145.6742  160.9867 H   0  0  0  0  0  0  0  0  0  0  0  0
  150.4784  146.0273  158.7111 H   0  0  0  0  0  0  0  0  0  0  0  0
  149.6942  144.4100  158.7835 H   0  0  0  0  0  0  0  0  0  0  0  0
  152.2453  140.6108  156.6439 H   0  0  0  0  0  0  0  0  0  0  0  0
  151.7232  138.6259  155.3986 H   0  0  0  0  0  0  0  0  0  0  0  0
  1  2  1  0  0  0  0
  1 19  1  0  0  0  0
  1 20  1  0  0  0  0
  1 21  1  0  0  0  0
  2  3  1  0  0  0  0
  3  4  1  0  0  0  0
  3 22  1  0  0  0  0
  3 23  1  0  0  0  0
  4  5  1  0  0  0  0
  4 24  1  0  0  0  0
  4 25  1  0  0  0  0
  5 17  1  0  0  0  0
  5  6  1  0  0  0  0
  6  7  2  0  0  0  0
  6 26  1  0  0  0  0
  7  8  1  0  0  0  0
  7 15  1  0  0  0  0
  8  9  1  0  0  0  0
  8 27  1  0  0  0  0
  9 10  2  0  0  0  0
  9 11  1  0  0  0  0
 11 14  1  0  0  0  0
 11 12  1  0  0  0  0
 11 28  1  0  0  0  0
 12 13  1  0  0  0  0
 12 29  1  0  0  0  0
 12 30  1  0  0  0  0
 13 14  1  0  0  0  0
 13 31  1  0  0  0  0
 13 32  1  0  0  0  0
 14 33  1  0  0  0  0
 14 34  1  0  0  0  0
 15 16  2  0  0  0  0
 15 35  1  0  0  0  0
 16 17  1  0  0  0  0
 16 36  1  0  0  0  0
 17 18  2  0  0  0  0
M  END
> <s_m_source_file>
AV-unprocessed.smi

> <i_m_source_file_index>
2205

> <i_lp_mmshare_version>
43012

> <i_f3d_flags>
0

> <s_epik_input>
W0NIM11PW0NIMl1bQ0gyXW4xW2NIXWMoW2NIXVtjSF1jMT1PKVtOSF1DKD1PKVtDSF0yW0NIMl1bQ0gyXVtDSDJdMg==

> <s_epik_cmdline>
J2VwaWtfcHl0aG9uJywgJy1waCcsICc3LjAnLCAnLXRuJywgJzgnLCAnLW1hJywgJzIwMCcsICctbWV0YWxfYmluZGluZycsICctaW1hZScsICc8aW5maWxlLm1hZT4nLCAnLW9tYWUnLCAnPG91dGZpbGUubWFlPic=

> <r_lp_tautomer_probability>
1

> <r_epik_Ionization_Penalty>
2.40107e-06

> <r_epik_Ionization_Penalty_Charging>
2.27812e-06

> <r_epik_Ionization_Penalty_Neutral>
1.2295e-07

> <r_epik_State_Penalty>
-0

> <r_epik_Charging_Adjusted_Penalty>
2.27812e-06

> <i_epik_Tot_Q>
0

> <i_epik_Tot_abs_Q>
0

> <r_epik_Metal_State_Penalty>
-0

> <b_epik_Metal_Only>
0

> <s_lp_Force_Field>
OPLS_2005

> <r_lp_Energy>
28.3384

> <b_lp_Chiralities_Consistent>
1

> <s_lp_Variant>
AV-unprocessed.smi:2205-1

> <Gold.Version>
5.8.1

> <Gold.Id.Protein>
6NUR|6NUR_protein|mol2

> <Gold.PLP.Fitness>
45.6865

> <Gold.PLP.PLP>
-40.6703

> <Gold.PLP.part.hbond>
-1.0000

> <Gold.PLP.part.metal>
0.0000

> <Gold.PLP.part.buried>
-4.3821

> <Gold.PLP.part.nonpolar>
-37.7258

> <Gold.PLP.part.repulsive>
1.4964

> <Gold.PLP.ligand.clash>
0.0000

> <Gold.PLP.ligand.torsion>
0.6240

> <Gold.PLP.Chemscore.Hbond>
0.9600

> <Gold.PLP.Chemscore.CHOScore>
1.0000

> <Gold.PLP.Chemscore.Metal>
0.0000

> <Gold.Chemscore.Hbonds>
donor molecule, donor type, donor heavy atom, donor atom, acceptor molecule, acceptor atom, score
      L1  H     8    27       P1  8028  0.99
      L1  C     6    26       P1  8028  0.99

> <Gold.PLP.Chemscore.Internal.Correction>
0.3843

> <Gold.Rescore>
     Score         DG    S(hbond)    S(metal)    S(lipo)     H(rot)  DE(clash)    DE(int)     intcor
     13.36     -15.57       0.96        0.00      93.00       1.56       0.24       1.98       ----

> <Gold.Chemscore.Fitness>
13.3559

> <Gold.Chemscore.DG>
-15.5723

> <Gold.Chemscore.ZeroCoef>
-5.4800

> <Gold.Chemscore.Hbond>
0.9589

> <Gold.Chemscore.Metal>
0.0000

> <Gold.Chemscore.Lipo>
93.0045

> <Gold.Chemscore.Internal_Hbond>
0.0000

> <Gold.Chemscore.DEClash>
0.2405

> <Gold.Chemscore.DEInternal>
1.9759

> <Gold.Chemscore.Rot>
1.5594

> <Gold.Chemscore.Internal.Correction>
   9.000000E+99

> <Gold.Chemscore.Hbonds>
donor molecule, donor type, donor heavy atom, donor atom, acceptor molecule, acceptor atom, score
      L1  H     8    27       P1  8028  0.90

> <Gold.Chemscore.Hbond.Weighted>
-3.2028

> <Gold.Chemscore.Metal.Weighted>
-0.0000

> <Gold.Chemscore.Lipo.Weighted>
-10.8815

> <Gold.Chemscore.Internal_Hbond.Weighted>
0.0000

> <Gold.Chemscore.DEClash.Weighted>
0.2405

> <Gold.Chemscore.DEInternal.Weighted>
1.9759

> <Gold.Chemscore.Rot.Weighted>
3.9920

> <Gold.Chemscore.Internal.Correction.Weighted>
   9.000000E+99

> <Gold.Protein.RotatedTorsions>
[ 6907 6896 6895 6894 ] final  148.00 input  -60.11 | X-H torsion
[ 7974 7965 7964 7962 ] final   43.87 input  175.53 | X-H torsion
[ 8008 7997 7996 7995 ] final -124.93 input   59.86 | X-H torsion
[ 10167 10162 10161 10158 ] final  101.95 input  -65.29 | X-H torsion
[ 10718 10713 10712 10709 ] final  131.83 input   66.30 | X-H torsion
[ 10763 10752 10751 10750 ] final  -63.07 input  -60.55 | X-H torsion
[ 11005 11000 10999 10996 ] final   52.56 input  -57.11 | X-H torsion

> <Gold.Protein.ActiveResidues>
 VAL166  LYS551  ARG553  GLY616  TRP617  ASP618  TYR619  PRO620  LYS621  CYS622 
 ASP623  PHE694  ASN695  SER759  ASP760  ASP761  ALA762  ILE779  LEU786  VAL792 
 PHE793  MET794  SER795  GLU796  ALA797  LYS798  CYS799  TRP800  GLU811  SER814 

> <Gold.Protein.RotatedAtoms>
  152.1473  133.4500  159.4796 H   0  0  0  0  0  0  0  0  0  0  0  0  # atno 6907 bound_to 6896
  150.6892  134.2232  159.4414 H   0  0  0  0  0  0  0  0  0  0  0  0  # atno 6908 bound_to 6896
  152.0126  134.9867  160.0619 H   0  0  0  0  0  0  0  0  0  0  0  0  # atno 6909 bound_to 6896
  146.0618  139.5138  142.9653 H   0  0  0  0  0  0  0  0  0  0  0  0  # atno 7974 bound_to 7965
  155.2049  140.0417  157.2923 H   0  0  0  0  0  0  0  0  0  0  0  0  # atno 8008 bound_to 7997
  154.6050  140.2462  155.7714 H   0  0  0  0  0  0  0  0  0  0  0  0  # atno 8009 bound_to 7997
  156.2344  140.2926  156.0284 H   0  0  0  0  0  0  0  0  0  0  0  0  # atno 8010 bound_to 7997
  139.7393  144.7015  151.0601 H   0  0  0  0  0  0  0  0  0  0  0  0  # atno 10167 bound_to 10162
  157.4930  131.1091  150.9531 H   0  0  0  0  0  0  0  0  0  0  0  0  # atno 10718 bound_to 10713
  154.3095  135.6218  153.5459 H   0  0  0  0  0  0  0  0  0  0  0  0  # atno 10763 bound_to 10752
  152.9831  135.5698  154.5193 H   0  0  0  0  0  0  0  0  0  0  0  0  # atno 10764 bound_to 10752
  154.4840  135.2864  155.1525 H   0  0  0  0  0  0  0  0  0  0  0  0  # atno 10765 bound_to 10752
  140.0839  134.5300  155.8918 H   0  0  0  0  0  0  0  0  0  0  0  0  # atno 11005 bound_to 11000
  145.6547  141.0255  143.1741 LP  0  0  0  0  0  0  0  0  0  0  0  0  # atno 17320 bound_to 7965
  144.7179  139.8132  143.7392 LP  0  0  0  0  0  0  0  0  0  0  0  0  # atno 17321 bound_to 7965
  140.7783  143.4945  150.9850 LP  0  0  0  0  0  0  0  0  0  0  0  0  # atno 17342 bound_to 10162
  139.8633  143.7286  152.3172 LP  0  0  0  0  0  0  0  0  0  0  0  0  # atno 17343 bound_to 10162
  157.0227  130.5680  149.5333 LP  0  0  0  0  0  0  0  0  0  0  0  0  # atno 17370 bound_to 10713
  156.0184  130.5279  150.8203 LP  0  0  0  0  0  0  0  0  0  0  0  0  # atno 17371 bound_to 10713
  141.2056  133.6648  156.6191 LP  0  0  0  0  0  0  0  0  0  0  0  0  # atno 17394 bound_to 11000
  140.3448  134.7819  157.4424 LP  0  0  0  0  0  0  0  0  0  0  0  0  # atno 17395 bound_to 11000

$$$$
