AV-unprocessed.smi:482|AV-procd|sdf|2684|dock1
  -GOLD-   2262023113D 1   1.00000     0.00000
 Structure written by MMmdl.
 28 29  0  0  0  0  0  0  0  0  1 V2000
  154.7507  139.8029  160.8096 C   0  0  0  0  0  0  0  0  0  0  0  0
  153.7484  140.7599  160.3043 N   0  0  0  0  0  0  0  0  0  0  0  0
  153.1626  140.5047  159.0919 C   0  0  0  0  0  0  0  0  0  0  0  0
  153.4051  139.5284  158.3813 O   0  0  0  0  0  0  0  0  0  0  0  0
  152.1829  141.5150  158.6834 C   0  0  0  0  0  0  0  0  0  0  0  0
  151.8826  142.5995  159.4375 C   0  0  0  0  0  0  0  0  0  0  0  0
  150.9209  143.3934  158.8227 N   0  0  0  0  0  0  0  0  0  0  0  0
  150.6879  142.7226  157.6934 C   0  0  0  0  0  0  0  0  0  0  0  0
  151.4013  141.5894  157.5323 N   0  0  0  0  0  0  0  0  0  0  0  0
  151.3351  140.6829  156.3989 C   0  0  0  0  0  0  0  0  0  0  0  0
  150.1885  141.0489  155.4461 C   0  0  0  0  0  0  0  0  0  0  0  0
  150.2715  140.2639  154.2770 O   0  0  0  0  0  0  0  0  0  0  0  0
  152.5470  142.7700  160.6774 N   0  0  0  0  0  0  0  0  0  0  0  0
  152.2003  143.9574  161.4641 C   0  0  0  0  0  0  0  0  0  0  0  0
  153.4751  141.8532  161.1098 C   0  0  0  0  0  0  0  0  0  0  0  0
  154.0507  142.0021  162.1912 O   0  0  0  0  0  0  0  0  0  0  0  0
  154.9592  138.9626  160.1466 H   0  0  0  0  0  0  0  0  0  0  0  0
  154.4225  139.3757  161.7586 H   0  0  0  0  0  0  0  0  0  0  0  0
  155.7048  140.3043  160.9801 H   0  0  0  0  0  0  0  0  0  0  0  0
  149.9741  143.0666  156.9591 H   0  0  0  0  0  0  0  0  0  0  0  0
  152.2884  140.7228  155.8700 H   0  0  0  0  0  0  0  0  0  0  0  0
  151.2290  139.6617  156.7660 H   0  0  0  0  0  0  0  0  0  0  0  0
  149.2206  140.8806  155.9182 H   0  0  0  0  0  0  0  0  0  0  0  0
  150.2383  142.1026  155.1700 H   0  0  0  0  0  0  0  0  0  0  0  0
  149.4055  140.1826  153.9072 H   0  0  0  0  0  0  0  0  0  0  0  0
  152.7327  144.0425  162.4118 H   0  0  0  0  0  0  0  0  0  0  0  0
  151.1337  143.9531  161.6911 H   0  0  0  0  0  0  0  0  0  0  0  0
  152.4153  144.8592  160.8897 H   0  0  0  0  0  0  0  0  0  0  0  0
  1  2  1  0  0  0  0
  1 17  1  0  0  0  0
  1 18  1  0  0  0  0
  1 19  1  0  0  0  0
  2 15  1  0  0  0  0
  2  3  1  0  0  0  0
  3  4  2  0  0  0  0
  3  5  1  0  0  0  0
  5  9  1  0  0  0  0
  5  6  2  0  0  0  0
  6  7  1  0  0  0  0
  6 13  1  0  0  0  0
  7  8  2  0  0  0  0
  8  9  1  0  0  0  0
  8 20  1  0  0  0  0
  9 10  1  0  0  0  0
 10 11  1  0  0  0  0
 10 21  1  0  0  0  0
 10 22  1  0  0  0  0
 11 12  1  0  0  0  0
 11 23  1  0  0  0  0
 11 24  1  0  0  0  0
 12 25  1  0  0  0  0
 13 14  1  0  0  0  0
 13 15  1  0  0  0  0
 14 26  1  0  0  0  0
 14 27  1  0  0  0  0
 14 28  1  0  0  0  0
 15 16  2  0  0  0  0
M  END
> <s_m_source_file>
AV-unprocessed.smi

> <i_m_source_file_index>
482

> <i_lp_mmshare_version>
43012

> <i_f3d_flags>
0

> <s_epik_input>
Tz1jMW4oW0NIM10pYyg9TyluKFtDSDNdKWMoYzEyKW5bY0hdbjJbQ0gyXVtDSDJdW09IXQ==

> <s_epik_cmdline>
J2VwaWtfcHl0aG9uJywgJy1waCcsICc3LjAnLCAnLXRuJywgJzgnLCAnLW1hJywgJzIwMCcsICctbWV0YWxfYmluZGluZycsICctaW1hZScsICc8aW5maWxlLm1hZT4nLCAnLW9tYWUnLCAnPG91dGZpbGUubWFlPic=

> <r_lp_tautomer_probability>
1

> <r_epik_Ionization_Penalty>
1.52212e-06

> <r_epik_Ionization_Penalty_Charging>
3.74189e-09

> <r_epik_Ionization_Penalty_Neutral>
1.51838e-06

> <r_epik_State_Penalty>
-0

> <r_epik_Charging_Adjusted_Penalty>
3.74189e-09

> <i_epik_Tot_Q>
0

> <i_epik_Tot_abs_Q>
0

> <r_epik_Metal_State_Penalty>
-0

> <b_epik_Metal_Only>
0

> <s_lp_Force_Field>
OPLS_2005

> <r_lp_Energy>
31.9253

> <b_lp_Chiralities_Consistent>
1

> <s_lp_Variant>
AV-unprocessed.smi:482-1

> <Gold.Version>
5.8.1

> <Gold.Id.Protein>
6NUR|6NUR_protein|mol2

> <Gold.PLP.Fitness>
46.0256

> <Gold.PLP.PLP>
-37.1890

> <Gold.PLP.part.hbond>
-3.4735

> <Gold.PLP.part.metal>
0.0000

> <Gold.PLP.part.buried>
-4.1757

> <Gold.PLP.part.nonpolar>
-29.6209

> <Gold.PLP.part.repulsive>
0.1032

> <Gold.PLP.ligand.clash>
0.0000

> <Gold.PLP.ligand.torsion>
0.0818

> <Gold.PLP.Chemscore.Hbond>
2.0000

> <Gold.PLP.Chemscore.CHOScore>
1.0000

> <Gold.PLP.Chemscore.Metal>
0.0000

> <Gold.Chemscore.Hbonds>
donor molecule, donor type, donor heavy atom, donor atom, acceptor molecule, acceptor atom, score
      P1  H  7989  7998       L1    12  1.00
      P1  H  7997  8009       L1     4  1.00
      L1  C     8    20       P1  8028  1.00

> <Gold.PLP.Chemscore.Internal.Correction>
0.0001

> <Gold.Rescore>
     Score         DG    S(hbond)    S(metal)    S(lipo)     H(rot)  DE(clash)    DE(int)     intcor
     11.19     -11.54       1.92        0.00      41.38       2.03       0.14       0.21       ----

> <Gold.Chemscore.Fitness>
11.1853

> <Gold.Chemscore.DG>
-11.5374

> <Gold.Chemscore.ZeroCoef>
-5.4800

> <Gold.Chemscore.Hbond>
1.9229

> <Gold.Chemscore.Metal>
0.0000

> <Gold.Chemscore.Lipo>
41.3791

> <Gold.Chemscore.Internal_Hbond>
0.0000

> <Gold.Chemscore.DEClash>
0.1432

> <Gold.Chemscore.DEInternal>
0.2090

> <Gold.Chemscore.Rot>
2.0338

> <Gold.Chemscore.Internal.Correction>
   9.000000E+99

> <Gold.Chemscore.Hbonds>
donor molecule, donor type, donor heavy atom, donor atom, acceptor molecule, acceptor atom, score
      P1  H  7989  7998       L1    12  0.42
      P1  H  7997  8009       L1     4  0.72

> <Gold.Chemscore.Hbond.Weighted>
-6.4225

> <Gold.Chemscore.Metal.Weighted>
-0.0000

> <Gold.Chemscore.Lipo.Weighted>
-4.8413

> <Gold.Chemscore.Internal_Hbond.Weighted>
0.0000

> <Gold.Chemscore.DEClash.Weighted>
0.1432

> <Gold.Chemscore.DEInternal.Weighted>
0.2090

> <Gold.Chemscore.Rot.Weighted>
5.2065

> <Gold.Chemscore.Internal.Correction.Weighted>
   9.000000E+99

> <Gold.Protein.RotatedTorsions>
[ 6907 6896 6895 6894 ] final -115.42 input  -60.11 | X-H torsion
[ 7974 7965 7964 7962 ] final   30.66 input  175.53 | X-H torsion
[ 8008 7997 7996 7995 ] final  165.42 input   59.86 | X-H torsion
[ 10167 10162 10161 10158 ] final  134.09 input  -65.29 | X-H torsion
[ 10718 10713 10712 10709 ] final   86.17 input   66.30 | X-H torsion
[ 10763 10752 10751 10750 ] final   10.39 input  -60.55 | X-H torsion
[ 11005 11000 10999 10996 ] final -164.86 input  -57.11 | X-H torsion

> <Gold.Protein.ActiveResidues>
 VAL166  LYS551  ARG553  GLY616  TRP617  ASP618  TYR619  PRO620  LYS621  CYS622 
 ASP623  PHE694  ASN695  SER759  ASP760  ASP761  ALA762  ILE779  LEU786  VAL792 
 PHE793  MET794  SER795  GLU796  ALA797  LYS798  CYS799  TRP800  GLU811  SER814 

> <Gold.Protein.RotatedAtoms>
  150.7976  133.8661  159.3245 H   0  0  0  0  0  0  0  0  0  0  0  0  # atno 6907 bound_to 6896
  151.6482  135.1003  160.0165 H   0  0  0  0  0  0  0  0  0  0  0  0  # atno 6908 bound_to 6896
  152.4060  133.6850  159.6392 H   0  0  0  0  0  0  0  0  0  0  0  0  # atno 6909 bound_to 6896
  146.1598  139.6759  142.9041 H   0  0  0  0  0  0  0  0  0  0  0  0  # atno 7974 bound_to 7965
  156.1802  140.1670  156.8289 H   0  0  0  0  0  0  0  0  0  0  0  0  # atno 8008 bound_to 7997
  154.5351  140.0748  156.8446 H   0  0  0  0  0  0  0  0  0  0  0  0  # atno 8009 bound_to 7997
  155.3327  140.3380  155.4241 H   0  0  0  0  0  0  0  0  0  0  0  0  # atno 8010 bound_to 7997
  139.5270  144.6584  151.5090 H   0  0  0  0  0  0  0  0  0  0  0  0  # atno 10167 bound_to 10162
  157.6925  131.0204  150.2932 H   0  0  0  0  0  0  0  0  0  0  0  0  # atno 10718 bound_to 10713
  153.2038  135.6859  153.8198 H   0  0  0  0  0  0  0  0  0  0  0  0  # atno 10763 bound_to 10752
  153.7455  135.3231  155.3313 H   0  0  0  0  0  0  0  0  0  0  0  0  # atno 10764 bound_to 10752
  154.8185  135.4668  154.0815 H   0  0  0  0  0  0  0  0  0  0  0  0  # atno 10765 bound_to 10752
  140.5822  134.5130  157.5180 H   0  0  0  0  0  0  0  0  0  0  0  0  # atno 11005 bound_to 11000
  145.4617  141.0433  143.2748 LP  0  0  0  0  0  0  0  0  0  0  0  0  # atno 17320 bound_to 7965
  144.8012  139.6138  143.7071 LP  0  0  0  0  0  0  0  0  0  0  0  0  # atno 17321 bound_to 7965
  140.6421  143.8869  150.6701 LP  0  0  0  0  0  0  0  0  0  0  0  0  # atno 17342 bound_to 10162
  140.2206  143.3811  152.1645 LP  0  0  0  0  0  0  0  0  0  0  0  0  # atno 17343 bound_to 10162
  156.3460  130.3823  149.7369 LP  0  0  0  0  0  0  0  0  0  0  0  0  # atno 17370 bound_to 10713
  156.4862  130.8064  151.3076 LP  0  0  0  0  0  0  0  0  0  0  0  0  # atno 17371 bound_to 10713
  139.9312  134.7960  156.0926 LP  0  0  0  0  0  0  0  0  0  0  0  0  # atno 17394 bound_to 11000
  141.0989  133.6685  156.2708 LP  0  0  0  0  0  0  0  0  0  0  0  0  # atno 17395 bound_to 11000

$$$$
