AV-unprocessed.smi:3188|AV-procd|sdf|12186|dock6
  -GOLD-   2272018 33D 1   1.00000     0.00000
 Structure written by MMmdl.
 40 41  0  0  0  0  0  0  0  0  2 V2000
  154.2162  140.4262  160.9259 C   0  0  0  0  0  0  0  0  0  0  0  0
  153.4780  141.7520  160.8415 C   0  0  0  0  0  0  0  0  0  0  0  0
  153.1863  142.4492  161.9574 C   0  0  0  0  0  0  0  0  0  0  0  0
  152.4945  143.8007  161.9787 C   0  0  0  0  0  0  0  0  0  0  0  0
  151.9636  144.2275  160.6006 C   0  0  0  0  0  0  0  0  0  0  0  0
  152.9284  143.8150  159.4761 C   0  0  2  0  0  0  0  0  0  0  0  0
  152.5432  144.4417  158.1248 C   0  0  0  0  0  0  0  0  0  0  0  0
  153.1174  142.2715  159.4425 C   0  0  2  0  0  0  0  0  0  0  0  0
  151.9002  141.5223  158.8397 C   0  0  0  0  0  0  0  0  0  0  0  0
  152.1414  140.0744  158.6889 N   0  3  0  0  0  0  0  0  0  0  0  0
  150.9213  139.2736  158.4624 C   0  0  0  0  0  0  0  0  0  0  0  0
  150.2587  139.6197  157.1195 C   0  0  0  0  0  0  0  0  0  0  0  0
  150.8405  138.8759  156.0168 N   0  0  0  0  0  0  0  0  0  0  0  0
  150.6824  139.0830  154.6625 C   0  0  0  0  0  0  0  0  0  0  0  0
  151.4286  138.0870  154.1003 C   0  0  0  0  0  0  0  0  0  0  0  0
  152.0003  137.3277  155.1197 N   0  0  0  0  0  0  0  0  0  0  0  0
  151.6452  137.8152  156.2662 N   0  0  0  0  0  0  0  0  0  0  0  0
  155.0289  140.3896  160.2004 H   0  0  0  0  0  0  0  0  0  0  0  0
  153.5458  139.5880  160.7455 H   0  0  0  0  0  0  0  0  0  0  0  0
  154.6501  140.2823  161.9160 H   0  0  0  0  0  0  0  0  0  0  0  0
  153.4764  142.0586  162.9221 H   0  0  0  0  0  0  0  0  0  0  0  0
  151.6821  143.7831  162.7055 H   0  0  0  0  0  0  0  0  0  0  0  0
  153.2198  144.5328  162.3351 H   0  0  0  0  0  0  0  0  0  0  0  0
  150.9846  143.7798  160.4290 H   0  0  0  0  0  0  0  0  0  0  0  0
  151.8063  145.3067  160.5940 H   0  0  0  0  0  0  0  0  0  0  0  0
  153.9019  144.2404  159.7274 H   0  0  0  0  0  0  0  0  0  0  0  0
  151.5177  144.2060  157.8410 H   0  0  0  0  0  0  0  0  0  0  0  0
  153.2041  144.1012  157.3272 H   0  0  0  0  0  0  0  0  0  0  0  0
  152.6193  145.5284  158.1698 H   0  0  0  0  0  0  0  0  0  0  0  0
  153.9776  142.0809  158.7987 H   0  0  0  0  0  0  0  0  0  0  0  0
  151.0208  141.6745  159.4663 H   0  0  0  0  0  0  0  0  0  0  0  0
  151.6561  141.9045  157.8496 H   0  0  0  0  0  0  0  0  0  0  0  0
  152.7749  139.9309  157.9153 H   0  0  0  0  0  0  0  0  0  0  0  0
  151.1718  138.2122  158.4916 H   0  0  0  0  0  0  0  0  0  0  0  0
  150.2191  139.4588  159.2756 H   0  0  0  0  0  0  0  0  0  0  0  0
  149.1940  139.3868  157.1600 H   0  0  0  0  0  0  0  0  0  0  0  0
  150.3362  140.6891  156.9162 H   0  0  0  0  0  0  0  0  0  0  0  0
  150.0837  139.8760  154.2391 H   0  0  0  0  0  0  0  0  0  0  0  0
  151.5984  137.8547  153.0591 H   0  0  0  0  0  0  0  0  0  0  0  0
  152.5848  139.7407  159.5331 H   0  0  0  0  0  0  0  0  0  0  0  0
  1  2  1  0  0  0  0
  1 18  1  0  0  0  0
  1 19  1  0  0  0  0
  1 20  1  0  0  0  0
  2  8  1  0  0  0  0
  2  3  2  0  0  0  0
  3  4  1  0  0  0  0
  3 21  1  0  0  0  0
  4  5  1  0  0  0  0
  4 22  1  0  0  0  0
  4 23  1  0  0  0  0
  5  6  1  0  0  0  0
  5 24  1  0  0  0  0
  5 25  1  0  0  0  0
  6  7  1  0  0  0  0
  6  8  1  0  0  0  0
  6 26  1  0  0  0  0
  7 27  1  0  0  0  0
  7 28  1  0  0  0  0
  7 29  1  0  0  0  0
  8  9  1  0  0  0  0
  8 30  1  0  0  0  0
  9 10  1  0  0  0  0
  9 31  1  0  0  0  0
  9 32  1  0  0  0  0
 10 11  1  0  0  0  0
 10 33  1  0  0  0  0
 10 40  1  0  0  0  0
 11 12  1  0  0  0  0
 11 34  1  0  0  0  0
 11 35  1  0  0  0  0
 12 13  1  0  0  0  0
 12 36  1  0  0  0  0
 12 37  1  0  0  0  0
 13 17  1  0  0  0  0
 13 14  1  0  0  0  0
 14 15  2  0  0  0  0
 14 38  1  0  0  0  0
 15 16  1  0  0  0  0
 15 39  1  0  0  0  0
 16 17  2  0  0  0  0
M  CHG  1  10   1
M  END
> <s_m_source_file>
AV-unprocessed.smi

> <i_m_source_file_index>
3188

> <i_lp_mmshare_version>
43012

> <i_f3d_flags>
0

> <s_epik_input>
W0NIM11DMT1bQ0hdW0NIMl1bQ0gyXVtDQEBIXShbQ0gzXSlbQ0BIXTFbQ0gyXVtOSF1bQ0gyXVtDSDJdbjJbY0hdW2NIXW5uMg==

> <s_epik_cmdline>
J2VwaWtfcHl0aG9uJywgJy1waCcsICc3LjAnLCAnLXRuJywgJzgnLCAnLW1hJywgJzIwMCcsICctbWV0YWxfYmluZGluZycsICctaW1hZScsICc8aW5maWxlLm1hZT4nLCAnLW9tYWUnLCAnPG91dGZpbGUubWFlPic=

> <r_lp_tautomer_probability>
1

> <r_epik_Ionization_Penalty>
0.007268

> <r_epik_Ionization_Penalty_Charging>
0.00726786

> <r_epik_Ionization_Penalty_Neutral>
1.34882e-07

> <r_epik_State_Penalty>
0.00542069

> <r_epik_Charging_Adjusted_Penalty>
0.0126886

> <i_epik_Tot_Q>
1

> <i_epik_Tot_abs_Q>
1

> <r_epik_Metal_State_Penalty>
-0

> <b_epik_Metal_Only>
0

> <s_lp_Force_Field>
OPLS_2005

> <r_lp_Energy>
14.4229

> <b_lp_Chiralities_Consistent>
1

> <s_lp_Variant>
AV-unprocessed.smi:3188-4

> <Gold.Version>
5.8.1

> <Gold.Id.Protein>
6NUR|6NUR_protein|mol2

> <Gold.PLP.Fitness>
48.6166

> <Gold.PLP.PLP>
-43.6161

> <Gold.PLP.part.hbond>
-1.0000

> <Gold.PLP.part.metal>
0.0000

> <Gold.PLP.part.buried>
-5.8548

> <Gold.PLP.part.nonpolar>
-36.6617

> <Gold.PLP.part.repulsive>
0.1933

> <Gold.PLP.ligand.clash>
0.0000

> <Gold.PLP.ligand.torsion>
0.3613

> <Gold.PLP.Chemscore.Hbond>
0.8960

> <Gold.PLP.Chemscore.CHOScore>
1.0000

> <Gold.PLP.Chemscore.Metal>
0.0000

> <Gold.Chemscore.Hbonds>
donor molecule, donor type, donor heavy atom, donor atom, acceptor molecule, acceptor atom, score
      P1  H 10752 10765       L1    16  0.90
      L1  C    15    39       P1  7949  1.00

> <Gold.PLP.Chemscore.Internal.Correction>
0.0350

> <Gold.Rescore>
     Score         DG    S(hbond)    S(metal)    S(lipo)     H(rot)  DE(clash)    DE(int)     intcor
     18.53     -19.08       0.93        0.00     128.80       1.78       0.04       0.51       ----

> <Gold.Chemscore.Fitness>
18.5294

> <Gold.Chemscore.DG>
-19.0824

> <Gold.Chemscore.ZeroCoef>
-5.4800

> <Gold.Chemscore.Hbond>
0.9256

> <Gold.Chemscore.Metal>
0.0000

> <Gold.Chemscore.Lipo>
128.8019

> <Gold.Chemscore.Internal_Hbond>
0.0000

> <Gold.Chemscore.DEClash>
0.0384

> <Gold.Chemscore.DEInternal>
0.5146

> <Gold.Chemscore.Rot>
1.7809

> <Gold.Chemscore.Internal.Correction>
   9.000000E+99

> <Gold.Chemscore.Hbonds>
donor molecule, donor type, donor heavy atom, donor atom, acceptor molecule, acceptor atom, score
      P1  H 10752 10765       L1    16  0.77

> <Gold.Chemscore.Hbond.Weighted>
-3.0915

> <Gold.Chemscore.Metal.Weighted>
-0.0000

> <Gold.Chemscore.Lipo.Weighted>
-15.0698

> <Gold.Chemscore.Internal_Hbond.Weighted>
0.0000

> <Gold.Chemscore.DEClash.Weighted>
0.0384

> <Gold.Chemscore.DEInternal.Weighted>
0.5146

> <Gold.Chemscore.Rot.Weighted>
4.5590

> <Gold.Chemscore.Internal.Correction.Weighted>
   9.000000E+99

> <Gold.Protein.RotatedTorsions>
[ 6907 6896 6895 6894 ] final  117.09 input  -60.11 | X-H torsion
[ 7974 7965 7964 7962 ] final   34.71 input  175.53 | X-H torsion
[ 8008 7997 7996 7995 ] final  -89.95 input   59.86 | X-H torsion
[ 10167 10162 10161 10158 ] final -109.42 input  -65.29 | X-H torsion
[ 10718 10713 10712 10709 ] final   84.08 input   66.30 | X-H torsion
[ 10763 10752 10751 10750 ] final -178.69 input  -60.55 | X-H torsion
[ 11005 11000 10999 10996 ] final   56.33 input  -57.11 | X-H torsion

> <Gold.Protein.ActiveResidues>
 VAL166  LYS551  ARG553  GLY616  TRP617  ASP618  TYR619  PRO620  LYS621  CYS622 
 ASP623  PHE694  ASN695  SER759  ASP760  ASP761  ALA762  ILE779  LEU786  VAL792 
 PHE793  MET794  SER795  GLU796  ALA797  LYS798  CYS799  TRP800  GLU811  SER814 

> <Gold.Protein.RotatedAtoms>
  152.4635  133.7873  159.6882 H   0  0  0  0  0  0  0  0  0  0  0  0  # atno 6907 bound_to 6896
  150.8589  133.7663  159.3005 H   0  0  0  0  0  0  0  0  0  0  0  0  # atno 6908 bound_to 6896
  151.5235  135.1070  159.9936 H   0  0  0  0  0  0  0  0  0  0  0  0  # atno 6909 bound_to 6896
  146.1334  139.6235  142.9211 H   0  0  0  0  0  0  0  0  0  0  0  0  # atno 7974 bound_to 7965
  154.6927  140.0536  157.0380 H   0  0  0  0  0  0  0  0  0  0  0  0  # atno 8008 bound_to 7997
  155.0794  140.3208  155.4587 H   0  0  0  0  0  0  0  0  0  0  0  0  # atno 8009 bound_to 7997
  156.2734  140.2067  156.5921 H   0  0  0  0  0  0  0  0  0  0  0  0  # atno 8010 bound_to 7997
  140.1556  143.4163  152.1463 H   0  0  0  0  0  0  0  0  0  0  0  0  # atno 10167 bound_to 10162
  157.6891  131.0118  150.2620 H   0  0  0  0  0  0  0  0  0  0  0  0  # atno 10718 bound_to 10713
  154.5445  135.2808  155.1065 H   0  0  0  0  0  0  0  0  0  0  0  0  # atno 10763 bound_to 10752
  154.2534  135.6335  153.5252 H   0  0  0  0  0  0  0  0  0  0  0  0  # atno 10764 bound_to 10752
  152.9987  135.5588  154.5994 H   0  0  0  0  0  0  0  0  0  0  0  0  # atno 10765 bound_to 10752
  140.0538  134.5699  155.9232 H   0  0  0  0  0  0  0  0  0  0  0  0  # atno 11005 bound_to 11000
  145.5210  141.0432  143.2435 LP  0  0  0  0  0  0  0  0  0  0  0  0  # atno 17320 bound_to 7965
  144.7714  139.6726  143.7193 LP  0  0  0  0  0  0  0  0  0  0  0  0  # atno 17321 bound_to 7965
  139.5405  144.7252  151.4749 LP  0  0  0  0  0  0  0  0  0  0  0  0  # atno 17342 bound_to 10162
  140.6675  143.8365  150.6960 LP  0  0  0  0  0  0  0  0  0  0  0  0  # atno 17343 bound_to 10162
  156.3197  130.3784  149.7586 LP  0  0  0  0  0  0  0  0  0  0  0  0  # atno 17370 bound_to 10713
  156.5160  130.8193  151.3186 LP  0  0  0  0  0  0  0  0  0  0  0  0  # atno 17371 bound_to 10713
  141.1942  133.6582  156.5586 LP  0  0  0  0  0  0  0  0  0  0  0  0  # atno 17394 bound_to 11000
  140.3876  134.7468  157.4701 LP  0  0  0  0  0  0  0  0  0  0  0  0  # atno 17395 bound_to 11000

$$$$
