AV-unprocessed.smi:1824|AV-procd|sdf|7409|dock2
  -GOLD-   22720 9 83D 1   1.00000     0.00000
 Structure written by MMmdl.
 45 47  0  0  0  0  0  0  0  0  2 V2000
  154.5682  141.4766  160.0798 C   0  0  0  0  0  0  0  0  0  0  0  0
  153.0697  141.6790  160.3627 C   0  0  2  0  0  0  0  0  0  0  0  0
  152.1592  140.7659  159.5180 C   0  0  0  0  0  0  0  0  0  0  0  0
  152.0820  141.1779  158.1202 N   0  0  0  0  0  0  0  0  0  0  0  0
  151.2083  140.2802  157.3624 C   0  0  0  0  0  0  0  0  0  0  0  0
  150.5005  140.9115  156.1470 C   0  0  1  0  0  0  0  0  0  0  0  0
  151.0943  140.3979  154.9710 O   0  0  0  0  0  0  0  0  0  0  0  0
  148.9929  140.5916  156.1448 C   0  0  0  0  0  0  0  0  0  0  0  0
  148.2820  141.1919  155.0063 N   0  0  0  0  0  0  0  0  0  0  0  0
  148.4478  140.9817  153.6722 C   0  0  0  0  0  0  0  0  0  0  0  0
  147.5537  141.7726  153.0167 N   0  3  0  0  0  0  0  0  0  0  0  0
  146.8038  142.4978  153.9454 C   0  0  0  0  0  0  0  0  0  0  0  0
  145.7815  143.4243  153.7666 C   0  0  0  0  0  0  0  0  0  0  0  0
  145.2187  143.9825  154.9331 C   0  0  0  0  0  0  0  0  0  0  0  0
  144.2195  144.8887  154.8163 F   0  0  0  0  0  0  0  0  0  0  0  0
  145.6753  143.6148  156.2165 C   0  0  0  0  0  0  0  0  0  0  0  0
  145.1059  144.1734  157.3108 F   0  0  0  0  0  0  0  0  0  0  0  0
  146.7140  142.6756  156.3848 C   0  0  0  0  0  0  0  0  0  0  0  0
  147.2653  142.1291  155.2265 C   0  0  0  0  0  0  0  0  0  0  0  0
  151.6488  142.5716  158.0636 C   0  0  0  0  0  0  0  0  0  0  0  0
  152.5863  143.4994  158.8582 C   0  0  1  0  0  0  0  0  0  0  0  0
  152.0826  144.9465  158.8790 C   0  0  0  0  0  0  0  0  0  0  0  0
  152.6787  143.0439  160.2067 O   0  0  0  0  0  0  0  0  0  0  0  0
  154.8700  140.4540  160.3070 H   0  0  0  0  0  0  0  0  0  0  0  0
  155.1734  142.1435  160.6940 H   0  0  0  0  0  0  0  0  0  0  0  0
  154.8182  141.6645  159.0359 H   0  0  0  0  0  0  0  0  0  0  0  0
  152.9089  141.4327  161.4126 H   0  0  0  0  0  0  0  0  0  0  0  0
  152.5145  139.7369  159.5856 H   0  0  0  0  0  0  0  0  0  0  0  0
  151.1577  140.7723  159.9517 H   0  0  0  0  0  0  0  0  0  0  0  0
  151.7899  139.4287  157.0052 H   0  0  0  0  0  0  0  0  0  0  0  0
  150.4599  139.8614  158.0369 H   0  0  0  0  0  0  0  0  0  0  0  0
  150.6188  141.9942  156.1471 H   0  0  0  0  0  0  0  0  0  0  0  0
  151.2772  139.4803  155.1084 H   0  0  0  0  0  0  0  0  0  0  0  0
  148.8139  139.5162  156.1561 H   0  0  0  0  0  0  0  0  0  0  0  0
  148.5314  140.9857  157.0511 H   0  0  0  0  0  0  0  0  0  0  0  0
  149.1603  140.3092  153.2159 H   0  0  0  0  0  0  0  0  0  0  0  0
  145.4277  143.7077  152.7862 H   0  0  0  0  0  0  0  0  0  0  0  0
  147.0500  142.3974  157.3725 H   0  0  0  0  0  0  0  0  0  0  0  0
  151.6174  142.9198  157.0324 H   0  0  0  0  0  0  0  0  0  0  0  0
  150.6332  142.6581  158.4534 H   0  0  0  0  0  0  0  0  0  0  0  0
  153.5778  143.4891  158.4043 H   0  0  0  0  0  0  0  0  0  0  0  0
  152.0036  145.3497  157.8691 H   0  0  0  0  0  0  0  0  0  0  0  0
  152.7630  145.5876  159.4398 H   0  0  0  0  0  0  0  0  0  0  0  0
  151.0993  145.0155  159.3454 H   0  0  0  0  0  0  0  0  0  0  0  0
  147.4638  141.8113  152.0093 H   0  0  0  0  0  0  0  0  0  0  0  0
  1  2  1  0  0  0  0
  1 24  1  0  0  0  0
  1 25  1  0  0  0  0
  1 26  1  0  0  0  0
  2 23  1  0  0  0  0
  2  3  1  0  0  0  0
  2 27  1  0  0  0  0
  3  4  1  0  0  0  0
  3 28  1  0  0  0  0
  3 29  1  0  0  0  0
  4  5  1  0  0  0  0
  4 20  1  0  0  0  0
  5  6  1  0  0  0  0
  5 30  1  0  0  0  0
  5 31  1  0  0  0  0
  6  7  1  0  0  0  0
  6  8  1  0  0  0  0
  6 32  1  0  0  0  0
  7 33  1  0  0  0  0
  8  9  1  0  0  0  0
  8 34  1  0  0  0  0
  8 35  1  0  0  0  0
  9 19  1  0  0  0  0
  9 10  1  0  0  0  0
 10 11  2  0  0  0  0
 10 36  1  0  0  0  0
 11 12  1  0  0  0  0
 11 45  1  0  0  0  0
 12 19  2  0  0  0  0
 12 13  1  0  0  0  0
 13 14  2  0  0  0  0
 13 37  1  0  0  0  0
 14 15  1  0  0  0  0
 14 16  1  0  0  0  0
 16 17  1  0  0  0  0
 16 18  2  0  0  0  0
 18 19  1  0  0  0  0
 18 38  1  0  0  0  0
 20 21  1  0  0  0  0
 20 39  1  0  0  0  0
 20 40  1  0  0  0  0
 21 22  1  0  0  0  0
 21 23  1  0  0  0  0
 21 41  1  0  0  0  0
 22 42  1  0  0  0  0
 22 43  1  0  0  0  0
 22 44  1  0  0  0  0
M  CHG  1  11   1
M  END
> <s_m_source_file>
AV-unprocessed.smi

> <i_m_source_file_index>
1824

> <i_lp_mmshare_version>
43012

> <i_f3d_flags>
0

> <s_epik_input>
W0NIM11bQ0BASF0xW0NIMl1OKFtDSDJdW0NASF0oTzEpW0NIM10pW0NIMl1bQ0BIXShbT0hdKVtDSDJdbihbY0hdbjIpYyhjMjMpW2NIXWMoRiljKEYpW2NIXTM=

> <s_epik_cmdline>
J2VwaWtfcHl0aG9uJywgJy1waCcsICc3LjAnLCAnLXRuJywgJzgnLCAnLW1hJywgJzIwMCcsICctbWV0YWxfYmluZGluZycsICctaW1hZScsICc8aW5maWxlLm1hZT4nLCAnLW9tYWUnLCAnPG91dGZpbGUubWFlPic=

> <r_epik_Ionization_Penalty>
2.58709

> <r_epik_Ionization_Penalty_Charging>
2.37273

> <r_epik_Ionization_Penalty_Neutral>
0.214359

> <r_epik_State_Penalty>
2.71799

> <r_epik_Charging_Adjusted_Penalty>
5.09071

> <i_epik_Tot_Q>
1

> <i_epik_Tot_abs_Q>
1

> <r_epik_Metal_State_Penalty>
6.80217

> <b_epik_Metal_Only>
0

> <s_lp_Force_Field>
OPLS_2005

> <r_lp_Energy>
35.2621

> <b_lp_Chiralities_Consistent>
1

> <s_lp_Variant>
AV-unprocessed.smi:1824-17

> <Gold.Version>
5.8.1

> <Gold.Id.Protein>
6NUR|6NUR_protein|mol2

> <Gold.PLP.Fitness>
48.2839

> <Gold.PLP.PLP>
-44.3236

> <Gold.PLP.part.hbond>
-1.0000

> <Gold.PLP.part.metal>
0.0000

> <Gold.PLP.part.buried>
-3.4895

> <Gold.PLP.part.nonpolar>
-39.3676

> <Gold.PLP.part.repulsive>
0.1545

> <Gold.PLP.ligand.clash>
0.0000

> <Gold.PLP.ligand.torsion>
1.0514

> <Gold.PLP.Chemscore.Hbond>
1.0000

> <Gold.PLP.Chemscore.CHOScore>
0.9935

> <Gold.PLP.Chemscore.Metal>
0.0000

> <Gold.Chemscore.Hbonds>
donor molecule, donor type, donor heavy atom, donor atom, acceptor molecule, acceptor atom, score
      P1  H  7989  7998       L1     7  1.00
      L1  C    10    36       P1  7957  0.97

> <Gold.PLP.Chemscore.Internal.Correction>
0.0825

> <Gold.Rescore>
     Score         DG    S(hbond)    S(metal)    S(lipo)     H(rot)  DE(clash)    DE(int)     intcor
     13.41     -14.73       0.97        0.00     102.14       2.32       0.15       1.17       ----

> <Gold.Chemscore.Fitness>
13.4087

> <Gold.Chemscore.DG>
-14.7259

> <Gold.Chemscore.ZeroCoef>
-5.4800

> <Gold.Chemscore.Hbond>
0.9692

> <Gold.Chemscore.Metal>
0.0000

> <Gold.Chemscore.Lipo>
102.1401

> <Gold.Chemscore.Internal_Hbond>
0.0000

> <Gold.Chemscore.DEClash>
0.1491

> <Gold.Chemscore.DEInternal>
1.1681

> <Gold.Chemscore.Rot>
2.3210

> <Gold.Chemscore.Internal.Correction>
   9.000000E+99

> <Gold.Chemscore.Hbonds>
donor molecule, donor type, donor heavy atom, donor atom, acceptor molecule, acceptor atom, score
      P1  H  7989  7998       L1     7  0.76

> <Gold.Chemscore.Hbond.Weighted>
-3.2371

> <Gold.Chemscore.Metal.Weighted>
-0.0000

> <Gold.Chemscore.Lipo.Weighted>
-11.9504

> <Gold.Chemscore.Internal_Hbond.Weighted>
0.0000

> <Gold.Chemscore.DEClash.Weighted>
0.1491

> <Gold.Chemscore.DEInternal.Weighted>
1.1681

> <Gold.Chemscore.Rot.Weighted>
5.9416

> <Gold.Chemscore.Internal.Correction.Weighted>
   9.000000E+99

> <Gold.Protein.RotatedTorsions>
[ 6907 6896 6895 6894 ] final  -37.79 input  -60.11 | X-H torsion
[ 7974 7965 7964 7962 ] final   -3.77 input  175.53 | X-H torsion
[ 8008 7997 7996 7995 ] final   65.32 input   59.86 | X-H torsion
[ 10167 10162 10161 10158 ] final    2.75 input  -65.29 | X-H torsion
[ 10718 10713 10712 10709 ] final   53.31 input   66.30 | X-H torsion
[ 10763 10752 10751 10750 ] final   55.17 input  -60.55 | X-H torsion
[ 11005 11000 10999 10996 ] final   38.96 input  -57.11 | X-H torsion

> <Gold.Protein.ActiveResidues>
 VAL166  LYS551  ARG553  GLY616  TRP617  ASP618  TYR619  PRO620  LYS621  CYS622 
 ASP623  PHE694  ASN695  SER759  ASP760  ASP761  ALA762  ILE779  LEU786  VAL792 
 PHE793  MET794  SER795  GLU796  ALA797  LYS798  CYS799  TRP800  GLU811  SER814 

> <Gold.Protein.RotatedAtoms>
  151.0104  134.9392  159.8003 H   0  0  0  0  0  0  0  0  0  0  0  0  # atno 6907 bound_to 6896
  152.5301  134.3035  159.9097 H   0  0  0  0  0  0  0  0  0  0  0  0  # atno 6908 bound_to 6896
  151.3041  133.4067  159.2676 H   0  0  0  0  0  0  0  0  0  0  0  0  # atno 6909 bound_to 6896
  146.2384  140.1772  142.8332 H   0  0  0  0  0  0  0  0  0  0  0  0  # atno 7974 bound_to 7965
  155.6598  140.3497  155.4778 H   0  0  0  0  0  0  0  0  0  0  0  0  # atno 8008 bound_to 7997
  155.9778  140.1168  157.0777 H   0  0  0  0  0  0  0  0  0  0  0  0  # atno 8009 bound_to 7997
  154.4183  140.1144  156.5380 H   0  0  0  0  0  0  0  0  0  0  0  0  # atno 8010 bound_to 7997
  140.6620  143.7279  150.7756 H   0  0  0  0  0  0  0  0  0  0  0  0  # atno 10167 bound_to 10162
  157.5155  130.8530  149.8490 H   0  0  0  0  0  0  0  0  0  0  0  0  # atno 10718 bound_to 10713
  152.9813  135.5720  154.5023 H   0  0  0  0  0  0  0  0  0  0  0  0  # atno 10763 bound_to 10752
  154.4541  135.2779  155.1762 H   0  0  0  0  0  0  0  0  0  0  0  0  # atno 10764 bound_to 10752
  154.3378  135.6236  153.5635 H   0  0  0  0  0  0  0  0  0  0  0  0  # atno 10765 bound_to 10752
  140.2075  134.3795  155.8065 H   0  0  0  0  0  0  0  0  0  0  0  0  # atno 11005 bound_to 11000
  144.9964  140.8593  143.5308 LP  0  0  0  0  0  0  0  0  0  0  0  0  # atno 17320 bound_to 7965
  145.1785  139.2365  143.5305 LP  0  0  0  0  0  0  0  0  0  0  0  0  # atno 17321 bound_to 7965
  140.0950  143.4842  152.2458 LP  0  0  0  0  0  0  0  0  0  0  0  0  # atno 17342 bound_to 10162
  139.5856  144.7530  151.3527 LP  0  0  0  0  0  0  0  0  0  0  0  0  # atno 17343 bound_to 10162
  156.0318  130.3762  150.1668 LP  0  0  0  0  0  0  0  0  0  0  0  0  # atno 17370 bound_to 10713
  156.9857  130.9878  151.3427 LP  0  0  0  0  0  0  0  0  0  0  0  0  # atno 17371 bound_to 10713
  141.2227  133.7125  156.8362 LP  0  0  0  0  0  0  0  0  0  0  0  0  # atno 17394 bound_to 11000
  140.1987  134.8913  157.3144 LP  0  0  0  0  0  0  0  0  0  0  0  0  # atno 17395 bound_to 11000

$$$$
