AV-unprocessed.smi:389|AV-procd|sdf|2477|dock2
  -GOLD-   2262022413D 1   1.00000     0.00000
 Structure written by MMmdl.
 33 33  0  0  0  0  0  0  0  0  2 V2000
  152.3407  143.4503  161.4433 C   0  0  0  0  0  0  0  0  0  0  0  0
  152.3809  144.0803  160.0408 C   0  0  0  0  0  0  0  0  0  0  0  0
  151.9338  145.5491  160.1015 C   0  0  0  0  0  0  0  0  0  0  0  0
  151.5374  143.2945  159.0163 C   0  0  0  0  0  0  0  0  0  0  0  0
  151.5273  143.9147  157.6061 C   0  0  0  0  0  0  0  0  0  0  0  0
  150.8573  143.0501  156.6420 N   0  0  0  0  0  0  0  0  0  0  0  0
  151.0465  141.7265  156.5307 C   0  0  0  0  0  0  0  0  0  0  0  0
  151.8376  141.0978  157.2355 O   0  0  0  0  0  0  0  0  0  0  0  0
  150.2339  141.0219  155.4353 C   0  0  0  0  0  0  0  0  0  0  0  0
  150.5309  139.5845  155.3263 N   0  0  0  0  0  0  0  0  0  0  0  0
  149.4656  138.6831  155.4984 C   0  0  0  0  0  0  0  0  0  0  0  0
  149.6410  137.3508  155.4114 C   0  0  0  0  0  0  0  0  0  0  0  0
  150.9800  136.8479  155.1304 C   0  0  0  0  0  0  0  0  0  0  0  0
  151.1598  135.6341  155.0527 O   0  0  0  0  0  0  0  0  0  0  0  0
  151.9799  137.7628  154.9656 N   0  5  0  0  0  0  0  0  0  0  0  0
  151.7859  139.1156  155.0531 C   0  0  0  0  0  0  0  0  0  0  0  0
  152.7016  139.9242  154.8965 O   0  0  0  0  0  0  0  0  0  0  0  0
  151.3194  143.3904  161.8209 H   0  0  0  0  0  0  0  0  0  0  0  0
  152.9217  144.0389  162.1538 H   0  0  0  0  0  0  0  0  0  0  0  0
  152.7585  142.4440  161.4464 H   0  0  0  0  0  0  0  0  0  0  0  0
  153.4170  144.0740  159.6996 H   0  0  0  0  0  0  0  0  0  0  0  0
  150.9002  145.6359  160.4381 H   0  0  0  0  0  0  0  0  0  0  0  0
  152.0062  146.0243  159.1229 H   0  0  0  0  0  0  0  0  0  0  0  0
  152.5569  146.1218  160.7890 H   0  0  0  0  0  0  0  0  0  0  0  0
  151.8891  142.2631  158.9632 H   0  0  0  0  0  0  0  0  0  0  0  0
  150.5103  143.2420  159.3800 H   0  0  0  0  0  0  0  0  0  0  0  0
  151.0494  144.8958  157.6208 H   0  0  0  0  0  0  0  0  0  0  0  0
  152.5455  144.0691  157.2507 H   0  0  0  0  0  0  0  0  0  0  0  0
  150.1904  143.4866  156.0221 H   0  0  0  0  0  0  0  0  0  0  0  0
  149.1681  141.1728  155.6171 H   0  0  0  0  0  0  0  0  0  0  0  0
  150.4358  141.5225  154.4875 H   0  0  0  0  0  0  0  0  0  0  0  0
  148.5061  139.1380  155.6957 H   0  0  0  0  0  0  0  0  0  0  0  0
  148.8111  136.6720  155.5422 H   0  0  0  0  0  0  0  0  0  0  0  0
  1  2  1  0  0  0  0
  1 18  1  0  0  0  0
  1 19  1  0  0  0  0
  1 20  1  0  0  0  0
  2  3  1  0  0  0  0
  2  4  1  0  0  0  0
  2 21  1  0  0  0  0
  3 22  1  0  0  0  0
  3 23  1  0  0  0  0
  3 24  1  0  0  0  0
  4  5  1  0  0  0  0
  4 25  1  0  0  0  0
  4 26  1  0  0  0  0
  5  6  1  0  0  0  0
  5 27  1  0  0  0  0
  5 28  1  0  0  0  0
  6  7  1  0  0  0  0
  6 29  1  0  0  0  0
  7  8  2  0  0  0  0
  7  9  1  0  0  0  0
  9 10  1  0  0  0  0
  9 30  1  0  0  0  0
  9 31  1  0  0  0  0
 10 16  1  0  0  0  0
 10 11  1  0  0  0  0
 11 12  2  0  0  0  0
 11 32  1  0  0  0  0
 12 13  1  0  0  0  0
 12 33  1  0  0  0  0
 13 14  2  0  0  0  0
 13 15  1  0  0  0  0
 15 16  1  0  0  0  0
 16 17  2  0  0  0  0
M  CHG  1  15  -1
M  END
> <s_m_source_file>
AV-unprocessed.smi

> <i_m_source_file_index>
389

> <i_lp_mmshare_version>
43012

> <i_f3d_flags>
0

> <s_epik_input>
W0NIM11bQ0hdKFtDSDNdKVtDSDJdW0NIMl1bTkhdQyg9TylbQ0gyXW4xW2NIXVtjSF1jKD1PKVtuSF1jMT1P

> <s_epik_cmdline>
J2VwaWtfcHl0aG9uJywgJy1waCcsICc3LjAnLCAnLXRuJywgJzgnLCAnLW1hJywgJzIwMCcsICctbWV0YWxfYmluZGluZycsICctaW1hZScsICc8aW5maWxlLm1hZT4nLCAnLW9tYWUnLCAnPG91dGZpbGUubWFlPic=

> <r_lp_tautomer_probability>
0.999537

> <r_epik_Ionization_Penalty>
3.12283

> <r_epik_Ionization_Penalty_Charging>
2.83566e-08

> <r_epik_Ionization_Penalty_Neutral>
3.12283

> <r_epik_State_Penalty>
3.12192

> <r_epik_Charging_Adjusted_Penalty>
3.12192

> <i_epik_Tot_Q>
-1

> <i_epik_Tot_abs_Q>
1

> <r_epik_Metal_State_Penalty>
0.463748

> <b_epik_Metal_Only>
1

> <s_lp_Force_Field>
OPLS_2005

> <r_lp_Energy>
12.9702

> <b_lp_Chiralities_Consistent>
1

> <s_lp_Variant>
AV-unprocessed.smi:389-2

> <Gold.Version>
5.8.1

> <Gold.Id.Protein>
6NUR|6NUR_protein|mol2

> <Gold.PLP.Fitness>
46.8798

> <Gold.PLP.PLP>
-37.1056

> <Gold.PLP.part.hbond>
-4.3468

> <Gold.PLP.part.metal>
0.0000

> <Gold.PLP.part.buried>
-4.1321

> <Gold.PLP.part.nonpolar>
-29.5483

> <Gold.PLP.part.repulsive>
0.2782

> <Gold.PLP.ligand.clash>
0.0000

> <Gold.PLP.ligand.torsion>
0.1176

> <Gold.PLP.Chemscore.Hbond>
3.3328

> <Gold.PLP.Chemscore.CHOScore>
0.0000

> <Gold.PLP.Chemscore.Metal>
0.0000

> <Gold.Chemscore.Hbonds>
donor molecule, donor type, donor heavy atom, donor atom, acceptor molecule, acceptor atom, score
      L1  H     6    29       P1  8028  1.00
      P1  H  7989  7998       L1    17  0.29
      P1  H  7997  8009       L1    17  1.00
      P1  H 10752 10765       L1    14  1.00

> <Gold.PLP.Chemscore.Internal.Correction>
0.0110

> <Gold.Rescore>
     Score         DG    S(hbond)    S(metal)    S(lipo)     H(rot)  DE(clash)    DE(int)     intcor
     11.92     -17.22       2.72        0.00      70.46       2.18       0.17       5.13       ----

> <Gold.Chemscore.Fitness>
11.9200

> <Gold.Chemscore.DG>
-17.2155

> <Gold.Chemscore.ZeroCoef>
-5.4800

> <Gold.Chemscore.Hbond>
2.7190

> <Gold.Chemscore.Metal>
0.0000

> <Gold.Chemscore.Lipo>
70.4583

> <Gold.Chemscore.Internal_Hbond>
0.0000

> <Gold.Chemscore.DEClash>
0.1703

> <Gold.Chemscore.DEInternal>
5.1253

> <Gold.Chemscore.Rot>
2.1834

> <Gold.Chemscore.Internal.Correction>
   9.000000E+99

> <Gold.Chemscore.Hbonds>
donor molecule, donor type, donor heavy atom, donor atom, acceptor molecule, acceptor atom, score
      L1  H     6    29       P1  8028  0.96
      P1  H  7989  7998       L1    17  0.02
      P1  H  7997  8009       L1    17  0.93
      P1  H 10752 10765       L1    14  0.38

> <Gold.Chemscore.Hbond.Weighted>
-9.0814

> <Gold.Chemscore.Metal.Weighted>
-0.0000

> <Gold.Chemscore.Lipo.Weighted>
-8.2436

> <Gold.Chemscore.Internal_Hbond.Weighted>
0.0000

> <Gold.Chemscore.DEClash.Weighted>
0.1703

> <Gold.Chemscore.DEInternal.Weighted>
5.1253

> <Gold.Chemscore.Rot.Weighted>
5.5895

> <Gold.Chemscore.Internal.Correction.Weighted>
   9.000000E+99

> <Gold.Protein.RotatedTorsions>
[ 6907 6896 6895 6894 ] final -136.32 input  -60.11 | X-H torsion
[ 7974 7965 7964 7962 ] final -125.12 input  175.53 | X-H torsion
[ 8008 7997 7996 7995 ] final -136.54 input   59.86 | X-H torsion
[ 10167 10162 10161 10158 ] final  -36.88 input  -65.29 | X-H torsion
[ 10718 10713 10712 10709 ] final  -84.29 input   66.30 | X-H torsion
[ 10763 10752 10751 10750 ] final -165.07 input  -60.55 | X-H torsion
[ 11005 11000 10999 10996 ] final  -32.67 input  -57.11 | X-H torsion

> <Gold.Protein.ActiveResidues>
 VAL166  LYS551  ARG553  GLY616  TRP617  ASP618  TYR619  PRO620  LYS621  CYS622 
 ASP623  PHE694  ASN695  SER759  ASP760  ASP761  ALA762  ILE779  LEU786  VAL792 
 PHE793  MET794  SER795  GLU796  ALA797  LYS798  CYS799  TRP800  GLU811  SER814 

> <Gold.Protein.RotatedAtoms>
  151.0087  133.5986  159.2685 H   0  0  0  0  0  0  0  0  0  0  0  0  # atno 6907 bound_to 6896
  151.3146  135.0802  159.9294 H   0  0  0  0  0  0  0  0  0  0  0  0  # atno 6908 bound_to 6896
  152.5293  133.9745  159.7832 H   0  0  0  0  0  0  0  0  0  0  0  0  # atno 6909 bound_to 6896
  145.0009  140.7820  143.4496 H   0  0  0  0  0  0  0  0  0  0  0  0  # atno 7974 bound_to 7965
  155.3969  140.0503  157.3038 H   0  0  0  0  0  0  0  0  0  0  0  0  # atno 8008 bound_to 7997
  154.5009  140.2156  155.9309 H   0  0  0  0  0  0  0  0  0  0  0  0  # atno 8009 bound_to 7997
  156.1466  140.3144  155.8586 H   0  0  0  0  0  0  0  0  0  0  0  0  # atno 8010 bound_to 7997
  140.7132  143.3379  151.2422 H   0  0  0  0  0  0  0  0  0  0  0  0  # atno 10167 bound_to 10162
  156.0008  130.4693  150.4387 H   0  0  0  0  0  0  0  0  0  0  0  0  # atno 10718 bound_to 10713
  154.6967  135.2980  154.9401 H   0  0  0  0  0  0  0  0  0  0  0  0  # atno 10763 bound_to 10752
  154.0346  135.6665  153.4788 H   0  0  0  0  0  0  0  0  0  0  0  0  # atno 10764 bound_to 10752
  153.0651  135.5093  154.8089 H   0  0  0  0  0  0  0  0  0  0  0  0  # atno 10765 bound_to 10752
  140.9571  133.7186  156.1311 H   0  0  0  0  0  0  0  0  0  0  0  0  # atno 11005 bound_to 11000
  145.2154  139.2184  143.5121 LP  0  0  0  0  0  0  0  0  0  0  0  0  # atno 17320 bound_to 7965
  146.3452  140.2001  142.8589 LP  0  0  0  0  0  0  0  0  0  0  0  0  # atno 17321 bound_to 7965
  139.6879  143.9743  152.2843 LP  0  0  0  0  0  0  0  0  0  0  0  0  # atno 17342 bound_to 10162
  139.9394  144.6691  150.8281 LP  0  0  0  0  0  0  0  0  0  0  0  0  # atno 17343 bound_to 10162
  157.2430  131.0529  151.2425 LP  0  0  0  0  0  0  0  0  0  0  0  0  # atno 17370 bound_to 10713
  157.3602  130.7127  149.6497 LP  0  0  0  0  0  0  0  0  0  0  0  0  # atno 17371 bound_to 10713
  140.7520  134.4034  157.5540 LP  0  0  0  0  0  0  0  0  0  0  0  0  # atno 17394 bound_to 11000
  139.8866  134.8906  156.2577 LP  0  0  0  0  0  0  0  0  0  0  0  0  # atno 17395 bound_to 11000

$$$$
