AV-unprocessed.smi:49|AV-procd|sdf|476|dock4
  -GOLD-   2262016343D 1   1.00000     0.00000
 Structure written by MMmdl.
 27 28  0  0  0  0  0  0  0  0  1 V2000
  152.5006  142.9825  161.7972 C   0  0  0  0  0  0  0  0  0  0  0  0
  152.1464  144.1351  160.8508 C   0  0  0  0  0  0  0  0  0  0  0  0
  151.4999  143.6564  159.5932 C   0  0  0  0  0  0  0  0  0  0  0  0
  151.2467  142.3355  159.3491 N   0  0  0  0  0  0  0  0  0  0  0  0
  150.7207  142.4167  158.1299 C   0  0  0  0  0  0  0  0  0  0  0  0
  150.2416  141.2629  157.3044 C   0  0  1  0  0  0  0  0  0  0  0  0
  149.5705  141.7040  155.9955 C   0  0  0  0  0  0  0  0  0  0  0  0
  149.8678  140.5433  155.0571 C   0  0  1  0  0  0  0  0  0  0  0  0
  149.8025  140.9045  153.6941 O   0  0  0  0  0  0  0  0  0  0  0  0
  151.2765  140.1453  155.4857 C   0  0  0  0  0  0  0  0  0  0  0  0
  151.3115  140.3281  156.9342 N   0  0  0  0  0  0  0  0  0  0  0  0
  150.6810  143.6717  157.6772 N   0  0  0  0  0  0  0  0  0  0  0  0
  151.1909  144.5019  158.6112 N   0  0  0  0  0  0  0  0  0  0  0  0
  149.5050  140.7137  157.8922 H   0  0  0  0  0  0  0  0  0  0  0  0
  149.1747  139.7225  155.2478 H   0  0  0  0  0  0  0  0  0  0  0  0
  150.3389  143.9918  156.7826 H   0  0  0  0  0  0  0  0  0  0  0  0
  152.9747  143.3566  162.7045 H   0  0  0  0  0  0  0  0  0  0  0  0
  153.1907  142.2832  161.3244 H   0  0  0  0  0  0  0  0  0  0  0  0
  151.6091  142.4277  162.0911 H   0  0  0  0  0  0  0  0  0  0  0  0
  151.4745  144.8325  161.3526 H   0  0  0  0  0  0  0  0  0  0  0  0
  153.0459  144.6988  160.6004 H   0  0  0  0  0  0  0  0  0  0  0  0
  148.5066  141.9130  156.1096 H   0  0  0  0  0  0  0  0  0  0  0  0
  150.0505  142.6078  155.6145 H   0  0  0  0  0  0  0  0  0  0  0  0
  149.5564  140.1427  153.1922 H   0  0  0  0  0  0  0  0  0  0  0  0
  151.5328  139.1262  155.1958 H   0  0  0  0  0  0  0  0  0  0  0  0
  152.0036  140.8137  155.0226 H   0  0  0  0  0  0  0  0  0  0  0  0
  151.1240  139.4345  157.3768 H   0  0  0  0  0  0  0  0  0  0  0  0
  1  2  1  0  0  0  0
  1 17  1  0  0  0  0
  1 18  1  0  0  0  0
  1 19  1  0  0  0  0
  2 20  1  0  0  0  0
  2 21  1  0  0  0  0
  2  3  1  0  0  0  0
  3  4  1  0  0  0  0
  3 13  2  0  0  0  0
  4  5  2  0  0  0  0
  5  6  1  0  0  0  0
  5 12  1  0  0  0  0
  6 14  1  0  0  0  0
  6 11  1  0  0  0  0
  6  7  1  0  0  0  0
  7  8  1  0  0  0  0
  7 22  1  0  0  0  0
  7 23  1  0  0  0  0
  8 15  1  0  0  0  0
  8  9  1  0  0  0  0
  8 10  1  0  0  0  0
  9 24  1  0  0  0  0
 10 11  1  0  0  0  0
 10 25  1  0  0  0  0
 10 26  1  0  0  0  0
 11 27  1  0  0  0  0
 12 13  1  0  0  0  0
 12 16  1  0  0  0  0
M  END
> <s_m_source_file>
AV-unprocessed.smi

> <i_m_source_file_index>
49

> <i_lp_mmshare_version>
43012

> <i_f3d_flags>
0

> <s_epik_input>
W0NIM11bQ0gyXWMxbmMobltuSF0xKVtDQEBIXTJbQ0gyXVtDQEBIXShbT0hdKVtDSDJdW05IXTI=

> <s_epik_cmdline>
J2VwaWtfcHl0aG9uJywgJy1waCcsICc3LjAnLCAnLXRuJywgJzgnLCAnLW1hJywgJzIwMCcsICctbWV0YWxfYmluZGluZycsICctaW1hZScsICc8aW5maWxlLm1hZT4nLCAnLW9tYWUnLCAnPG91dGZpbGUubWFlPic=

> <r_epik_Ionization_Penalty>
1.31544

> <r_epik_Ionization_Penalty_Charging>
0

> <r_epik_Ionization_Penalty_Neutral>
1.31544

> <r_epik_State_Penalty>
2.06074

> <r_epik_Charging_Adjusted_Penalty>
2.06074

> <i_epik_Tot_Q>
0

> <i_epik_Tot_abs_Q>
0

> <r_epik_Metal_State_Penalty>
2.32913

> <b_epik_Metal_Only>
0

> <s_lp_Force_Field>
OPLS_2005

> <r_lp_Energy>
18.1426

> <b_lp_Chiralities_Consistent>
1

> <s_lp_Variant>
AV-unprocessed.smi:49-14

> <Gold.Version>
5.8.1

> <Gold.Id.Protein>
6NUR|6NUR_protein|mol2

> <Gold.PLP.Fitness>
35.3371

> <Gold.PLP.PLP>
-27.2144

> <Gold.PLP.part.hbond>
-3.9022

> <Gold.PLP.part.metal>
0.0000

> <Gold.PLP.part.buried>
-1.4726

> <Gold.PLP.part.nonpolar>
-20.5501

> <Gold.PLP.part.repulsive>
0.1333

> <Gold.PLP.ligand.clash>
0.0000

> <Gold.PLP.ligand.torsion>
0.0649

> <Gold.PLP.Chemscore.Hbond>
2.7478

> <Gold.PLP.Chemscore.CHOScore>
0.0000

> <Gold.PLP.Chemscore.Metal>
0.0000

> <Gold.Chemscore.Hbonds>
donor molecule, donor type, donor heavy atom, donor atom, acceptor molecule, acceptor atom, score
      L1  H     9    24       P1  7957  0.48
      L1  H    12    16       P1  8028  1.00
      P1  H  7989  7998       L1     9  0.29
      P1  H  8011  8017       L1     9  0.99

> <Gold.PLP.Chemscore.Internal.Correction>
0.0090

> <Gold.Rescore>
     Score         DG    S(hbond)    S(metal)    S(lipo)     H(rot)  DE(clash)    DE(int)     intcor
     13.61     -13.70       2.15        0.00      49.45       1.86       0.07       0.01       ----

> <Gold.Chemscore.Fitness>
13.6090

> <Gold.Chemscore.DG>
-13.6961

> <Gold.Chemscore.ZeroCoef>
-5.4800

> <Gold.Chemscore.Hbond>
2.1499

> <Gold.Chemscore.Metal>
0.0000

> <Gold.Chemscore.Lipo>
49.4546

> <Gold.Chemscore.Internal_Hbond>
0.0000

> <Gold.Chemscore.DEClash>
0.0726

> <Gold.Chemscore.DEInternal>
0.0144

> <Gold.Chemscore.Rot>
1.8558

> <Gold.Chemscore.Internal.Correction>
   9.000000E+99

> <Gold.Chemscore.Hbonds>
donor molecule, donor type, donor heavy atom, donor atom, acceptor molecule, acceptor atom, score
      L1  H     9    24       P1  7957  0.44
      L1  H    12    16       P1  8028  0.93
      P1  H  7989  7998       L1     9  0.01
      P1  H  8011  8017       L1     9  0.39

> <Gold.Chemscore.Hbond.Weighted>
-7.1806

> <Gold.Chemscore.Metal.Weighted>
-0.0000

> <Gold.Chemscore.Lipo.Weighted>
-5.7862

> <Gold.Chemscore.Internal_Hbond.Weighted>
0.0000

> <Gold.Chemscore.DEClash.Weighted>
0.0726

> <Gold.Chemscore.DEInternal.Weighted>
0.0144

> <Gold.Chemscore.Rot.Weighted>
4.7507

> <Gold.Chemscore.Internal.Correction.Weighted>
   9.000000E+99

> <Gold.Protein.RotatedTorsions>
[ 6907 6896 6895 6894 ] final  -87.00 input  -60.11 | X-H torsion
[ 7974 7965 7964 7962 ] final  143.60 input  175.53 | X-H torsion
[ 8008 7997 7996 7995 ] final  -26.78 input   59.86 | X-H torsion
[ 10167 10162 10161 10158 ] final -122.36 input  -65.29 | X-H torsion
[ 10718 10713 10712 10709 ] final  -42.44 input   66.30 | X-H torsion
[ 10763 10752 10751 10750 ] final -128.09 input  -60.55 | X-H torsion
[ 11005 11000 10999 10996 ] final   23.46 input  -57.11 | X-H torsion

> <Gold.Protein.ActiveResidues>
 VAL166  LYS551  ARG553  GLY616  TRP617  ASP618  TYR619  PRO620  LYS621  CYS622 
 ASP623  PHE694  ASN695  SER759  ASP760  ASP761  ALA762  ILE779  LEU786  VAL792 
 PHE793  MET794  SER795  GLU796  ALA797  LYS798  CYS799  TRP800  GLU811  SER814 

> <Gold.Protein.RotatedAtoms>
  150.6866  134.2964  159.4687 H   0  0  0  0  0  0  0  0  0  0  0  0  # atno 6907 bound_to 6896
  152.0864  134.9434  160.0582 H   0  0  0  0  0  0  0  0  0  0  0  0  # atno 6908 bound_to 6896
  152.0767  133.4098  159.4520 H   0  0  0  0  0  0  0  0  0  0  0  0  # atno 6909 bound_to 6896
  144.8907  139.5563  143.5800 H   0  0  0  0  0  0  0  0  0  0  0  0  # atno 7974 bound_to 7965
  154.4408  140.1890  156.0829 H   0  0  0  0  0  0  0  0  0  0  0  0  # atno 8008 bound_to 7997
  156.0425  140.3318  155.7233 H   0  0  0  0  0  0  0  0  0  0  0  0  # atno 8009 bound_to 7997
  155.5679  140.0610  157.2804 H   0  0  0  0  0  0  0  0  0  0  0  0  # atno 8010 bound_to 7997
  140.0151  143.5401  152.2246 H   0  0  0  0  0  0  0  0  0  0  0  0  # atno 10167 bound_to 10162
  156.2596  130.4195  149.8557 H   0  0  0  0  0  0  0  0  0  0  0  0  # atno 10718 bound_to 10713
  154.8755  135.3940  154.3700 H   0  0  0  0  0  0  0  0  0  0  0  0  # atno 10763 bound_to 10752
  153.4461  135.7027  153.6143 H   0  0  0  0  0  0  0  0  0  0  0  0  # atno 10764 bound_to 10752
  153.4704  135.3792  155.2356 H   0  0  0  0  0  0  0  0  0  0  0  0  # atno 10765 bound_to 10752
  140.3694  134.2039  155.7667 H   0  0  0  0  0  0  0  0  0  0  0  0  # atno 11005 bound_to 11000
  146.3052  139.7555  142.9062 LP  0  0  0  0  0  0  0  0  0  0  0  0  # atno 17320 bound_to 7965
  145.3789  141.0355  143.3189 LP  0  0  0  0  0  0  0  0  0  0  0  0  # atno 17321 bound_to 7965
  139.6178  144.7623  151.2808 LP  0  0  0  0  0  0  0  0  0  0  0  0  # atno 17342 bound_to 10162
  140.7365  143.6704  150.8086 LP  0  0  0  0  0  0  0  0  0  0  0  0  # atno 17343 bound_to 10162
  156.6077  130.8573  151.3447 LP  0  0  0  0  0  0  0  0  0  0  0  0  # atno 17370 bound_to 10713
  157.7245  130.9604  150.1578 LP  0  0  0  0  0  0  0  0  0  0  0  0  # atno 17371 bound_to 10713
  141.1959  133.8094  157.0694 LP  0  0  0  0  0  0  0  0  0  0  0  0  # atno 17394 bound_to 11000
  140.0564  134.9778  157.1227 LP  0  0  0  0  0  0  0  0  0  0  0  0  # atno 17395 bound_to 11000

$$$$
