AV-unprocessed.smi:325|AV-procd|sdf|2342|dock4
  -GOLD-   2262022253D 1   1.00000     0.00000
 Structure written by MMmdl.
 46 47  0  0  0  0  0  0  0  0  1 V2000
  148.9767  141.7535  154.6473 C   0  0  0  0  0  0  0  0  0  0  0  0
  150.0590  141.3725  155.6420 C   0  0  0  0  0  0  0  0  0  0  0  0
  150.2465  142.2844  156.6644 N   0  0  0  0  0  0  0  0  0  0  0  0
  151.2216  142.0393  157.6237 C   0  0  0  0  0  0  0  0  0  0  0  0
  151.3334  143.0282  158.6009 N   0  0  0  0  0  0  0  0  0  0  0  0
  151.2459  144.4390  158.2224 C   0  0  0  0  0  0  0  0  0  0  0  0
  150.8979  145.3210  159.4334 C   0  0  0  0  0  0  0  0  0  0  0  0
  151.8507  145.1121  160.4669 O   0  0  0  0  0  0  0  0  0  0  0  0
  151.8471  143.7621  160.9118 C   0  0  0  0  0  0  0  0  0  0  0  0
  152.2224  142.8318  159.7462 C   0  0  0  0  0  0  0  0  0  0  0  0
  151.9630  140.9689  157.6226 N   0  0  0  0  0  0  0  0  0  0  0  0
  151.8104  139.9988  156.6209 C   0  0  0  0  0  0  0  0  0  0  0  0
  152.5037  138.9828  156.6257 O   0  0  0  0  0  0  0  0  0  0  0  0
  150.7940  140.2370  155.5750 C   0  0  0  0  0  0  0  0  0  0  0  0
  150.6354  139.2045  154.4623 C   0  0  0  0  0  0  0  0  0  0  0  0
  149.2368  138.5585  154.4632 C   0  0  0  0  0  0  0  0  0  0  0  0
  149.1370  137.3452  155.3929 C   0  0  0  0  0  0  0  0  0  0  0  0
  149.1400  137.4898  156.6159 O   0  0  0  0  0  0  0  0  0  0  0  0
  149.0446  136.1473  154.7938 N   0  0  0  0  0  0  0  0  0  0  0  0
  148.9280  134.8635  155.4802 C   0  0  0  0  0  0  0  0  0  0  0  0
  150.0865  134.6733  156.4726 C   0  0  0  0  0  0  0  0  0  0  0  0
  148.8803  133.7330  154.4433 C   0  0  0  0  0  0  0  0  0  0  0  0
  149.6655  143.1101  156.6740 H   0  0  0  0  0  0  0  0  0  0  0  0
  148.2331  140.9599  154.5716 H   0  0  0  0  0  0  0  0  0  0  0  0
  149.4090  141.9181  153.6601 H   0  0  0  0  0  0  0  0  0  0  0  0
  148.4614  142.6681  154.9436 H   0  0  0  0  0  0  0  0  0  0  0  0
  150.4984  144.5943  157.4437 H   0  0  0  0  0  0  0  0  0  0  0  0
  152.2039  144.7486  157.8023 H   0  0  0  0  0  0  0  0  0  0  0  0
  150.9114  146.3730  159.1474 H   0  0  0  0  0  0  0  0  0  0  0  0
  149.8927  145.1024  159.7977 H   0  0  0  0  0  0  0  0  0  0  0  0
  152.5663  143.6543  161.7237 H   0  0  0  0  0  0  0  0  0  0  0  0
  150.8680  143.5019  161.3173 H   0  0  0  0  0  0  0  0  0  0  0  0
  153.2504  143.0217  159.4342 H   0  0  0  0  0  0  0  0  0  0  0  0
  152.1787  141.7961  160.0862 H   0  0  0  0  0  0  0  0  0  0  0  0
  151.4098  138.4428  154.5678 H   0  0  0  0  0  0  0  0  0  0  0  0
  150.8234  139.6693  153.4945 H   0  0  0  0  0  0  0  0  0  0  0  0
  148.4875  139.2873  154.7742 H   0  0  0  0  0  0  0  0  0  0  0  0
  148.9756  138.2556  153.4480 H   0  0  0  0  0  0  0  0  0  0  0  0
  149.0471  136.1236  153.7844 H   0  0  0  0  0  0  0  0  0  0  0  0
  147.9882  134.8441  156.0349 H   0  0  0  0  0  0  0  0  0  0  0  0
  150.0051  133.7171  156.9900 H   0  0  0  0  0  0  0  0  0  0  0  0
  150.0906  135.4557  157.2322 H   0  0  0  0  0  0  0  0  0  0  0  0
  151.0518  134.6955  155.9658 H   0  0  0  0  0  0  0  0  0  0  0  0
  148.7535  132.7642  154.9270 H   0  0  0  0  0  0  0  0  0  0  0  0
  149.7983  133.6931  153.8555 H   0  0  0  0  0  0  0  0  0  0  0  0
  148.0468  133.8669  153.7527 H   0  0  0  0  0  0  0  0  0  0  0  0
  1 24  1  0  0  0  0
  1 25  1  0  0  0  0
  1 26  1  0  0  0  0
  1  2  1  0  0  0  0
  2 14  2  0  0  0  0
  2  3  1  0  0  0  0
  3 23  1  0  0  0  0
  3  4  1  0  0  0  0
  4  5  1  0  0  0  0
  4 11  2  0  0  0  0
  5 10  1  0  0  0  0
  5  6  1  0  0  0  0
  6  7  1  0  0  0  0
  6 27  1  0  0  0  0
  6 28  1  0  0  0  0
  7  8  1  0  0  0  0
  7 29  1  0  0  0  0
  7 30  1  0  0  0  0
  8  9  1  0  0  0  0
  9 10  1  0  0  0  0
  9 31  1  0  0  0  0
  9 32  1  0  0  0  0
 10 33  1  0  0  0  0
 10 34  1  0  0  0  0
 11 12  1  0  0  0  0
 12 13  2  0  0  0  0
 12 14  1  0  0  0  0
 14 15  1  0  0  0  0
 15 16  1  0  0  0  0
 15 35  1  0  0  0  0
 15 36  1  0  0  0  0
 16 17  1  0  0  0  0
 16 37  1  0  0  0  0
 16 38  1  0  0  0  0
 17 18  2  0  0  0  0
 17 19  1  0  0  0  0
 19 20  1  0  0  0  0
 19 39  1  0  0  0  0
 20 21  1  0  0  0  0
 20 22  1  0  0  0  0
 20 40  1  0  0  0  0
 21 41  1  0  0  0  0
 21 42  1  0  0  0  0
 21 43  1  0  0  0  0
 22 44  1  0  0  0  0
 22 45  1  0  0  0  0
 22 46  1  0  0  0  0
M  END
> <s_m_source_file>
AV-unprocessed.smi

> <i_m_source_file_index>
325

> <i_lp_mmshare_version>
43012

> <i_f3d_flags>
0

> <s_epik_input>
W0NIMl0xW0NIMl1PW0NIMl1bQ0gyXU4xYyhuYzJbQ0gzXSlbbkhdYyg9TyljMltDSDJdW0NIMl1DKD1PKVtOSF1bQ0hdKFtDSDNdKVtDSDNd

> <s_epik_cmdline>
J2VwaWtfcHl0aG9uJywgJy1waCcsICc3LjAnLCAnLXRuJywgJzgnLCAnLW1hJywgJzIwMCcsICctbWV0YWxfYmluZGluZycsICctaW1hZScsICc8aW5maWxlLm1hZT4nLCAnLW9tYWUnLCAnPG91dGZpbGUubWFlPic=

> <r_lp_tautomer_probability>
0.108306

> <r_epik_Ionization_Penalty>
0.0738532

> <r_epik_Ionization_Penalty_Charging>
0.0614224

> <r_epik_Ionization_Penalty_Neutral>
0.0124309

> <r_epik_State_Penalty>
1.70966

> <r_epik_Charging_Adjusted_Penalty>
1.77108

> <i_epik_Tot_Q>
0

> <i_epik_Tot_abs_Q>
0

> <r_epik_Metal_State_Penalty>
2.67951

> <b_epik_Metal_Only>
0

> <s_lp_Force_Field>
OPLS_2005

> <r_lp_Energy>
25.9906

> <b_lp_Chiralities_Consistent>
1

> <s_lp_Variant>
AV-unprocessed.smi:325-2

> <Gold.Version>
5.8.1

> <Gold.Id.Protein>
6NUR|6NUR_protein|mol2

> <Gold.PLP.Fitness>
50.6497

> <Gold.PLP.PLP>
-43.5603

> <Gold.PLP.part.hbond>
-3.0000

> <Gold.PLP.part.metal>
0.0000

> <Gold.PLP.part.buried>
-1.5573

> <Gold.PLP.part.nonpolar>
-37.8426

> <Gold.PLP.part.repulsive>
0.2540

> <Gold.PLP.ligand.clash>
0.0000

> <Gold.PLP.ligand.torsion>
0.6214

> <Gold.PLP.Chemscore.Hbond>
2.6650

> <Gold.PLP.Chemscore.CHOScore>
0.0000

> <Gold.PLP.Chemscore.Metal>
0.0000

> <Gold.Chemscore.Hbonds>
donor molecule, donor type, donor heavy atom, donor atom, acceptor molecule, acceptor atom, score
      L1  H     3    23       P1  8028  0.92
      L1  H    19    39       P1  7948  1.00
      P1  H  7997  8008       L1    13  0.48

> <Gold.PLP.Chemscore.Internal.Correction>
0.3371

> <Gold.Rescore>
     Score         DG    S(hbond)    S(metal)    S(lipo)     H(rot)  DE(clash)    DE(int)     intcor
     16.92     -18.66       1.94        0.00      94.74       1.71       0.04       1.71       ----

> <Gold.Chemscore.Fitness>
16.9159

> <Gold.Chemscore.DG>
-18.6567

> <Gold.Chemscore.ZeroCoef>
-5.4800

> <Gold.Chemscore.Hbond>
1.9353

> <Gold.Chemscore.Metal>
0.0000

> <Gold.Chemscore.Lipo>
94.7444

> <Gold.Chemscore.Internal_Hbond>
0.0000

> <Gold.Chemscore.DEClash>
0.0352

> <Gold.Chemscore.DEInternal>
1.7056

> <Gold.Chemscore.Rot>
1.7080

> <Gold.Chemscore.Internal.Correction>
   9.000000E+99

> <Gold.Chemscore.Hbonds>
donor molecule, donor type, donor heavy atom, donor atom, acceptor molecule, acceptor atom, score
      L1  H     3    23       P1  8028  0.84
      L1  H    19    39       P1  7948  0.97
      P1  H  7997  8008       L1    13  0.05

> <Gold.Chemscore.Hbond.Weighted>
-6.4640

> <Gold.Chemscore.Metal.Weighted>
-0.0000

> <Gold.Chemscore.Lipo.Weighted>
-11.0851

> <Gold.Chemscore.Internal_Hbond.Weighted>
0.0000

> <Gold.Chemscore.DEClash.Weighted>
0.0352

> <Gold.Chemscore.DEInternal.Weighted>
1.7056

> <Gold.Chemscore.Rot.Weighted>
4.3724

> <Gold.Chemscore.Internal.Correction.Weighted>
   9.000000E+99

> <Gold.Protein.RotatedTorsions>
[ 6907 6896 6895 6894 ] final  -66.89 input  -60.11 | X-H torsion
[ 7974 7965 7964 7962 ] final -106.10 input  175.53 | X-H torsion
[ 8008 7997 7996 7995 ] final  -55.11 input   59.86 | X-H torsion
[ 10167 10162 10161 10158 ] final  -89.29 input  -65.29 | X-H torsion
[ 10718 10713 10712 10709 ] final   48.12 input   66.30 | X-H torsion
[ 10763 10752 10751 10750 ] final   21.09 input  -60.55 | X-H torsion
[ 11005 11000 10999 10996 ] final  -26.24 input  -57.11 | X-H torsion

> <Gold.Protein.ActiveResidues>
 VAL166  LYS551  ARG553  GLY616  TRP617  ASP618  TYR619  PRO620  LYS621  CYS622 
 ASP623  PHE694  ASN695  SER759  ASP760  ASP761  ALA762  ILE779  LEU786  VAL792 
 PHE793  MET794  SER795  GLU796  ALA797  LYS798  CYS799  TRP800  GLU811  SER814 

> <Gold.Protein.RotatedAtoms>
  150.7440  134.5957  159.6010 H   0  0  0  0  0  0  0  0  0  0  0  0  # atno 6907 bound_to 6896
  152.3333  134.7228  160.0293 H   0  0  0  0  0  0  0  0  0  0  0  0  # atno 6908 bound_to 6896
  151.7705  133.3305  159.3479 H   0  0  0  0  0  0  0  0  0  0  0  0  # atno 6909 bound_to 6896
  145.2221  140.9138  143.3253 H   0  0  0  0  0  0  0  0  0  0  0  0  # atno 7974 bound_to 7965
  154.4184  140.1160  156.5423 H   0  0  0  0  0  0  0  0  0  0  0  0  # atno 8008 bound_to 7997
  155.6495  140.3496  155.4724 H   0  0  0  0  0  0  0  0  0  0  0  0  # atno 8009 bound_to 7997
  155.9804  140.1159  157.0721 H   0  0  0  0  0  0  0  0  0  0  0  0  # atno 8010 bound_to 7997
  140.3663  143.2816  151.9554 H   0  0  0  0  0  0  0  0  0  0  0  0  # atno 10167 bound_to 10162
  157.4654  130.8222  149.7930 H   0  0  0  0  0  0  0  0  0  0  0  0  # atno 10718 bound_to 10713
  153.1023  135.6676  153.9649 H   0  0  0  0  0  0  0  0  0  0  0  0  # atno 10763 bound_to 10752
  153.9216  135.3014  155.3449 H   0  0  0  0  0  0  0  0  0  0  0  0  # atno 10764 bound_to 10752
  154.7444  135.5064  153.9254 H   0  0  0  0  0  0  0  0  0  0  0  0  # atno 10765 bound_to 10752
  140.9011  133.7523  156.0545 H   0  0  0  0  0  0  0  0  0  0  0  0  # atno 11005 bound_to 11000
  144.9756  139.3835  143.6287 LP  0  0  0  0  0  0  0  0  0  0  0  0  # atno 17320 bound_to 7965
  146.3373  139.8873  142.8814 LP  0  0  0  0  0  0  0  0  0  0  0  0  # atno 17321 bound_to 7965
  139.4808  144.5947  151.7710 LP  0  0  0  0  0  0  0  0  0  0  0  0  # atno 17342 bound_to 10162
  140.5077  144.1072  150.5987 LP  0  0  0  0  0  0  0  0  0  0  0  0  # atno 17343 bound_to 10162
  156.0048  130.3861  150.2472 LP  0  0  0  0  0  0  0  0  0  0  0  0  # atno 17370 bound_to 10713
  157.0652  131.0101  151.3209 LP  0  0  0  0  0  0  0  0  0  0  0  0  # atno 17371 bound_to 10713
  140.8229  134.3268  157.5375 LP  0  0  0  0  0  0  0  0  0  0  0  0  # atno 17394 bound_to 11000
  139.8742  134.9319  156.3541 LP  0  0  0  0  0  0  0  0  0  0  0  0  # atno 17395 bound_to 11000

$$$$
