AV-unprocessed.smi:228|AV-procd|sdf|1746|dock6
  -GOLD-   2262020263D 1   1.00000     0.00000
 Structure written by MMmdl.
 59 62  0  0  0  0  0  0  0  0  1 V2000
  147.1707  140.8405  155.0399 C   0  0  0  0  0  0  0  0  0  0  0  0
  147.9372  139.6230  154.8066 N   0  0  0  0  0  0  0  0  0  0  0  0
  149.3201  139.7583  154.3406 C   0  0  0  0  0  0  0  0  0  0  0  0
  150.3176  140.0111  155.4893 C   0  0  1  0  0  0  0  0  0  0  0  0
  151.6153  139.8398  154.9581 O   0  0  0  0  0  0  0  0  0  0  0  0
  150.2220  141.4395  156.0712 C   0  0  0  0  0  0  0  0  0  0  0  0
  151.2196  141.7819  157.0855 N   0  0  0  0  0  0  0  0  0  0  0  0
  151.0903  140.9733  158.2972 C   0  0  0  0  0  0  0  0  0  0  0  0
  152.1161  141.3768  159.3711 C   0  0  0  0  0  0  0  0  0  0  0  0
  151.9807  142.7624  159.6684 O   0  0  0  0  0  0  0  0  0  0  0  0
  152.1506  143.5870  158.5205 C   0  0  0  0  0  0  0  0  0  0  0  0
  151.1206  143.1920  157.4488 C   0  0  0  0  0  0  0  0  0  0  0  0
  147.2949  138.4254  154.7012 C   0  0  0  0  0  0  0  0  0  0  0  0
  147.2551  137.6220  155.7977 N   0  0  0  0  0  0  0  0  0  0  0  0
  146.6456  136.4349  155.7567 C   0  0  0  0  0  0  0  0  0  0  0  0
  146.0233  135.8543  154.7316 N   0  0  0  0  0  0  0  0  0  0  0  0
  146.0615  136.6432  153.6207 C   0  0  0  0  0  0  0  0  0  0  0  0
  146.6616  137.9328  153.5179 C   0  0  0  0  0  0  0  0  0  0  0  0
  146.4865  138.4177  152.2250 N   0  0  0  0  0  0  0  0  0  0  0  0
  145.8138  137.4838  151.6115 C   0  0  0  0  0  0  0  0  0  0  0  0
  145.5418  136.3681  152.3679 N   0  0  0  0  0  0  0  0  0  0  0  0
  144.7945  135.2127  151.9648 C   0  0  0  0  0  0  0  0  0  0  0  0
  145.3423  133.8019  152.1978 C   0  0  0  0  0  0  0  0  0  0  0  0
  144.7192  133.3269  150.8665 C   0  0  0  0  0  0  0  0  0  0  0  0
  145.6459  132.4871  149.9734 C   0  0  0  0  0  0  0  0  0  0  0  0
  147.0007  132.8497  150.1482 O   0  0  0  0  0  0  0  0  0  0  0  0
  143.3695  132.5788  150.9495 C   0  0  0  0  0  0  0  0  0  0  0  0
  142.8719  132.1756  149.6898 O   0  0  0  0  0  0  0  0  0  0  0  0
  144.6540  134.8242  150.4890 C   0  0  0  0  0  0  0  0  0  0  0  0
  146.4478  140.6986  155.8439 H   0  0  0  0  0  0  0  0  0  0  0  0
  146.6410  141.1414  154.1357 H   0  0  0  0  0  0  0  0  0  0  0  0
  147.8281  141.6602  155.3307 H   0  0  0  0  0  0  0  0  0  0  0  0
  149.5825  138.8239  153.8430 H   0  0  0  0  0  0  0  0  0  0  0  0
  149.4247  140.5253  153.5732 H   0  0  0  0  0  0  0  0  0  0  0  0
  150.1667  139.2540  156.2573 H   0  0  0  0  0  0  0  0  0  0  0  0
  152.2054  139.6377  155.6680 H   0  0  0  0  0  0  0  0  0  0  0  0
  150.2894  142.1462  155.2428 H   0  0  0  0  0  0  0  0  0  0  0  0
  149.2340  141.5927  156.5043 H   0  0  0  0  0  0  0  0  0  0  0  0
  150.0835  141.0752  158.7053 H   0  0  0  0  0  0  0  0  0  0  0  0
  151.2295  139.9176  158.0696 H   0  0  0  0  0  0  0  0  0  0  0  0
  151.9584  140.7995  160.2823 H   0  0  0  0  0  0  0  0  0  0  0  0
  153.1320  141.1691  159.0316 H   0  0  0  0  0  0  0  0  0  0  0  0
  152.0180  144.6302  158.8078 H   0  0  0  0  0  0  0  0  0  0  0  0
  153.1669  143.4858  158.1367 H   0  0  0  0  0  0  0  0  0  0  0  0
  151.2681  143.8131  156.5646 H   0  0  0  0  0  0  0  0  0  0  0  0
  150.1170  143.4095  157.8178 H   0  0  0  0  0  0  0  0  0  0  0  0
  146.6608  135.8687  156.6763 H   0  0  0  0  0  0  0  0  0  0  0  0
  145.5037  137.5841  150.5814 H   0  0  0  0  0  0  0  0  0  0  0  0
  143.8134  135.3235  152.4278 H   0  0  0  0  0  0  0  0  0  0  0  0
  146.4334  133.7754  152.1879 H   0  0  0  0  0  0  0  0  0  0  0  0
  144.9503  133.3093  153.0881 H   0  0  0  0  0  0  0  0  0  0  0  0
  145.5358  131.4220  150.1809 H   0  0  0  0  0  0  0  0  0  0  0  0
  145.3997  132.6225  148.9197 H   0  0  0  0  0  0  0  0  0  0  0  0
  147.5244  132.0630  150.1548 H   0  0  0  0  0  0  0  0  0  0  0  0
  143.4600  131.6863  151.5694 H   0  0  0  0  0  0  0  0  0  0  0  0
  142.6059  133.2038  151.4134 H   0  0  0  0  0  0  0  0  0  0  0  0
  142.1610  132.7501  149.4499 H   0  0  0  0  0  0  0  0  0  0  0  0
  143.7179  135.1419  150.0288 H   0  0  0  0  0  0  0  0  0  0  0  0
  145.5082  135.1471  149.8917 H   0  0  0  0  0  0  0  0  0  0  0  0
  1  2  1  0  0  0  0
  1 30  1  0  0  0  0
  1 31  1  0  0  0  0
  1 32  1  0  0  0  0
  2  3  1  0  0  0  0
  2 13  1  0  0  0  0
  3  4  1  0  0  0  0
  3 33  1  0  0  0  0
  3 34  1  0  0  0  0
  4  5  1  0  0  0  0
  4  6  1  0  0  0  0
  4 35  1  0  0  0  0
  5 36  1  0  0  0  0
  6  7  1  0  0  0  0
  6 37  1  0  0  0  0
  6 38  1  0  0  0  0
  7 12  1  0  0  0  0
  7  8  1  0  0  0  0
  8  9  1  0  0  0  0
  8 39  1  0  0  0  0
  8 40  1  0  0  0  0
  9 10  1  0  0  0  0
  9 41  1  0  0  0  0
  9 42  1  0  0  0  0
 10 11  1  0  0  0  0
 11 12  1  0  0  0  0
 11 43  1  0  0  0  0
 11 44  1  0  0  0  0
 12 45  1  0  0  0  0
 12 46  1  0  0  0  0
 13 18  1  0  0  0  0
 13 14  2  0  0  0  0
 14 15  1  0  0  0  0
 15 16  2  0  0  0  0
 15 47  1  0  0  0  0
 16 17  1  0  0  0  0
 17 21  1  0  0  0  0
 17 18  2  0  0  0  0
 18 19  1  0  0  0  0
 19 20  2  0  0  0  0
 20 21  1  0  0  0  0
 20 48  1  0  0  0  0
 21 22  1  0  0  0  0
 22 29  1  0  0  0  0
 22 23  1  0  0  0  0
 22 49  1  0  0  0  0
 23 24  1  0  0  0  0
 23 50  1  0  0  0  0
 23 51  1  0  0  0  0
 24 25  1  0  0  0  0
 24 27  1  0  0  0  0
 24 29  1  0  0  0  0
 25 26  1  0  0  0  0
 25 52  1  0  0  0  0
 25 53  1  0  0  0  0
 26 54  1  0  0  0  0
 27 28  1  0  0  0  0
 27 55  1  0  0  0  0
 27 56  1  0  0  0  0
 28 57  1  0  0  0  0
 29 58  1  0  0  0  0
 29 59  1  0  0  0  0
M  END
> <s_m_source_file>
AV-unprocessed.smi

> <i_m_source_file_index>
228

> <i_lp_mmshare_version>
43012

> <i_f3d_flags>
0

> <s_epik_input>
W0NIMl0xW0NIMl1PW0NIMl1bQ0gyXU4xW0NIMl1bQ0BASF0oW09IXSlbQ0gyXU4oW0NIM10pYyhuW2NIXW4yKWMoYzIzKW5bY0hdbjNbQ0hdKFtDSDJdNClbQ0gyXUM0KFtDSDJdW09IXSlbQ0gyXVtPSF0=

> <s_epik_cmdline>
J2VwaWtfcHl0aG9uJywgJy1waCcsICc3LjAnLCAnLXRuJywgJzgnLCAnLW1hJywgJzIwMCcsICctbWV0YWxfYmluZGluZycsICctaW1hZScsICc8aW5maWxlLm1hZT4nLCAnLW9tYWUnLCAnPG91dGZpbGUubWFlPic=

> <r_lp_tautomer_probability>
1

> <r_epik_Ionization_Penalty>
0.423559

> <r_epik_Ionization_Penalty_Charging>
0

> <r_epik_Ionization_Penalty_Neutral>
0.423559

> <r_epik_State_Penalty>
0.438466

> <r_epik_Charging_Adjusted_Penalty>
0.438466

> <i_epik_Tot_Q>
0

> <i_epik_Tot_abs_Q>
0

> <r_epik_Metal_State_Penalty>
0.436601

> <b_epik_Metal_Only>
0

> <s_lp_Force_Field>
OPLS_2005

> <r_lp_Energy>
57.656

> <b_lp_Chiralities_Consistent>
1

> <s_lp_Variant>
AV-unprocessed.smi:228-4

> <Gold.Version>
5.8.1

> <Gold.Id.Protein>
6NUR|6NUR_protein|mol2

> <Gold.PLP.Fitness>
54.1705

> <Gold.PLP.PLP>
-45.4762

> <Gold.PLP.part.hbond>
-4.7972

> <Gold.PLP.part.metal>
0.0000

> <Gold.PLP.part.buried>
-5.3339

> <Gold.PLP.part.nonpolar>
-36.7821

> <Gold.PLP.part.repulsive>
0.4428

> <Gold.PLP.ligand.clash>
0.0000

> <Gold.PLP.ligand.torsion>
2.5456

> <Gold.PLP.Chemscore.Hbond>
3.3813

> <Gold.PLP.Chemscore.CHOScore>
0.9304

> <Gold.PLP.Chemscore.Metal>
0.0000

> <Gold.Chemscore.Hbonds>
donor molecule, donor type, donor heavy atom, donor atom, acceptor molecule, acceptor atom, score
      L1  H    26    54       P1 10747  1.00
      L1  H    28    57       P1 10186  1.00
      P1  H  7989  7998       L1     5  1.00
      P1  H 10785 10796       L1    28  0.41
      L1  C    20    48       P1 10171  0.99

> <Gold.PLP.Chemscore.Internal.Correction>
0.8505

> <Gold.Rescore>
     Score         DG    S(hbond)    S(metal)    S(lipo)     H(rot)  DE(clash)    DE(int)     intcor
     12.70     -16.06       3.17        0.00     101.96       4.66       0.90       2.45       ----

> <Gold.Chemscore.Fitness>
12.7013

> <Gold.Chemscore.DG>
-16.0582

> <Gold.Chemscore.ZeroCoef>
-5.4800

> <Gold.Chemscore.Hbond>
3.1672

> <Gold.Chemscore.Metal>
0.0000

> <Gold.Chemscore.Lipo>
101.9607

> <Gold.Chemscore.Internal_Hbond>
0.0000

> <Gold.Chemscore.DEClash>
0.9045

> <Gold.Chemscore.DEInternal>
2.4524

> <Gold.Chemscore.Rot>
4.6600

> <Gold.Chemscore.Internal.Correction>
   9.000000E+99

> <Gold.Chemscore.Hbonds>
donor molecule, donor type, donor heavy atom, donor atom, acceptor molecule, acceptor atom, score
      L1  H    26    54       P1 10747  1.00
      L1  H    28    57       P1 10186  0.93
      P1  H  7989  7998       L1     5  0.49
      P1  H 10785 10796       L1    28  0.41

> <Gold.Chemscore.Hbond.Weighted>
-10.5785

> <Gold.Chemscore.Metal.Weighted>
-0.0000

> <Gold.Chemscore.Lipo.Weighted>
-11.9294

> <Gold.Chemscore.Internal_Hbond.Weighted>
0.0000

> <Gold.Chemscore.DEClash.Weighted>
0.9045

> <Gold.Chemscore.DEInternal.Weighted>
2.4524

> <Gold.Chemscore.Rot.Weighted>
11.9297

> <Gold.Chemscore.Internal.Correction.Weighted>
   9.000000E+99

> <Gold.Protein.RotatedTorsions>
[ 6907 6896 6895 6894 ] final -136.31 input  -60.11 | X-H torsion
[ 7974 7965 7964 7962 ] final  -70.83 input  175.53 | X-H torsion
[ 8008 7997 7996 7995 ] final  167.27 input   59.86 | X-H torsion
[ 10167 10162 10161 10158 ] final  -60.46 input  -65.29 | X-H torsion
[ 10718 10713 10712 10709 ] final  121.29 input   66.30 | X-H torsion
[ 10763 10752 10751 10750 ] final -139.15 input  -60.55 | X-H torsion
[ 11005 11000 10999 10996 ] final -162.18 input  -57.11 | X-H torsion

> <Gold.Protein.ActiveResidues>
 VAL166  LYS551  ARG553  GLY616  TRP617  ASP618  TYR619  PRO620  LYS621  CYS622 
 ASP623  PHE694  ASN695  SER759  ASP760  ASP761  ALA762  ILE779  LEU786  VAL792 
 PHE793  MET794  SER795  GLU796  ALA797  LYS798  CYS799  TRP800  GLU811  SER814 

> <Gold.Protein.RotatedAtoms>
  151.0086  133.5987  159.2685 H   0  0  0  0  0  0  0  0  0  0  0  0  # atno 6907 bound_to 6896
  151.3147  135.0802  159.9294 H   0  0  0  0  0  0  0  0  0  0  0  0  # atno 6908 bound_to 6896
  152.5293  133.9744  159.7831 H   0  0  0  0  0  0  0  0  0  0  0  0  # atno 6909 bound_to 6896
  145.6859  140.9171  143.0807 H   0  0  0  0  0  0  0  0  0  0  0  0  # atno 7974 bound_to 7965
  156.1648  140.1621  156.8550 H   0  0  0  0  0  0  0  0  0  0  0  0  # atno 8008 bound_to 7997
  154.5196  140.0781  156.8182 H   0  0  0  0  0  0  0  0  0  0  0  0  # atno 8009 bound_to 7997
  155.3634  140.3396  155.4243 H   0  0  0  0  0  0  0  0  0  0  0  0  # atno 8010 bound_to 7997
  140.6070  143.2376  151.5799 H   0  0  0  0  0  0  0  0  0  0  0  0  # atno 10167 bound_to 10162
  157.5829  131.1073  150.8152 H   0  0  0  0  0  0  0  0  0  0  0  0  # atno 10718 bound_to 10713
  154.8617  135.3591  154.5500 H   0  0  0  0  0  0  0  0  0  0  0  0  # atno 10763 bound_to 10752
  153.6118  135.7009  153.5348 H   0  0  0  0  0  0  0  0  0  0  0  0  # atno 10764 bound_to 10752
  153.3203  135.4153  155.1371 H   0  0  0  0  0  0  0  0  0  0  0  0  # atno 10765 bound_to 10752
  140.6121  134.4838  157.5216 H   0  0  0  0  0  0  0  0  0  0  0  0  # atno 11005 bound_to 11000
  144.7011  139.8757  143.7444 LP  0  0  0  0  0  0  0  0  0  0  0  0  # atno 17320 bound_to 7965
  146.0924  139.3915  143.0397 LP  0  0  0  0  0  0  0  0  0  0  0  0  # atno 17321 bound_to 7965
  139.5332  144.2855  152.1194 LP  0  0  0  0  0  0  0  0  0  0  0  0  # atno 17342 bound_to 10162
  140.2047  144.4623  150.6414 LP  0  0  0  0  0  0  0  0  0  0  0  0  # atno 17343 bound_to 10162
  156.8594  130.5108  149.5305 LP  0  0  0  0  0  0  0  0  0  0  0  0  # atno 17370 bound_to 10713
  156.0876  130.5870  150.9675 LP  0  0  0  0  0  0  0  0  0  0  0  0  # atno 17371 bound_to 10713
  139.9188  134.8191  156.1279 LP  0  0  0  0  0  0  0  0  0  0  0  0  # atno 17394 bound_to 11000
  141.0801  133.6758  156.2318 LP  0  0  0  0  0  0  0  0  0  0  0  0  # atno 17395 bound_to 11000

$$$$
