AV-unprocessed.smi:2279|AV-procd|sdf|9185|dock2
  -GOLD-   2272012403D 1   1.00000     0.00000
 Structure written by MMmdl.
 58 60  0  0  0  0  0  0  0  0  3 V2000
  153.9454  140.9917  160.6344 C   0  0  0  0  0  0  0  0  0  0  0  0
  152.9662  141.4435  159.5715 C   0  0  0  0  0  0  0  0  0  0  0  0
  152.8083  142.8088  159.2652 C   0  0  0  0  0  0  0  0  0  0  0  0
  151.8798  143.1626  158.2665 C   0  0  0  0  0  0  0  0  0  0  0  0
  151.6564  144.6118  157.8884 C   0  0  0  0  0  0  0  0  0  0  0  0
  151.1394  142.2553  157.5942 N   0  0  0  0  0  0  0  0  0  0  0  0
  151.2845  140.9378  157.8806 C   0  0  0  0  0  0  0  0  0  0  0  0
  150.5584  139.9052  157.2302 N   0  0  0  0  0  0  0  0  0  0  0  0
  149.4120  140.0078  156.5352 C   0  0  0  0  0  0  0  0  0  0  0  0
  148.7778  141.0473  156.3524 O   0  0  0  0  0  0  0  0  0  0  0  0
  149.0301  138.8175  156.0489 N   0  0  0  0  0  0  0  0  0  0  0  0
  147.8265  138.5851  155.2560 C   0  0  2  0  0  0  0  0  0  0  0  0
  147.4604  137.0965  155.2820 C   0  0  0  0  0  0  0  0  0  0  0  0
  146.2421  136.7982  154.3910 C   0  0  0  0  0  0  0  0  0  0  0  0
  146.4570  137.2447  152.9822 N   0  3  1  0  0  0  0  0  0  0  0  0
  145.3496  136.8919  152.0288 C   0  0  2  0  0  0  0  0  0  0  0  0
  144.1532  136.1348  152.6590 C   0  0  0  0  0  0  0  0  0  0  0  0
  144.5305  134.7049  153.0905 C   0  0  0  0  0  0  0  0  0  0  0  0
  145.0553  133.9245  151.9429 N   0  3  2  0  0  0  0  0  0  0  0  0
  145.3468  132.5198  152.3020 C   0  0  0  0  0  0  0  0  0  0  0  0
  146.2083  134.5933  151.2906 C   0  0  0  0  0  0  0  0  0  0  0  0
  145.8439  136.0225  150.8464 C   0  0  0  0  0  0  0  0  0  0  0  0
  146.7940  138.6982  152.9474 C   0  0  0  0  0  0  0  0  0  0  0  0
  148.0331  139.0199  153.7971 C   0  0  0  0  0  0  0  0  0  0  0  0
  152.1934  140.4978  158.8687 C   0  0  0  0  0  0  0  0  0  0  0  0
  154.4775  141.8383  161.0694 H   0  0  0  0  0  0  0  0  0  0  0  0
  154.6805  140.3106  160.2047 H   0  0  0  0  0  0  0  0  0  0  0  0
  153.4193  140.4710  161.4349 H   0  0  0  0  0  0  0  0  0  0  0  0
  153.3823  143.5644  159.7813 H   0  0  0  0  0  0  0  0  0  0  0  0
  152.3820  145.2638  158.3752 H   0  0  0  0  0  0  0  0  0  0  0  0
  150.6575  144.9306  158.1871 H   0  0  0  0  0  0  0  0  0  0  0  0
  151.7518  144.7443  156.8102 H   0  0  0  0  0  0  0  0  0  0  0  0
  150.9622  138.9832  157.2993 H   0  0  0  0  0  0  0  0  0  0  0  0
  149.6106  138.0157  156.2472 H   0  0  0  0  0  0  0  0  0  0  0  0
  147.0001  139.1533  155.6882 H   0  0  0  0  0  0  0  0  0  0  0  0
  148.3091  136.4999  154.9435 H   0  0  0  0  0  0  0  0  0  0  0  0
  147.2514  136.7818  156.3054 H   0  0  0  0  0  0  0  0  0  0  0  0
  146.0832  135.7229  154.4419 H   0  0  0  0  0  0  0  0  0  0  0  0
  145.3489  137.2774  154.7952 H   0  0  0  0  0  0  0  0  0  0  0  0
  144.9620  137.8316  151.6318 H   0  0  0  0  0  0  0  0  0  0  0  0
  143.6988  136.6874  153.4804 H   0  0  0  0  0  0  0  0  0  0  0  0
  143.3590  136.0652  151.9140 H   0  0  0  0  0  0  0  0  0  0  0  0
  145.2743  134.7282  153.8881 H   0  0  0  0  0  0  0  0  0  0  0  0
  143.6502  134.2038  153.4950 H   0  0  0  0  0  0  0  0  0  0  0  0
  146.1449  132.4616  153.0435 H   0  0  0  0  0  0  0  0  0  0  0  0
  145.6551  131.9535  151.4225 H   0  0  0  0  0  0  0  0  0  0  0  0
  144.4607  132.0357  152.7142 H   0  0  0  0  0  0  0  0  0  0  0  0
  147.0590  134.6136  151.9736 H   0  0  0  0  0  0  0  0  0  0  0  0
  146.5164  134.0112  150.4209 H   0  0  0  0  0  0  0  0  0  0  0  0
  145.0495  135.9607  150.1010 H   0  0  0  0  0  0  0  0  0  0  0  0
  146.6823  136.4720  150.3187 H   0  0  0  0  0  0  0  0  0  0  0  0
  146.9955  139.0361  151.9336 H   0  0  0  0  0  0  0  0  0  0  0  0
  145.9404  139.2779  153.3030 H   0  0  0  0  0  0  0  0  0  0  0  0
  148.2385  140.0900  153.7477 H   0  0  0  0  0  0  0  0  0  0  0  0
  148.9059  138.5183  153.3762 H   0  0  0  0  0  0  0  0  0  0  0  0
  152.2993  139.4450  159.0878 H   0  0  0  0  0  0  0  0  0  0  0  0
  147.2773  136.7508  152.6614 H   0  0  0  0  0  0  0  0  0  0  0  0
  144.3152  133.8926  151.2555 H   0  0  0  0  0  0  0  0  0  0  0  0
  1  2  1  0  0  0  0
  1 26  1  0  0  0  0
  1 27  1  0  0  0  0
  1 28  1  0  0  0  0
  2 25  1  0  0  0  0
  2  3  2  0  0  0  0
  3  4  1  0  0  0  0
  3 29  1  0  0  0  0
  4  5  1  0  0  0  0
  4  6  2  0  0  0  0
  5 30  1  0  0  0  0
  5 31  1  0  0  0  0
  5 32  1  0  0  0  0
  6  7  1  0  0  0  0
  7  8  1  0  0  0  0
  7 25  2  0  0  0  0
  8  9  1  0  0  0  0
  8 33  1  0  0  0  0
  9 10  2  0  0  0  0
  9 11  1  0  0  0  0
 11 12  1  0  0  0  0
 11 34  1  0  0  0  0
 12 24  1  0  0  0  0
 12 13  1  0  0  0  0
 12 35  1  0  0  0  0
 13 14  1  0  0  0  0
 13 36  1  0  0  0  0
 13 37  1  0  0  0  0
 14 15  1  0  0  0  0
 14 38  1  0  0  0  0
 14 39  1  0  0  0  0
 15 16  1  0  0  0  0
 15 23  1  0  0  0  0
 15 57  1  0  0  0  0
 16 22  1  0  0  0  0
 16 17  1  0  0  0  0
 16 40  1  0  0  0  0
 17 18  1  0  0  0  0
 17 41  1  0  0  0  0
 17 42  1  0  0  0  0
 18 19  1  0  0  0  0
 18 43  1  0  0  0  0
 18 44  1  0  0  0  0
 19 20  1  0  0  0  0
 19 21  1  0  0  0  0
 19 58  1  0  0  0  0
 20 45  1  0  0  0  0
 20 46  1  0  0  0  0
 20 47  1  0  0  0  0
 21 22  1  0  0  0  0
 21 48  1  0  0  0  0
 21 49  1  0  0  0  0
 22 50  1  0  0  0  0
 22 51  1  0  0  0  0
 23 24  1  0  0  0  0
 23 52  1  0  0  0  0
 23 53  1  0  0  0  0
 24 54  1  0  0  0  0
 24 55  1  0  0  0  0
 25 56  1  0  0  0  0
M  CHG  1  15   1
M  CHG  1  19   1
M  END
> <s_m_source_file>
AV-unprocessed.smi

> <i_m_source_file_index>
2279

> <i_lp_mmshare_version>
43012

> <i_f3d_flags>
0

> <s_epik_input>
W0NIM11jMVtjSF1jKFtDSDNdKW5jKFtjSF0xKVtOSF1DKD1PKVtOSF1bQ0hdMltDSDJdW0NIMl1OKFtDSDJdW0NIMl0yKVtDSF0zW0NIMl1bQ0gyXU4oW0NIM10pW0NIMl1bQ0gyXTM=

> <s_epik_cmdline>
J2VwaWtfcHl0aG9uJywgJy1waCcsICc3LjAnLCAnLXRuJywgJzgnLCAnLW1hJywgJzIwMCcsICctbWV0YWxfYmluZGluZycsICctaW1hZScsICc8aW5maWxlLm1hZT4nLCAnLW9tYWUnLCAnPG91dGZpbGUubWFlPic=

> <r_epik_Ionization_Penalty>
0.180973

> <r_epik_Ionization_Penalty_Charging>
0.180787

> <r_epik_Ionization_Penalty_Neutral>
0.000186186

> <r_epik_State_Penalty>
0.153592

> <r_epik_Charging_Adjusted_Penalty>
0.334379

> <i_epik_Tot_Q>
2

> <i_epik_Tot_abs_Q>
2

> <r_epik_Metal_State_Penalty>
0.153604

> <b_epik_Metal_Only>
0

> <s_lp_Force_Field>
OPLS_2005

> <r_lp_Energy>
45.6678

> <b_lp_Chiralities_Consistent>
1

> <s_lp_Variant>
AV-unprocessed.smi:2279-3

> <Gold.Version>
5.8.1

> <Gold.Id.Protein>
6NUR|6NUR_protein|mol2

> <Gold.PLP.Fitness>
40.3063

> <Gold.PLP.PLP>
-37.9029

> <Gold.PLP.part.hbond>
-1.0000

> <Gold.PLP.part.metal>
0.0000

> <Gold.PLP.part.buried>
-4.3720

> <Gold.PLP.part.nonpolar>
-31.8898

> <Gold.PLP.part.repulsive>
0.1636

> <Gold.PLP.ligand.clash>
0.0000

> <Gold.PLP.ligand.torsion>
1.8138

> <Gold.PLP.Chemscore.Hbond>
2.0000

> <Gold.PLP.Chemscore.CHOScore>
0.0000

> <Gold.PLP.Chemscore.Metal>
0.0000

> <Gold.Chemscore.Hbonds>
donor molecule, donor type, donor heavy atom, donor atom, acceptor molecule, acceptor atom, score
      L1  H    15    57       P1  7948  2.00

> <Gold.PLP.Chemscore.Internal.Correction>
0.0310

> <Gold.Rescore>
     Score         DG    S(hbond)    S(metal)    S(lipo)     H(rot)  DE(clash)    DE(int)     intcor
     14.67     -18.33       0.95        0.00     109.12       1.21       0.12       3.54       ----

> <Gold.Chemscore.Fitness>
14.6708

> <Gold.Chemscore.DG>
-18.3331

> <Gold.Chemscore.ZeroCoef>
-5.4800

> <Gold.Chemscore.Hbond>
0.9528

> <Gold.Chemscore.Metal>
0.0000

> <Gold.Chemscore.Lipo>
109.1208

> <Gold.Chemscore.Internal_Hbond>
0.0000

> <Gold.Chemscore.DEClash>
0.1245

> <Gold.Chemscore.DEInternal>
3.5377

> <Gold.Chemscore.Rot>
1.2095

> <Gold.Chemscore.Internal.Correction>
   9.000000E+99

> <Gold.Chemscore.Hbonds>
donor molecule, donor type, donor heavy atom, donor atom, acceptor molecule, acceptor atom, score
      L1  H    15    57       P1  7948  1.00

> <Gold.Chemscore.Hbond.Weighted>
-3.1822

> <Gold.Chemscore.Metal.Weighted>
-0.0000

> <Gold.Chemscore.Lipo.Weighted>
-12.7671

> <Gold.Chemscore.Internal_Hbond.Weighted>
0.0000

> <Gold.Chemscore.DEClash.Weighted>
0.1245

> <Gold.Chemscore.DEInternal.Weighted>
3.5377

> <Gold.Chemscore.Rot.Weighted>
3.0963

> <Gold.Chemscore.Internal.Correction.Weighted>
   9.000000E+99

> <Gold.Protein.RotatedTorsions>
[ 6907 6896 6895 6894 ] final  -96.31 input  -60.11 | X-H torsion
[ 7974 7965 7964 7962 ] final  -37.38 input  175.53 | X-H torsion
[ 8008 7997 7996 7995 ] final -100.62 input   59.86 | X-H torsion
[ 10167 10162 10161 10158 ] final   45.67 input  -65.29 | X-H torsion
[ 10718 10713 10712 10709 ] final -148.36 input   66.30 | X-H torsion
[ 10763 10752 10751 10750 ] final  -64.49 input  -60.55 | X-H torsion
[ 11005 11000 10999 10996 ] final  -22.07 input  -57.11 | X-H torsion

> <Gold.Protein.ActiveResidues>
 VAL166  LYS551  ARG553  GLY616  TRP617  ASP618  TYR619  PRO620  LYS621  CYS622 
 ASP623  PHE694  ASN695  SER759  ASP760  ASP761  ALA762  ILE779  LEU786  VAL792 
 PHE793  MET794  SER795  GLU796  ALA797  LYS798  CYS799  TRP800  GLU811  SER814 

> <Gold.Protein.RotatedAtoms>
  150.6985  134.1523  159.4144 H   0  0  0  0  0  0  0  0  0  0  0  0  # atno 6907 bound_to 6896
  151.9505  135.0169  160.0551 H   0  0  0  0  0  0  0  0  0  0  0  0  # atno 6908 bound_to 6896
  152.2015  133.4809  159.5098 H   0  0  0  0  0  0  0  0  0  0  0  0  # atno 6909 bound_to 6896
  146.0580  140.6389  142.9011 H   0  0  0  0  0  0  0  0  0  0  0  0  # atno 7974 bound_to 7965
  154.8312  140.0439  157.1478 H   0  0  0  0  0  0  0  0  0  0  0  0  # atno 8008 bound_to 7997
  154.9151  140.3019  155.5225 H   0  0  0  0  0  0  0  0  0  0  0  0  # atno 8009 bound_to 7997
  156.2987  140.2351  156.4194 H   0  0  0  0  0  0  0  0  0  0  0  0  # atno 8010 bound_to 7997
  140.3217  144.2697  150.6181 H   0  0  0  0  0  0  0  0  0  0  0  0  # atno 10167 bound_to 10162
  156.4193  130.8020  151.2243 H   0  0  0  0  0  0  0  0  0  0  0  0  # atno 10718 bound_to 10713
  154.3308  135.6177  153.5550 H   0  0  0  0  0  0  0  0  0  0  0  0  # atno 10763 bound_to 10752
  152.9811  135.5746  154.4963 H   0  0  0  0  0  0  0  0  0  0  0  0  # atno 10764 bound_to 10752
  154.4649  135.2857  155.1662 H   0  0  0  0  0  0  0  0  0  0  0  0  # atno 10765 bound_to 10752
  140.8622  133.7780  156.0087 H   0  0  0  0  0  0  0  0  0  0  0  0  # atno 11005 bound_to 11000
  144.7158  140.4206  143.7045 LP  0  0  0  0  0  0  0  0  0  0  0  0  # atno 17320 bound_to 7965
  145.6610  139.1581  143.2808 LP  0  0  0  0  0  0  0  0  0  0  0  0  # atno 17321 bound_to 7965
  140.5477  143.2212  151.7979 LP  0  0  0  0  0  0  0  0  0  0  0  0  # atno 17342 bound_to 10162
  139.4873  144.4517  151.9645 LP  0  0  0  0  0  0  0  0  0  0  0  0  # atno 17343 bound_to 10162
  157.7508  131.0233  150.3829 LP  0  0  0  0  0  0  0  0  0  0  0  0  # atno 17370 bound_to 10713
  156.4143  130.3940  149.6869 LP  0  0  0  0  0  0  0  0  0  0  0  0  # atno 17371 bound_to 10713
  140.8670  134.2772  157.5208 LP  0  0  0  0  0  0  0  0  0  0  0  0  # atno 17394 bound_to 11000
  139.8707  134.9548  156.4186 LP  0  0  0  0  0  0  0  0  0  0  0  0  # atno 17395 bound_to 11000

$$$$
