AV-unprocessed.smi:1778|AV-procd|sdf|7180|dock6
  -GOLD-   22720 8423D 1   1.00000     0.00000
 Structure written by MMmdl.
 34 35  0  0  0  0  0  0  0  0  1 V2000
  146.2136  143.1985  153.9777 C   0  0  0  0  0  0  0  0  0  0  0  0
  146.4999  142.2817  155.1324 C   0  0  0  0  0  0  0  0  0  0  0  0
  145.6315  142.2066  156.1266 N   0  0  0  0  0  0  0  0  0  0  0  0
  146.1721  141.2976  157.0411 O   0  0  0  0  0  0  0  0  0  0  0  0
  147.3605  140.8565  156.5559 C   0  0  0  0  0  0  0  0  0  0  0  0
  148.1077  139.8763  157.3954 C   0  0  0  0  0  0  0  0  0  0  0  0
  147.6297  141.4395  155.3484 C   0  0  0  0  0  0  0  0  0  0  0  0
  148.8354  141.2435  154.4649 C   0  0  0  0  0  0  0  0  0  0  0  0
  150.1086  141.3286  155.3059 C   0  0  0  0  0  0  0  0  0  0  0  0
  151.0102  140.5068  155.1444 O   0  0  0  0  0  0  0  0  0  0  0  0
  150.1670  142.3265  156.2010 N   0  0  0  0  0  0  0  0  0  0  0  0
  151.2773  142.5724  157.1141 C   0  0  1  0  0  0  0  0  0  0  0  0
  151.5215  144.0784  157.3388 C   0  0  0  0  0  0  0  0  0  0  0  0
  152.4199  144.2515  158.5695 C   0  0  0  0  0  0  0  0  0  0  0  0
  152.0318  142.8488  159.6838 S   0  0  0  0  0  0  0  0  0  0  0  0
  153.2668  142.0966  159.9523 O   0  0  0  0  0  0  0  0  0  0  0  0
  151.1753  143.3156  160.7844 O   0  0  0  0  0  0  0  0  0  0  0  0
  151.0046  141.9261  158.4794 C   0  0  0  0  0  0  0  0  0  0  0  0
  146.4503  144.2313  154.2338 H   0  0  0  0  0  0  0  0  0  0  0  0
  145.1625  143.1585  153.6905 H   0  0  0  0  0  0  0  0  0  0  0  0
  146.8025  142.9324  153.1004 H   0  0  0  0  0  0  0  0  0  0  0  0
  149.0604  140.2958  157.7191 H   0  0  0  0  0  0  0  0  0  0  0  0
  148.3132  138.9652  156.8338 H   0  0  0  0  0  0  0  0  0  0  0  0
  147.5385  139.6035  158.2843 H   0  0  0  0  0  0  0  0  0  0  0  0
  148.8058  140.2746  153.9649 H   0  0  0  0  0  0  0  0  0  0  0  0
  148.8783  141.9885  153.6698 H   0  0  0  0  0  0  0  0  0  0  0  0
  149.3786  142.9546  156.2604 H   0  0  0  0  0  0  0  0  0  0  0  0
  152.1900  142.1302  156.7094 H   0  0  0  0  0  0  0  0  0  0  0  0
  151.9541  144.5571  156.4596 H   0  0  0  0  0  0  0  0  0  0  0  0
  150.5676  144.5715  157.5319 H   0  0  0  0  0  0  0  0  0  0  0  0
  153.4717  144.1788  158.2919 H   0  0  0  0  0  0  0  0  0  0  0  0
  152.2601  145.1991  159.0841 H   0  0  0  0  0  0  0  0  0  0  0  0
  149.9618  142.0462  158.7755 H   0  0  0  0  0  0  0  0  0  0  0  0
  151.2539  140.8651  158.5067 H   0  0  0  0  0  0  0  0  0  0  0  0
  1  2  1  0  0  0  0
  1 19  1  0  0  0  0
  1 20  1  0  0  0  0
  1 21  1  0  0  0  0
  2  7  1  0  0  0  0
  2  3  2  0  0  0  0
  3  4  1  0  0  0  0
  4  5  1  0  0  0  0
  5  6  1  0  0  0  0
  5  7  2  0  0  0  0
  6 22  1  0  0  0  0
  6 23  1  0  0  0  0
  6 24  1  0  0  0  0
  7  8  1  0  0  0  0
  8  9  1  0  0  0  0
  8 25  1  0  0  0  0
  8 26  1  0  0  0  0
  9 10  2  0  0  0  0
  9 11  1  0  0  0  0
 11 12  1  0  0  0  0
 11 27  1  0  0  0  0
 12 18  1  0  0  0  0
 12 13  1  0  0  0  0
 12 28  1  0  0  0  0
 13 14  1  0  0  0  0
 13 29  1  0  0  0  0
 13 30  1  0  0  0  0
 14 15  1  0  0  0  0
 14 31  1  0  0  0  0
 14 32  1  0  0  0  0
 15 16  2  0  0  0  0
 15 17  2  0  0  0  0
 15 18  1  0  0  0  0
 18 33  1  0  0  0  0
 18 34  1  0  0  0  0
M  END
> <s_m_source_file>
AV-unprocessed.smi

> <i_m_source_file_index>
1778

> <i_lp_mmshare_version>
43012

> <i_f3d_flags>
0

> <s_epik_input>
W0NIM11jMW5vYyhbQ0gzXSljMVtDSDJdQyg9TylbTkhdW0NAQEhdKFtDSDJdMilbQ0gyXVtDSDJdUzIoPU8pPU8=

> <s_epik_cmdline>
J2VwaWtfcHl0aG9uJywgJy1waCcsICc3LjAnLCAnLXRuJywgJzgnLCAnLW1hJywgJzIwMCcsICctbWV0YWxfYmluZGluZycsICctaW1hZScsICc8aW5maWxlLm1hZT4nLCAnLW9tYWUnLCAnPG91dGZpbGUubWFlPic=

> <r_lp_tautomer_probability>
1

> <r_epik_Ionization_Penalty>
1.26334e-07

> <r_epik_Ionization_Penalty_Charging>
0

> <r_epik_Ionization_Penalty_Neutral>
1.26334e-07

> <r_epik_State_Penalty>
-0

> <r_epik_Charging_Adjusted_Penalty>
0

> <i_epik_Tot_Q>
0

> <i_epik_Tot_abs_Q>
0

> <r_epik_Metal_State_Penalty>
-0

> <b_epik_Metal_Only>
0

> <s_lp_Force_Field>
OPLS_2005

> <r_lp_Energy>
-2.84578

> <b_lp_Chiralities_Consistent>
1

> <s_lp_Variant>
AV-unprocessed.smi:1778-2

> <Gold.Version>
5.8.1

> <Gold.Id.Protein>
6NUR|6NUR_protein|mol2

> <Gold.PLP.Fitness>
39.2717

> <Gold.PLP.PLP>
-35.2881

> <Gold.PLP.part.hbond>
-3.0000

> <Gold.PLP.part.metal>
0.0000

> <Gold.PLP.part.buried>
-4.6748

> <Gold.PLP.part.nonpolar>
-27.2175

> <Gold.PLP.part.repulsive>
0.3829

> <Gold.PLP.ligand.clash>
0.0000

> <Gold.PLP.ligand.torsion>
0.6920

> <Gold.PLP.Chemscore.Hbond>
1.7885

> <Gold.PLP.Chemscore.CHOScore>
0.0000

> <Gold.PLP.Chemscore.Metal>
0.0000

> <Gold.Chemscore.Hbonds>
donor molecule, donor type, donor heavy atom, donor atom, acceptor molecule, acceptor atom, score
      L1  H    11    27       P1  8028  0.78
      P1  H  6933  6945       L1    17  0.01
      P1  H  7989  7998       L1    10  0.99

> <Gold.PLP.Chemscore.Internal.Correction>
0.0022

> <Gold.Rescore>
     Score         DG    S(hbond)    S(metal)    S(lipo)     H(rot)  DE(clash)    DE(int)     intcor
     14.09     -14.83       1.66        0.00      65.31       1.51       0.06       0.67       ----

> <Gold.Chemscore.Fitness>
14.0932

> <Gold.Chemscore.DG>
-14.8280

> <Gold.Chemscore.ZeroCoef>
-5.4800

> <Gold.Chemscore.Hbond>
1.6645

> <Gold.Chemscore.Metal>
0.0000

> <Gold.Chemscore.Lipo>
65.3126

> <Gold.Chemscore.Internal_Hbond>
0.0000

> <Gold.Chemscore.DEClash>
0.0620

> <Gold.Chemscore.DEInternal>
0.6727

> <Gold.Chemscore.Rot>
1.5051

> <Gold.Chemscore.Internal.Correction>
   9.000000E+99

> <Gold.Chemscore.Hbonds>
donor molecule, donor type, donor heavy atom, donor atom, acceptor molecule, acceptor atom, score
      L1  H    11    27       P1  8028  0.77
      P1  H  6933  6945       L1    17  0.02
      P1  H  7989  7998       L1    10  0.42

> <Gold.Chemscore.Hbond.Weighted>
-5.5595

> <Gold.Chemscore.Metal.Weighted>
-0.0000

> <Gold.Chemscore.Lipo.Weighted>
-7.6416

> <Gold.Chemscore.Internal_Hbond.Weighted>
0.0000

> <Gold.Chemscore.DEClash.Weighted>
0.0620

> <Gold.Chemscore.DEInternal.Weighted>
0.6727

> <Gold.Chemscore.Rot.Weighted>
3.8531

> <Gold.Chemscore.Internal.Correction.Weighted>
   9.000000E+99

> <Gold.Protein.RotatedTorsions>
[ 6907 6896 6895 6894 ] final  -85.28 input  -60.11 | X-H torsion
[ 7974 7965 7964 7962 ] final   13.33 input  175.53 | X-H torsion
[ 8008 7997 7996 7995 ] final   84.53 input   59.86 | X-H torsion
[ 10167 10162 10161 10158 ] final -101.18 input  -65.29 | X-H torsion
[ 10718 10713 10712 10709 ] final -160.08 input   66.30 | X-H torsion
[ 10763 10752 10751 10750 ] final   17.47 input  -60.55 | X-H torsion
[ 11005 11000 10999 10996 ] final   64.68 input  -57.11 | X-H torsion

> <Gold.Protein.ActiveResidues>
 VAL166  LYS551  ARG553  GLY616  TRP617  ASP618  TYR619  PRO620  LYS621  CYS622 
 ASP623  PHE694  ASN695  SER759  ASP760  ASP761  ALA762  ILE779  LEU786  VAL792 
 PHE793  MET794  SER795  GLU796  ALA797  LYS798  CYS799  TRP800  GLU811  SER814 

> <Gold.Protein.RotatedAtoms>
  150.6871  134.3229  159.4793 H   0  0  0  0  0  0  0  0  0  0  0  0  # atno 6907 bound_to 6896
  152.1102  134.9277  160.0576 H   0  0  0  0  0  0  0  0  0  0  0  0  # atno 6908 bound_to 6896
  152.0522  133.3989  159.4419 H   0  0  0  0  0  0  0  0  0  0  0  0  # atno 6909 bound_to 6896
  146.2332  139.9205  142.8511 H   0  0  0  0  0  0  0  0  0  0  0  0  # atno 7974 bound_to 7965
  155.9383  140.3410  155.6306 H   0  0  0  0  0  0  0  0  0  0  0  0  # atno 8008 bound_to 7997
  155.7072  140.0767  157.2405 H   0  0  0  0  0  0  0  0  0  0  0  0  # atno 8009 bound_to 7997
  154.4098  140.1629  156.2243 H   0  0  0  0  0  0  0  0  0  0  0  0  # atno 8010 bound_to 7997
  140.2440  143.3519  152.0776 H   0  0  0  0  0  0  0  0  0  0  0  0  # atno 10167 bound_to 10162
  156.5771  130.8713  151.2854 H   0  0  0  0  0  0  0  0  0  0  0  0  # atno 10718 bound_to 10713
  153.1336  135.6745  153.9139 H   0  0  0  0  0  0  0  0  0  0  0  0  # atno 10763 bound_to 10752
  153.8617  135.3080  155.3439 H   0  0  0  0  0  0  0  0  0  0  0  0  # atno 10764 bound_to 10752
  154.7728  135.4930  153.9766 H   0  0  0  0  0  0  0  0  0  0  0  0  # atno 10765 bound_to 10752
  139.9943  134.6542  156.0037 H   0  0  0  0  0  0  0  0  0  0  0  0  # atno 11005 bound_to 11000
  145.2141  140.9908  143.4083 LP  0  0  0  0  0  0  0  0  0  0  0  0  # atno 17320 bound_to 7965
  144.9666  139.3924  143.6330 LP  0  0  0  0  0  0  0  0  0  0  0  0  # atno 17321 bound_to 7965
  139.5068  144.6820  151.5984 LP  0  0  0  0  0  0  0  0  0  0  0  0  # atno 17342 bound_to 10162
  140.6092  143.9468  150.6440 LP  0  0  0  0  0  0  0  0  0  0  0  0  # atno 17343 bound_to 10162
  157.7335  130.9731  150.1981 LP  0  0  0  0  0  0  0  0  0  0  0  0  # atno 17370 bound_to 10713
  156.2664  130.3716  149.8077 LP  0  0  0  0  0  0  0  0  0  0  0  0  # atno 17371 bound_to 10713
  141.1592  133.6540  156.4261 LP  0  0  0  0  0  0  0  0  0  0  0  0  # atno 17394 bound_to 11000
  140.4848  134.6631  157.5186 LP  0  0  0  0  0  0  0  0  0  0  0  0  # atno 17395 bound_to 11000

$$$$
