#       Name:                AV-unprocessed.smi:3237
#       Creating user name   scv26
#       Creation time:       Fri Mar 27 18:23:07 2020


#       File generated by GOLD software.
#

@<TRIPOS>MOLECULE
AV-unprocessed.smi:3237
    42    44     1
SMALL
NO_CHARGES


@<TRIPOS>ATOM
      1 ****        -7.2284  -1.0408   0.2813 C.3            1 S1                 0.0000
      2 ****        -5.8278  -0.9551   0.7830 C.2            1 S1                 0.0000
      3 ****        -4.6288  -1.3515   0.2621 C.2            1 S1                 0.0000
      4 ****        -3.6952  -0.9552   1.2581 C.2            1 S1                 0.0000
      5 ****        -2.3667  -1.1387   1.2116 N.pl3          1 S1                -1.0000
      6 ****        -1.5778  -0.2391   0.5814 C.2            1 S1                 0.0000
      7 ****        -1.9494   0.7842   0.0025 O.2            1 S1                 0.0000
      8 ****        -0.2741  -0.5457   0.6227 N.am           1 S1                 0.0000
      9 ****         0.7998   0.2409   0.0274 C.3            1 S1                 0.0000
     10 ****         0.9084   0.1208  -1.4894 C.3            1 S1                 0.0000
     11 ****         2.3511   0.5635  -1.7558 C.3            1 S1                 0.0000
     12 ****         3.1288   0.2492  -0.5310 N.4            1 S1                 1.0000
     13 ****         3.9709   1.3712  -0.0621 C.3            1 S1                 0.0000
     14 ****         5.3116   1.4500  -0.7524 C.3            1 S1                 0.0000
     15 ****         5.2179   0.9282   0.6651 C.3            1 S1                 0.0000
     16 ****         2.1742  -0.2394   0.4879 C.3            1 S1                 0.0000
     17 ****        -4.2778  -0.3844   2.2990 N.2            1 S1                 0.0000
     18 ****        -5.6451  -0.3733   1.9987 O.3            1 S1                 0.0000
     19 ****        -7.3689  -1.9368  -0.3232 H              1 S1                 0.0000
     20 ****        -7.4696  -0.1749  -0.3351 H              1 S1                 0.0000
     21 ****        -7.9384  -1.0772   1.1077 H              1 S1                 0.0000
     22 ****        -4.4471  -1.8422  -0.6823 H              1 S1                 0.0000
     23 ****        -0.0131  -1.3913   1.1087 H              1 S1                 0.0000
     24 ****         0.6831   1.2914   0.3025 H              1 S1                 0.0000
     25 ****         0.7727  -0.9171  -1.7980 H              1 S1                 0.0000
     26 ****         0.1748   0.7297  -2.0189 H              1 S1                 0.0000
     27 ****         2.7763   0.0659  -2.6276 H              1 S1                 0.0000
     28 ****         2.3702   1.6374  -1.9495 H              1 S1                 0.0000
     29 ****         3.4480   2.2777   0.2383 H              1 S1                 0.0000
     30 ****         5.5289   0.7304  -1.5399 H              1 S1                 0.0000
     31 ****         5.7469   2.4374  -0.8920 H              1 S1                 0.0000
     32 ****         5.5909   1.5719   1.4592 H              1 S1                 0.0000
     33 ****         5.3716  -0.1382   0.8204 H              1 S1                 0.0000
     34 ****         2.4174   0.0987   1.4963 H              1 S1                 0.0000
     35 ****         2.2155  -1.3298   0.4882 H              1 S1                 0.0000
     36 ****         3.7476  -0.5192  -0.7462 H              1 S1                 0.0000
     37 ****        -1.9589  -1.9428   1.6442 LP             1 S1                 0.0000
     38 ****        -2.9219   1.0145  -0.0311 LP             1 S1                 0.0000
     39 ****        -1.2782   1.3839  -0.4333 LP             1 S1                 0.0000
     40 ****        -3.8356  -0.0349   3.1251 LP             1 S1                 0.0000
     41 ****        -6.1471  -0.8850   2.6959 LP             1 S1                 0.0000
     42 ****        -5.9768   0.5698   1.9740 LP             1 S1                 0.0000
@<TRIPOS>BOND
    1    1    2 1     
    2    1   19 1     
    3    1   20 1     
    4    1   21 1     
    5    2   18 1     
    6    2    3 2     
    7    3    4 1     
    8    3   22 1     
    9    4    5 1     
   10    4   17 2     
   11    5    6 1     
   12    6    7 2     
   13    6    8 am    
   14    8    9 1     
   15    8   23 1     
   16    9   16 1     
   17    9   10 1     
   18    9   24 1     
   19   10   11 1     
   20   10   25 1     
   21   10   26 1     
   22   11   12 1     
   23   11   27 1     
   24   11   28 1     
   25   12   13 1     
   26   12   16 1     
   27   12   36 1     
   28   13   15 1     
   29   13   14 1     
   30   13   29 1     
   31   14   15 1     
   32   14   30 1     
   33   14   31 1     
   34   15   32 1     
   35   15   33 1     
   36   16   34 1     
   37   16   35 1     
   38   17   18 1     
   39    5   37 1     
   40    7   38 1     
   41    7   39 1     
   42   17   40 1     
   43   18   41 1     
   44   18   42 1     
@<TRIPOS>SUBSTRUCTURE
      1 S1             1
@<TRIPOS>SET
LONE_PAIRS      STATIC     ATOMS    <user>   **** ""
6 37 38 39 40 41 42
DONOR_HYDROGENS      STATIC     ATOMS    <user>   **** ""
2 23 36
ATOM$BLUE        STATIC     ATOMS    COLORGROUP SYSTEM
6 37 38 39 40 41 42
ATOM$RED        STATIC     ATOMS    COLORGROUP SYSTEM
2 23 36
