AV-unprocessed.smi:36|AV-procd|sdf|301|dock3
  -GOLD-   2262016103D 1   1.00000     0.00000
 Structure written by MMmdl.
 63 66  0  0  0  0  0  0  0  0  2 V2000
  147.6436  136.5638  162.3151 C   0  0  0  0  0  0  0  0  0  0  0  0
  146.5474  135.5989  161.8346 C   0  0  0  0  0  0  0  0  0  0  0  0
  146.9083  134.1580  162.2322 C   0  0  0  0  0  0  0  0  0  0  0  0
  145.1968  135.9859  162.4604 C   0  0  0  0  0  0  0  0  0  0  0  0
  146.3994  135.7029  159.9330 Si  0  0  0  0  0  0  0  0  0  0  0  0
  144.9984  134.5856  159.2961 C   0  0  0  0  0  0  0  0  0  0  0  0
  146.1030  137.4886  159.3565 C   0  0  0  0  0  0  0  0  0  0  0  0
  147.8621  135.1704  159.2699 O   0  0  0  0  0  0  0  0  0  0  0  0
  148.1562  135.2471  157.8912 C   0  0  0  0  0  0  0  0  0  0  0  0
  149.0080  134.0368  157.4541 C   0  0  2  0  0  0  0  0  0  0  0  0
  150.3802  134.3243  157.6999 O   0  0  0  0  0  0  0  0  0  0  0  0
  150.9602  134.9571  156.5922 C   0  0  2  0  0  0  0  0  0  0  0  0
  151.1394  136.4189  156.8931 N   0  0  0  0  0  0  0  0  0  0  0  0
  151.2892  136.9971  158.1037 C   0  0  0  0  0  0  0  0  0  0  0  0
  151.4054  138.3217  158.1469 N   0  0  0  0  0  0  0  0  0  0  0  0
  151.2843  138.6556  156.8072 C   0  0  0  0  0  0  0  0  0  0  0  0
  151.3124  139.9053  156.1291 C   0  0  0  0  0  0  0  0  0  0  0  0
  151.4836  141.0736  156.7663 N   0  5  0  0  0  0  0  0  0  0  0  0
  152.2395  141.1257  157.8923 C   0  0  0  0  0  0  0  0  0  0  0  0
  152.9866  140.2550  158.3437 O   0  0  0  0  0  0  0  0  0  0  0  0
  152.1646  142.4541  158.5967 C   0  0  0  0  0  0  0  0  0  0  0  0
  152.5550  142.5514  159.9520 C   0  0  0  0  0  0  0  0  0  0  0  0
  152.4706  143.7801  160.6357 C   0  0  0  0  0  0  0  0  0  0  0  0
  151.9852  144.9234  159.9738 C   0  0  0  0  0  0  0  0  0  0  0  0
  151.5802  144.8358  158.6288 C   0  0  0  0  0  0  0  0  0  0  0  0
  151.6646  143.6075  157.9444 C   0  0  0  0  0  0  0  0  0  0  0  0
  151.1337  139.8799  154.7842 N   0  0  0  0  0  0  0  0  0  0  0  0
  150.9524  138.7169  154.1492 C   0  0  0  0  0  0  0  0  0  0  0  0
  150.9151  137.4810  154.6554 N   0  0  0  0  0  0  0  0  0  0  0  0
  151.0937  137.4890  156.0094 C   0  0  0  0  0  0  0  0  0  0  0  0
  149.9915  134.7573  155.4108 C   0  0  0  0  0  0  0  0  0  0  0  0
  149.0329  133.7170  155.9554 C   0  0  2  0  0  0  0  0  0  0  0  0
  147.7708  133.7646  155.3221 O   0  0  0  0  0  0  0  0  0  0  0  0
  147.7525  136.5298  163.3997 H   0  0  0  0  0  0  0  0  0  0  0  0
  147.4150  137.5940  162.0406 H   0  0  0  0  0  0  0  0  0  0  0  0
  148.6115  136.3141  161.8793 H   0  0  0  0  0  0  0  0  0  0  0  0
  147.8667  133.8563  161.8091 H   0  0  0  0  0  0  0  0  0  0  0  0
  146.1564  133.4503  161.8814 H   0  0  0  0  0  0  0  0  0  0  0  0
  146.9808  134.0516  163.3150 H   0  0  0  0  0  0  0  0  0  0  0  0
  145.2310  135.9244  163.5484 H   0  0  0  0  0  0  0  0  0  0  0  0
  144.3988  135.3262  162.1178 H   0  0  0  0  0  0  0  0  0  0  0  0
  144.9142  137.0057  162.1981 H   0  0  0  0  0  0  0  0  0  0  0  0
  144.0335  134.8804  159.7076 H   0  0  0  0  0  0  0  0  0  0  0  0
  145.1611  133.5424  159.5648 H   0  0  0  0  0  0  0  0  0  0  0  0
  144.9117  134.6290  158.2106 H   0  0  0  0  0  0  0  0  0  0  0  0
  145.1675  137.8867  159.7481 H   0  0  0  0  0  0  0  0  0  0  0  0
  146.0516  137.5521  158.2693 H   0  0  0  0  0  0  0  0  0  0  0  0
  146.9024  138.1540  159.6810 H   0  0  0  0  0  0  0  0  0  0  0  0
  147.2382  135.3251  157.3096 H   0  0  0  0  0  0  0  0  0  0  0  0
  148.7124  136.1690  157.7206 H   0  0  0  0  0  0  0  0  0  0  0  0
  148.7129  133.1626  158.0354 H   0  0  0  0  0  0  0  0  0  0  0  0
  151.9695  134.5860  156.4120 H   0  0  0  0  0  0  0  0  0  0  0  0
  151.3226  136.4108  159.0102 H   0  0  0  0  0  0  0  0  0  0  0  0
  152.9286  141.6830  160.4751 H   0  0  0  0  0  0  0  0  0  0  0  0
  152.7777  143.8439  161.6689 H   0  0  0  0  0  0  0  0  0  0  0  0
  151.9203  145.8653  160.4981 H   0  0  0  0  0  0  0  0  0  0  0  0
  151.2016  145.7105  158.1211 H   0  0  0  0  0  0  0  0  0  0  0  0
  151.3387  143.5597  156.9154 H   0  0  0  0  0  0  0  0  0  0  0  0
  150.8190  138.7865  153.0800 H   0  0  0  0  0  0  0  0  0  0  0  0
  149.4571  135.6815  155.1858 H   0  0  0  0  0  0  0  0  0  0  0  0
  150.5229  134.4298  154.5170 H   0  0  0  0  0  0  0  0  0  0  0  0
  149.4602  132.7239  155.8103 H   0  0  0  0  0  0  0  0  0  0  0  0
  147.5492  132.8935  155.0298 H   0  0  0  0  0  0  0  0  0  0  0  0
  1  2  1  0  0  0  0
  1 34  1  0  0  0  0
  1 35  1  0  0  0  0
  1 36  1  0  0  0  0
  2  3  1  0  0  0  0
  2  4  1  0  0  0  0
  2  5  1  0  0  0  0
  3 37  1  0  0  0  0
  3 38  1  0  0  0  0
  3 39  1  0  0  0  0
  4 40  1  0  0  0  0
  4 41  1  0  0  0  0
  4 42  1  0  0  0  0
  5  6  1  0  0  0  0
  5  7  1  0  0  0  0
  5  8  1  0  0  0  0
  6 43  1  0  0  0  0
  6 44  1  0  0  0  0
  6 45  1  0  0  0  0
  7 46  1  0  0  0  0
  7 47  1  0  0  0  0
  7 48  1  0  0  0  0
  8  9  1  0  0  0  0
  9 10  1  0  0  0  0
  9 49  1  0  0  0  0
  9 50  1  0  0  0  0
 10 32  1  0  0  0  0
 10 11  1  0  0  0  0
 10 51  1  0  0  0  0
 11 12  1  0  0  0  0
 12 13  1  0  0  0  0
 12 31  1  0  0  0  0
 12 52  1  0  0  0  0
 13 30  1  0  0  0  0
 13 14  1  0  0  0  0
 14 15  2  0  0  0  0
 14 53  1  0  0  0  0
 15 16  1  0  0  0  0
 16 30  2  0  0  0  0
 16 17  1  0  0  0  0
 17 18  1  0  0  0  0
 17 27  2  0  0  0  0
 18 19  1  0  0  0  0
 19 20  2  0  0  0  0
 19 21  1  0  0  0  0
 21 26  1  0  0  0  0
 21 22  2  0  0  0  0
 22 23  1  0  0  0  0
 22 54  1  0  0  0  0
 23 24  2  0  0  0  0
 23 55  1  0  0  0  0
 24 25  1  0  0  0  0
 24 56  1  0  0  0  0
 25 26  2  0  0  0  0
 25 57  1  0  0  0  0
 26 58  1  0  0  0  0
 27 28  1  0  0  0  0
 28 29  2  0  0  0  0
 28 59  1  0  0  0  0
 29 30  1  0  0  0  0
 31 32  1  0  0  0  0
 31 60  1  0  0  0  0
 31 61  1  0  0  0  0
 32 33  1  0  0  0  0
 32 62  1  0  0  0  0
 33 63  1  0  0  0  0
M  CHG  1  18  -1
M  END
> <s_m_source_file>
AV-unprocessed.smi

> <i_m_source_file_index>
36

> <i_lp_mmshare_version>
43012

> <i_f3d_flags>
0

> <s_epik_input>
W0NIM11DKFtDSDNdKShbQ0gzXSlbU2ldKFtDSDNdKShbQ0gzXSlPW0NIMl1bQ0BASF0xT1tDQEhdKFtDSDJdW0NASF0xW09IXSluKFtjSF1uMiljKGMyMyluW2NIXW5jM1tOSF1DKD1PKWM0W2NIXVtjSF1bY0hdW2NIXVtjSF00

> <s_epik_cmdline>
J2VwaWtfcHl0aG9uJywgJy1waCcsICc3LjAnLCAnLXRuJywgJzgnLCAnLW1hJywgJzIwMCcsICctbWV0YWxfYmluZGluZycsICctaW1hZScsICc8aW5maWxlLm1hZT4nLCAnLW9tYWUnLCAnPG91dGZpbGUubWFlPic=

> <r_lp_tautomer_probability>
1

> <r_epik_Ionization_Penalty>
4.75685

> <r_epik_Ionization_Penalty_Charging>
3.55822

> <r_epik_Ionization_Penalty_Neutral>
1.19863

> <r_epik_State_Penalty>
3.564

> <r_epik_Charging_Adjusted_Penalty>
7.12222

> <i_epik_Tot_Q>
-1

> <i_epik_Tot_abs_Q>
1

> <r_epik_Metal_State_Penalty>
0.523258

> <b_epik_Metal_Only>
1

> <s_epik_Chemistry_Notes>
This compound contains an acetal/aminal-like group ( X-CH(R)-Y where X, Y are N, S, or O) that may be acid/base labile, releasing an aldehyde.

> <s_lp_Force_Field>
OPLS_2005

> <r_lp_Energy>
38.2171

> <b_lp_Chiralities_Consistent>
1

> <s_lp_Variant>
AV-unprocessed.smi:36-23

> <Gold.Version>
5.8.1

> <Gold.Id.Protein>
6NUR|6NUR_protein|mol2

> <Gold.PLP.Fitness>
61.1412

> <Gold.PLP.PLP>
-52.9767

> <Gold.PLP.part.hbond>
-3.0000

> <Gold.PLP.part.metal>
0.0000

> <Gold.PLP.part.buried>
-8.7281

> <Gold.PLP.part.nonpolar>
-41.8277

> <Gold.PLP.part.repulsive>
0.2736

> <Gold.PLP.ligand.clash>
0.0000

> <Gold.PLP.ligand.torsion>
1.6388

> <Gold.PLP.Chemscore.Hbond>
2.6480

> <Gold.PLP.Chemscore.CHOScore>
1.0000

> <Gold.PLP.Chemscore.Metal>
0.0000

> <Gold.Chemscore.Hbonds>
donor molecule, donor type, donor heavy atom, donor atom, acceptor molecule, acceptor atom, score
      P1  H  6896  6908       L1    11  0.66
      P1  H  7989  7998       L1    27  1.00
      P1  H  7997  8008       L1    20  0.83
      L1  C    28    59       P1  7957  0.90

> <Gold.PLP.Chemscore.Internal.Correction>
0.4981

> <Gold.Rescore>
     Score         DG    S(hbond)    S(metal)    S(lipo)     H(rot)  DE(clash)    DE(int)     intcor
     13.45     -20.76       2.52        0.00     117.04       2.67       0.01       7.31       ----

> <Gold.Chemscore.Fitness>
13.4460

> <Gold.Chemscore.DG>
-20.7623

> <Gold.Chemscore.ZeroCoef>
-5.4800

> <Gold.Chemscore.Hbond>
2.5221

> <Gold.Chemscore.Metal>
0.0000

> <Gold.Chemscore.Lipo>
117.0443

> <Gold.Chemscore.Internal_Hbond>
0.0000

> <Gold.Chemscore.DEClash>
0.0063

> <Gold.Chemscore.DEInternal>
7.3100

> <Gold.Chemscore.Rot>
2.6702

> <Gold.Chemscore.Internal.Correction>
   9.000000E+99

> <Gold.Chemscore.Hbonds>
donor molecule, donor type, donor heavy atom, donor atom, acceptor molecule, acceptor atom, score
      P1  H  6896  6908       L1    11  0.52
      P1  H  7989  7998       L1    27  0.30
      P1  H  7997  8008       L1    20  0.47

> <Gold.Chemscore.Hbond.Weighted>
-8.4239

> <Gold.Chemscore.Metal.Weighted>
-0.0000

> <Gold.Chemscore.Lipo.Weighted>
-13.6942

> <Gold.Chemscore.Internal_Hbond.Weighted>
0.0000

> <Gold.Chemscore.DEClash.Weighted>
0.0063

> <Gold.Chemscore.DEInternal.Weighted>
7.3100

> <Gold.Chemscore.Rot.Weighted>
6.8358

> <Gold.Chemscore.Internal.Correction.Weighted>
   9.000000E+99

> <Gold.Protein.RotatedTorsions>
[ 6907 6896 6895 6894 ] final  117.20 input  -60.11 | X-H torsion
[ 7974 7965 7964 7962 ] final  128.71 input  175.53 | X-H torsion
[ 8008 7997 7996 7995 ] final  -84.33 input   59.86 | X-H torsion
[ 10167 10162 10161 10158 ] final  138.63 input  -65.29 | X-H torsion
[ 10718 10713 10712 10709 ] final  -78.47 input   66.30 | X-H torsion
[ 10763 10752 10751 10750 ] final  -45.83 input  -60.55 | X-H torsion
[ 11005 11000 10999 10996 ] final  -39.36 input  -57.11 | X-H torsion

> <Gold.Protein.ActiveResidues>
 VAL166  LYS551  ARG553  GLY616  TRP617  ASP618  TYR619  PRO620  LYS621  CYS622 
 ASP623  PHE694  ASN695  SER759  ASP760  ASP761  ALA762  ILE779  LEU786  VAL792 
 PHE793  MET794  SER795  GLU796  ALA797  LYS798  CYS799  TRP800  GLU811  SER814 

> <Gold.Protein.RotatedAtoms>
  152.4627  133.7857  159.6874 H   0  0  0  0  0  0  0  0  0  0  0  0  # atno 6907 bound_to 6896
  150.8578  133.7679  159.3009 H   0  0  0  0  0  0  0  0  0  0  0  0  # atno 6908 bound_to 6896
  151.5254  135.1071  159.9941 H   0  0  0  0  0  0  0  0  0  0  0  0  # atno 6909 bound_to 6896
  145.0365  139.4000  143.5123 H   0  0  0  0  0  0  0  0  0  0  0  0  # atno 7974 bound_to 7965
  154.6286  140.0606  156.9704 H   0  0  0  0  0  0  0  0  0  0  0  0  # atno 8008 bound_to 7997
  155.1701  140.3290  155.4376 H   0  0  0  0  0  0  0  0  0  0  0  0  # atno 8009 bound_to 7997
  156.2471  140.1915  156.6804 H   0  0  0  0  0  0  0  0  0  0  0  0  # atno 8010 bound_to 7997
  139.5104  144.6342  151.5740 H   0  0  0  0  0  0  0  0  0  0  0  0  # atno 10167 bound_to 10162
  156.0117  130.4519  150.3501 H   0  0  0  0  0  0  0  0  0  0  0  0  # atno 10718 bound_to 10713
  154.0349  135.6652  153.4784 H   0  0  0  0  0  0  0  0  0  0  0  0  # atno 10763 bound_to 10752
  153.0525  135.5076  154.7897 H   0  0  0  0  0  0  0  0  0  0  0  0  # atno 10764 bound_to 10752
  154.6855  135.3052  154.9519 H   0  0  0  0  0  0  0  0  0  0  0  0  # atno 10765 bound_to 10752
  141.0096  133.6914  156.2176 H   0  0  0  0  0  0  0  0  0  0  0  0  # atno 11005 bound_to 11000
  146.3505  139.9944  142.8682 LP  0  0  0  0  0  0  0  0  0  0  0  0  # atno 17320 bound_to 7965
  145.1702  140.9717  143.4326 LP  0  0  0  0  0  0  0  0  0  0  0  0  # atno 17321 bound_to 7965
  140.6085  143.9480  150.6436 LP  0  0  0  0  0  0  0  0  0  0  0  0  # atno 17342 bound_to 10162
  140.2715  143.3453  152.1234 LP  0  0  0  0  0  0  0  0  0  0  0  0  # atno 17343 bound_to 10162
  157.1593  131.0341  151.2848 LP  0  0  0  0  0  0  0  0  0  0  0  0  # atno 17370 bound_to 10713
  157.4325  130.7498  149.7001 LP  0  0  0  0  0  0  0  0  0  0  0  0  # atno 17371 bound_to 10713
  140.6756  134.4822  157.5588 LP  0  0  0  0  0  0  0  0  0  0  0  0  # atno 17394 bound_to 11000
  139.9082  134.8402  156.1625 LP  0  0  0  0  0  0  0  0  0  0  0  0  # atno 17395 bound_to 11000

$$$$
