AV-unprocessed.smi:380|AV-procd|sdf|2460|dock3
  -GOLD-   2262022403D 1   1.00000     0.00000
 Structure written by MMmdl.
 39 40  0  0  0  0  0  0  0  0  1 V2000
  147.1129  140.2822  152.9749 C   0  0  0  0  0  0  0  0  0  0  0  0
  147.7630  140.4994  154.3525 C   0  0  0  0  0  0  0  0  0  0  0  0
  147.5561  141.9442  154.8294 C   0  0  0  0  0  0  0  0  0  0  0  0
  149.2629  140.1321  154.3612 C   0  0  0  0  0  0  0  0  0  0  0  0
  149.7457  139.7645  155.6883 N   0  0  0  0  0  0  0  0  0  0  0  0
  151.0257  139.8146  156.0856 C   0  0  0  0  0  0  0  0  0  0  0  0
  151.9469  140.1662  155.3470 O   0  0  0  0  0  0  0  0  0  0  0  0
  151.2929  139.3954  157.5390 C   0  0  0  0  0  0  0  0  0  0  0  0
  151.9653  140.4455  158.3354 N   0  0  0  0  0  0  0  0  0  0  0  0
  153.2690  140.1860  158.8302 C   0  0  0  0  0  0  0  0  0  0  0  0
  153.8315  139.1129  158.6048 O   0  0  0  0  0  0  0  0  0  0  0  0
  153.8734  141.2655  159.6072 C   0  0  0  0  0  0  0  0  0  0  0  0
  155.2011  141.0601  160.0835 C   0  0  0  0  0  0  0  0  0  0  0  0
  156.2774  140.8693  160.4637 N   0  0  0  0  0  0  0  0  0  0  0  0
  153.1970  142.4059  159.8552 C   0  0  0  0  0  0  0  0  0  0  0  0
  151.9091  142.6150  159.4125 N   0  0  0  0  0  0  0  0  0  0  0  0
  151.2600  143.8862  159.5682 C   0  0  0  0  0  0  0  0  0  0  0  0
  151.8669  145.1063  158.9099 C   0  0  0  0  0  0  0  0  0  0  0  0
  151.8981  144.9725  160.4124 C   0  0  0  0  0  0  0  0  0  0  0  0
  151.2740  141.6536  158.5962 C   0  0  0  0  0  0  0  0  0  0  0  0
  150.1529  141.8583  158.1244 O   0  0  0  0  0  0  0  0  0  0  0  0
  147.6029  140.8825  152.2079 H   0  0  0  0  0  0  0  0  0  0  0  0
  146.0587  140.5598  152.9910 H   0  0  0  0  0  0  0  0  0  0  0  0
  147.1656  139.2379  152.6661 H   0  0  0  0  0  0  0  0  0  0  0  0
  147.2494  139.8510  155.0639 H   0  0  0  0  0  0  0  0  0  0  0  0
  148.0401  142.6561  154.1599 H   0  0  0  0  0  0  0  0  0  0  0  0
  147.9699  142.0913  155.8275 H   0  0  0  0  0  0  0  0  0  0  0  0
  146.4962  142.1963  154.8738 H   0  0  0  0  0  0  0  0  0  0  0  0
  149.4419  139.2885  153.6940 H   0  0  0  0  0  0  0  0  0  0  0  0
  149.8598  140.9596  153.9735 H   0  0  0  0  0  0  0  0  0  0  0  0
  149.0529  139.4610  156.3573 H   0  0  0  0  0  0  0  0  0  0  0  0
  150.3484  139.1082  158.0046 H   0  0  0  0  0  0  0  0  0  0  0  0
  151.8708  138.4703  157.5255 H   0  0  0  0  0  0  0  0  0  0  0  0
  153.6781  143.1841  160.4304 H   0  0  0  0  0  0  0  0  0  0  0  0
  150.1722  143.8513  159.5866 H   0  0  0  0  0  0  0  0  0  0  0  0
  152.8111  144.9889  158.3812 H   0  0  0  0  0  0  0  0  0  0  0  0
  151.1838  145.8388  158.4850 H   0  0  0  0  0  0  0  0  0  0  0  0
  151.2341  145.6125  160.9895 H   0  0  0  0  0  0  0  0  0  0  0  0
  152.8635  144.7684  160.8720 H   0  0  0  0  0  0  0  0  0  0  0  0
  1  2  1  0  0  0  0
  1 22  1  0  0  0  0
  1 23  1  0  0  0  0
  1 24  1  0  0  0  0
  2  3  1  0  0  0  0
  2  4  1  0  0  0  0
  2 25  1  0  0  0  0
  3 26  1  0  0  0  0
  3 27  1  0  0  0  0
  3 28  1  0  0  0  0
  4  5  1  0  0  0  0
  4 29  1  0  0  0  0
  4 30  1  0  0  0  0
  5  6  1  0  0  0  0
  5 31  1  0  0  0  0
  6  7  2  0  0  0  0
  6  8  1  0  0  0  0
  8  9  1  0  0  0  0
  8 32  1  0  0  0  0
  8 33  1  0  0  0  0
  9 20  1  0  0  0  0
  9 10  1  0  0  0  0
 10 11  2  0  0  0  0
 10 12  1  0  0  0  0
 12 13  1  0  0  0  0
 12 15  2  0  0  0  0
 13 14  3  0  0  0  0
 15 16  1  0  0  0  0
 15 34  1  0  0  0  0
 16 17  1  0  0  0  0
 16 20  1  0  0  0  0
 17 19  1  0  0  0  0
 17 18  1  0  0  0  0
 17 35  1  0  0  0  0
 18 19  1  0  0  0  0
 18 36  1  0  0  0  0
 18 37  1  0  0  0  0
 19 38  1  0  0  0  0
 19 39  1  0  0  0  0
 20 21  2  0  0  0  0
M  END
> <s_m_source_file>
AV-unprocessed.smi

> <i_m_source_file_index>
380

> <i_lp_mmshare_version>
43012

> <i_f3d_flags>
0

> <s_epik_input>
W0NIM11bQ0hdKFtDSDNdKVtDSDJdW05IXUMoPU8pW0NIMl1uMWMoPU8pYyhDI04pW2NIXW4oYzE9TylbQ0hdMltDSDJdW0NIMl0y

> <s_epik_cmdline>
J2VwaWtfcHl0aG9uJywgJy1waCcsICc3LjAnLCAnLXRuJywgJzgnLCAnLW1hJywgJzIwMCcsICctbWV0YWxfYmluZGluZycsICctaW1hZScsICc8aW5maWxlLm1hZT4nLCAnLW9tYWUnLCAnPG91dGZpbGUubWFlPic=

> <r_lp_tautomer_probability>
1

> <r_epik_Ionization_Penalty>
1.93825e-08

> <r_epik_Ionization_Penalty_Charging>
8.0817e-11

> <r_epik_Ionization_Penalty_Neutral>
1.93017e-08

> <r_epik_State_Penalty>
-0

> <r_epik_Charging_Adjusted_Penalty>
8.0817e-11

> <i_epik_Tot_Q>
0

> <i_epik_Tot_abs_Q>
0

> <r_epik_Metal_State_Penalty>
-0

> <b_epik_Metal_Only>
0

> <s_lp_Force_Field>
OPLS_2005

> <r_lp_Energy>
29.2237

> <b_lp_Chiralities_Consistent>
1

> <s_lp_Variant>
AV-unprocessed.smi:380-1

> <Gold.Version>
5.8.1

> <Gold.Id.Protein>
6NUR|6NUR_protein|mol2

> <Gold.PLP.Fitness>
47.3567

> <Gold.PLP.PLP>
-44.2392

> <Gold.PLP.part.hbond>
-3.0000

> <Gold.PLP.part.metal>
0.0000

> <Gold.PLP.part.buried>
-2.7794

> <Gold.PLP.part.nonpolar>
-38.0546

> <Gold.PLP.part.repulsive>
0.1247

> <Gold.PLP.ligand.clash>
0.0000

> <Gold.PLP.ligand.torsion>
0.5313

> <Gold.PLP.Chemscore.Hbond>
1.3116

> <Gold.PLP.Chemscore.CHOScore>
0.0000

> <Gold.PLP.Chemscore.Metal>
0.0000

> <Gold.Chemscore.Hbonds>
donor molecule, donor type, donor heavy atom, donor atom, acceptor molecule, acceptor atom, score
      P1  H  7989  7998       L1     7  0.80
      P1  H  7997  8010       L1    11  0.50

> <Gold.PLP.Chemscore.Internal.Correction>
0.2452

> <Gold.Rescore>
     Score         DG    S(hbond)    S(metal)    S(lipo)     H(rot)  DE(clash)    DE(int)     intcor
     12.22     -13.76       0.97        0.00      86.71       1.99       0.14       1.40       ----

> <Gold.Chemscore.Fitness>
12.2176

> <Gold.Chemscore.DG>
-13.7609

> <Gold.Chemscore.ZeroCoef>
-5.4800

> <Gold.Chemscore.Hbond>
0.9693

> <Gold.Chemscore.Metal>
0.0000

> <Gold.Chemscore.Lipo>
86.7142

> <Gold.Chemscore.Internal_Hbond>
0.0000

> <Gold.Chemscore.DEClash>
0.1411

> <Gold.Chemscore.DEInternal>
1.4022

> <Gold.Chemscore.Rot>
1.9930

> <Gold.Chemscore.Internal.Correction>
   9.000000E+99

> <Gold.Chemscore.Hbonds>
donor molecule, donor type, donor heavy atom, donor atom, acceptor molecule, acceptor atom, score
      P1  H  7989  7998       L1     7  0.77
      P1  H  7997  8010       L1    11  0.02

> <Gold.Chemscore.Hbond.Weighted>
-3.2373

> <Gold.Chemscore.Metal.Weighted>
-0.0000

> <Gold.Chemscore.Lipo.Weighted>
-10.1456

> <Gold.Chemscore.Internal_Hbond.Weighted>
0.0000

> <Gold.Chemscore.DEClash.Weighted>
0.1411

> <Gold.Chemscore.DEInternal.Weighted>
1.4022

> <Gold.Chemscore.Rot.Weighted>
5.1020

> <Gold.Chemscore.Internal.Correction.Weighted>
   9.000000E+99

> <Gold.Protein.RotatedTorsions>
[ 6907 6896 6895 6894 ] final  -59.42 input  -60.11 | X-H torsion
[ 7974 7965 7964 7962 ] final   19.31 input  175.53 | X-H torsion
[ 8008 7997 7996 7995 ] final    2.92 input   59.86 | X-H torsion
[ 10167 10162 10161 10158 ] final  114.12 input  -65.29 | X-H torsion
[ 10718 10713 10712 10709 ] final  173.97 input   66.30 | X-H torsion
[ 10763 10752 10751 10750 ] final  105.66 input  -60.55 | X-H torsion
[ 11005 11000 10999 10996 ] final   73.11 input  -57.11 | X-H torsion

> <Gold.Protein.ActiveResidues>
 VAL166  LYS551  ARG553  GLY616  TRP617  ASP618  TYR619  PRO620  LYS621  CYS622 
 ASP623  PHE694  ASN695  SER759  ASP760  ASP761  ALA762  ILE779  LEU786  VAL792 
 PHE793  MET794  SER795  GLU796  ALA797  LYS798  CYS799  TRP800  GLU811  SER814 

> <Gold.Protein.RotatedAtoms>
  150.7932  134.6971  159.6529 H   0  0  0  0  0  0  0  0  0  0  0  0  # atno 6907 bound_to 6896
  152.4041  134.6234  160.0066 H   0  0  0  0  0  0  0  0  0  0  0  0  # atno 6908 bound_to 6896
  151.6497  133.3285  159.3185 H   0  0  0  0  0  0  0  0  0  0  0  0  # atno 6909 bound_to 6896
  146.2154  139.8331  142.8656 H   0  0  0  0  0  0  0  0  0  0  0  0  # atno 7974 bound_to 7965
  154.6974  140.2666  155.6752 H   0  0  0  0  0  0  0  0  0  0  0  0  # atno 8008 bound_to 7997
  156.2753  140.2779  156.1497 H   0  0  0  0  0  0  0  0  0  0  0  0  # atno 8009 bound_to 7997
  155.0812  140.0372  157.2629 H   0  0  0  0  0  0  0  0  0  0  0  0  # atno 8010 bound_to 7997
  139.6412  144.7124  151.2234 H   0  0  0  0  0  0  0  0  0  0  0  0  # atno 10167 bound_to 10162
  156.9565  131.0047  151.2937 H   0  0  0  0  0  0  0  0  0  0  0  0  # atno 10718 bound_to 10713
  153.3823  135.3902  155.1866 H   0  0  0  0  0  0  0  0  0  0  0  0  # atno 10763 bound_to 10752
  154.8709  135.3728  154.4841 H   0  0  0  0  0  0  0  0  0  0  0  0  # atno 10764 bound_to 10752
  153.5319  135.7085  153.5740 H   0  0  0  0  0  0  0  0  0  0  0  0  # atno 10765 bound_to 10752
  139.9456  134.7319  156.0987 H   0  0  0  0  0  0  0  0  0  0  0  0  # atno 11005 bound_to 11000
  145.2976  141.0185  143.3627 LP  0  0  0  0  0  0  0  0  0  0  0  0  # atno 17320 bound_to 7965
  144.9030  139.4625  143.6623 LP  0  0  0  0  0  0  0  0  0  0  0  0  # atno 17321 bound_to 7965
  140.7491  143.6309  150.8424 LP  0  0  0  0  0  0  0  0  0  0  0  0  # atno 17342 bound_to 10162
  139.9947  143.5809  152.2897 LP  0  0  0  0  0  0  0  0  0  0  0  0  # atno 17343 bound_to 10162
  157.5687  130.8295  149.8362 LP  0  0  0  0  0  0  0  0  0  0  0  0  # atno 17370 bound_to 10713
  156.0340  130.3756  150.1609 LP  0  0  0  0  0  0  0  0  0  0  0  0  # atno 17371 bound_to 10713
  141.1105  133.6645  156.2968 LP  0  0  0  0  0  0  0  0  0  0  0  0  # atno 17394 bound_to 11000
  140.5842  134.5715  157.5486 LP  0  0  0  0  0  0  0  0  0  0  0  0  # atno 17395 bound_to 11000

$$$$
