AV-unprocessed.smi:2775|AV-procd|sdf|10702|dock6
  -GOLD-   2272015143D 1   1.00000     0.00000
 Structure written by MMmdl.
 43 46  0  0  0  0  0  0  0  0  2 V2000
  143.7846  140.6801  155.8202 C   0  0  0  0  0  0  0  0  0  0  0  0
  145.2646  140.7680  155.5012 C   0  0  0  0  0  0  0  0  0  0  0  0
  145.6597  140.4314  154.2539 N   0  3  0  0  0  0  0  0  0  0  0  0
  146.9485  140.4641  153.8575 C   0  0  0  0  0  0  0  0  0  0  0  0
  147.9522  140.8665  154.7599 C   0  0  0  0  0  0  0  0  0  0  0  0
  147.5934  141.2417  156.0803 C   0  0  0  0  0  0  0  0  0  0  0  0
  148.5289  141.6524  157.0716 N   0  0  0  0  0  0  0  0  0  0  0  0
  149.8693  141.7675  157.0082 C   0  0  0  0  0  0  0  0  0  0  0  0
  150.5475  141.5800  156.0014 O   0  0  0  0  0  0  0  0  0  0  0  0
  150.4354  142.1367  158.1700 N   0  0  0  0  0  0  0  0  0  0  0  0
  151.8576  142.3495  158.4391 C   0  0  2  0  0  0  0  0  0  0  0  0
  152.3389  141.5694  159.6642 C   0  0  1  0  0  0  0  0  0  0  0  0
  153.2245  140.3924  159.8592 C   0  0  0  0  0  0  0  0  0  0  0  0
  154.0385  140.9417  161.0585 C   0  0  0  0  0  0  0  0  0  0  0  0
  153.6687  142.3368  161.1806 O   0  0  0  0  0  0  0  0  0  0  0  0
  153.3105  142.7212  159.8669 C   0  0  2  0  0  0  0  0  0  0  0  0
  152.1644  143.5951  159.3363 C   0  0  0  0  0  0  0  0  0  0  0  0
  151.1512  144.2573  160.2887 C   0  0  0  0  0  0  0  0  0  0  0  0
  151.8796  145.5835  160.0475 C   0  0  0  0  0  0  0  0  0  0  0  0
  152.4510  144.9861  158.7568 C   0  0  0  0  0  0  0  0  0  0  0  0
  146.2271  141.1809  156.4523 C   0  0  0  0  0  0  0  0  0  0  0  0
  145.7331  141.6068  158.0575 Cl  0  0  0  0  0  0  0  0  0  0  0  0
  143.4003  141.6578  156.1130 H   0  0  0  0  0  0  0  0  0  0  0  0
  143.6141  139.9827  156.6410 H   0  0  0  0  0  0  0  0  0  0  0  0
  143.2112  140.3348  154.9589 H   0  0  0  0  0  0  0  0  0  0  0  0
  147.1386  140.1644  152.8371 H   0  0  0  0  0  0  0  0  0  0  0  0
  148.9739  140.8675  154.4153 H   0  0  0  0  0  0  0  0  0  0  0  0
  148.1195  141.9007  157.9607 H   0  0  0  0  0  0  0  0  0  0  0  0
  149.8113  142.2965  158.9480 H   0  0  0  0  0  0  0  0  0  0  0  0
  152.5157  142.2420  157.5725 H   0  0  0  0  0  0  0  0  0  0  0  0
  151.5496  141.5605  160.4253 H   0  0  0  0  0  0  0  0  0  0  0  0
  152.6750  139.4835  160.1054 H   0  0  0  0  0  0  0  0  0  0  0  0
  153.8543  140.2064  158.9883 H   0  0  0  0  0  0  0  0  0  0  0  0
  153.8046  140.4179  161.9858 H   0  0  0  0  0  0  0  0  0  0  0  0
  155.1097  140.8465  160.8761 H   0  0  0  0  0  0  0  0  0  0  0  0
  154.1707  142.6991  159.1894 H   0  0  0  0  0  0  0  0  0  0  0  0
  150.1321  144.2673  159.9003 H   0  0  0  0  0  0  0  0  0  0  0  0
  151.1872  143.9030  161.3192 H   0  0  0  0  0  0  0  0  0  0  0  0
  151.2251  146.4435  159.9018 H   0  0  0  0  0  0  0  0  0  0  0  0
  152.6486  145.7821  160.7957 H   0  0  0  0  0  0  0  0  0  0  0  0
  153.5057  145.2016  158.5837 H   0  0  0  0  0  0  0  0  0  0  0  0
  151.8431  145.2244  157.8842 H   0  0  0  0  0  0  0  0  0  0  0  0
  144.9514  140.1347  153.5820 H   0  0  0  0  0  0  0  0  0  0  0  0
  1  2  1  0  0  0  0
  1 23  1  0  0  0  0
  1 24  1  0  0  0  0
  1 25  1  0  0  0  0
  2 21  1  0  0  0  0
  2  3  2  0  0  0  0
  3  4  1  0  0  0  0
  3 43  1  0  0  0  0
  4  5  2  0  0  0  0
  4 26  1  0  0  0  0
  5  6  1  0  0  0  0
  5 27  1  0  0  0  0
  6  7  1  0  0  0  0
  6 21  2  0  0  0  0
  7  8  1  0  0  0  0
  7 28  1  0  0  0  0
  8  9  2  0  0  0  0
  8 10  1  0  0  0  0
 10 11  1  0  0  0  0
 10 29  1  0  0  0  0
 11 17  1  0  0  0  0
 11 12  1  0  0  0  0
 11 30  1  0  0  0  0
 12 16  1  0  0  0  0
 12 13  1  0  0  0  0
 12 31  1  0  0  0  0
 13 14  1  0  0  0  0
 13 32  1  0  0  0  0
 13 33  1  0  0  0  0
 14 15  1  0  0  0  0
 14 34  1  0  0  0  0
 14 35  1  0  0  0  0
 15 16  1  0  0  0  0
 16 17  1  0  0  0  0
 16 36  1  0  0  0  0
 17 20  1  0  0  0  0
 17 18  1  0  0  0  0
 18 19  1  0  0  0  0
 18 37  1  0  0  0  0
 18 38  1  0  0  0  0
 19 20  1  0  0  0  0
 19 39  1  0  0  0  0
 19 40  1  0  0  0  0
 20 41  1  0  0  0  0
 20 42  1  0  0  0  0
 21 22  1  0  0  0  0
M  CHG  1   3   1
M  END
> <s_m_source_file>
AV-unprocessed.smi

> <i_m_source_file_index>
2775

> <i_lp_mmshare_version>
43012

> <i_f3d_flags>
0

> <s_epik_input>
W0NIM11jMW5bY0hdW2NIXWMoYzFDbClbTkhdQyg9TylbTkhdW0NAQEhdMltDQEhdKFtDSDJdW0NIMl1PMylbQ0BASF0zQzI0W0NIMl1bQ0gyXVtDSDJdNA==

> <s_epik_cmdline>
J2VwaWtfcHl0aG9uJywgJy1waCcsICc3LjAnLCAnLXRuJywgJzgnLCAnLW1hJywgJzIwMCcsICctbWV0YWxfYmluZGluZycsICctaW1hZScsICc8aW5maWxlLm1hZT4nLCAnLW9tYWUnLCAnPG91dGZpbGUubWFlPic=

> <r_epik_Ionization_Penalty>
2.4104

> <r_epik_Ionization_Penalty_Charging>
2.41038

> <r_epik_Ionization_Penalty_Neutral>
1.9872e-05

> <r_epik_State_Penalty>
2.56896

> <r_epik_Charging_Adjusted_Penalty>
4.97934

> <i_epik_Tot_Q>
1

> <i_epik_Tot_abs_Q>
1

> <r_epik_Metal_State_Penalty>
2.57906

> <b_epik_Metal_Only>
0

> <s_lp_Force_Field>
OPLS_2005

> <r_lp_Energy>
84.5881

> <b_lp_Chiralities_Consistent>
1

> <s_lp_Variant>
AV-unprocessed.smi:2775-15

> <Gold.Version>
5.8.1

> <Gold.Id.Protein>
6NUR|6NUR_protein|mol2

> <Gold.PLP.Fitness>
46.0590

> <Gold.PLP.PLP>
-40.0681

> <Gold.PLP.part.hbond>
-1.5467

> <Gold.PLP.part.metal>
0.0000

> <Gold.PLP.part.buried>
-5.0327

> <Gold.PLP.part.nonpolar>
-33.2212

> <Gold.PLP.part.repulsive>
0.1880

> <Gold.PLP.ligand.clash>
0.0000

> <Gold.PLP.ligand.torsion>
0.1649

> <Gold.PLP.Chemscore.Hbond>
2.0000

> <Gold.PLP.Chemscore.CHOScore>
0.0000

> <Gold.PLP.Chemscore.Metal>
0.0000

> <Gold.Chemscore.Hbonds>
donor molecule, donor type, donor heavy atom, donor atom, acceptor molecule, acceptor atom, score
      L1  H     3    43       P1 10175  2.00

> <Gold.PLP.Chemscore.Internal.Correction>
0.3206

> <Gold.Rescore>
     Score         DG    S(hbond)    S(metal)    S(lipo)     H(rot)  DE(clash)    DE(int)     intcor
     18.54     -19.93       0.99        0.00     117.03       1.00       0.07       1.32       ----

> <Gold.Chemscore.Fitness>
18.5414

> <Gold.Chemscore.DG>
-19.9257

> <Gold.Chemscore.ZeroCoef>
-5.4800

> <Gold.Chemscore.Hbond>
0.9919

> <Gold.Chemscore.Metal>
0.0000

> <Gold.Chemscore.Lipo>
117.0328

> <Gold.Chemscore.Internal_Hbond>
0.0000

> <Gold.Chemscore.DEClash>
0.0669

> <Gold.Chemscore.DEInternal>
1.3174

> <Gold.Chemscore.Rot>
1.0000

> <Gold.Chemscore.Internal.Correction>
   9.000000E+99

> <Gold.Chemscore.Hbonds>
donor molecule, donor type, donor heavy atom, donor atom, acceptor molecule, acceptor atom, score
      L1  H     3    43       P1 10175  0.95

> <Gold.Chemscore.Hbond.Weighted>
-3.3128

> <Gold.Chemscore.Metal.Weighted>
-0.0000

> <Gold.Chemscore.Lipo.Weighted>
-13.6928

> <Gold.Chemscore.Internal_Hbond.Weighted>
0.0000

> <Gold.Chemscore.DEClash.Weighted>
0.0669

> <Gold.Chemscore.DEInternal.Weighted>
1.3174

> <Gold.Chemscore.Rot.Weighted>
2.5600

> <Gold.Chemscore.Internal.Correction.Weighted>
   9.000000E+99

> <Gold.Protein.RotatedTorsions>
[ 6907 6896 6895 6894 ] final -111.48 input  -60.11 | X-H torsion
[ 7974 7965 7964 7962 ] final  103.02 input  175.53 | X-H torsion
[ 8008 7997 7996 7995 ] final   49.20 input   59.86 | X-H torsion
[ 10167 10162 10161 10158 ] final   58.97 input  -65.29 | X-H torsion
[ 10718 10713 10712 10709 ] final   95.37 input   66.30 | X-H torsion
[ 10763 10752 10751 10750 ] final  -14.61 input  -60.55 | X-H torsion
[ 11005 11000 10999 10996 ] final  -94.42 input  -57.11 | X-H torsion

> <Gold.Protein.ActiveResidues>
 VAL166  LYS551  ARG553  GLY616  TRP617  ASP618  TYR619  PRO620  LYS621  CYS622 
 ASP623  PHE694  ASN695  SER759  ASP760  ASP761  ALA762  ILE779  LEU786  VAL792 
 PHE793  MET794  SER795  GLU796  ALA797  LYS798  CYS799  TRP800  GLU811  SER814 

> <Gold.Protein.RotatedAtoms>
  150.7693  133.9229  159.3403 H   0  0  0  0  0  0  0  0  0  0  0  0  # atno 6907 bound_to 6896
  151.7119  135.0909  160.0278 H   0  0  0  0  0  0  0  0  0  0  0  0  # atno 6908 bound_to 6896
  152.3704  133.6373  159.6118 H   0  0  0  0  0  0  0  0  0  0  0  0  # atno 6909 bound_to 6896
  145.3514  139.2438  143.3556 H   0  0  0  0  0  0  0  0  0  0  0  0  # atno 7974 bound_to 7965
  155.3982  140.3436  155.4255 H   0  0  0  0  0  0  0  0  0  0  0  0  # atno 8008 bound_to 7997
  156.1519  140.1573  156.8789 H   0  0  0  0  0  0  0  0  0  0  0  0  # atno 8009 bound_to 7997
  154.5060  140.0802  156.7875 H   0  0  0  0  0  0  0  0  0  0  0  0  # atno 8010 bound_to 7997
  140.1814  144.4178  150.6613 H   0  0  0  0  0  0  0  0  0  0  0  0  # atno 10167 bound_to 10162
  157.6939  131.0543  150.4329 H   0  0  0  0  0  0  0  0  0  0  0  0  # atno 10718 bound_to 10713
  153.5308  135.7014  153.5684 H   0  0  0  0  0  0  0  0  0  0  0  0  # atno 10763 bound_to 10752
  153.3692  135.3949  155.1776 H   0  0  0  0  0  0  0  0  0  0  0  0  # atno 10764 bound_to 10752
  154.8685  135.3808  154.4805 H   0  0  0  0  0  0  0  0  0  0  0  0  # atno 10765 bound_to 10752
  141.1471  133.7955  157.0295 H   0  0  0  0  0  0  0  0  0  0  0  0  # atno 11005 bound_to 11000
  146.2966  140.4130  142.8719 LP  0  0  0  0  0  0  0  0  0  0  0  0  # atno 17320 bound_to 7965
  144.8715  140.7279  143.6044 LP  0  0  0  0  0  0  0  0  0  0  0  0  # atno 17321 bound_to 7965
  140.6517  143.2226  151.6062 LP  0  0  0  0  0  0  0  0  0  0  0  0  # atno 17342 bound_to 10162
  139.5294  144.2960  152.1113 LP  0  0  0  0  0  0  0  0  0  0  0  0  # atno 17343 bound_to 10162
  156.4694  130.4049  149.6527 LP  0  0  0  0  0  0  0  0  0  0  0  0  # atno 17370 bound_to 10713
  156.3613  130.7483  151.2455 LP  0  0  0  0  0  0  0  0  0  0  0  0  # atno 17371 bound_to 10713
  140.0763  134.9673  157.1551 LP  0  0  0  0  0  0  0  0  0  0  0  0  # atno 17394 bound_to 11000
  140.3639  134.2464  155.7184 LP  0  0  0  0  0  0  0  0  0  0  0  0  # atno 17395 bound_to 11000

$$$$
