AV-unprocessed.smi:2267|AV-procd|sdf|9149|dock6
  -GOLD-   2272012353D 1   1.00000     0.00000
 Structure written by MMmdl.
 41 42  0  0  0  0  0  0  0  0  1 V2000
  152.7982  142.4260  161.4369 C   0  0  0  0  0  0  0  0  0  0  0  0
  152.3105  142.9661  160.1085 C   0  0  0  0  0  0  0  0  0  0  0  0
  152.3356  144.3515  159.8515 C   0  0  0  0  0  0  0  0  0  0  0  0
  151.8793  144.8446  158.6155 C   0  0  0  0  0  0  0  0  0  0  0  0
  151.3982  143.9549  157.6363 C   0  0  0  0  0  0  0  0  0  0  0  0
  151.3655  142.5660  157.8765 C   0  0  0  0  0  0  0  0  0  0  0  0
  150.8797  141.7682  156.8627 O   0  0  0  0  0  0  0  0  0  0  0  0
  151.1192  140.3686  156.9311 C   0  0  0  0  0  0  0  0  0  0  0  0
  151.7471  139.9057  155.6054 C   0  0  1  0  0  0  0  0  0  0  0  0
  152.8756  139.1178  155.9312 O   0  0  0  0  0  0  0  0  0  0  0  0
  150.7767  139.0269  154.7836 C   0  0  0  0  0  0  0  0  0  0  0  0
  149.3810  139.4836  154.8977 N   0  0  0  0  0  0  0  0  0  0  0  0
  148.5022  138.6331  155.5884 C   0  0  0  0  0  0  0  0  0  0  0  0
  147.2550  138.9321  155.7516 N   0  0  0  0  0  0  0  0  0  0  0  0
  146.7504  140.1267  155.2298 C   0  0  0  0  0  0  0  0  0  0  0  0
  145.2736  140.3787  155.4780 C   0  0  0  0  0  0  0  0  0  0  0  0
  147.5475  140.9912  154.5445 C   0  0  0  0  0  0  0  0  0  0  0  0
  147.0527  142.3046  153.9513 C   0  0  0  0  0  0  0  0  0  0  0  0
  148.9692  140.6633  154.3493 C   0  0  0  0  0  0  0  0  0  0  0  0
  149.7458  141.3956  153.7329 O   0  0  0  0  0  0  0  0  0  0  0  0
  151.8263  142.0778  159.1258 C   0  0  0  0  0  0  0  0  0  0  0  0
  153.3356  143.1881  162.0020 H   0  0  0  0  0  0  0  0  0  0  0  0
  153.4718  141.5828  161.2811 H   0  0  0  0  0  0  0  0  0  0  0  0
  151.9542  142.0858  162.0372 H   0  0  0  0  0  0  0  0  0  0  0  0
  152.7035  145.0392  160.5989 H   0  0  0  0  0  0  0  0  0  0  0  0
  151.8981  145.9061  158.4174 H   0  0  0  0  0  0  0  0  0  0  0  0
  151.0500  144.3426  156.6900 H   0  0  0  0  0  0  0  0  0  0  0  0
  151.7597  140.1081  157.7759 H   0  0  0  0  0  0  0  0  0  0  0  0
  150.1595  139.8692  157.0739 H   0  0  0  0  0  0  0  0  0  0  0  0
  152.0562  140.7771  155.0266 H   0  0  0  0  0  0  0  0  0  0  0  0
  152.5772  138.2688  156.2194 H   0  0  0  0  0  0  0  0  0  0  0  0
  151.1051  138.9612  153.7440 H   0  0  0  0  0  0  0  0  0  0  0  0
  150.8248  137.9966  155.1408 H   0  0  0  0  0  0  0  0  0  0  0  0
  148.9434  137.7107  155.9698 H   0  0  0  0  0  0  0  0  0  0  0  0
  145.1315  141.3026  156.0396 H   0  0  0  0  0  0  0  0  0  0  0  0
  144.8233  139.5671  156.0510 H   0  0  0  0  0  0  0  0  0  0  0  0
  144.7361  140.4578  154.5326 H   0  0  0  0  0  0  0  0  0  0  0  0
  147.1987  142.3069  152.8707 H   0  0  0  0  0  0  0  0  0  0  0  0
  147.6124  143.1412  154.3708 H   0  0  0  0  0  0  0  0  0  0  0  0
  145.9966  142.4906  154.1396 H   0  0  0  0  0  0  0  0  0  0  0  0
  151.8176  141.0229  159.3541 H   0  0  0  0  0  0  0  0  0  0  0  0
  1  2  1  0  0  0  0
  1 22  1  0  0  0  0
  1 23  1  0  0  0  0
  1 24  1  0  0  0  0
  2 21  1  0  0  0  0
  2  3  2  0  0  0  0
  3  4  1  0  0  0  0
  3 25  1  0  0  0  0
  4  5  2  0  0  0  0
  4 26  1  0  0  0  0
  5  6  1  0  0  0  0
  5 27  1  0  0  0  0
  6  7  1  0  0  0  0
  6 21  2  0  0  0  0
  7  8  1  0  0  0  0
  8  9  1  0  0  0  0
  8 28  1  0  0  0  0
  8 29  1  0  0  0  0
  9 10  1  0  0  0  0
  9 11  1  0  0  0  0
  9 30  1  0  0  0  0
 10 31  1  0  0  0  0
 11 12  1  0  0  0  0
 11 32  1  0  0  0  0
 11 33  1  0  0  0  0
 12 19  1  0  0  0  0
 12 13  1  0  0  0  0
 13 14  2  0  0  0  0
 13 34  1  0  0  0  0
 14 15  1  0  0  0  0
 15 16  1  0  0  0  0
 15 17  2  0  0  0  0
 16 35  1  0  0  0  0
 16 36  1  0  0  0  0
 16 37  1  0  0  0  0
 17 18  1  0  0  0  0
 17 19  1  0  0  0  0
 18 38  1  0  0  0  0
 18 39  1  0  0  0  0
 18 40  1  0  0  0  0
 19 20  2  0  0  0  0
 21 41  1  0  0  0  0
M  END
> <s_m_source_file>
AV-unprocessed.smi

> <i_m_source_file_index>
2267

> <i_lp_mmshare_version>
43012

> <i_f3d_flags>
0

> <s_epik_input>
W0NIM11jMVtjSF1bY0hdW2NIXWMoW2NIXTEpT1tDSDJdW0NASF0oW09IXSlbQ0gyXW4yW2NIXW5jKFtDSDNdKWMoW0NIM10pYzI9Tw==

> <s_epik_cmdline>
J2VwaWtfcHl0aG9uJywgJy1waCcsICc3LjAnLCAnLXRuJywgJzgnLCAnLW1hJywgJzIwMCcsICctbWV0YWxfYmluZGluZycsICctaW1hZScsICc8aW5maWxlLm1hZT4nLCAnLW9tYWUnLCAnPG91dGZpbGUubWFlPic=

> <r_lp_tautomer_probability>
1

> <r_epik_Ionization_Penalty>
3.72236e-05

> <r_epik_Ionization_Penalty_Charging>
8.38864e-08

> <r_epik_Ionization_Penalty_Neutral>
3.71397e-05

> <r_epik_State_Penalty>
-0

> <r_epik_Charging_Adjusted_Penalty>
8.38864e-08

> <i_epik_Tot_Q>
0

> <i_epik_Tot_abs_Q>
0

> <r_epik_Metal_State_Penalty>
-0

> <b_epik_Metal_Only>
0

> <s_lp_Force_Field>
OPLS_2005

> <r_lp_Energy>
23.9214

> <b_lp_Chiralities_Consistent>
1

> <s_lp_Variant>
AV-unprocessed.smi:2267-2

> <Gold.Version>
5.8.1

> <Gold.Id.Protein>
6NUR|6NUR_protein|mol2

> <Gold.PLP.Fitness>
47.2880

> <Gold.PLP.PLP>
-44.4007

> <Gold.PLP.part.hbond>
-3.0000

> <Gold.PLP.part.metal>
0.0000

> <Gold.PLP.part.buried>
-3.5549

> <Gold.PLP.part.nonpolar>
-38.8426

> <Gold.PLP.part.repulsive>
1.4099

> <Gold.PLP.ligand.clash>
0.0000

> <Gold.PLP.ligand.torsion>
1.5688

> <Gold.PLP.Chemscore.Hbond>
1.9920

> <Gold.PLP.Chemscore.CHOScore>
0.0000

> <Gold.PLP.Chemscore.Metal>
0.0000

> <Gold.Chemscore.Hbonds>
donor molecule, donor type, donor heavy atom, donor atom, acceptor molecule, acceptor atom, score
      P1  H  7989  7998       L1    20  0.18
      P1  H  7997  8008       L1    10  1.00
      P1  H  8011  8017       L1    20  0.78

> <Gold.PLP.Chemscore.Internal.Correction>
0.0490

> <Gold.Rescore>
     Score         DG    S(hbond)    S(metal)    S(lipo)     H(rot)  DE(clash)    DE(int)     intcor
     17.16     -18.82       1.82        0.00     113.47       2.35       0.11       1.54       ----

> <Gold.Chemscore.Fitness>
17.1627

> <Gold.Chemscore.DG>
-18.8166

> <Gold.Chemscore.ZeroCoef>
-5.4800

> <Gold.Chemscore.Hbond>
1.8186

> <Gold.Chemscore.Metal>
0.0000

> <Gold.Chemscore.Lipo>
113.4703

> <Gold.Chemscore.Internal_Hbond>
0.0000

> <Gold.Chemscore.DEClash>
0.1124

> <Gold.Chemscore.DEInternal>
1.5415

> <Gold.Chemscore.Rot>
2.3490

> <Gold.Chemscore.Internal.Correction>
   9.000000E+99

> <Gold.Chemscore.Hbonds>
donor molecule, donor type, donor heavy atom, donor atom, acceptor molecule, acceptor atom, score
      P1  H  7989  7998       L1    20  0.18
      P1  H  7997  8008       L1    10  0.78
      P1  H  8011  8017       L1    20  0.78

> <Gold.Chemscore.Hbond.Weighted>
-6.0741

> <Gold.Chemscore.Metal.Weighted>
-0.0000

> <Gold.Chemscore.Lipo.Weighted>
-13.2760

> <Gold.Chemscore.Internal_Hbond.Weighted>
0.0000

> <Gold.Chemscore.DEClash.Weighted>
0.1124

> <Gold.Chemscore.DEInternal.Weighted>
1.5415

> <Gold.Chemscore.Rot.Weighted>
6.0136

> <Gold.Chemscore.Internal.Correction.Weighted>
   9.000000E+99

> <Gold.Protein.RotatedTorsions>
[ 6907 6896 6895 6894 ] final  160.11 input  -60.11 | X-H torsion
[ 7974 7965 7964 7962 ] final   55.27 input  175.53 | X-H torsion
[ 8008 7997 7996 7995 ] final  -29.48 input   59.86 | X-H torsion
[ 10167 10162 10161 10158 ] final  143.37 input  -65.29 | X-H torsion
[ 10718 10713 10712 10709 ] final  -18.46 input   66.30 | X-H torsion
[ 10763 10752 10751 10750 ] final   38.11 input  -60.55 | X-H torsion
[ 11005 11000 10999 10996 ] final    9.46 input  -57.11 | X-H torsion

> <Gold.Protein.ActiveResidues>
 VAL166  LYS551  ARG553  GLY616  TRP617  ASP618  TYR619  PRO620  LYS621  CYS622 
 ASP623  PHE694  ASN695  SER759  ASP760  ASP761  ALA762  ILE779  LEU786  VAL792 
 PHE793  MET794  SER795  GLU796  ALA797  LYS798  CYS799  TRP800  GLU811  SER814 

> <Gold.Protein.RotatedAtoms>
  151.9756  133.3740  159.4087 H   0  0  0  0  0  0  0  0  0  0  0  0  # atno 6907 bound_to 6896
  150.6942  134.4093  159.5164 H   0  0  0  0  0  0  0  0  0  0  0  0  # atno 6908 bound_to 6896
  152.1804  134.8758  160.0577 H   0  0  0  0  0  0  0  0  0  0  0  0  # atno 6909 bound_to 6896
  145.9522  139.3982  143.0299 H   0  0  0  0  0  0  0  0  0  0  0  0  # atno 7974 bound_to 7965
  154.4288  140.1817  156.1255 H   0  0  0  0  0  0  0  0  0  0  0  0  # atno 8008 bound_to 7997
  156.0109  140.3350  155.6915 H   0  0  0  0  0  0  0  0  0  0  0  0  # atno 8009 bound_to 7997
  155.6112  140.0650  157.2696 H   0  0  0  0  0  0  0  0  0  0  0  0  # atno 8010 bound_to 7997
  139.4971  144.6045  151.6409 H   0  0  0  0  0  0  0  0  0  0  0  0  # atno 10167 bound_to 10162
  156.5593  130.4721  149.6414 H   0  0  0  0  0  0  0  0  0  0  0  0  # atno 10718 bound_to 10713
  153.0013  135.6259  154.2252 H   0  0  0  0  0  0  0  0  0  0  0  0  # atno 10763 bound_to 10752
  154.1994  135.2805  155.2997 H   0  0  0  0  0  0  0  0  0  0  0  0  # atno 10764 bound_to 10752
  154.5696  135.5680  153.7141 H   0  0  0  0  0  0  0  0  0  0  0  0  # atno 10765 bound_to 10752
  140.5255  134.0517  155.7857 H   0  0  0  0  0  0  0  0  0  0  0  0  # atno 11005 bound_to 11000
  145.8156  140.9705  143.0926 LP  0  0  0  0  0  0  0  0  0  0  0  0  # atno 17320 bound_to 7965
  144.6798  139.9976  143.7484 LP  0  0  0  0  0  0  0  0  0  0  0  0  # atno 17321 bound_to 7965
  140.5703  144.0120  150.6213 LP  0  0  0  0  0  0  0  0  0  0  0  0  # atno 17342 bound_to 10162
  140.3235  143.3122  152.0760 LP  0  0  0  0  0  0  0  0  0  0  0  0  # atno 17343 bound_to 10162
  156.2814  130.7073  151.1898 LP  0  0  0  0  0  0  0  0  0  0  0  0  # atno 17370 bound_to 10713
  157.7372  131.0554  150.5370 LP  0  0  0  0  0  0  0  0  0  0  0  0  # atno 17371 bound_to 10713
  141.1310  133.9301  157.2534 LP  0  0  0  0  0  0  0  0  0  0  0  0  # atno 17394 bound_to 11000
  139.9582  135.0160  156.9188 LP  0  0  0  0  0  0  0  0  0  0  0  0  # atno 17395 bound_to 11000

$$$$
