#       Name:                AV-unprocessed.smi:3085
#       Creating user name   scv26
#       Creation time:       Fri Mar 27 17:14:45 2020


#       File generated by GOLD software.
#

@<TRIPOS>MOLECULE
AV-unprocessed.smi:3085
    32    33     1
SMALL
NO_CHARGES


@<TRIPOS>ATOM
      1 ****        -4.4349   1.5307  -1.0894 C.3            1 S1                 0.0000
      2 ****        -3.8955   0.0970  -1.0678 C.3            1 S1                 0.0000
      3 ****        -2.3831   0.0578  -1.0884 C.2            1 S1                 0.0000
      4 ****        -1.5878   0.1022  -0.0240 N.2            1 S1                 0.0000
      5 ****        -0.3361   0.0925  -0.5032 C.2            1 S1                 0.0000
      6 ****         0.9090   0.0874   0.3589 C.3            1 S1                 0.0000
      7 ****         1.3351  -1.3515   0.7095 C.3            1 S1                 0.0000
      8 ****         2.5550  -1.3349   1.5396 N.4            1 S1                 1.0000
      9 ****         3.6415  -0.5724   0.8946 C.3            1 S1                 0.0000
     10 ****         3.1508   0.8398   0.5342 C.3            1 S1                 0.0000
     11 ****         1.9945   0.7471  -0.2900 O.3            1 S1                 0.0000
     12 ****        -0.3403   0.0321  -1.8438 N.2            1 S1                 0.0000
     13 ****        -1.6114   0.0244  -2.1893 N.pl3          1 S1                -1.0000
     14 ****        -5.5247   1.5366  -1.0803 H              1 S1                 0.0000
     15 ****        -4.1054   2.0607  -1.9835 H              1 S1                 0.0000
     16 ****        -4.0897   2.0914  -0.2202 H              1 S1                 0.0000
     17 ****        -4.2515  -0.4223  -0.1776 H              1 S1                 0.0000
     18 ****        -4.2739  -0.4567  -1.9277 H              1 S1                 0.0000
     19 ****         0.6695   0.6310   1.2749 H              1 S1                 0.0000
     20 ****         0.5414  -1.8660   1.2520 H              1 S1                 0.0000
     21 ****         1.5271  -1.9233  -0.1996 H              1 S1                 0.0000
     22 ****         2.3340  -0.8983   2.4232 H              1 S1                 0.0000
     23 ****         4.4972  -0.5217   1.5679 H              1 S1                 0.0000
     24 ****         3.9669  -1.0994  -0.0033 H              1 S1                 0.0000
     25 ****         2.9255   1.4167   1.4326 H              1 S1                 0.0000
     26 ****         3.9277   1.3815  -0.0057 H              1 S1                 0.0000
     27 ****         2.8603  -2.2830   1.7071 H              1 S1                 0.0000
     28 ****        -1.8660   0.1359   0.9359 LP             1 S1                 0.0000
     29 ****         1.7044   1.6710  -0.5398 LP             1 S1                 0.0000
     30 ****         2.2308   0.2370  -1.1170 LP             1 S1                 0.0000
     31 ****         0.4531  -0.0002  -2.4516 LP             1 S1                 0.0000
     32 ****        -1.9516  -0.0023  -3.1293 LP             1 S1                 0.0000
@<TRIPOS>BOND
    1    1    2 1     
    2    1   14 1     
    3    1   15 1     
    4    1   16 1     
    5    2    3 1     
    6    2   17 1     
    7    2   18 1     
    8    3   13 1     
    9    3    4 2     
   10    4    5 1     
   11    5    6 1     
   12    5   12 2     
   13    6   11 1     
   14    6    7 1     
   15    6   19 1     
   16    7    8 1     
   17    7   20 1     
   18    7   21 1     
   19    8    9 1     
   20    8   22 1     
   21    8   27 1     
   22    9   10 1     
   23    9   23 1     
   24    9   24 1     
   25   10   11 1     
   26   10   25 1     
   27   10   26 1     
   28   12   13 1     
   29    4   28 1     
   30   11   29 1     
   31   11   30 1     
   32   12   31 1     
   33   13   32 1     
@<TRIPOS>SUBSTRUCTURE
      1 S1             1
@<TRIPOS>SET
LONE_PAIRS      STATIC     ATOMS    <user>   **** ""
5 28 29 30 31 32
DONOR_HYDROGENS      STATIC     ATOMS    <user>   **** ""
2 22 27
ATOM$BLUE        STATIC     ATOMS    COLORGROUP SYSTEM
5 28 29 30 31 32
ATOM$RED        STATIC     ATOMS    COLORGROUP SYSTEM
2 22 27
