AV-unprocessed.smi:1225|AV-procd|sdf|5139|dock6
  -GOLD-   22720 4203D 1   1.00000     0.00000
 Structure written by MMmdl.
 49 51  0  0  0  0  0  0  0  0  2 V2000
  150.0973  130.7378  155.6502 C   0  0  0  0  0  0  0  0  0  0  0  0
  149.9720  132.1851  155.3177 C   0  0  0  0  0  0  0  0  0  0  0  0
  149.0861  132.6690  154.4442 N   0  0  0  0  0  0  0  0  0  0  0  0
  149.1724  134.0567  154.3109 C   0  0  0  0  0  0  0  0  0  0  0  0
  150.1376  134.6317  155.1002 C   0  0  0  0  0  0  0  0  0  0  0  0
  150.4895  136.0825  155.1955 C   0  0  0  0  0  0  0  0  0  0  0  0
  149.4687  136.8981  155.8554 N   0  0  0  0  0  0  0  0  0  0  0  0
  148.2505  136.9651  155.0488 C   0  0  0  0  0  0  0  0  0  0  0  0
  149.9972  138.2336  156.1536 C   0  0  0  0  0  0  0  0  0  0  0  0
  151.1352  138.7549  155.2472 C   0  0  1  0  0  0  0  0  0  0  0  0
  150.6153  139.3174  154.0584 O   0  0  0  0  0  0  0  0  0  0  0  0
  152.1143  139.7213  155.9477 C   0  0  0  0  0  0  0  0  0  0  0  0
  151.4535  140.9318  156.4529 N   0  0  0  0  0  0  0  0  0  0  0  0
  150.4766  141.6946  155.8914 C   0  0  0  0  0  0  0  0  0  0  0  0
  150.2052  142.7128  156.7542 N   0  3  0  0  0  0  0  0  0  0  0  0
  151.0181  142.5956  157.8841 C   0  0  0  0  0  0  0  0  0  0  0  0
  151.1120  143.3832  159.0253 C   0  0  0  0  0  0  0  0  0  0  0  0
  152.0513  142.9895  160.0053 C   0  0  0  0  0  0  0  0  0  0  0  0
  152.1828  143.8314  161.2630 C   0  0  0  0  0  0  0  0  0  0  0  0
  152.8580  141.8361  159.8222 C   0  0  0  0  0  0  0  0  0  0  0  0
  153.8638  141.4214  160.8829 C   0  0  0  0  0  0  0  0  0  0  0  0
  152.7472  141.0482  158.6543 C   0  0  0  0  0  0  0  0  0  0  0  0
  151.8187  141.4521  157.6985 C   0  0  0  0  0  0  0  0  0  0  0  0
  150.9855  133.4288  156.0392 S   0  0  0  0  0  0  0  0  0  0  0  0
  149.2777  130.1695  155.2091 H   0  0  0  0  0  0  0  0  0  0  0  0
  150.0747  130.6004  156.7314 H   0  0  0  0  0  0  0  0  0  0  0  0
  151.0400  130.3482  155.2662 H   0  0  0  0  0  0  0  0  0  0  0  0
  148.5020  134.5590  153.6292 H   0  0  0  0  0  0  0  0  0  0  0  0
  151.4283  136.1607  155.7453 H   0  0  0  0  0  0  0  0  0  0  0  0
  150.6926  136.4789  154.1996 H   0  0  0  0  0  0  0  0  0  0  0  0
  147.4574  137.4968  155.5721 H   0  0  0  0  0  0  0  0  0  0  0  0
  147.8640  135.9692  154.8313 H   0  0  0  0  0  0  0  0  0  0  0  0
  148.4336  137.4710  154.1001 H   0  0  0  0  0  0  0  0  0  0  0  0
  149.1795  138.9475  156.0464 H   0  0  0  0  0  0  0  0  0  0  0  0
  150.2963  138.2949  157.2011 H   0  0  0  0  0  0  0  0  0  0  0  0
  151.6978  137.8800  154.9203 H   0  0  0  0  0  0  0  0  0  0  0  0
  149.6722  139.3119  154.1128 H   0  0  0  0  0  0  0  0  0  0  0  0
  152.5909  139.2367  156.8006 H   0  0  0  0  0  0  0  0  0  0  0  0
  152.9175  140.0208  155.2732 H   0  0  0  0  0  0  0  0  0  0  0  0
  150.0056  141.5251  154.9335 H   0  0  0  0  0  0  0  0  0  0  0  0
  150.4947  144.2597  159.1578 H   0  0  0  0  0  0  0  0  0  0  0  0
  153.1888  144.2446  161.3426 H   0  0  0  0  0  0  0  0  0  0  0  0
  151.9832  143.2306  162.1508 H   0  0  0  0  0  0  0  0  0  0  0  0
  151.4794  144.6649  161.2607 H   0  0  0  0  0  0  0  0  0  0  0  0
  154.4133  140.5281  160.5844 H   0  0  0  0  0  0  0  0  0  0  0  0
  153.3590  141.2025  161.8242 H   0  0  0  0  0  0  0  0  0  0  0  0
  154.5898  142.2163  161.0547 H   0  0  0  0  0  0  0  0  0  0  0  0
  153.3611  140.1708  158.5135 H   0  0  0  0  0  0  0  0  0  0  0  0
  149.5149  143.4325  156.5822 H   0  0  0  0  0  0  0  0  0  0  0  0
  1  2  1  0  0  0  0
  1 25  1  0  0  0  0
  1 26  1  0  0  0  0
  1 27  1  0  0  0  0
  2 24  1  0  0  0  0
  2  3  2  0  0  0  0
  3  4  1  0  0  0  0
  4  5  2  0  0  0  0
  4 28  1  0  0  0  0
  5  6  1  0  0  0  0
  5 24  1  0  0  0  0
  6  7  1  0  0  0  0
  6 29  1  0  0  0  0
  6 30  1  0  0  0  0
  7  8  1  0  0  0  0
  7  9  1  0  0  0  0
  8 31  1  0  0  0  0
  8 32  1  0  0  0  0
  8 33  1  0  0  0  0
  9 10  1  0  0  0  0
  9 34  1  0  0  0  0
  9 35  1  0  0  0  0
 10 11  1  0  0  0  0
 10 12  1  0  0  0  0
 10 36  1  0  0  0  0
 11 37  1  0  0  0  0
 12 13  1  0  0  0  0
 12 38  1  0  0  0  0
 12 39  1  0  0  0  0
 13 23  1  0  0  0  0
 13 14  1  0  0  0  0
 14 15  2  0  0  0  0
 14 40  1  0  0  0  0
 15 16  1  0  0  0  0
 15 49  1  0  0  0  0
 16 23  2  0  0  0  0
 16 17  1  0  0  0  0
 17 18  2  0  0  0  0
 17 41  1  0  0  0  0
 18 19  1  0  0  0  0
 18 20  1  0  0  0  0
 19 42  1  0  0  0  0
 19 43  1  0  0  0  0
 19 44  1  0  0  0  0
 20 21  1  0  0  0  0
 20 22  2  0  0  0  0
 21 45  1  0  0  0  0
 21 46  1  0  0  0  0
 21 47  1  0  0  0  0
 22 23  1  0  0  0  0
 22 48  1  0  0  0  0
M  CHG  1  15   1
M  END
> <s_m_source_file>
AV-unprocessed.smi

> <i_m_source_file_index>
1225

> <i_lp_mmshare_version>
43012

> <i_f3d_flags>
0

> <s_epik_input>
W0NIM11jMW5bY0hdYyhzMSlbQ0gyXU4oW0NIM10pW0NIMl1bQ0BIXShbT0hdKVtDSDJdbihbY0hdbjIpYyhjMjMpW2NIXWMoW0NIM10pYyhbY0hdMylbQ0gzXQ==

> <s_epik_cmdline>
J2VwaWtfcHl0aG9uJywgJy1waCcsICc3LjAnLCAnLXRuJywgJzgnLCAnLW1hJywgJzIwMCcsICctbWV0YWxfYmluZGluZycsICctaW1hZScsICc8aW5maWxlLm1hZT4nLCAnLW9tYWUnLCAnPG91dGZpbGUubWFlPic=

> <r_epik_Ionization_Penalty>
1.25968

> <r_epik_Ionization_Penalty_Charging>
1.21782

> <r_epik_Ionization_Penalty_Neutral>
0.0418565

> <r_epik_State_Penalty>
1.29962

> <r_epik_Charging_Adjusted_Penalty>
2.51745

> <i_epik_Tot_Q>
1

> <i_epik_Tot_abs_Q>
1

> <r_epik_Metal_State_Penalty>
1.36802

> <b_epik_Metal_Only>
0

> <s_lp_Force_Field>
OPLS_2005

> <r_lp_Energy>
27.2567

> <b_lp_Chiralities_Consistent>
1

> <s_lp_Variant>
AV-unprocessed.smi:1225-4

> <Gold.Version>
5.8.1

> <Gold.Id.Protein>
6NUR|6NUR_protein|mol2

> <Gold.PLP.Fitness>
56.6819

> <Gold.PLP.PLP>
-46.9262

> <Gold.PLP.part.hbond>
-2.6286

> <Gold.PLP.part.metal>
0.0000

> <Gold.PLP.part.buried>
-5.2630

> <Gold.PLP.part.nonpolar>
-38.4817

> <Gold.PLP.part.repulsive>
0.1560

> <Gold.PLP.ligand.clash>
0.0074

> <Gold.PLP.ligand.torsion>
1.2137

> <Gold.PLP.Chemscore.Hbond>
3.0000

> <Gold.PLP.Chemscore.CHOScore>
0.9956

> <Gold.PLP.Chemscore.Metal>
0.0000

> <Gold.Chemscore.Hbonds>
donor molecule, donor type, donor heavy atom, donor atom, acceptor molecule, acceptor atom, score
      L1  H    15    49       P1  8028  2.00
      P1  H  7989  7998       L1    11  1.00
      L1  C     4    28       P1  7948  1.00

> <Gold.PLP.Chemscore.Internal.Correction>
0.2037

> <Gold.Rescore>
     Score         DG    S(hbond)    S(metal)    S(lipo)     H(rot)  DE(clash)    DE(int)     intcor
     18.58     -20.96       1.92        0.00     129.07       2.36       0.06       2.31       ----

> <Gold.Chemscore.Fitness>
18.5797

> <Gold.Chemscore.DG>
-20.9556

> <Gold.Chemscore.ZeroCoef>
-5.4800

> <Gold.Chemscore.Hbond>
1.9245

> <Gold.Chemscore.Metal>
0.0000

> <Gold.Chemscore.Lipo>
129.0748

> <Gold.Chemscore.Internal_Hbond>
0.0000

> <Gold.Chemscore.DEClash>
0.0644

> <Gold.Chemscore.DEInternal>
2.3114

> <Gold.Chemscore.Rot>
2.3649

> <Gold.Chemscore.Internal.Correction>
   9.000000E+99

> <Gold.Chemscore.Hbonds>
donor molecule, donor type, donor heavy atom, donor atom, acceptor molecule, acceptor atom, score
      L1  H    15    49       P1  8028  0.96
      P1  H  7989  7998       L1    11  0.81

> <Gold.Chemscore.Hbond.Weighted>
-6.4278

> <Gold.Chemscore.Metal.Weighted>
-0.0000

> <Gold.Chemscore.Lipo.Weighted>
-15.1018

> <Gold.Chemscore.Internal_Hbond.Weighted>
0.0000

> <Gold.Chemscore.DEClash.Weighted>
0.0644

> <Gold.Chemscore.DEInternal.Weighted>
2.3114

> <Gold.Chemscore.Rot.Weighted>
6.0540

> <Gold.Chemscore.Internal.Correction.Weighted>
   9.000000E+99

> <Gold.Protein.RotatedTorsions>
[ 6907 6896 6895 6894 ] final   76.94 input  -60.11 | X-H torsion
[ 7974 7965 7964 7962 ] final   29.54 input  175.53 | X-H torsion
[ 8008 7997 7996 7995 ] final   95.45 input   59.86 | X-H torsion
[ 10167 10162 10161 10158 ] final   67.21 input  -65.29 | X-H torsion
[ 10718 10713 10712 10709 ] final    1.02 input   66.30 | X-H torsion
[ 10763 10752 10751 10750 ] final   -4.60 input  -60.55 | X-H torsion
[ 11005 11000 10999 10996 ] final   64.90 input  -57.11 | X-H torsion

> <Gold.Protein.ActiveResidues>
 VAL166  LYS551  ARG553  GLY616  TRP617  ASP618  TYR619  PRO620  LYS621  CYS622 
 ASP623  PHE694  ASN695  SER759  ASP760  ASP761  ALA762  ILE779  LEU786  VAL792 
 PHE793  MET794  SER795  GLU796  ALA797  LYS798  CYS799  TRP800  GLU811  SER814 

> <Gold.Protein.RotatedAtoms>
  152.5096  134.3892  159.9377 H   0  0  0  0  0  0  0  0  0  0  0  0  # atno 6907 bound_to 6896
  151.3852  133.3801  159.2722 H   0  0  0  0  0  0  0  0  0  0  0  0  # atno 6908 bound_to 6896
  150.9474  134.8898  159.7709 H   0  0  0  0  0  0  0  0  0  0  0  0  # atno 6909 bound_to 6896
  146.1665  139.6908  142.8997 H   0  0  0  0  0  0  0  0  0  0  0  0  # atno 7974 bound_to 7965
  156.0690  140.3286  155.7552 H   0  0  0  0  0  0  0  0  0  0  0  0  # atno 8008 bound_to 7997
  155.5336  140.0595  157.2901 H   0  0  0  0  0  0  0  0  0  0  0  0  # atno 8009 bound_to 7997
  154.4520  140.1923  156.0509 H   0  0  0  0  0  0  0  0  0  0  0  0  # atno 8010 bound_to 7997
  140.0921  144.4979  150.7092 H   0  0  0  0  0  0  0  0  0  0  0  0  # atno 10167 bound_to 10162
  156.8419  130.5524  149.5677 H   0  0  0  0  0  0  0  0  0  0  0  0  # atno 10718 bound_to 10713
  153.3871  135.7000  153.6522 H   0  0  0  0  0  0  0  0  0  0  0  0  # atno 10763 bound_to 10752
  153.5110  135.3632  155.2587 H   0  0  0  0  0  0  0  0  0  0  0  0  # atno 10764 bound_to 10752
  154.8698  135.4135  154.3180 H   0  0  0  0  0  0  0  0  0  0  0  0  # atno 10765 bound_to 10752
  139.9929  134.6563  156.0060 H   0  0  0  0  0  0  0  0  0  0  0  0  # atno 11005 bound_to 11000
  145.4453  141.0425  143.2835 LP  0  0  0  0  0  0  0  0  0  0  0  0  # atno 17320 bound_to 7965
  144.8100  139.5979  143.7033 LP  0  0  0  0  0  0  0  0  0  0  0  0  # atno 17321 bound_to 7965
  140.7023  143.2443  151.4828 LP  0  0  0  0  0  0  0  0  0  0  0  0  # atno 17342 bound_to 10162
  139.5719  144.1909  152.1848 LP  0  0  0  0  0  0  0  0  0  0  0  0  # atno 17343 bound_to 10162
  156.0875  130.5870  150.9675 LP  0  0  0  0  0  0  0  0  0  0  0  0  # atno 17370 bound_to 10713
  157.6351  131.0917  150.8365 LP  0  0  0  0  0  0  0  0  0  0  0  0  # atno 17371 bound_to 10713
  141.1580  133.6541  156.4226 LP  0  0  0  0  0  0  0  0  0  0  0  0  # atno 17394 bound_to 11000
  140.4874  134.6607  157.5196 LP  0  0  0  0  0  0  0  0  0  0  0  0  # atno 17395 bound_to 11000

$$$$
