AV-unprocessed.smi:2124|AV-procd|sdf|8665|dock7
  -GOLD-   2272011413D 1   1.00000     0.00000
 Structure written by MMmdl.
 47 49  0  0  0  0  0  0  0  0  1 V2000
  145.3105  137.3435  153.0615 C   0  0  0  0  0  0  0  0  0  0  0  0
  146.4097  138.2926  153.4867 C   0  0  0  0  0  0  0  0  0  0  0  0
  146.0433  139.6273  153.4345 N   0  0  0  0  0  0  0  0  0  0  0  0
  146.9862  140.5721  153.7988 C   0  0  0  0  0  0  0  0  0  0  0  0
  146.5063  142.0105  153.7083 C   0  0  0  0  0  0  0  0  0  0  0  0
  148.2315  140.2053  154.1949 C   0  0  0  0  0  0  0  0  0  0  0  0
  149.3021  141.2193  154.5942 C   0  0  0  0  0  0  0  0  0  0  0  0
  149.8441  141.0819  156.0189 C   0  0  0  0  0  0  0  0  0  0  0  0
  149.8910  139.9770  156.5598 O   0  0  0  0  0  0  0  0  0  0  0  0
  150.2509  142.2165  156.6096 N   0  0  0  0  0  0  0  0  0  0  0  0
  150.8170  142.3372  157.9523 C   0  0  1  0  0  0  0  0  0  0  0  0
  152.1027  141.4986  158.0164 C   0  0  0  0  0  0  0  0  0  0  0  0
  151.0629  143.8295  158.2836 C   0  0  1  0  0  0  0  0  0  0  0  0
  150.0724  144.4464  159.2990 C   0  0  0  0  0  0  0  0  0  0  0  0
  150.9999  145.1504  160.3066 C   0  0  1  0  0  0  0  0  0  0  0  0
  151.6762  144.0882  161.1922 C   0  0  0  0  0  0  0  0  0  0  0  0
  152.6862  143.4397  160.2283 C   0  0  0  0  0  0  0  0  0  0  0  0
  152.4332  144.1949  158.9069 C   0  0  2  0  0  0  0  0  0  0  0  0
  152.1547  145.6041  159.4214 C   0  0  0  0  0  0  0  0  0  0  0  0
  148.5645  138.7615  154.2314 C   0  0  0  0  0  0  0  0  0  0  0  0
  149.6770  138.3652  154.5762 O   0  0  0  0  0  0  0  0  0  0  0  0
  147.5714  137.8435  153.8532 N   0  0  0  0  0  0  0  0  0  0  0  0
  145.1307  139.9438  153.1400 H   0  0  0  0  0  0  0  0  0  0  0  0
  145.5847  136.3094  153.2740 H   0  0  0  0  0  0  0  0  0  0  0  0
  145.1263  137.4350  151.9908 H   0  0  0  0  0  0  0  0  0  0  0  0
  144.3846  137.5653  153.5934 H   0  0  0  0  0  0  0  0  0  0  0  0
  146.5532  142.4906  154.6858 H   0  0  0  0  0  0  0  0  0  0  0  0
  145.4752  142.0689  153.3571 H   0  0  0  0  0  0  0  0  0  0  0  0
  147.1277  142.5773  153.0146 H   0  0  0  0  0  0  0  0  0  0  0  0
  148.9388  142.2392  154.4659 H   0  0  0  0  0  0  0  0  0  0  0  0
  150.1318  141.1317  153.8919 H   0  0  0  0  0  0  0  0  0  0  0  0
  150.1673  143.0726  156.0809 H   0  0  0  0  0  0  0  0  0  0  0  0
  150.1169  141.9192  158.6761 H   0  0  0  0  0  0  0  0  0  0  0  0
  152.5285  141.4999  159.0198 H   0  0  0  0  0  0  0  0  0  0  0  0
  152.8612  141.8792  157.3315 H   0  0  0  0  0  0  0  0  0  0  0  0
  151.9050  140.4593  157.7516 H   0  0  0  0  0  0  0  0  0  0  0  0
  150.9758  144.3900  157.3508 H   0  0  0  0  0  0  0  0  0  0  0  0
  149.4131  145.1606  158.8046 H   0  0  0  0  0  0  0  0  0  0  0  0
  149.4432  143.7038  159.7908 H   0  0  0  0  0  0  0  0  0  0  0  0
  150.5099  145.9433  160.8722 H   0  0  0  0  0  0  0  0  0  0  0  0
  152.1929  144.5524  162.0332 H   0  0  0  0  0  0  0  0  0  0  0  0
  150.9626  143.3679  161.5940 H   0  0  0  0  0  0  0  0  0  0  0  0
  153.7046  143.6165  160.5765 H   0  0  0  0  0  0  0  0  0  0  0  0
  152.5584  142.3612  160.1448 H   0  0  0  0  0  0  0  0  0  0  0  0
  153.2638  144.1319  158.2035 H   0  0  0  0  0  0  0  0  0  0  0  0
  151.8517  146.3024  158.6390 H   0  0  0  0  0  0  0  0  0  0  0  0
  152.9867  146.0348  159.9815 H   0  0  0  0  0  0  0  0  0  0  0  0
  1 24  1  0  0  0  0
  1 25  1  0  0  0  0
  1 26  1  0  0  0  0
  1  2  1  0  0  0  0
  2  3  1  0  0  0  0
  2 22  2  0  0  0  0
  3  4  1  0  0  0  0
  3 23  1  0  0  0  0
  4  6  2  0  0  0  0
  4  5  1  0  0  0  0
  5 27  1  0  0  0  0
  5 28  1  0  0  0  0
  5 29  1  0  0  0  0
  6 20  1  0  0  0  0
  6  7  1  0  0  0  0
  7  8  1  0  0  0  0
  7 30  1  0  0  0  0
  7 31  1  0  0  0  0
  8  9  2  0  0  0  0
  8 10  1  0  0  0  0
 10 11  1  0  0  0  0
 10 32  1  0  0  0  0
 11 12  1  0  0  0  0
 11 13  1  0  0  0  0
 11 33  1  0  0  0  0
 12 34  1  0  0  0  0
 12 35  1  0  0  0  0
 12 36  1  0  0  0  0
 13 18  1  0  0  0  0
 13 14  1  0  0  0  0
 13 37  1  0  0  0  0
 14 15  1  0  0  0  0
 14 38  1  0  0  0  0
 14 39  1  0  0  0  0
 15 19  1  0  0  0  0
 15 16  1  0  0  0  0
 15 40  1  0  0  0  0
 16 17  1  0  0  0  0
 16 41  1  0  0  0  0
 16 42  1  0  0  0  0
 17 18  1  0  0  0  0
 17 43  1  0  0  0  0
 17 44  1  0  0  0  0
 18 19  1  0  0  0  0
 18 45  1  0  0  0  0
 19 46  1  0  0  0  0
 19 47  1  0  0  0  0
 20 21  2  0  0  0  0
 20 22  1  0  0  0  0
M  END
> <s_m_source_file>
AV-unprocessed.smi

> <i_m_source_file_index>
2124

> <i_lp_mmshare_version>
43012

> <i_f3d_flags>
0

> <s_epik_input>
W0NIM11jMW5jKFtDSDNdKWMoYyg9TylbbkhdMSlbQ0gyXUMoPU8pW05IXVtDQEhdKFtDSDNdKVtDQEhdKFtDSDJdW0NASF0yMylbQ0BIXShbQ0gyXTMpW0NIMl1bQ0gyXTI=

> <s_epik_cmdline>
J2VwaWtfcHl0aG9uJywgJy1waCcsICc3LjAnLCAnLXRuJywgJzgnLCAnLW1hJywgJzIwMCcsICctbWV0YWxfYmluZGluZycsICctaW1hZScsICc8aW5maWxlLm1hZT4nLCAnLW9tYWUnLCAnPG91dGZpbGUubWFlPic=

> <r_lp_tautomer_probability>
0.156392

> <r_epik_Ionization_Penalty>
0.0139374

> <r_epik_Ionization_Penalty_Charging>
0.0138122

> <r_epik_Ionization_Penalty_Neutral>
0.000125146

> <r_epik_State_Penalty>
1.15342

> <r_epik_Charging_Adjusted_Penalty>
1.16723

> <i_epik_Tot_Q>
0

> <i_epik_Tot_abs_Q>
0

> <r_epik_Metal_State_Penalty>
1.3173

> <b_epik_Metal_Only>
0

> <s_lp_Force_Field>
OPLS_2005

> <r_lp_Energy>
55.9992

> <b_lp_Chiralities_Consistent>
1

> <s_lp_Variant>
AV-unprocessed.smi:2124-16

> <Gold.Version>
5.8.1

> <Gold.Id.Protein>
6NUR|6NUR_protein|mol2

> <Gold.PLP.Fitness>
46.9682

> <Gold.PLP.PLP>
-44.6007

> <Gold.PLP.part.hbond>
-1.9714

> <Gold.PLP.part.metal>
0.0000

> <Gold.PLP.part.buried>
-7.3630

> <Gold.PLP.part.nonpolar>
-37.0332

> <Gold.PLP.part.repulsive>
1.1602

> <Gold.PLP.ligand.clash>
0.0000

> <Gold.PLP.ligand.torsion>
1.7155

> <Gold.PLP.Chemscore.Hbond>
1.9280

> <Gold.PLP.Chemscore.CHOScore>
0.0000

> <Gold.PLP.Chemscore.Metal>
0.0000

> <Gold.Chemscore.Hbonds>
donor molecule, donor type, donor heavy atom, donor atom, acceptor molecule, acceptor atom, score
      L1  H     3    23       P1 10175  1.00
      L1  H    10    32       P1  8028  0.68

> <Gold.PLP.Chemscore.Internal.Correction>
0.0144

> <Gold.Rescore>
     Score         DG    S(hbond)    S(metal)    S(lipo)     H(rot)  DE(clash)    DE(int)     intcor
     15.90     -21.69       1.78        0.00     123.79       1.65       1.32       4.47       ----

> <Gold.Chemscore.Fitness>
15.8955

> <Gold.Chemscore.DG>
-21.6882

> <Gold.Chemscore.ZeroCoef>
-5.4800

> <Gold.Chemscore.Hbond>
1.7838

> <Gold.Chemscore.Metal>
0.0000

> <Gold.Chemscore.Lipo>
123.7853

> <Gold.Chemscore.Internal_Hbond>
0.0000

> <Gold.Chemscore.DEClash>
1.3235

> <Gold.Chemscore.DEInternal>
4.4692

> <Gold.Chemscore.Rot>
1.6534

> <Gold.Chemscore.Internal.Correction>
   9.000000E+99

> <Gold.Chemscore.Hbonds>
donor molecule, donor type, donor heavy atom, donor atom, acceptor molecule, acceptor atom, score
      L1  H     3    23       P1 10175  1.00
      L1  H    10    32       P1  8028  0.66

> <Gold.Chemscore.Hbond.Weighted>
-5.9580

> <Gold.Chemscore.Metal.Weighted>
-0.0000

> <Gold.Chemscore.Lipo.Weighted>
-14.4829

> <Gold.Chemscore.Internal_Hbond.Weighted>
0.0000

> <Gold.Chemscore.DEClash.Weighted>
1.3235

> <Gold.Chemscore.DEInternal.Weighted>
4.4692

> <Gold.Chemscore.Rot.Weighted>
4.2326

> <Gold.Chemscore.Internal.Correction.Weighted>
   9.000000E+99

> <Gold.Protein.RotatedTorsions>
[ 6907 6896 6895 6894 ] final  125.13 input  -60.11 | X-H torsion
[ 7974 7965 7964 7962 ] final -112.48 input  175.53 | X-H torsion
[ 8008 7997 7996 7995 ] final  -63.80 input   59.86 | X-H torsion
[ 10167 10162 10161 10158 ] final  -48.18 input  -65.29 | X-H torsion
[ 10718 10713 10712 10709 ] final  -81.65 input   66.30 | X-H torsion
[ 10763 10752 10751 10750 ] final  -69.51 input  -60.55 | X-H torsion
[ 11005 11000 10999 10996 ] final   49.40 input  -57.11 | X-H torsion

> <Gold.Protein.ActiveResidues>
 VAL166  LYS551  ARG553  GLY616  TRP617  ASP618  TYR619  PRO620  LYS621  CYS622 
 ASP623  PHE694  ASN695  SER759  ASP760  ASP761  ALA762  ILE779  LEU786  VAL792 
 PHE793  MET794  SER795  GLU796  ALA797  LYS798  CYS799  TRP800  GLU811  SER814 

> <Gold.Protein.RotatedAtoms>
  152.4019  133.6830  159.6323 H   0  0  0  0  0  0  0  0  0  0  0  0  # atno 6907 bound_to 6896
  150.7909  133.8776  159.3285 H   0  0  0  0  0  0  0  0  0  0  0  0  # atno 6908 bound_to 6896
  151.6540  135.0999  160.0218 H   0  0  0  0  0  0  0  0  0  0  0  0  # atno 6909 bound_to 6896
  145.1435  140.8791  143.3688 H   0  0  0  0  0  0  0  0  0  0  0  0  # atno 7974 bound_to 7965
  154.4575  140.0967  156.6798 H   0  0  0  0  0  0  0  0  0  0  0  0  # atno 8008 bound_to 7997
  155.5095  140.3476  155.4367 H   0  0  0  0  0  0  0  0  0  0  0  0  # atno 8009 bound_to 7997
  156.0805  140.1372  156.9706 H   0  0  0  0  0  0  0  0  0  0  0  0  # atno 8010 bound_to 7997
  140.6742  143.2751  151.4034 H   0  0  0  0  0  0  0  0  0  0  0  0  # atno 10167 bound_to 10162
  156.0046  130.4610  150.3985 H   0  0  0  0  0  0  0  0  0  0  0  0  # atno 10718 bound_to 10713
  154.4044  135.6023  153.5916 H   0  0  0  0  0  0  0  0  0  0  0  0  # atno 10763 bound_to 10752
  152.9789  135.5914  154.4145 H   0  0  0  0  0  0  0  0  0  0  0  0  # atno 10764 bound_to 10752
  154.3948  135.2842  155.2111 H   0  0  0  0  0  0  0  0  0  0  0  0  # atno 10765 bound_to 10752
  140.1107  134.4958  155.8680 H   0  0  0  0  0  0  0  0  0  0  0  0  # atno 11005 bound_to 11000
  145.0506  139.3184  143.5930 LP  0  0  0  0  0  0  0  0  0  0  0  0  # atno 17320 bound_to 7965
  146.3502  139.9913  142.8685 LP  0  0  0  0  0  0  0  0  0  0  0  0  # atno 17321 bound_to 7965
  139.6026  144.1264  152.2214 LP  0  0  0  0  0  0  0  0  0  0  0  0  # atno 17342 bound_to 10162
  140.0653  144.5824  150.7232 LP  0  0  0  0  0  0  0  0  0  0  0  0  # atno 17343 bound_to 10162
  157.2055  131.0448  151.2627 LP  0  0  0  0  0  0  0  0  0  0  0  0  # atno 17370 bound_to 10713
  157.3936  130.7295  149.6716 LP  0  0  0  0  0  0  0  0  0  0  0  0  # atno 17371 bound_to 10713
  141.2129  133.6726  156.6699 LP  0  0  0  0  0  0  0  0  0  0  0  0  # atno 17394 bound_to 11000
  140.3095  134.8098  157.4164 LP  0  0  0  0  0  0  0  0  0  0  0  0  # atno 17395 bound_to 11000

$$$$
