#       Name:                AV-unprocessed.smi:1346
#       Creating user name   scv26
#       Creation time:       Fri Mar 27 05:09:45 2020


#       File generated by GOLD software.
#

@<TRIPOS>MOLECULE
AV-unprocessed.smi:1346
    54    55     1
SMALL
NO_CHARGES


@<TRIPOS>ATOM
      1 ****        -2.3085   1.7801   3.8369 C.3            1 S1                 0.0000
      2 ****        -2.6806   2.7916   2.7913 C.2            1 S1                 0.0000
      3 ****        -3.2200   3.9392   3.1661 N.2            1 S1                 0.0000
      4 ****        -3.4489   4.6578   1.9891 O.3            1 S1                 0.0000
      5 ****        -3.0351   3.9049   0.9387 C.2            1 S1                 0.0000
      6 ****        -3.1946   4.5082  -0.4158 C.3            1 S1                 0.0000
      7 ****        -2.5396   2.7068   1.3757 C.2            1 S1                 0.0000
      8 ****        -1.9758   1.5705   0.5618 C.3            1 S1                 0.0000
      9 ****        -0.4709   1.7661   0.3771 C.2            1 S1                 0.0000
     10 ****        -0.0528   2.6246  -0.3999 O.2            1 S1                 0.0000
     11 ****         0.3306   0.9642   1.0945 N.am           1 S1                 0.0000
     12 ****         1.7885   0.9760   1.0541 C.3            1 S1                 0.0000
     13 ****         2.3297   0.3160  -0.2225 C.3            1 S1                 0.0000
     14 ****         1.9306  -1.0460  -0.2487 O.3            1 S1                 0.0000
     15 ****         2.2970  -1.7374  -1.4379 C.3            1 S1                 0.0000
     16 ****         3.1484  -2.9562  -1.0376 C.3            1 S1                 0.0000
     17 ****         2.3317  -3.9940  -0.2499 C.3            1 S1                 0.0000
     18 ****         1.0788  -4.4233  -1.0277 C.3            1 S1                 0.0000
     19 ****         0.2163  -3.2095  -1.4085 C.3            1 S1                 0.0000
     20 ****         1.0260  -2.1681  -2.2066 C.3            1 S1                 0.0000
     21 ****         0.1581  -0.9701  -2.6218 C.3            1 S1                 0.0000
     22 ****        -1.5741   1.0692   3.4592 H              1 S1                 0.0000
     23 ****        -3.1827   1.2147   4.1603 H              1 S1                 0.0000
     24 ****        -1.8770   2.2598   4.7160 H              1 S1                 0.0000
     25 ****        -2.6000   3.9727  -1.1561 H              1 S1                 0.0000
     26 ****        -2.8714   5.5493  -0.4165 H              1 S1                 0.0000
     27 ****        -4.2371   4.4758  -0.7320 H              1 S1                 0.0000
     28 ****        -2.1701   0.6065   1.0338 H              1 S1                 0.0000
     29 ****        -2.4406   1.5188  -0.4233 H              1 S1                 0.0000
     30 ****        -0.1011   0.2869   1.7063 H              1 S1                 0.0000
     31 ****         2.1505   2.0025   1.1299 H              1 S1                 0.0000
     32 ****         2.1624   0.4489   1.9321 H              1 S1                 0.0000
     33 ****         1.9652   0.8406  -1.1069 H              1 S1                 0.0000
     34 ****         3.4188   0.3758  -0.2370 H              1 S1                 0.0000
     35 ****         2.9037  -1.1028  -2.0876 H              1 S1                 0.0000
     36 ****         3.5507  -3.4246  -1.9367 H              1 S1                 0.0000
     37 ****         4.0082  -2.6332  -0.4497 H              1 S1                 0.0000
     38 ****         2.9501  -4.8650  -0.0318 H              1 S1                 0.0000
     39 ****         2.0379  -3.5760   0.7136 H              1 S1                 0.0000
     40 ****         1.3747  -4.9590  -1.9305 H              1 S1                 0.0000
     41 ****         0.4929  -5.1232  -0.4312 H              1 S1                 0.0000
     42 ****        -0.6404  -3.5433  -1.9949 H              1 S1                 0.0000
     43 ****        -0.1893  -2.7517  -0.5052 H              1 S1                 0.0000
     44 ****         1.3563  -2.6514  -3.1274 H              1 S1                 0.0000
     45 ****        -0.2497  -0.4528  -1.7532 H              1 S1                 0.0000
     46 ****        -0.6820  -1.2904  -3.2384 H              1 S1                 0.0000
     47 ****         0.7352  -0.2479  -3.1999 H              1 S1                 0.0000
     48 ****        -3.4227   4.2329   4.1002 LP             1 S1                 0.0000
     49 ****        -2.9357   5.5157   2.0123 LP             1 S1                 0.0000
     50 ****        -4.4250   4.8555   1.8988 LP             1 S1                 0.0000
     51 ****        -0.6975   3.1938  -0.9101 LP             1 S1                 0.0000
     52 ****         0.9316   2.7527  -0.5209 LP             1 S1                 0.0000
     53 ****         0.9354  -1.0833  -0.1580 LP             1 S1                 0.0000
     54 ****         2.3538  -1.5121   0.5283 LP             1 S1                 0.0000
@<TRIPOS>BOND
    1    1    2 1     
    2    1   22 1     
    3    1   23 1     
    4    1   24 1     
    5    2    7 1     
    6    2    3 2     
    7    3    4 1     
    8    4    5 1     
    9    5    6 1     
   10    5    7 2     
   11    6   25 1     
   12    6   26 1     
   13    6   27 1     
   14    7    8 1     
   15    8    9 1     
   16    8   28 1     
   17    8   29 1     
   18    9   10 2     
   19    9   11 am    
   20   11   12 1     
   21   11   30 1     
   22   12   13 1     
   23   12   31 1     
   24   12   32 1     
   25   13   14 1     
   26   13   33 1     
   27   13   34 1     
   28   14   15 1     
   29   15   20 1     
   30   15   16 1     
   31   15   35 1     
   32   16   17 1     
   33   16   36 1     
   34   16   37 1     
   35   17   18 1     
   36   17   38 1     
   37   17   39 1     
   38   18   19 1     
   39   18   40 1     
   40   18   41 1     
   41   19   20 1     
   42   19   42 1     
   43   19   43 1     
   44   20   21 1     
   45   20   44 1     
   46   21   45 1     
   47   21   46 1     
   48   21   47 1     
   49    3   48 1     
   50    4   49 1     
   51    4   50 1     
   52   10   51 1     
   53   10   52 1     
   54   14   53 1     
   55   14   54 1     
@<TRIPOS>SUBSTRUCTURE
      1 S1             1
@<TRIPOS>SET
LONE_PAIRS      STATIC     ATOMS    <user>   **** ""
7 48 49 50 51 52 53 54
DONOR_HYDROGENS      STATIC     ATOMS    <user>   **** ""
1 30
ATOM$BLUE        STATIC     ATOMS    COLORGROUP SYSTEM
7 48 49 50 51 52 53 54
ATOM$RED        STATIC     ATOMS    COLORGROUP SYSTEM
1 30
