#       Name:                AV-unprocessed.smi:636
#       Creating user name   scv26
#       Creation time:       Fri Mar 27 00:06:38 2020


#       File generated by GOLD software.
#

@<TRIPOS>MOLECULE
AV-unprocessed.smi:636
    43    45     1
SMALL
NO_CHARGES


@<TRIPOS>ATOM
      1 ****        -0.5931   2.5842   1.4808 O.2            1 S1                 0.0000
      2 ****         0.0843   1.7677   0.8580 C.2            1 S1                 0.0000
      3 ****         1.4971   2.1685   0.3983 C.3            1 S1                 0.0000
      4 ****         2.2603   1.0966  -0.2671 N.am           1 S1                 0.0000
      5 ****         2.1579   1.0200  -1.6690 C.2            1 S1                 0.0000
      6 ****         2.8007   0.0908  -2.3999 C.2            1 S1                 0.0000
      7 ****         2.6164  -0.0108  -3.9058 C.3            1 S1                 0.0000
      8 ****         3.5185   0.7493  -4.5243 F              1 S1                 0.0000
      9 ****         2.7738  -1.2666  -4.3243 F              1 S1                 0.0000
     10 ****         1.4029   0.4035  -4.2717 F              1 S1                 0.0000
     11 ****         3.6000  -0.8678  -1.6639 C.2            1 S1                 0.0000
     12 ****         3.7018  -0.8233  -0.3202 C.2            1 S1                 0.0000
     13 ****         4.6686  -1.9923   0.5060 Cl             1 S1                 0.0000
     14 ****         3.0016   0.2062   0.4584 C.2            1 S1                 0.0000
     15 ****         3.0670   0.2644   1.6870 O.2            1 S1                 0.0000
     16 ****        -0.3549   0.5337   0.5558 N.am           1 S1                 0.0000
     17 ****        -1.6555  -0.0253   0.9037 C.3            1 S1                 0.0000
     18 ****        -1.6721  -0.6367   2.2951 C.3            1 S1                 0.0000
     19 ****        -2.9639  -0.8314   3.0539 C.3            1 S1                 0.0000
     20 ****        -1.9615   0.1993   3.5195 C.3            1 S1                 0.0000
     21 ****        -2.1086  -1.0446  -0.1251 C.3            1 S1                 0.0000
     22 ****        -2.7346  -0.6099  -1.4283 C.3            1 S1                 0.0000
     23 ****        -3.5729  -1.3103  -0.3821 C.3            1 S1                 0.0000
     24 ****         1.4020   3.0252  -0.2704 H              1 S1                 0.0000
     25 ****         2.0460   2.5501   1.2610 H              1 S1                 0.0000
     26 ****         1.5082   1.7610  -2.1119 H              1 S1                 0.0000
     27 ****         4.1319  -1.6374  -2.2039 H              1 S1                 0.0000
     28 ****         0.2675  -0.0701   0.0390 H              1 S1                 0.0000
     29 ****        -2.3878   0.7846   0.8902 H              1 S1                 0.0000
     30 ****        -0.9323  -1.4242   2.4275 H              1 S1                 0.0000
     31 ****        -3.8830  -0.4630   2.6034 H              1 S1                 0.0000
     32 ****        -3.0656  -1.7383   3.6464 H              1 S1                 0.0000
     33 ****        -1.3935  -0.0198   4.4212 H              1 S1                 0.0000
     34 ****        -2.2178   1.2467   3.3734 H              1 S1                 0.0000
     35 ****        -1.4572  -1.9148  -0.1859 H              1 S1                 0.0000
     36 ****        -2.9064   0.4541  -1.5785 H              1 S1                 0.0000
     37 ****        -2.4722  -1.1710  -2.3227 H              1 S1                 0.0000
     38 ****        -3.8689  -2.3386  -0.5788 H              1 S1                 0.0000
     39 ****        -4.3039  -0.7091   0.1545 H              1 S1                 0.0000
     40 ****        -0.2236   3.4916   1.6807 LP             1 S1                 0.0000
     41 ****        -1.5133   2.3404   1.7871 LP             1 S1                 0.0000
     42 ****         2.5693   0.9773   2.1810 LP             1 S1                 0.0000
     43 ****         3.6177  -0.4013   2.1905 LP             1 S1                 0.0000
@<TRIPOS>BOND
    1    1    2 2     
    2    2    3 1     
    3    2   16 am    
    4    3    4 1     
    5    3   24 1     
    6    3   25 1     
    7    4   14 am    
    8    4    5 1     
    9    5    6 2     
   10    5   26 1     
   11    6    7 1     
   12    6   11 1     
   13    7    8 1     
   14    7    9 1     
   15    7   10 1     
   16   11   12 2     
   17   11   27 1     
   18   12   13 1     
   19   12   14 1     
   20   14   15 2     
   21   16   17 1     
   22   16   28 1     
   23   17   18 1     
   24   17   21 1     
   25   17   29 1     
   26   18   20 1     
   27   18   19 1     
   28   18   30 1     
   29   19   20 1     
   30   19   31 1     
   31   19   32 1     
   32   20   33 1     
   33   20   34 1     
   34   21   23 1     
   35   21   22 1     
   36   21   35 1     
   37   22   23 1     
   38   22   36 1     
   39   22   37 1     
   40   23   38 1     
   41   23   39 1     
   42    1   40 1     
   43    1   41 1     
   44   15   42 1     
   45   15   43 1     
@<TRIPOS>SUBSTRUCTURE
      1 S1             1
@<TRIPOS>SET
LONE_PAIRS      STATIC     ATOMS    <user>   **** ""
4 40 41 42 43
DONOR_HYDROGENS      STATIC     ATOMS    <user>   **** ""
1 28
ATOM$BLUE        STATIC     ATOMS    COLORGROUP SYSTEM
4 40 41 42 43
ATOM$RED        STATIC     ATOMS    COLORGROUP SYSTEM
1 28
