AV-unprocessed.smi:1074|AV-procd|sdf|4692|dock10
  -GOLD-   22720 3213D 1   1.00000     0.00000
 Structure written by MMmdl.
 44 45  0  0  0  0  0  0  0  0  1 V2000
  150.8811  137.2487  155.7965 C   0  0  0  0  0  0  0  0  0  0  0  0
  150.1644  138.5123  155.8772 N   0  0  0  0  0  0  0  0  0  0  0  0
  150.6295  139.6776  155.4030 C   0  0  0  0  0  0  0  0  0  0  0  0
  151.7216  139.7794  154.8442 O   0  0  0  0  0  0  0  0  0  0  0  0
  149.7189  140.9052  155.5954 C   0  0  2  0  0  0  0  0  0  0  0  0
  148.5190  140.6228  156.5301 C   0  0  0  0  0  0  0  0  0  0  0  0
  147.3823  139.8285  155.8590 C   0  0  0  0  0  0  0  0  0  0  0  0
  146.9217  140.4974  154.5491 C   0  0  2  0  0  0  0  0  0  0  0  0
  145.8959  139.6932  153.8925 N   0  0  0  0  0  0  0  0  0  0  0  0
  145.9680  138.3733  153.6692 C   0  0  0  0  0  0  0  0  0  0  0  0
  146.9391  137.6858  153.9824 O   0  0  0  0  0  0  0  0  0  0  0  0
  144.8553  137.9287  153.0597 N   0  0  0  0  0  0  0  0  0  0  0  0
  144.4927  136.6041  152.6887 C   0  0  0  0  0  0  0  0  0  0  0  0
  143.1893  136.0597  152.7897 C   0  0  0  0  0  0  0  0  0  0  0  0
  142.9706  134.7338  152.3693 C   0  0  0  0  0  0  0  0  0  0  0  0
  144.0538  133.9913  151.8593 C   0  0  0  0  0  0  0  0  0  0  0  0
  143.8295  132.6938  151.4466 O   0  0  0  0  0  0  0  0  0  0  0  0
  144.9210  131.9594  150.9030 C   0  0  0  0  0  0  0  0  0  0  0  0
  145.3039  134.5058  151.7572 N   0  0  0  0  0  0  0  0  0  0  0  0
  145.5067  135.7771  152.1621 C   0  0  0  0  0  0  0  0  0  0  0  0
  148.1075  140.6982  153.5895 C   0  0  0  0  0  0  0  0  0  0  0  0
  149.2397  141.5038  154.2526 C   0  0  0  0  0  0  0  0  0  0  0  0
  150.2995  136.4610  156.2752 H   0  0  0  0  0  0  0  0  0  0  0  0
  151.8453  137.3157  156.3019 H   0  0  0  0  0  0  0  0  0  0  0  0
  151.0512  136.9643  154.7575 H   0  0  0  0  0  0  0  0  0  0  0  0
  149.2598  138.5026  156.3258 H   0  0  0  0  0  0  0  0  0  0  0  0
  150.3270  141.6685  156.0841 H   0  0  0  0  0  0  0  0  0  0  0  0
  148.8536  140.0964  157.4251 H   0  0  0  0  0  0  0  0  0  0  0  0
  148.1185  141.5748  156.8807 H   0  0  0  0  0  0  0  0  0  0  0  0
  147.7042  138.8060  155.6620 H   0  0  0  0  0  0  0  0  0  0  0  0
  146.5436  139.7498  156.5517 H   0  0  0  0  0  0  0  0  0  0  0  0
  146.5082  141.4803  154.7833 H   0  0  0  0  0  0  0  0  0  0  0  0
  145.0634  140.1799  153.5944 H   0  0  0  0  0  0  0  0  0  0  0  0
  144.1716  138.6357  152.8318 H   0  0  0  0  0  0  0  0  0  0  0  0
  142.3510  136.6214  153.1684 H   0  0  0  0  0  0  0  0  0  0  0  0
  141.9859  134.2949  152.4344 H   0  0  0  0  0  0  0  0  0  0  0  0
  144.5820  130.9609  150.6276 H   0  0  0  0  0  0  0  0  0  0  0  0
  145.7267  131.8466  151.6298 H   0  0  0  0  0  0  0  0  0  0  0  0
  145.3138  132.4350  150.0031 H   0  0  0  0  0  0  0  0  0  0  0  0
  146.5167  136.1465  152.0599 H   0  0  0  0  0  0  0  0  0  0  0  0
  148.4835  139.7317  153.2527 H   0  0  0  0  0  0  0  0  0  0  0  0
  147.7722  141.2193  152.6920 H   0  0  0  0  0  0  0  0  0  0  0  0
  148.8901  142.5222  154.4272 H   0  0  0  0  0  0  0  0  0  0  0  0
  150.0775  141.5937  153.5597 H   0  0  0  0  0  0  0  0  0  0  0  0
  1  2  1  0  0  0  0
  1 23  1  0  0  0  0
  1 24  1  0  0  0  0
  1 25  1  0  0  0  0
  2  3  1  0  0  0  0
  2 26  1  0  0  0  0
  3  4  2  0  0  0  0
  3  5  1  0  0  0  0
  5 22  1  0  0  0  0
  5  6  1  0  0  0  0
  5 27  1  0  0  0  0
  6  7  1  0  0  0  0
  6 28  1  0  0  0  0
  6 29  1  0  0  0  0
  7  8  1  0  0  0  0
  7 30  1  0  0  0  0
  7 31  1  0  0  0  0
  8  9  1  0  0  0  0
  8 21  1  0  0  0  0
  8 32  1  0  0  0  0
  9 10  1  0  0  0  0
  9 33  1  0  0  0  0
 10 11  2  0  0  0  0
 10 12  1  0  0  0  0
 12 13  1  0  0  0  0
 12 34  1  0  0  0  0
 13 20  1  0  0  0  0
 13 14  2  0  0  0  0
 14 15  1  0  0  0  0
 14 35  1  0  0  0  0
 15 16  2  0  0  0  0
 15 36  1  0  0  0  0
 16 17  1  0  0  0  0
 16 19  1  0  0  0  0
 17 18  1  0  0  0  0
 18 37  1  0  0  0  0
 18 38  1  0  0  0  0
 18 39  1  0  0  0  0
 19 20  2  0  0  0  0
 20 40  1  0  0  0  0
 21 22  1  0  0  0  0
 21 41  1  0  0  0  0
 21 42  1  0  0  0  0
 22 43  1  0  0  0  0
 22 44  1  0  0  0  0
M  END
> <s_m_source_file>
AV-unprocessed.smi

> <i_m_source_file_index>
1074

> <i_lp_mmshare_version>
43012

> <i_f3d_flags>
0

> <s_epik_input>
W0NIM11bTkhdQyg9TylbQ0BASF0xW0NIMl1bQ0gyXVtDQEhdKFtDSDJdW0NIMl0xKVtOSF1DKD1PKVtOSF1jMltjSF1bY0hdYyhPW0NIM10pbltjSF0y

> <s_epik_cmdline>
J2VwaWtfcHl0aG9uJywgJy1waCcsICc3LjAnLCAnLXRuJywgJzgnLCAnLW1hJywgJzIwMCcsICctbWV0YWxfYmluZGluZycsICctaW1hZScsICc8aW5maWxlLm1hZT4nLCAnLW9tYWUnLCAnPG91dGZpbGUubWFlPic=

> <r_lp_tautomer_probability>
1

> <r_epik_Ionization_Penalty>
9.85099e-05

> <r_epik_Ionization_Penalty_Charging>
0

> <r_epik_Ionization_Penalty_Neutral>
9.85099e-05

> <r_epik_State_Penalty>
-0

> <r_epik_Charging_Adjusted_Penalty>
0

> <i_epik_Tot_Q>
0

> <i_epik_Tot_abs_Q>
0

> <r_epik_Metal_State_Penalty>
-0

> <b_epik_Metal_Only>
0

> <s_lp_Force_Field>
OPLS_2005

> <r_lp_Energy>
10.6819

> <b_lp_Chiralities_Consistent>
1

> <s_lp_Variant>
AV-unprocessed.smi:1074-2

> <Gold.Version>
5.8.1

> <Gold.Id.Protein>
6NUR|6NUR_protein|mol2

> <Gold.PLP.Fitness>
41.1024

> <Gold.PLP.PLP>
-30.2505

> <Gold.PLP.part.hbond>
-2.8184

> <Gold.PLP.part.metal>
0.0000

> <Gold.PLP.part.buried>
-3.3435

> <Gold.PLP.part.nonpolar>
-24.4890

> <Gold.PLP.part.repulsive>
0.9733

> <Gold.PLP.ligand.clash>
0.0000

> <Gold.PLP.ligand.torsion>
0.5617

> <Gold.PLP.Chemscore.Hbond>
2.9760

> <Gold.PLP.Chemscore.CHOScore>
1.0000

> <Gold.PLP.Chemscore.Metal>
0.0000

> <Gold.Chemscore.Hbonds>
donor molecule, donor type, donor heavy atom, donor atom, acceptor molecule, acceptor atom, score
      L1  H     9    33       P1 10175  1.00
      L1  H    12    34       P1 10175  1.00
      P1  H  7989  7998       L1     4  1.00
      L1  C    20    40       P1  7948  1.00

> <Gold.PLP.Chemscore.Internal.Correction>
0.0473

> <Gold.Rescore>
     Score         DG    S(hbond)    S(metal)    S(lipo)     H(rot)  DE(clash)    DE(int)     intcor
     15.32     -18.34       2.94        0.00      61.43       1.62       0.09       2.92       ----

> <Gold.Chemscore.Fitness>
15.3224

> <Gold.Chemscore.DG>
-18.3377

> <Gold.Chemscore.ZeroCoef>
-5.4800

> <Gold.Chemscore.Hbond>
2.9431

> <Gold.Chemscore.Metal>
0.0000

> <Gold.Chemscore.Lipo>
61.4280

> <Gold.Chemscore.Internal_Hbond>
0.0000

> <Gold.Chemscore.DEClash>
0.0914

> <Gold.Chemscore.DEInternal>
2.9238

> <Gold.Chemscore.Rot>
1.6248

> <Gold.Chemscore.Internal.Correction>
   9.000000E+99

> <Gold.Chemscore.Hbonds>
donor molecule, donor type, donor heavy atom, donor atom, acceptor molecule, acceptor atom, score
      L1  H     9    33       P1 10175  0.98
      L1  H    12    34       P1 10175  0.97
      P1  H  7989  7998       L1     4  0.80

> <Gold.Chemscore.Hbond.Weighted>
-9.8300

> <Gold.Chemscore.Metal.Weighted>
-0.0000

> <Gold.Chemscore.Lipo.Weighted>
-7.1871

> <Gold.Chemscore.Internal_Hbond.Weighted>
0.0000

> <Gold.Chemscore.DEClash.Weighted>
0.0914

> <Gold.Chemscore.DEInternal.Weighted>
2.9238

> <Gold.Chemscore.Rot.Weighted>
4.1595

> <Gold.Chemscore.Internal.Correction.Weighted>
   9.000000E+99

> <Gold.Protein.RotatedTorsions>
[ 6907 6896 6895 6894 ] final  114.03 input  -60.11 | X-H torsion
[ 7974 7965 7964 7962 ] final  102.49 input  175.53 | X-H torsion
[ 8008 7997 7996 7995 ] final  -47.60 input   59.86 | X-H torsion
[ 10167 10162 10161 10158 ] final   79.69 input  -65.29 | X-H torsion
[ 10718 10713 10712 10709 ] final   20.02 input   66.30 | X-H torsion
[ 10763 10752 10751 10750 ] final  -26.01 input  -60.55 | X-H torsion
[ 11005 11000 10999 10996 ] final   95.75 input  -57.11 | X-H torsion

> <Gold.Protein.ActiveResidues>
 VAL166  LYS551  ARG553  GLY616  TRP617  ASP618  TYR619  PRO620  LYS621  CYS622 
 ASP623  PHE694  ASN695  SER759  ASP760  ASP761  ALA762  ILE779  LEU786  VAL792 
 PHE793  MET794  SER795  GLU796  ALA797  LYS798  CYS799  TRP800  GLU811  SER814 

> <Gold.Protein.RotatedAtoms>
  152.4826  133.8293  159.7094 H   0  0  0  0  0  0  0  0  0  0  0  0  # atno 6907 bound_to 6896
  150.8888  133.7262  159.2917 H   0  0  0  0  0  0  0  0  0  0  0  0  # atno 6908 bound_to 6896
  151.4741  135.1051  159.9812 H   0  0  0  0  0  0  0  0  0  0  0  0  # atno 6909 bound_to 6896
  145.3584  139.2423  143.3520 H   0  0  0  0  0  0  0  0  0  0  0  0  # atno 7974 bound_to 7965
  154.4018  140.1342  156.4202 H   0  0  0  0  0  0  0  0  0  0  0  0  # atno 8008 bound_to 7997
  155.7650  140.3485  155.5197 H   0  0  0  0  0  0  0  0  0  0  0  0  # atno 8009 bound_to 7997
  155.8822  140.0989  157.1467 H   0  0  0  0  0  0  0  0  0  0  0  0  # atno 8010 bound_to 7997
  139.9576  144.5983  150.8102 H   0  0  0  0  0  0  0  0  0  0  0  0  # atno 10167 bound_to 10162
  157.1186  130.6540  149.5917 H   0  0  0  0  0  0  0  0  0  0  0  0  # atno 10718 bound_to 10713
  153.7090  135.6952  153.5042 H   0  0  0  0  0  0  0  0  0  0  0  0  # atno 10763 bound_to 10752
  153.2286  135.4345  155.0569 H   0  0  0  0  0  0  0  0  0  0  0  0  # atno 10764 bound_to 10752
  154.8321  135.3478  154.6627 H   0  0  0  0  0  0  0  0  0  0  0  0  # atno 10765 bound_to 10752
  139.8786  134.8915  156.4057 H   0  0  0  0  0  0  0  0  0  0  0  0  # atno 11005 bound_to 11000
  146.2938  140.4214  142.8729 LP  0  0  0  0  0  0  0  0  0  0  0  0  # atno 17320 bound_to 7965
  144.8664  140.7212  143.6074 LP  0  0  0  0  0  0  0  0  0  0  0  0  # atno 17321 bound_to 7965
  140.7563  143.3064  151.2953 LP  0  0  0  0  0  0  0  0  0  0  0  0  # atno 17342 bound_to 10162
  139.6579  144.0243  152.2672 LP  0  0  0  0  0  0  0  0  0  0  0  0  # atno 17343 bound_to 10162
  155.9833  130.4852  150.6929 LP  0  0  0  0  0  0  0  0  0  0  0  0  # atno 17370 bound_to 10713
  157.4496  131.0871  151.0860 LP  0  0  0  0  0  0  0  0  0  0  0  0  # atno 17371 bound_to 10713
  140.9236  133.7628  155.9936 LP  0  0  0  0  0  0  0  0  0  0  0  0  # atno 17394 bound_to 11000
  140.8412  134.3065  157.5313 LP  0  0  0  0  0  0  0  0  0  0  0  0  # atno 17395 bound_to 11000

$$$$
