#       Name:                AV-unprocessed.smi:1460
#       Creating user name   scv26
#       Creation time:       Fri Mar 27 06:01:15 2020


#       File generated by GOLD software.
#

@<TRIPOS>MOLECULE
AV-unprocessed.smi:1460
    46    47     1
SMALL
NO_CHARGES


@<TRIPOS>ATOM
      1 ****        -3.2891  -1.9189  -2.2798 C.3            1 S1                 0.0000
      2 ****        -2.8320  -0.9614  -1.1713 C.3            1 S1                 0.0000
      3 ****        -3.4983  -1.3059   0.1785 C.3            1 S1                 0.0000
      4 ****        -3.2151  -0.3259   1.2124 N.pl3          1 S1                 0.0000
      5 ****        -2.3367  -0.4255   2.2713 C.2            1 S1                 0.0000
      6 ****        -2.3966   0.7516   2.9604 C.2            1 S1                 0.0000
      7 ****        -3.3564   1.5162   2.2398 C.2            1 S1                 0.0000
      8 ****        -3.8475   0.8671   1.1967 N.2            1 S1                 0.0000
      9 ****        -1.3747  -1.0229  -1.0630 N.am           1 S1                 0.0000
     10 ****        -0.5592   0.0222  -0.8477 C.2            1 S1                 0.0000
     11 ****        -0.9582   1.1824  -0.7417 O.2            1 S1                 0.0000
     12 ****         0.9348  -0.2949  -0.7111 C.3            1 S1                 0.0000
     13 ****         1.4360   0.0303   0.7156 C.3            1 S1                 0.0000
     14 ****         2.9601  -0.1575   0.8254 C.3            1 S1                 0.0000
     15 ****         3.6175   0.6873  -0.1859 N.am           1 S1                 0.0000
     16 ****         4.2872   1.8438   0.0496 C.2            1 S1                 0.0000
     17 ****         4.5890   2.0782   1.3306 N.am           1 S1                 0.0000
     18 ****         4.6425   2.6211  -0.8349 O.2            1 S1                 0.0000
     19 ****         3.2743   0.2541  -1.5460 C.3            1 S1                 0.0000
     20 ****         1.7662   0.4621  -1.7727 C.3            1 S1                 0.0000
     21 ****        -4.3709  -1.8785  -2.4101 H              1 S1                 0.0000
     22 ****        -3.0202  -2.9507  -2.0514 H              1 S1                 0.0000
     23 ****        -2.8340  -1.6589  -3.2361 H              1 S1                 0.0000
     24 ****        -3.1392   0.0430  -1.4693 H              1 S1                 0.0000
     25 ****        -4.5811  -1.3642   0.0582 H              1 S1                 0.0000
     26 ****        -3.1726  -2.2867   0.5276 H              1 S1                 0.0000
     27 ****        -1.7425  -1.3117   2.4381 H              1 S1                 0.0000
     28 ****        -1.8386   1.0263   3.8431 H              1 S1                 0.0000
     29 ****        -3.7087   2.5166   2.4424 H              1 S1                 0.0000
     30 ****        -0.9543  -1.9379  -1.1388 H              1 S1                 0.0000
     31 ****         1.0790  -1.3640  -0.8780 H              1 S1                 0.0000
     32 ****         1.1827   1.0576   0.9830 H              1 S1                 0.0000
     33 ****         0.9339  -0.6095   1.4426 H              1 S1                 0.0000
     34 ****         3.2812   0.0448   1.8470 H              1 S1                 0.0000
     35 ****         3.2203  -1.2011   0.6425 H              1 S1                 0.0000
     36 ****         5.0857   2.9191   1.5855 H              1 S1                 0.0000
     37 ****         4.3163   1.4113   2.0377 H              1 S1                 0.0000
     38 ****         3.8430   0.7839  -2.3117 H              1 S1                 0.0000
     39 ****         3.5305  -0.7997  -1.6657 H              1 S1                 0.0000
     40 ****         1.4950   0.1218  -2.7729 H              1 S1                 0.0000
     41 ****         1.5456   1.5303  -1.7397 H              1 S1                 0.0000
     42 ****        -4.5331   1.1880   0.5434 LP             1 S1                 0.0000
     43 ****        -1.9349   1.3840  -0.8158 LP             1 S1                 0.0000
     44 ****        -0.3055   1.9230  -0.5815 LP             1 S1                 0.0000
     45 ****         4.4401   2.4153  -1.7923 LP             1 S1                 0.0000
     46 ****         5.1338   3.4589  -0.5966 LP             1 S1                 0.0000
@<TRIPOS>BOND
    1    1    2 1     
    2    1   21 1     
    3    1   22 1     
    4    1   23 1     
    5    2    3 1     
    6    2    9 1     
    7    2   24 1     
    8    3    4 1     
    9    3   25 1     
   10    3   26 1     
   11    4    8 1     
   12    4    5 1     
   13    5    6 2     
   14    5   27 1     
   15    6    7 1     
   16    6   28 1     
   17    7    8 2     
   18    7   29 1     
   19    9   10 am    
   20    9   30 1     
   21   10   11 2     
   22   10   12 1     
   23   12   20 1     
   24   12   13 1     
   25   12   31 1     
   26   13   14 1     
   27   13   32 1     
   28   13   33 1     
   29   14   15 1     
   30   14   34 1     
   31   14   35 1     
   32   15   16 am    
   33   15   19 1     
   34   16   17 am    
   35   16   18 2     
   36   17   36 1     
   37   17   37 1     
   38   19   20 1     
   39   19   38 1     
   40   19   39 1     
   41   20   40 1     
   42   20   41 1     
   43    8   42 1     
   44   11   43 1     
   45   11   44 1     
   46   18   45 1     
   47   18   46 1     
@<TRIPOS>SUBSTRUCTURE
      1 S1             1
@<TRIPOS>SET
LONE_PAIRS      STATIC     ATOMS    <user>   **** ""
5 42 43 44 45 46
DONOR_HYDROGENS      STATIC     ATOMS    <user>   **** ""
3 30 36 37
ATOM$BLUE        STATIC     ATOMS    COLORGROUP SYSTEM
5 42 43 44 45 46
ATOM$RED        STATIC     ATOMS    COLORGROUP SYSTEM
3 30 36 37
