AV-unprocessed.smi:3150|AV-procd|sdf|12008|dock10
  -GOLD-   2272017413D 1   1.00000     0.00000
 Structure written by MMmdl.
 33 34  0  0  0  0  0  0  0  0  1 V2000
  152.0264  139.0881  155.3406 C   0  0  0  0  0  0  0  0  0  0  0  0
  151.3871  140.4119  155.7859 C   0  0  1  0  0  0  0  0  0  0  0  0
  149.9798  140.2040  155.8715 O   0  0  0  0  0  0  0  0  0  0  0  0
  149.3303  139.9220  154.6379 C   0  0  0  0  0  0  0  0  0  0  0  0
  148.8432  141.2221  154.0356 C   0  0  0  0  0  0  0  0  0  0  0  0
  147.7183  141.9912  154.6907 C   0  0  0  0  0  0  0  0  0  0  0  0
  147.4885  141.3035  153.3691 C   0  0  0  0  0  0  0  0  0  0  0  0
  151.9423  140.8762  157.1423 C   0  0  0  0  0  0  0  0  0  0  0  0
  152.6505  140.1170  157.8045 O   0  0  0  0  0  0  0  0  0  0  0  0
  151.5851  142.1168  157.5230 N   0  0  0  0  0  0  0  0  0  0  0  0
  151.9261  142.8123  158.7157 C   0  0  0  0  0  0  0  0  0  0  0  0
  152.4937  142.2073  159.7894 N   0  0  0  0  0  0  0  0  0  0  0  0
  152.7884  142.9396  160.8836 C   0  0  0  0  0  0  0  0  0  0  0  0
  152.5360  144.3198  160.9763 C   0  0  0  0  0  0  0  0  0  0  0  0
  151.9476  144.9606  159.8722 C   0  0  0  0  0  0  0  0  0  0  0  0
  151.6374  144.2010  158.7262 C   0  0  0  0  0  0  0  0  0  0  0  0
  151.0638  144.8184  157.6492 O   0  0  0  0  0  0  0  0  0  0  0  0
  153.1115  139.1746  155.2753 H   0  0  0  0  0  0  0  0  0  0  0  0
  151.6605  138.7948  154.3564 H   0  0  0  0  0  0  0  0  0  0  0  0
  151.7948  138.2768  156.0318 H   0  0  0  0  0  0  0  0  0  0  0  0
  151.5959  141.1638  155.0220 H   0  0  0  0  0  0  0  0  0  0  0  0
  149.9987  139.4244  153.9340 H   0  0  0  0  0  0  0  0  0  0  0  0
  148.4730  139.2686  154.8042 H   0  0  0  0  0  0  0  0  0  0  0  0
  149.6340  141.8266  153.5952 H   0  0  0  0  0  0  0  0  0  0  0  0
  147.2482  141.5549  155.5700 H   0  0  0  0  0  0  0  0  0  0  0  0
  147.7835  143.0773  154.6875 H   0  0  0  0  0  0  0  0  0  0  0  0
  147.4025  141.9304  152.4840 H   0  0  0  0  0  0  0  0  0  0  0  0
  146.8691  140.4086  153.3682 H   0  0  0  0  0  0  0  0  0  0  0  0
  150.9924  142.6270  156.8843 H   0  0  0  0  0  0  0  0  0  0  0  0
  153.2394  142.4088  161.7090 H   0  0  0  0  0  0  0  0  0  0  0  0
  152.7871  144.8711  161.8701 H   0  0  0  0  0  0  0  0  0  0  0  0
  151.7381  146.0197  159.9053 H   0  0  0  0  0  0  0  0  0  0  0  0
  150.2918  145.3149  157.8747 H   0  0  0  0  0  0  0  0  0  0  0  0
  1  2  1  0  0  0  0
  1 18  1  0  0  0  0
  1 19  1  0  0  0  0
  1 20  1  0  0  0  0
  2  3  1  0  0  0  0
  2  8  1  0  0  0  0
  2 21  1  0  0  0  0
  3  4  1  0  0  0  0
  4  5  1  0  0  0  0
  4 22  1  0  0  0  0
  4 23  1  0  0  0  0
  5  7  1  0  0  0  0
  5  6  1  0  0  0  0
  5 24  1  0  0  0  0
  6  7  1  0  0  0  0
  6 25  1  0  0  0  0
  6 26  1  0  0  0  0
  7 27  1  0  0  0  0
  7 28  1  0  0  0  0
  8  9  2  0  0  0  0
  8 10  1  0  0  0  0
 10 11  1  0  0  0  0
 10 29  1  0  0  0  0
 11 16  1  0  0  0  0
 11 12  2  0  0  0  0
 12 13  1  0  0  0  0
 13 14  2  0  0  0  0
 13 30  1  0  0  0  0
 14 15  1  0  0  0  0
 14 31  1  0  0  0  0
 15 16  2  0  0  0  0
 15 32  1  0  0  0  0
 16 17  1  0  0  0  0
 17 33  1  0  0  0  0
M  END
> <s_m_source_file>
AV-unprocessed.smi

> <i_m_source_file_index>
3150

> <i_lp_mmshare_version>
43012

> <i_f3d_flags>
0

> <s_epik_input>
W0NIMl0xW0NIMl1bQ0hdMVtDSDJdT1tDQEBIXShbQ0gzXSlDKD1PKVtOSF1jMm5bY0hdW2NIXVtjSF1jMltPSF0=

> <s_epik_cmdline>
J2VwaWtfcHl0aG9uJywgJy1waCcsICc3LjAnLCAnLXRuJywgJzgnLCAnLW1hJywgJzIwMCcsICctbWV0YWxfYmluZGluZycsICctaW1hZScsICc8aW5maWxlLm1hZT4nLCAnLW9tYWUnLCAnPG91dGZpbGUubWFlPic=

> <r_lp_tautomer_probability>
0.43658

> <r_epik_Ionization_Penalty>
0.0204299

> <r_epik_Ionization_Penalty_Charging>
0

> <r_epik_Ionization_Penalty_Neutral>
0.0204299

> <r_epik_State_Penalty>
0.419322

> <r_epik_Charging_Adjusted_Penalty>
0.419322

> <i_epik_Tot_Q>
0

> <i_epik_Tot_abs_Q>
0

> <r_epik_Metal_State_Penalty>
0.377394

> <b_epik_Metal_Only>
0

> <s_lp_Force_Field>
OPLS_2005

> <r_lp_Energy>
16.197

> <b_lp_Chiralities_Consistent>
1

> <s_lp_Variant>
AV-unprocessed.smi:3150-2

> <Gold.Version>
5.8.1

> <Gold.Id.Protein>
6NUR|6NUR_protein|mol2

> <Gold.PLP.Fitness>
42.7990

> <Gold.PLP.PLP>
-40.2320

> <Gold.PLP.part.hbond>
-2.6713

> <Gold.PLP.part.metal>
0.0000

> <Gold.PLP.part.buried>
-5.6135

> <Gold.PLP.part.nonpolar>
-31.5530

> <Gold.PLP.part.repulsive>
0.0664

> <Gold.PLP.ligand.clash>
0.0000

> <Gold.PLP.ligand.torsion>
0.7490

> <Gold.PLP.Chemscore.Hbond>
1.1690

> <Gold.PLP.Chemscore.CHOScore>
0.0000

> <Gold.PLP.Chemscore.Metal>
0.0000

> <Gold.Chemscore.Hbonds>
donor molecule, donor type, donor heavy atom, donor atom, acceptor molecule, acceptor atom, score
      P1  H  7997  8010       L1     9  0.94

> <Gold.PLP.Chemscore.Internal.Correction>
0.5579

> <Gold.Rescore>
     Score         DG    S(hbond)    S(metal)    S(lipo)     H(rot)  DE(clash)    DE(int)     intcor
     10.94     -13.02       0.87        0.00      88.21       2.22       0.12       1.96       ----

> <Gold.Chemscore.Fitness>
10.9378

> <Gold.Chemscore.DG>
-13.0228

> <Gold.Chemscore.ZeroCoef>
-5.4800

> <Gold.Chemscore.Hbond>
0.8692

> <Gold.Chemscore.Metal>
0.0000

> <Gold.Chemscore.Lipo>
88.2130

> <Gold.Chemscore.Internal_Hbond>
0.0000

> <Gold.Chemscore.DEClash>
0.1214

> <Gold.Chemscore.DEInternal>
1.9636

> <Gold.Chemscore.Rot>
2.2192

> <Gold.Chemscore.Internal.Correction>
   9.000000E+99

> <Gold.Chemscore.Hbonds>
donor molecule, donor type, donor heavy atom, donor atom, acceptor molecule, acceptor atom, score
      P1  H  7997  8010       L1     9  0.52

> <Gold.Chemscore.Hbond.Weighted>
-2.9031

> <Gold.Chemscore.Metal.Weighted>
-0.0000

> <Gold.Chemscore.Lipo.Weighted>
-10.3209

> <Gold.Chemscore.Internal_Hbond.Weighted>
0.0000

> <Gold.Chemscore.DEClash.Weighted>
0.1214

> <Gold.Chemscore.DEInternal.Weighted>
1.9636

> <Gold.Chemscore.Rot.Weighted>
5.6812

> <Gold.Chemscore.Internal.Correction.Weighted>
   9.000000E+99

> <Gold.Protein.RotatedTorsions>
[ 6907 6896 6895 6894 ] final -151.11 input  -60.11 | X-H torsion
[ 7974 7965 7964 7962 ] final  -89.58 input  175.53 | X-H torsion
[ 8008 7997 7996 7995 ] final   43.77 input   59.86 | X-H torsion
[ 10167 10162 10161 10158 ] final  132.17 input  -65.29 | X-H torsion
[ 10718 10713 10712 10709 ] final -115.05 input   66.30 | X-H torsion
[ 10763 10752 10751 10750 ] final -139.17 input  -60.55 | X-H torsion
[ 11005 11000 10999 10996 ] final   35.67 input  -57.11 | X-H torsion

> <Gold.Protein.ActiveResidues>
 VAL166  LYS551  ARG553  GLY616  TRP617  ASP618  TYR619  PRO620  LYS621  CYS622 
 ASP623  PHE694  ASN695  SER759  ASP760  ASP761  ALA762  ILE779  LEU786  VAL792 
 PHE793  MET794  SER795  GLU796  ALA797  LYS798  CYS799  TRP800  GLU811  SER814 

> <Gold.Protein.RotatedAtoms>
  151.2083  133.4571  159.2597 H   0  0  0  0  0  0  0  0  0  0  0  0  # atno 6907 bound_to 6896
  151.1002  134.9968  159.8455 H   0  0  0  0  0  0  0  0  0  0  0  0  # atno 6908 bound_to 6896
  152.5442  134.2010  159.8765 H   0  0  0  0  0  0  0  0  0  0  0  0  # atno 6909 bound_to 6896
  145.4379  140.9558  143.2091 H   0  0  0  0  0  0  0  0  0  0  0  0  # atno 7974 bound_to 7965
  155.3082  140.3389  155.4245 H   0  0  0  0  0  0  0  0  0  0  0  0  # atno 8008 bound_to 7997
  156.1968  140.1718  156.8019 H   0  0  0  0  0  0  0  0  0  0  0  0  # atno 8009 bound_to 7997
  154.5509  140.0706  156.8650 H   0  0  0  0  0  0  0  0  0  0  0  0  # atno 8010 bound_to 7997
  139.5351  144.6674  151.4813 H   0  0  0  0  0  0  0  0  0  0  0  0  # atno 10167 bound_to 10162
  156.0870  130.6060  150.8855 H   0  0  0  0  0  0  0  0  0  0  0  0  # atno 10718 bound_to 10713
  154.8617  135.3590  154.5503 H   0  0  0  0  0  0  0  0  0  0  0  0  # atno 10763 bound_to 10752
  153.6122  135.7009  153.5347 H   0  0  0  0  0  0  0  0  0  0  0  0  # atno 10764 bound_to 10752
  153.3200  135.4154  155.1369 H   0  0  0  0  0  0  0  0  0  0  0  0  # atno 10765 bound_to 10752
  140.2403  134.3422  155.7928 H   0  0  0  0  0  0  0  0  0  0  0  0  # atno 11005 bound_to 11000
  144.8140  139.5910  143.7016 LP  0  0  0  0  0  0  0  0  0  0  0  0  # atno 17320 bound_to 7965
  146.2572  139.6329  142.9387 LP  0  0  0  0  0  0  0  0  0  0  0  0  # atno 17321 bound_to 7965
  140.6553  143.8612  150.6828 LP  0  0  0  0  0  0  0  0  0  0  0  0  # atno 17342 bound_to 10162
  140.1990  143.3975  152.1806 LP  0  0  0  0  0  0  0  0  0  0  0  0  # atno 17343 bound_to 10162
  157.6007  131.0941  150.8965 LP  0  0  0  0  0  0  0  0  0  0  0  0  # atno 17370 bound_to 10713
  156.9122  130.5285  149.5280 LP  0  0  0  0  0  0  0  0  0  0  0  0  # atno 17371 bound_to 10713
  141.2211  133.7295  156.8875 LP  0  0  0  0  0  0  0  0  0  0  0  0  # atno 17394 bound_to 11000
  140.1660  134.9133  157.2774 LP  0  0  0  0  0  0  0  0  0  0  0  0  # atno 17395 bound_to 11000

$$$$
