AV-unprocessed.smi:2095|AV-procd|sdf|8560|dock1
  -GOLD-   2272011283D 1   1.00000     0.00000
 Structure written by MMmdl.
 42 43  0  0  0  0  0  0  0  0  2 V2000
  148.2383  133.1635  153.0926 C   0  0  0  0  0  0  0  0  0  0  0  0
  146.7000  133.1151  153.0953 C   0  0  2  0  0  0  0  0  0  0  0  0
  146.1194  132.5671  151.7778 C   0  0  0  0  0  0  0  0  0  0  0  0
  146.2274  133.5996  150.6455 C   0  0  0  0  0  0  0  0  0  0  0  0
  145.5981  134.9383  151.0607 C   0  0  0  0  0  0  0  0  0  0  0  0
  146.2226  135.4476  152.3119 N   0  3  1  0  0  0  0  0  0  0  0  0
  145.8656  136.8483  152.6820 C   0  0  1  0  0  0  0  0  0  0  0  0
  144.3392  137.0002  152.8243 C   0  0  0  0  0  0  0  0  0  0  0  0
  146.6325  137.3649  153.9257 C   0  0  0  0  0  0  0  0  0  0  0  0
  147.9562  137.8752  153.5863 N   0  0  0  0  0  0  0  0  0  0  0  0
  148.7021  138.6604  154.3796 C   0  0  0  0  0  0  0  0  0  0  0  0
  148.3408  139.0290  155.4969 O   0  0  0  0  0  0  0  0  0  0  0  0
  150.0677  139.0860  153.8380 C   0  0  0  0  0  0  0  0  0  0  0  0
  151.1290  138.7737  154.7771 N   0  0  0  0  0  0  0  0  0  0  0  0
  151.8248  139.5544  155.6064 C   0  0  0  0  0  0  0  0  0  0  0  0
  152.7240  138.8621  156.2892 N   0  0  0  0  0  0  0  0  0  0  0  0
  152.5439  137.5691  155.8271 N   0  0  0  0  0  0  0  0  0  0  0  0
  151.5985  137.5102  154.9299 N   0  0  0  0  0  0  0  0  0  0  0  0
  146.0735  134.4835  153.4357 C   0  0  0  0  0  0  0  0  0  0  0  0
  148.6241  133.8557  152.3441 H   0  0  0  0  0  0  0  0  0  0  0  0
  148.6601  132.1802  152.8826 H   0  0  0  0  0  0  0  0  0  0  0  0
  148.6211  133.4817  154.0626 H   0  0  0  0  0  0  0  0  0  0  0  0
  146.4174  132.4207  153.8878 H   0  0  0  0  0  0  0  0  0  0  0  0
  146.6185  131.6396  151.4948 H   0  0  0  0  0  0  0  0  0  0  0  0
  145.0689  132.3138  151.9278 H   0  0  0  0  0  0  0  0  0  0  0  0
  147.2730  133.7511  150.3749 H   0  0  0  0  0  0  0  0  0  0  0  0
  145.7333  133.2194  149.7510 H   0  0  0  0  0  0  0  0  0  0  0  0
  145.7236  135.6566  150.2511 H   0  0  0  0  0  0  0  0  0  0  0  0
  144.5252  134.8049  151.2058 H   0  0  0  0  0  0  0  0  0  0  0  0
  146.1439  137.4731  151.8323 H   0  0  0  0  0  0  0  0  0  0  0  0
  144.0529  138.0486  152.9111 H   0  0  0  0  0  0  0  0  0  0  0  0
  143.9585  136.4862  153.7066 H   0  0  0  0  0  0  0  0  0  0  0  0
  143.8216  136.5977  151.9531 H   0  0  0  0  0  0  0  0  0  0  0  0
  146.0879  138.1828  154.3976 H   0  0  0  0  0  0  0  0  0  0  0  0
  146.7300  136.5841  154.6809 H   0  0  0  0  0  0  0  0  0  0  0  0
  148.3289  137.6212  152.6822 H   0  0  0  0  0  0  0  0  0  0  0  0
  150.2731  138.5744  152.8966 H   0  0  0  0  0  0  0  0  0  0  0  0
  150.0683  140.1571  153.6308 H   0  0  0  0  0  0  0  0  0  0  0  0
  151.6768  140.6197  155.7058 H   0  0  0  0  0  0  0  0  0  0  0  0
  145.0147  134.3539  153.6631 H   0  0  0  0  0  0  0  0  0  0  0  0
  146.5385  134.8797  154.3393 H   0  0  0  0  0  0  0  0  0  0  0  0
  147.2155  135.4766  152.1286 H   0  0  0  0  0  0  0  0  0  0  0  0
  1  2  1  0  0  0  0
  1 20  1  0  0  0  0
  1 21  1  0  0  0  0
  1 22  1  0  0  0  0
  2 19  1  0  0  0  0
  2  3  1  0  0  0  0
  2 23  1  0  0  0  0
  3  4  1  0  0  0  0
  3 24  1  0  0  0  0
  3 25  1  0  0  0  0
  4  5  1  0  0  0  0
  4 26  1  0  0  0  0
  4 27  1  0  0  0  0
  5  6  1  0  0  0  0
  5 28  1  0  0  0  0
  5 29  1  0  0  0  0
  6  7  1  0  0  0  0
  6 19  1  0  0  0  0
  6 42  1  0  0  0  0
  7  8  1  0  0  0  0
  7  9  1  0  0  0  0
  7 30  1  0  0  0  0
  8 31  1  0  0  0  0
  8 32  1  0  0  0  0
  8 33  1  0  0  0  0
  9 10  1  0  0  0  0
  9 34  1  0  0  0  0
  9 35  1  0  0  0  0
 10 11  1  0  0  0  0
 10 36  1  0  0  0  0
 11 12  2  0  0  0  0
 11 13  1  0  0  0  0
 13 14  1  0  0  0  0
 13 37  1  0  0  0  0
 13 38  1  0  0  0  0
 14 18  1  0  0  0  0
 14 15  1  0  0  0  0
 15 16  2  0  0  0  0
 15 39  1  0  0  0  0
 16 17  1  0  0  0  0
 17 18  2  0  0  0  0
 19 40  1  0  0  0  0
 19 41  1  0  0  0  0
M  CHG  1   6   1
M  END
> <s_m_source_file>
AV-unprocessed.smi

> <i_m_source_file_index>
2095

> <i_lp_mmshare_version>
43012

> <i_f3d_flags>
0

> <s_epik_input>
W0NIM11bQ0BASF0xW0NIMl1bQ0gyXVtDSDJdTihbQ0gyXTEpW0NASF0oW0NIM10pW0NIMl1bTkhdQyg9TylbQ0gyXW4yW2NIXW5ubjI=

> <s_epik_cmdline>
J2VwaWtfcHl0aG9uJywgJy1waCcsICc3LjAnLCAnLXRuJywgJzgnLCAnLW1hJywgJzIwMCcsICctbWV0YWxfYmluZGluZycsICctaW1hZScsICc8aW5maWxlLm1hZT4nLCAnLW9tYWUnLCAnPG91dGZpbGUubWFlPic=

> <r_lp_tautomer_probability>
1

> <r_epik_Ionization_Penalty>
0.00268321

> <r_epik_Ionization_Penalty_Charging>
0.00267875

> <r_epik_Ionization_Penalty_Neutral>
4.46125e-06

> <r_epik_State_Penalty>
0.00186642

> <r_epik_Charging_Adjusted_Penalty>
0.00454517

> <i_epik_Tot_Q>
1

> <i_epik_Tot_abs_Q>
1

> <r_epik_Metal_State_Penalty>
-0

> <b_epik_Metal_Only>
0

> <s_lp_Force_Field>
OPLS_2005

> <r_lp_Energy>
24.9707

> <b_lp_Chiralities_Consistent>
1

> <s_lp_Variant>
AV-unprocessed.smi:2095-7

> <Gold.Version>
5.8.1

> <Gold.Id.Protein>
6NUR|6NUR_protein|mol2

> <Gold.PLP.Fitness>
40.2325

> <Gold.PLP.PLP>
-29.4926

> <Gold.PLP.part.hbond>
-4.8255

> <Gold.PLP.part.metal>
0.0000

> <Gold.PLP.part.buried>
-2.2077

> <Gold.PLP.part.nonpolar>
-23.1376

> <Gold.PLP.part.repulsive>
0.1879

> <Gold.PLP.ligand.clash>
0.0000

> <Gold.PLP.ligand.torsion>
0.7456

> <Gold.PLP.Chemscore.Hbond>
4.0205

> <Gold.PLP.Chemscore.CHOScore>
0.0000

> <Gold.PLP.Chemscore.Metal>
0.0000

> <Gold.Chemscore.Hbonds>
donor molecule, donor type, donor heavy atom, donor atom, acceptor molecule, acceptor atom, score
      L1  H     6    42       P1  7948  2.00
      L1  H    10    36       P1  7948  0.82
      P1  H  7997  8010       L1    16  0.98
      P1  H 10752 10765       L1    17  0.01

> <Gold.PLP.Chemscore.Internal.Correction>
0.1696

> <Gold.Rescore>
     Score         DG    S(hbond)    S(metal)    S(lipo)     H(rot)  DE(clash)    DE(int)     intcor
     12.29     -13.83       2.82        0.00      48.55       2.64       0.81       0.73       ----

> <Gold.Chemscore.Fitness>
12.2892

> <Gold.Chemscore.DG>
-13.8262

> <Gold.Chemscore.ZeroCoef>
-5.4800

> <Gold.Chemscore.Hbond>
2.8245

> <Gold.Chemscore.Metal>
0.0000

> <Gold.Chemscore.Lipo>
48.5536

> <Gold.Chemscore.Internal_Hbond>
0.0000

> <Gold.Chemscore.DEClash>
0.8072

> <Gold.Chemscore.DEInternal>
0.7299

> <Gold.Chemscore.Rot>
2.6439

> <Gold.Chemscore.Internal.Correction>
   9.000000E+99

> <Gold.Chemscore.Hbonds>
donor molecule, donor type, donor heavy atom, donor atom, acceptor molecule, acceptor atom, score
      L1  H     6    42       P1  7948  0.99
      L1  H    10    36       P1  7948  0.81
      P1  H  7997  8010       L1    16  0.41

> <Gold.Chemscore.Hbond.Weighted>
-9.4339

> <Gold.Chemscore.Metal.Weighted>
-0.0000

> <Gold.Chemscore.Lipo.Weighted>
-5.6808

> <Gold.Chemscore.Internal_Hbond.Weighted>
0.0000

> <Gold.Chemscore.DEClash.Weighted>
0.8072

> <Gold.Chemscore.DEInternal.Weighted>
0.7299

> <Gold.Chemscore.Rot.Weighted>
6.7685

> <Gold.Chemscore.Internal.Correction.Weighted>
   9.000000E+99

> <Gold.Protein.RotatedTorsions>
[ 6907 6896 6895 6894 ] final   88.00 input  -60.11 | X-H torsion
[ 7974 7965 7964 7962 ] final  114.03 input  175.53 | X-H torsion
[ 8008 7997 7996 7995 ] final   74.40 input   59.86 | X-H torsion
[ 10167 10162 10161 10158 ] final   14.33 input  -65.29 | X-H torsion
[ 10718 10713 10712 10709 ] final   26.04 input   66.30 | X-H torsion
[ 10763 10752 10751 10750 ] final -121.93 input  -60.55 | X-H torsion
[ 11005 11000 10999 10996 ] final   70.71 input  -57.11 | X-H torsion

> <Gold.Protein.ActiveResidues>
 VAL166  LYS551  ARG553  GLY616  TRP617  ASP618  TYR619  PRO620  LYS621  CYS622 
 ASP623  PHE694  ASN695  SER759  ASP760  ASP761  ALA762  ILE779  LEU786  VAL792 
 PHE793  MET794  SER795  GLU796  ALA797  LYS798  CYS799  TRP800  GLU811  SER814 

> <Gold.Protein.RotatedAtoms>
  152.5419  134.2189  159.8779 H   0  0  0  0  0  0  0  0  0  0  0  0  # atno 6907 bound_to 6896
  151.2168  133.4518  159.2607 H   0  0  0  0  0  0  0  0  0  0  0  0  # atno 6908 bound_to 6896
  151.0844  134.9891  159.8428 H   0  0  0  0  0  0  0  0  0  0  0  0  # atno 6909 bound_to 6896
  145.2095  139.2913  143.4276 H   0  0  0  0  0  0  0  0  0  0  0  0  # atno 7974 bound_to 7965
  155.7978  140.3477  155.5385 H   0  0  0  0  0  0  0  0  0  0  0  0  # atno 8008 bound_to 7997
  155.8569  140.0965  157.1659 H   0  0  0  0  0  0  0  0  0  0  0  0  # atno 8009 bound_to 7997
  154.4010  140.1366  156.3900 H   0  0  0  0  0  0  0  0  0  0  0  0  # atno 8010 bound_to 7997
  140.5943  143.8733  150.6903 H   0  0  0  0  0  0  0  0  0  0  0  0  # atno 10167 bound_to 10162
  157.2015  130.6892  149.6190 H   0  0  0  0  0  0  0  0  0  0  0  0  # atno 10718 bound_to 10713
  154.8679  135.4151  154.2699 H   0  0  0  0  0  0  0  0  0  0  0  0  # atno 10763 bound_to 10752
  153.3611  135.7003  153.6717 H   0  0  0  0  0  0  0  0  0  0  0  0  # atno 10764 bound_to 10752
  153.5617  135.3608  155.2774 H   0  0  0  0  0  0  0  0  0  0  0  0  # atno 10765 bound_to 10752
  139.9583  134.7106  156.0703 H   0  0  0  0  0  0  0  0  0  0  0  0  # atno 11005 bound_to 11000
  146.3400  140.2366  142.8594 LP  0  0  0  0  0  0  0  0  0  0  0  0  # atno 17320 bound_to 7965
  144.9870  140.8512  143.5363 LP  0  0  0  0  0  0  0  0  0  0  0  0  # atno 17321 bound_to 7965
  140.2264  143.3769  152.1601 LP  0  0  0  0  0  0  0  0  0  0  0  0  # atno 17342 bound_to 10162
  139.5248  144.7088  151.5272 LP  0  0  0  0  0  0  0  0  0  0  0  0  # atno 17343 bound_to 10162
  155.9700  130.4581  150.5987 LP  0  0  0  0  0  0  0  0  0  0  0  0  # atno 17370 bound_to 10713
  157.3762  131.0773  151.1516 LP  0  0  0  0  0  0  0  0  0  0  0  0  # atno 17371 bound_to 10713
  141.1257  133.6600  156.3330 LP  0  0  0  0  0  0  0  0  0  0  0  0  # atno 17394 bound_to 11000
  140.5559  134.5982  157.5420 LP  0  0  0  0  0  0  0  0  0  0  0  0  # atno 17395 bound_to 11000

$$$$
