#       Name:                AV-unprocessed.smi:2025
#       Creating user name   scv26
#       Creation time:       Fri Mar 27 10:45:34 2020


#       File generated by GOLD software.
#

@<TRIPOS>MOLECULE
AV-unprocessed.smi:2025
    47    48     1
SMALL
NO_CHARGES


@<TRIPOS>ATOM
      1 ****        -2.0955   0.7775   2.6438 C.3            1 S1                 0.0000
      2 ****        -1.9608   0.1498   1.2489 C.3            1 S1                 0.0000
      3 ****        -0.5970  -0.3522   1.0894 N.am           1 S1                 0.0000
      4 ****         0.2125  -0.1202   0.0445 C.2            1 S1                 0.0000
      5 ****        -0.1197   0.5448  -0.9375 O.2            1 S1                 0.0000
      6 ****         1.6018  -0.7677   0.1154 C.3            1 S1                 0.0000
      7 ****         2.6201  -0.0209  -0.6341 N.am           1 S1                 0.0000
      8 ****         2.9672  -0.4260  -1.9100 C.2            1 S1                 0.0000
      9 ****         3.8789   0.2157  -2.6727 C.2            1 S1                 0.0000
     10 ****         4.5689   1.4006  -2.1774 C.2            1 S1                 0.0000
     11 ****         5.3909   2.0272  -2.8468 O.2            1 S1                 0.0000
     12 ****         4.2072   1.7837  -0.8636 N.am           1 S1                 0.0000
     13 ****         4.8277   2.9610  -0.2920 C.3            1 S1                 0.0000
     14 ****         3.2391   1.1192  -0.0781 C.2            1 S1                 0.0000
     15 ****         2.9315   1.5131   1.0497 O.2            1 S1                 0.0000
     16 ****        -2.9814  -0.9851   1.0269 C.3            1 S1                 0.0000
     17 ****        -2.9056  -1.6626  -0.3428 C.3            1 S1                 0.0000
     18 ****        -4.2926  -2.2484  -0.4703 C.3            1 S1                 0.0000
     19 ****        -5.1529  -1.1590   0.1636 C.3            1 S1                 0.0000
     20 ****        -4.3138  -0.4826   1.0970 O.3            1 S1                 0.0000
     21 ****        -3.0887   1.2028   2.7904 H              1 S1                 0.0000
     22 ****        -1.3725   1.5820   2.7826 H              1 S1                 0.0000
     23 ****        -1.9299   0.0408   3.4305 H              1 S1                 0.0000
     24 ****        -2.1565   0.9347   0.5165 H              1 S1                 0.0000
     25 ****        -0.2359  -0.9180   1.8437 H              1 S1                 0.0000
     26 ****         1.9094  -0.8775   1.1568 H              1 S1                 0.0000
     27 ****         1.5222  -1.7827  -0.2758 H              1 S1                 0.0000
     28 ****         2.4800  -1.2966  -2.3243 H              1 S1                 0.0000
     29 ****         4.0987  -0.1505  -3.6648 H              1 S1                 0.0000
     30 ****         5.0320   2.7712   0.7630 H              1 S1                 0.0000
     31 ****         4.1238   3.7842  -0.4215 H              1 S1                 0.0000
     32 ****         5.7760   3.1701  -0.7876 H              1 S1                 0.0000
     33 ****        -2.8727  -1.7445   1.8031 H              1 S1                 0.0000
     34 ****        -2.7387  -0.9245  -1.1288 H              1 S1                 0.0000
     35 ****        -2.1179  -2.4140  -0.4051 H              1 S1                 0.0000
     36 ****        -4.5740  -2.4694  -1.5001 H              1 S1                 0.0000
     37 ****        -4.3631  -3.1695   0.1096 H              1 S1                 0.0000
     38 ****        -5.4783  -0.4413  -0.5902 H              1 S1                 0.0000
     39 ****        -6.0400  -1.5653   0.6494 H              1 S1                 0.0000
     40 ****        -1.0352   0.9444  -0.9843 LP             1 S1                 0.0000
     41 ****         0.5261   0.6851  -1.6881 LP             1 S1                 0.0000
     42 ****         5.6114   1.7285  -3.7754 LP             1 S1                 0.0000
     43 ****         5.8379   2.8347  -2.4619 LP             1 S1                 0.0000
     44 ****         2.2380   1.0236   1.5784 LP             1 S1                 0.0000
     45 ****         3.3756   2.3219   1.4352 LP             1 S1                 0.0000
     46 ****        -4.3083   0.4949   0.8862 LP             1 S1                 0.0000
     47 ****        -4.6699  -0.6223   2.0209 LP             1 S1                 0.0000
@<TRIPOS>BOND
    1    1    2 1     
    2    1   21 1     
    3    1   22 1     
    4    1   23 1     
    5    2    3 1     
    6    2   16 1     
    7    2   24 1     
    8    3    4 am    
    9    3   25 1     
   10    4    5 2     
   11    4    6 1     
   12    6    7 1     
   13    6   26 1     
   14    6   27 1     
   15    7   14 am    
   16    7    8 1     
   17    8    9 2     
   18    8   28 1     
   19    9   10 1     
   20    9   29 1     
   21   10   11 2     
   22   10   12 am    
   23   12   13 1     
   24   12   14 am    
   25   13   30 1     
   26   13   31 1     
   27   13   32 1     
   28   14   15 2     
   29   16   20 1     
   30   16   17 1     
   31   16   33 1     
   32   17   18 1     
   33   17   34 1     
   34   17   35 1     
   35   18   19 1     
   36   18   36 1     
   37   18   37 1     
   38   19   20 1     
   39   19   38 1     
   40   19   39 1     
   41    5   40 1     
   42    5   41 1     
   43   11   42 1     
   44   11   43 1     
   45   15   44 1     
   46   15   45 1     
   47   20   46 1     
   48   20   47 1     
@<TRIPOS>SUBSTRUCTURE
      1 S1             1
@<TRIPOS>SET
LONE_PAIRS      STATIC     ATOMS    <user>   **** ""
8 40 41 42 43 44 45 46 47
DONOR_HYDROGENS      STATIC     ATOMS    <user>   **** ""
1 25
ATOM$BLUE        STATIC     ATOMS    COLORGROUP SYSTEM
8 40 41 42 43 44 45 46 47
ATOM$RED        STATIC     ATOMS    COLORGROUP SYSTEM
1 25
