#       Name:                AV-unprocessed.smi:1784
#       Creating user name   scv26
#       Creation time:       Fri Mar 27 08:43:50 2020


#       File generated by GOLD software.
#

@<TRIPOS>MOLECULE
AV-unprocessed.smi:1784
    49    51     1
SMALL
NO_CHARGES


@<TRIPOS>ATOM
      1 ****         1.5399   2.4770  -0.0561 O.2            1 S1                 0.0000
      2 ****         1.0126   1.3686  -0.1506 C.2            1 S1                 0.0000
      3 ****         1.7045   0.2232  -0.1846 N.am           1 S1                 0.0000
      4 ****         3.1570   0.1372  -0.1368 C.3            1 S1                 0.0000
      5 ****         3.6128  -1.3256  -0.2218 C.3            1 S1                 0.0000
      6 ****         5.1249  -1.5065  -0.1111 C.3            1 S1                 0.0000
      7 ****         5.3198  -2.8399  -0.7956 C.3            1 S1                 0.0000
      8 ****         4.3108  -2.7569  -1.9378 C.3            1 S1                 0.0000
      9 ****         3.2729  -1.8893  -1.4867 O.3            1 S1                 0.0000
     10 ****        -0.3092   1.1369  -0.2141 N.am           1 S1                 0.0000
     11 ****        -1.3783   2.0780  -0.2085 C.ar           1 S1                 0.0000
     12 ****        -1.2311   3.4132  -0.6577 C.ar           1 S1                 0.0000
     13 ****        -2.3464   4.2704  -0.6379 C.ar           1 S1                 0.0000
     14 ****        -3.5734   3.7607  -0.1774 C.ar           1 S1                 0.0000
     15 ****        -3.7345   2.4881   0.2385 N.ar           1 S1                 0.0000
     16 ****        -2.6633   1.6577   0.2215 C.ar           1 S1                 0.0000
     17 ****        -2.8588   0.3326   0.6509 N.3            1 S1                 0.0000
     18 ****        -3.3448   0.1734   2.0114 C.3            1 S1                 0.0000
     19 ****        -3.8219  -1.2778   2.1029 C.3            1 S1                 0.0000
     20 ****        -4.1087  -1.6898   0.6538 C.3            1 S1                 0.0000
     21 ****        -3.7386  -0.4646  -0.1873 C.3            1 S1                 0.0000
     22 ****         1.1960  -0.6456  -0.2610 H              1 S1                 0.0000
     23 ****         3.5884   0.7170  -0.9545 H              1 S1                 0.0000
     24 ****         3.5095   0.5811   0.7956 H              1 S1                 0.0000
     25 ****         3.1267  -1.9195   0.5541 H              1 S1                 0.0000
     26 ****         5.6489  -0.7245  -0.6628 H              1 S1                 0.0000
     27 ****         5.4805  -1.4973   0.9195 H              1 S1                 0.0000
     28 ****         6.3416  -3.0033  -1.1392 H              1 S1                 0.0000
     29 ****         5.0524  -3.6500  -0.1158 H              1 S1                 0.0000
     30 ****         4.7704  -2.3142  -2.8221 H              1 S1                 0.0000
     31 ****         3.9188  -3.7357  -2.2146 H              1 S1                 0.0000
     32 ****        -0.5907   0.1677  -0.1917 H              1 S1                 0.0000
     33 ****        -0.2916   3.7911  -1.0302 H              1 S1                 0.0000
     34 ****        -2.2638   5.2937  -0.9728 H              1 S1                 0.0000
     35 ****        -4.4508   4.3895  -0.1481 H              1 S1                 0.0000
     36 ****        -2.5588   0.3851   2.7370 H              1 S1                 0.0000
     37 ****        -4.1758   0.8524   2.2068 H              1 S1                 0.0000
     38 ****        -3.0345  -1.9085   2.5173 H              1 S1                 0.0000
     39 ****        -4.6978  -1.3742   2.7450 H              1 S1                 0.0000
     40 ****        -3.4873  -2.5432   0.3794 H              1 S1                 0.0000
     41 ****        -5.1503  -1.9756   0.5041 H              1 S1                 0.0000
     42 ****        -4.6365   0.0991  -0.4448 H              1 S1                 0.0000
     43 ****        -3.2430  -0.7502  -1.1157 H              1 S1                 0.0000
     44 ****         2.5354   2.5540  -0.0002 LP             1 S1                 0.0000
     45 ****         0.9728   3.3003  -0.0353 LP             1 S1                 0.0000
     46 ****         3.1456  -1.1537  -2.1520 LP             1 S1                 0.0000
     47 ****         2.4235  -2.4095  -1.3983 LP             1 S1                 0.0000
     48 ****        -4.6264   2.1634   0.5532 LP             1 S1                 0.0000
     49 ****        -1.9182  -0.0010   0.5874 LP             1 S1                 0.0000
@<TRIPOS>BOND
    1    1    2 2     
    2    2    3 am    
    3    2   10 am    
    4    3    4 1     
    5    3   22 1     
    6    4    5 1     
    7    4   23 1     
    8    4   24 1     
    9    5    9 1     
   10    5    6 1     
   11    5   25 1     
   12    6    7 1     
   13    6   26 1     
   14    6   27 1     
   15    7    8 1     
   16    7   28 1     
   17    7   29 1     
   18    8    9 1     
   19    8   30 1     
   20    8   31 1     
   21   10   11 1     
   22   10   32 1     
   23   11   16 ar    
   24   11   12 ar    
   25   12   13 ar    
   26   12   33 1     
   27   13   14 ar    
   28   13   34 1     
   29   14   15 ar    
   30   14   35 1     
   31   15   16 ar    
   32   16   17 1     
   33   17   21 1     
   34   17   18 1     
   35   18   19 1     
   36   18   36 1     
   37   18   37 1     
   38   19   20 1     
   39   19   38 1     
   40   19   39 1     
   41   20   21 1     
   42   20   40 1     
   43   20   41 1     
   44   21   42 1     
   45   21   43 1     
   46    1   44 1     
   47    1   45 1     
   48    9   46 1     
   49    9   47 1     
   50   15   48 1     
   51   17   49 1     
@<TRIPOS>SUBSTRUCTURE
      1 S1             1
@<TRIPOS>SET
LONE_PAIRS      STATIC     ATOMS    <user>   **** ""
6 44 45 46 47 48 49
DONOR_HYDROGENS      STATIC     ATOMS    <user>   **** ""
2 22 32
ATOM$BLUE        STATIC     ATOMS    COLORGROUP SYSTEM
6 44 45 46 47 48 49
ATOM$RED        STATIC     ATOMS    COLORGROUP SYSTEM
2 22 32
