AV-unprocessed.smi:221|AV-procd|sdf|1686|dock8
  -GOLD-   2262020123D 1   1.00000     0.00000
 Structure written by MMmdl.
 50 53  0  0  0  0  0  0  0  0  1 V2000
  144.3047  137.8503  152.0552 N   0  0  0  0  0  0  0  0  0  0  0  0
  145.4815  137.3457  151.6775 C   0  0  0  0  0  0  0  0  0  0  0  0
  146.4581  138.0599  151.4572 O   0  0  0  0  0  0  0  0  0  0  0  0
  145.5695  135.8181  151.5488 C   0  0  2  0  0  0  0  0  0  0  0  0
  144.5876  135.2748  150.5026 C   0  0  0  0  0  0  0  0  0  0  0  0
  144.3926  133.8252  150.9328 C   0  0  1  0  0  0  0  0  0  0  0  0
  145.4011  133.0838  150.4718 F   0  0  0  0  0  0  0  0  0  0  0  0
  144.4663  133.8971  152.4600 C   0  0  0  0  0  0  0  0  0  0  0  0
  145.1802  135.1301  152.7818 N   0  0  0  0  0  0  0  0  0  0  0  0
  146.1406  135.0200  153.7261 C   0  0  0  0  0  0  0  0  0  0  0  0
  146.1443  135.9448  154.7168 N   0  0  0  0  0  0  0  0  0  0  0  0
  147.0734  135.8908  155.6762 C   0  0  0  0  0  0  0  0  0  0  0  0
  148.0677  135.0128  155.8288 N   0  0  0  0  0  0  0  0  0  0  0  0
  148.0633  134.0817  154.8318 C   0  0  0  0  0  0  0  0  0  0  0  0
  147.1419  134.0091  153.7503 C   0  0  0  0  0  0  0  0  0  0  0  0
  147.4480  132.9250  152.9365 N   0  0  0  0  0  0  0  0  0  0  0  0
  148.4942  132.3887  153.5033 C   0  0  0  0  0  0  0  0  0  0  0  0
  148.9349  133.0248  154.6421 N   0  0  0  0  0  0  0  0  0  0  0  0
  150.0705  132.6517  155.4659 C   0  0  0  0  0  0  0  0  0  0  0  0
  149.7742  131.4927  156.4506 C   0  0  2  0  0  0  0  0  0  0  0  0
  148.6938  131.8564  157.5026 C   0  0  0  0  0  0  0  0  0  0  0  0
  149.0356  133.0223  158.2238 O   0  0  0  0  0  0  0  0  0  0  0  0
  151.1035  130.9873  157.0698 C   0  0  2  0  0  0  0  0  0  0  0  0
  151.9358  132.0174  157.8116 C   0  0  0  0  0  0  0  0  0  0  0  0
  153.2705  131.2901  157.9374 C   0  0  0  0  0  0  0  0  0  0  0  0
  153.3937  130.5042  156.7553 O   0  0  0  0  0  0  0  0  0  0  0  0
  152.1317  130.3928  156.1014 C   0  0  0  0  0  0  0  0  0  0  0  0
  146.5855  135.5354  151.2666 H   0  0  0  0  0  0  0  0  0  0  0  0
  143.4659  133.3838  150.5655 H   0  0  0  0  0  0  0  0  0  0  0  0
  144.1962  138.8496  152.1500 H   0  0  0  0  0  0  0  0  0  0  0  0
  143.5272  137.2334  152.2407 H   0  0  0  0  0  0  0  0  0  0  0  0
  143.6323  135.8003  150.5545 H   0  0  0  0  0  0  0  0  0  0  0  0
  144.9632  135.3638  149.4826 H   0  0  0  0  0  0  0  0  0  0  0  0
  143.4627  133.9824  152.8773 H   0  0  0  0  0  0  0  0  0  0  0  0
  144.9171  132.9992  152.8867 H   0  0  0  0  0  0  0  0  0  0  0  0
  147.0115  136.6622  156.4297 H   0  0  0  0  0  0  0  0  0  0  0  0
  148.9809  131.5132  153.0985 H   0  0  0  0  0  0  0  0  0  0  0  0
  150.8870  132.3793  154.7962 H   0  0  0  0  0  0  0  0  0  0  0  0
  150.4031  133.5347  156.0130 H   0  0  0  0  0  0  0  0  0  0  0  0
  149.3885  130.6581  155.8627 H   0  0  0  0  0  0  0  0  0  0  0  0
  147.7300  132.0516  157.0368 H   0  0  0  0  0  0  0  0  0  0  0  0
  148.5410  131.0347  158.2026 H   0  0  0  0  0  0  0  0  0  0  0  0
  148.3202  133.6364  158.1583 H   0  0  0  0  0  0  0  0  0  0  0  0
  150.8596  130.2144  157.8013 H   0  0  0  0  0  0  0  0  0  0  0  0
  152.0700  132.9288  157.2307 H   0  0  0  0  0  0  0  0  0  0  0  0
  151.5130  132.2911  158.7787 H   0  0  0  0  0  0  0  0  0  0  0  0
  154.1113  131.9745  158.0523 H   0  0  0  0  0  0  0  0  0  0  0  0
  153.2585  130.6212  158.7992 H   0  0  0  0  0  0  0  0  0  0  0  0
  151.9095  129.3556  155.8499 H   0  0  0  0  0  0  0  0  0  0  0  0
  152.1891  130.9583  155.1719 H   0  0  0  0  0  0  0  0  0  0  0  0
  1  2  1  0  0  0  0
  1 30  1  0  0  0  0
  1 31  1  0  0  0  0
  2  3  2  0  0  0  0
  2  4  1  0  0  0  0
  4 28  1  0  0  0  0
  4  9  1  0  0  0  0
  4  5  1  0  0  0  0
  5  6  1  0  0  0  0
  5 32  1  0  0  0  0
  5 33  1  0  0  0  0
  6 29  1  0  0  0  0
  6  7  1  0  0  0  0
  6  8  1  0  0  0  0
  8  9  1  0  0  0  0
  8 34  1  0  0  0  0
  8 35  1  0  0  0  0
  9 10  1  0  0  0  0
 10 15  1  0  0  0  0
 10 11  2  0  0  0  0
 11 12  1  0  0  0  0
 12 13  2  0  0  0  0
 12 36  1  0  0  0  0
 13 14  1  0  0  0  0
 14 18  1  0  0  0  0
 14 15  2  0  0  0  0
 15 16  1  0  0  0  0
 16 17  2  0  0  0  0
 17 18  1  0  0  0  0
 17 37  1  0  0  0  0
 18 19  1  0  0  0  0
 19 20  1  0  0  0  0
 19 38  1  0  0  0  0
 19 39  1  0  0  0  0
 20 21  1  0  0  0  0
 20 23  1  0  0  0  0
 20 40  1  0  0  0  0
 21 22  1  0  0  0  0
 21 41  1  0  0  0  0
 21 42  1  0  0  0  0
 22 43  1  0  0  0  0
 23 27  1  0  0  0  0
 23 24  1  0  0  0  0
 23 44  1  0  0  0  0
 24 25  1  0  0  0  0
 24 45  1  0  0  0  0
 24 46  1  0  0  0  0
 25 26  1  0  0  0  0
 25 47  1  0  0  0  0
 25 48  1  0  0  0  0
 26 27  1  0  0  0  0
 27 49  1  0  0  0  0
 27 50  1  0  0  0  0
M  END
> <s_m_source_file>
AV-unprocessed.smi

> <i_m_source_file_index>
221

> <i_lp_mmshare_version>
43012

> <i_f3d_flags>
0

> <s_epik_input>
W05IMl1DKD1PKVtDQEBIXTFbQ0gyXVtDQEBIXShGKVtDSDJdTjFjKG5bY0hdbjIpYyhjMjMpbltjSF1uM1tDSDJdW0NASF0oW0NIMl1bT0hdKVtDQEBIXTRbQ0gyXVtDSDJdT1tDSDJdNA==

> <s_epik_cmdline>
J2VwaWtfcHl0aG9uJywgJy1waCcsICc3LjAnLCAnLXRuJywgJzgnLCAnLW1hJywgJzIwMCcsICctbWV0YWxfYmluZGluZycsICctaW1hZScsICc8aW5maWxlLm1hZT4nLCAnLW9tYWUnLCAnPG91dGZpbGUubWFlPic=

> <r_lp_tautomer_probability>
1

> <r_epik_Ionization_Penalty>
0.000818822

> <r_epik_Ionization_Penalty_Charging>
0

> <r_epik_Ionization_Penalty_Neutral>
0.000818822

> <r_epik_State_Penalty>
0.000440551

> <r_epik_Charging_Adjusted_Penalty>
0.000440551

> <i_epik_Tot_Q>
0

> <i_epik_Tot_abs_Q>
0

> <r_epik_Metal_State_Penalty>
-0

> <b_epik_Metal_Only>
0

> <s_lp_Force_Field>
OPLS_2005

> <r_lp_Energy>
52.3399

> <b_lp_Chiralities_Consistent>
1

> <s_lp_Variant>
AV-unprocessed.smi:221-1

> <Gold.Version>
5.8.1

> <Gold.Id.Protein>
6NUR|6NUR_protein|mol2

> <Gold.PLP.Fitness>
44.7394

> <Gold.PLP.PLP>
-34.5486

> <Gold.PLP.part.hbond>
-3.4668

> <Gold.PLP.part.metal>
0.0000

> <Gold.PLP.part.buried>
-3.1473

> <Gold.PLP.part.nonpolar>
-29.8556

> <Gold.PLP.part.repulsive>
2.0431

> <Gold.PLP.ligand.clash>
0.0000

> <Gold.PLP.ligand.torsion>
0.8836

> <Gold.PLP.Chemscore.Hbond>
3.0000

> <Gold.PLP.Chemscore.CHOScore>
0.8748

> <Gold.PLP.Chemscore.Metal>
0.0000

> <Gold.Chemscore.Hbonds>
donor molecule, donor type, donor heavy atom, donor atom, acceptor molecule, acceptor atom, score
      L1  H     1    30       P1 10175  1.00
      P1  H  6896  6907       L1    22  0.63
      P1  H  7954  7966       L1     3  0.28
      L1  C    17    37       P1 10747  0.13

> <Gold.PLP.Chemscore.Internal.Correction>
0.3337

> <Gold.Rescore>
     Score         DG    S(hbond)    S(metal)    S(lipo)     H(rot)  DE(clash)    DE(int)     intcor
      8.88     -12.00       2.87        0.00      55.10       3.72       1.95       1.17       ----

> <Gold.Chemscore.Fitness>
8.8770

> <Gold.Chemscore.DG>
-11.9963

> <Gold.Chemscore.ZeroCoef>
-5.4800

> <Gold.Chemscore.Hbond>
2.8721

> <Gold.Chemscore.Metal>
0.0000

> <Gold.Chemscore.Lipo>
55.1032

> <Gold.Chemscore.Internal_Hbond>
0.0000

> <Gold.Chemscore.DEClash>
1.9506

> <Gold.Chemscore.DEInternal>
1.1687

> <Gold.Chemscore.Rot>
3.7202

> <Gold.Chemscore.Internal.Correction>
   9.000000E+99

> <Gold.Chemscore.Hbonds>
donor molecule, donor type, donor heavy atom, donor atom, acceptor molecule, acceptor atom, score
      L1  H     1    30       P1 10175  1.00
      P1  H  6896  6907       L1    22  0.58
      P1  H  7954  7966       L1     3  0.27

> <Gold.Chemscore.Hbond.Weighted>
-9.5929

> <Gold.Chemscore.Metal.Weighted>
-0.0000

> <Gold.Chemscore.Lipo.Weighted>
-6.4471

> <Gold.Chemscore.Internal_Hbond.Weighted>
0.0000

> <Gold.Chemscore.DEClash.Weighted>
1.9506

> <Gold.Chemscore.DEInternal.Weighted>
1.1687

> <Gold.Chemscore.Rot.Weighted>
9.5237

> <Gold.Chemscore.Internal.Correction.Weighted>
   9.000000E+99

> <Gold.Protein.RotatedTorsions>
[ 6907 6896 6895 6894 ] final -124.51 input  -60.11 | X-H torsion
[ 7974 7965 7964 7962 ] final    1.28 input  175.53 | X-H torsion
[ 8008 7997 7996 7995 ] final    5.96 input   59.86 | X-H torsion
[ 10167 10162 10161 10158 ] final  -37.23 input  -65.29 | X-H torsion
[ 10718 10713 10712 10709 ] final  -68.08 input   66.30 | X-H torsion
[ 10763 10752 10751 10750 ] final  -13.66 input  -60.55 | X-H torsion
[ 11005 11000 10999 10996 ] final   13.41 input  -57.11 | X-H torsion

> <Gold.Protein.ActiveResidues>
 VAL166  LYS551  ARG553  GLY616  TRP617  ASP618  TYR619  PRO620  LYS621  CYS622 
 ASP623  PHE694  ASN695  SER759  ASP760  ASP761  ALA762  ILE779  LEU786  VAL792 
 PHE793  MET794  SER795  GLU796  ALA797  LYS798  CYS799  TRP800  GLU811  SER814 

> <Gold.Protein.RotatedAtoms>
  150.8775  133.7418  159.2941 H   0  0  0  0  0  0  0  0  0  0  0  0  # atno 6907 bound_to 6896
  151.5010  135.1060  159.9838 H   0  0  0  0  0  0  0  0  0  0  0  0  # atno 6908 bound_to 6896
  152.4738  133.8044  159.7026 H   0  0  0  0  0  0  0  0  0  0  0  0  # atno 6909 bound_to 6896
  146.2439  140.1010  142.8347 H   0  0  0  0  0  0  0  0  0  0  0  0  # atno 7974 bound_to 7965
  154.7349  140.2737  155.6423 H   0  0  0  0  0  0  0  0  0  0  0  0  # atno 8008 bound_to 7997
  156.2859  140.2708  156.1985 H   0  0  0  0  0  0  0  0  0  0  0  0  # atno 8009 bound_to 7997
  155.0333  140.0371  157.2472 H   0  0  0  0  0  0  0  0  0  0  0  0  # atno 8010 bound_to 7997
  140.7123  143.3356  151.2471 H   0  0  0  0  0  0  0  0  0  0  0  0  # atno 10167 bound_to 10162
  156.0524  130.4289  150.1949 H   0  0  0  0  0  0  0  0  0  0  0  0  # atno 10718 bound_to 10713
  153.5166  135.7016  153.5753 H   0  0  0  0  0  0  0  0  0  0  0  0  # atno 10763 bound_to 10752
  153.3820  135.3918  155.1863 H   0  0  0  0  0  0  0  0  0  0  0  0  # atno 10764 bound_to 10752
  154.8698  135.3837  154.4651 H   0  0  0  0  0  0  0  0  0  0  0  0  # atno 10765 bound_to 10752
  140.4810  134.0935  155.7751 H   0  0  0  0  0  0  0  0  0  0  0  0  # atno 11005 bound_to 11000
  145.0568  140.9058  143.4962 LP  0  0  0  0  0  0  0  0  0  0  0  0  # atno 17320 bound_to 7965
  145.1118  139.2752  143.5633 LP  0  0  0  0  0  0  0  0  0  0  0  0  # atno 17321 bound_to 7965
  139.6849  143.9790  152.2829 LP  0  0  0  0  0  0  0  0  0  0  0  0  # atno 17342 bound_to 10162
  139.9432  144.6668  150.8245 LP  0  0  0  0  0  0  0  0  0  0  0  0  # atno 17343 bound_to 10162
  157.0030  130.9928  151.3386 LP  0  0  0  0  0  0  0  0  0  0  0  0  # atno 17370 bound_to 10713
  157.5462  130.8152  149.8089 LP  0  0  0  0  0  0  0  0  0  0  0  0  # atno 17371 bound_to 10713
  141.1531  133.8933  157.2047 LP  0  0  0  0  0  0  0  0  0  0  0  0  # atno 17394 bound_to 11000
  139.9826  135.0093  156.9786 LP  0  0  0  0  0  0  0  0  0  0  0  0  # atno 17395 bound_to 11000

$$$$
