#       Name:                AV-unprocessed.smi:515
#       Creating user name   scv26
#       Creation time:       Thu Mar 26 23:25:23 2020


#       File generated by GOLD software.
#

@<TRIPOS>MOLECULE
AV-unprocessed.smi:515
    57    59     1
SMALL
NO_CHARGES


@<TRIPOS>ATOM
      1 ****        -2.8842   2.9090   3.6321 C.3            1 S1                 0.0000
      2 ****        -2.9493   1.4238   3.2703 C.3            1 S1                 0.0000
      3 ****        -1.6860   1.0236   2.7704 O.3            1 S1                 0.0000
      4 ****        -1.6360  -0.3499   2.4227 C.3            1 S1                 0.0000
      5 ****        -0.2404  -0.6934   1.8822 C.3            1 S1                 0.0000
      6 ****         0.1168   0.1236   0.7267 N.pl3          1 S1                 0.0000
      7 ****        -0.1705  -0.1163  -0.5803 C.2            1 S1                 0.0000
      8 ****        -0.9446  -1.3126  -1.0577 C.3            1 S1                 0.0000
      9 ****         0.0430  -2.1291  -1.8081 N.4            1 S1                 1.0000
     10 ****         0.9955  -2.8709  -0.9429 C.3            1 S1                 0.0000
     11 ****         2.0004  -3.6564  -1.8018 C.3            1 S1                 0.0000
     12 ****         1.3003  -4.5346  -2.6742 O.3            1 S1                 0.0000
     13 ****         0.4515  -3.8281  -3.5701 C.3            1 S1                 0.0000
     14 ****        -0.6067  -3.0492  -2.7707 C.3            1 S1                 0.0000
     15 ****         0.2902   0.8154  -1.4217 N.2            1 S1                 0.0000
     16 ****         0.9145   1.7253  -0.5817 C.2            1 S1                 0.0000
     17 ****         0.8168   1.3310   0.7127 C.2            1 S1                 0.0000
     18 ****         1.3763   2.1190   1.8207 C.2            1 S1                 0.0000
     19 ****         1.2950   1.7854   3.0005 O.2            1 S1                 0.0000
     20 ****         1.9895   3.2546   1.4077 N.am           1 S1                 0.0000
     21 ****         2.1257   3.7067   0.1238 C.2            1 S1                 0.0000
     22 ****         2.7114   4.7665  -0.0967 O.2            1 S1                 0.0000
     23 ****         1.5916   2.9414  -0.8813 N.am           1 S1                 0.0000
     24 ****         1.7101   3.3770  -2.2741 C.3            1 S1                 0.0000
     25 ****         2.3902   3.8345   2.1306 H              1 S1                 0.0000
     26 ****        -3.8406   3.2571   4.0223 H              1 S1                 0.0000
     27 ****        -2.6375   3.5138   2.7592 H              1 S1                 0.0000
     28 ****        -2.1251   3.0931   4.3928 H              1 S1                 0.0000
     29 ****        -3.2103   0.8366   4.1518 H              1 S1                 0.0000
     30 ****        -3.7219   1.2561   2.5185 H              1 S1                 0.0000
     31 ****        -1.8556  -0.9653   3.2961 H              1 S1                 0.0000
     32 ****        -2.3938  -0.5694   1.6693 H              1 S1                 0.0000
     33 ****         0.5090  -0.5667   2.6615 H              1 S1                 0.0000
     34 ****        -0.1886  -1.7468   1.6097 H              1 S1                 0.0000
     35 ****        -1.4092  -1.8743  -0.2484 H              1 S1                 0.0000
     36 ****        -1.7407  -0.9639  -1.7170 H              1 S1                 0.0000
     37 ****         1.5397  -2.1846  -0.2939 H              1 S1                 0.0000
     38 ****         0.4445  -3.5544  -0.2950 H              1 S1                 0.0000
     39 ****         2.6337  -2.9794  -2.3775 H              1 S1                 0.0000
     40 ****         2.6605  -4.2442  -1.1639 H              1 S1                 0.0000
     41 ****         1.0405  -3.1564  -4.1968 H              1 S1                 0.0000
     42 ****        -0.0321  -4.5425  -4.2364 H              1 S1                 0.0000
     43 ****        -1.2555  -3.7428  -2.2333 H              1 S1                 0.0000
     44 ****        -1.2390  -2.4826  -3.4556 H              1 S1                 0.0000
     45 ****         2.7575   3.5172  -2.5452 H              1 S1                 0.0000
     46 ****         1.1901   4.3245  -2.4220 H              1 S1                 0.0000
     47 ****         1.2877   2.6587  -2.9765 H              1 S1                 0.0000
     48 ****         0.5868  -1.4795  -2.3590 H              1 S1                 0.0000
     49 ****        -0.9956   1.1997   3.4720 LP             1 S1                 0.0000
     50 ****        -1.4795   1.5659   1.9560 LP             1 S1                 0.0000
     51 ****         0.7435  -5.1587  -2.1259 LP             1 S1                 0.0000
     52 ****         1.9649  -5.0601  -3.2054 LP             1 S1                 0.0000
     53 ****         0.2050   0.8481  -2.4175 LP             1 S1                 0.0000
     54 ****         0.8284   0.9366   3.2491 LP             1 S1                 0.0000
     55 ****         1.6954   2.3627   3.7121 LP             1 S1                 0.0000
     56 ****         3.0877   5.2972   0.6627 LP             1 S1                 0.0000
     57 ****         2.8109   5.0969  -1.0353 LP             1 S1                 0.0000
@<TRIPOS>BOND
    1    1    2 1     
    2    1   26 1     
    3    1   27 1     
    4    1   28 1     
    5    2    3 1     
    6    2   29 1     
    7    2   30 1     
    8    3    4 1     
    9    4    5 1     
   10    4   31 1     
   11    4   32 1     
   12    5    6 1     
   13    5   33 1     
   14    5   34 1     
   15    6   17 1     
   16    6    7 1     
   17    7    8 1     
   18    7   15 2     
   19    8    9 1     
   20    8   35 1     
   21    8   36 1     
   22    9   14 1     
   23    9   10 1     
   24    9   48 1     
   25   10   11 1     
   26   10   37 1     
   27   10   38 1     
   28   11   12 1     
   29   11   39 1     
   30   11   40 1     
   31   12   13 1     
   32   13   14 1     
   33   13   41 1     
   34   13   42 1     
   35   14   43 1     
   36   14   44 1     
   37   15   16 1     
   38   16   23 1     
   39   16   17 2     
   40   17   18 1     
   41   18   19 2     
   42   18   20 1     
   43   20   25 1     
   44   20   21 1     
   45   21   22 2     
   46   21   23 1     
   47   23   24 1     
   48   24   45 1     
   49   24   46 1     
   50   24   47 1     
   51    3   49 1     
   52    3   50 1     
   53   12   51 1     
   54   12   52 1     
   55   15   53 1     
   56   19   54 1     
   57   19   55 1     
   58   22   56 1     
   59   22   57 1     
@<TRIPOS>SUBSTRUCTURE
      1 S1             1
@<TRIPOS>SET
LONE_PAIRS      STATIC     ATOMS    <user>   **** ""
9 49 50 51 52 53 54 55 56 57
DONOR_HYDROGENS      STATIC     ATOMS    <user>   **** ""
2 48 25
ATOM$BLUE        STATIC     ATOMS    COLORGROUP SYSTEM
9 49 50 51 52 53 54 55 56 57
ATOM$RED        STATIC     ATOMS    COLORGROUP SYSTEM
2 48 25
