AV-unprocessed.smi:3097|AV-procd|sdf|11799|dock3
  -GOLD-   2272017173D 1   1.00000     0.00000
 Structure written by MMmdl.
 35 35  0  0  0  0  0  0  0  0  2 V2000
  145.4992  143.9150  153.5590 C   0  0  0  0  0  0  0  0  0  0  0  0
  146.0457  142.6853  154.2911 C   0  0  0  0  0  0  0  0  0  0  0  0
  147.2714  142.0853  153.5918 C   0  0  0  0  0  0  0  0  0  0  0  0
  148.4309  142.0520  154.4913 N   0  0  0  0  0  0  0  0  0  0  0  0
  149.2628  141.0075  154.6694 C   0  0  0  0  0  0  0  0  0  0  0  0
  149.0510  139.8592  153.9973 N   0  3  0  0  0  0  0  0  0  0  0  0
  149.8743  138.6480  154.0926 C   0  0  0  0  0  0  0  0  0  0  0  0
  150.3081  141.1071  155.5152 N   0  0  0  0  0  0  0  0  0  0  0  0
  150.6871  142.2959  156.2948 C   0  0  0  0  0  0  0  0  0  0  0  0
  151.1194  141.9276  157.7235 C   0  0  0  0  0  0  0  0  0  0  0  0
  151.3962  143.0978  158.5358 N   0  0  0  0  0  0  0  0  0  0  0  0
  151.2873  144.4282  158.1886 C   0  0  0  0  0  0  0  0  0  0  0  0
  151.6517  145.1635  159.2800 C   0  0  0  0  0  0  0  0  0  0  0  0
  151.9786  144.1811  160.2560 C   0  0  0  0  0  0  0  0  0  0  0  0
  151.8203  142.9455  159.8090 N   0  0  0  0  0  0  0  0  0  0  0  0
  144.6299  144.3211  154.0766 H   0  0  0  0  0  0  0  0  0  0  0  0
  145.1939  143.6649  152.5426 H   0  0  0  0  0  0  0  0  0  0  0  0
  146.2498  144.7037  153.5000 H   0  0  0  0  0  0  0  0  0  0  0  0
  146.3055  142.9634  155.3127 H   0  0  0  0  0  0  0  0  0  0  0  0
  145.2604  141.9321  154.3670 H   0  0  0  0  0  0  0  0  0  0  0  0
  147.0539  141.0708  153.2562 H   0  0  0  0  0  0  0  0  0  0  0  0
  147.5267  142.6726  152.7091 H   0  0  0  0  0  0  0  0  0  0  0  0
  148.6264  142.9044  154.9977 H   0  0  0  0  0  0  0  0  0  0  0  0
  149.4770  137.8712  153.4392 H   0  0  0  0  0  0  0  0  0  0  0  0
  149.8796  138.2702  155.1152 H   0  0  0  0  0  0  0  0  0  0  0  0
  150.9008  138.8600  153.7925 H   0  0  0  0  0  0  0  0  0  0  0  0
  150.9173  140.3065  155.6055 H   0  0  0  0  0  0  0  0  0  0  0  0
  151.4595  142.8678  155.7802 H   0  0  0  0  0  0  0  0  0  0  0  0
  149.8107  142.9421  156.3462 H   0  0  0  0  0  0  0  0  0  0  0  0
  150.3386  141.3438  158.2125 H   0  0  0  0  0  0  0  0  0  0  0  0
  152.0104  141.2987  157.7020 H   0  0  0  0  0  0  0  0  0  0  0  0
  150.9606  144.7375  157.2066 H   0  0  0  0  0  0  0  0  0  0  0  0
  151.6840  146.2395  159.3668 H   0  0  0  0  0  0  0  0  0  0  0  0
  152.3191  144.3279  161.2703 H   0  0  0  0  0  0  0  0  0  0  0  0
  148.2599  139.8145  153.3709 H   0  0  0  0  0  0  0  0  0  0  0  0
  1  2  1  0  0  0  0
  1 16  1  0  0  0  0
  1 17  1  0  0  0  0
  1 18  1  0  0  0  0
  2  3  1  0  0  0  0
  2 19  1  0  0  0  0
  2 20  1  0  0  0  0
  3  4  1  0  0  0  0
  3 21  1  0  0  0  0
  3 22  1  0  0  0  0
  4  5  1  0  0  0  0
  4 23  1  0  0  0  0
  5  6  2  0  0  0  0
  5  8  1  0  0  0  0
  6  7  1  0  0  0  0
  6 35  1  0  0  0  0
  7 24  1  0  0  0  0
  7 25  1  0  0  0  0
  7 26  1  0  0  0  0
  8  9  1  0  0  0  0
  8 27  1  0  0  0  0
  9 10  1  0  0  0  0
  9 28  1  0  0  0  0
  9 29  1  0  0  0  0
 10 11  1  0  0  0  0
 10 30  1  0  0  0  0
 10 31  1  0  0  0  0
 11 15  1  0  0  0  0
 11 12  1  0  0  0  0
 12 13  2  0  0  0  0
 12 32  1  0  0  0  0
 13 14  1  0  0  0  0
 13 33  1  0  0  0  0
 14 15  2  0  0  0  0
 14 34  1  0  0  0  0
M  CHG  1   6   1
M  END
> <s_m_source_file>
AV-unprocessed.smi

> <i_m_source_file_index>
3097

> <i_lp_mmshare_version>
43012

> <i_f3d_flags>
0

> <s_epik_input>
W0NIM11bQ0gyXVtDSDJdW05IXS9DKD1OXFtDSDNdKVtOSF1bQ0gyXVtDSDJdbjFbY0hdW2NIXVtjSF1uMQ==

> <s_epik_cmdline>
J2VwaWtfcHl0aG9uJywgJy1waCcsICc3LjAnLCAnLXRuJywgJzgnLCAnLW1hJywgJzIwMCcsICctbWV0YWxfYmluZGluZycsICctaW1hZScsICc8aW5maWxlLm1hZT4nLCAnLW9tYWUnLCAnPG91dGZpbGUubWFlPic=

> <r_lp_tautomer_probability>
1

> <r_epik_Ionization_Penalty>
4.40305e-05

> <r_epik_Ionization_Penalty_Charging>
1.64417e-07

> <r_epik_Ionization_Penalty_Neutral>
4.38661e-05

> <r_epik_State_Penalty>
-0

> <r_epik_Charging_Adjusted_Penalty>
1.64417e-07

> <i_epik_Tot_Q>
1

> <i_epik_Tot_abs_Q>
1

> <r_epik_Metal_State_Penalty>
-0

> <b_epik_Metal_Only>
0

> <s_epik_Chemistry_Notes>
This compound has an imine and may undergo hydrolysis.

> <s_lp_Force_Field>
OPLS_2005

> <r_lp_Energy>
5.03608

> <b_lp_Chiralities_Consistent>
1

> <s_lp_Variant>
AV-unprocessed.smi:3097-2

> <Gold.Version>
5.8.1

> <Gold.Id.Protein>
6NUR|6NUR_protein|mol2

> <Gold.PLP.Fitness>
45.8814

> <Gold.PLP.PLP>
-38.1366

> <Gold.PLP.part.hbond>
-2.0000

> <Gold.PLP.part.metal>
0.0000

> <Gold.PLP.part.buried>
-6.0046

> <Gold.PLP.part.nonpolar>
-30.7747

> <Gold.PLP.part.repulsive>
0.5340

> <Gold.PLP.ligand.clash>
0.0000

> <Gold.PLP.ligand.torsion>
0.5968

> <Gold.PLP.Chemscore.Hbond>
2.0000

> <Gold.PLP.Chemscore.CHOScore>
0.9754

> <Gold.PLP.Chemscore.Metal>
0.0000

> <Gold.Chemscore.Hbonds>
donor molecule, donor type, donor heavy atom, donor atom, acceptor molecule, acceptor atom, score
      L1  H     4    23       P1  8028  2.00
      L1  C    12    32       P1  8028  0.96

> <Gold.PLP.Chemscore.Internal.Correction>
0.0120

> <Gold.Rescore>
     Score         DG    S(hbond)    S(metal)    S(lipo)     H(rot)  DE(clash)    DE(int)     intcor
     13.00     -13.67       1.00        0.00      82.11       1.86       0.14       0.53       ----

> <Gold.Chemscore.Fitness>
13.0016

> <Gold.Chemscore.DG>
-13.6709

> <Gold.Chemscore.ZeroCoef>
-5.4800

> <Gold.Chemscore.Hbond>
0.9987

> <Gold.Chemscore.Metal>
0.0000

> <Gold.Chemscore.Lipo>
82.1116

> <Gold.Chemscore.Internal_Hbond>
0.0000

> <Gold.Chemscore.DEClash>
0.1422

> <Gold.Chemscore.DEInternal>
0.5271

> <Gold.Chemscore.Rot>
1.8561

> <Gold.Chemscore.Internal.Correction>
   9.000000E+99

> <Gold.Chemscore.Hbonds>
donor molecule, donor type, donor heavy atom, donor atom, acceptor molecule, acceptor atom, score
      L1  H     4    23       P1  8028  0.99

> <Gold.Chemscore.Hbond.Weighted>
-3.3356

> <Gold.Chemscore.Metal.Weighted>
-0.0000

> <Gold.Chemscore.Lipo.Weighted>
-9.6071

> <Gold.Chemscore.Internal_Hbond.Weighted>
0.0000

> <Gold.Chemscore.DEClash.Weighted>
0.1422

> <Gold.Chemscore.DEInternal.Weighted>
0.5271

> <Gold.Chemscore.Rot.Weighted>
4.7517

> <Gold.Chemscore.Internal.Correction.Weighted>
   9.000000E+99

> <Gold.Protein.RotatedTorsions>
[ 6907 6896 6895 6894 ] final  162.59 input  -60.11 | X-H torsion
[ 7974 7965 7964 7962 ] final  -69.86 input  175.53 | X-H torsion
[ 8008 7997 7996 7995 ] final  -34.80 input   59.86 | X-H torsion
[ 10167 10162 10161 10158 ] final  114.43 input  -65.29 | X-H torsion
[ 10718 10713 10712 10709 ] final  121.54 input   66.30 | X-H torsion
[ 10763 10752 10751 10750 ] final -179.71 input  -60.55 | X-H torsion
[ 11005 11000 10999 10996 ] final  -37.35 input  -57.11 | X-H torsion

> <Gold.Protein.ActiveResidues>
 VAL166  LYS551  ARG553  GLY616  TRP617  ASP618  TYR619  PRO620  LYS621  CYS622 
 ASP623  PHE694  ASN695  SER759  ASP760  ASP761  ALA762  ILE779  LEU786  VAL792 
 PHE793  MET794  SER795  GLU796  ALA797  LYS798  CYS799  TRP800  GLU811  SER814 

> <Gold.Protein.RotatedAtoms>
  151.9381  133.3630  159.3954 H   0  0  0  0  0  0  0  0  0  0  0  0  # atno 6907 bound_to 6896
  150.7004  134.4468  159.5327 H   0  0  0  0  0  0  0  0  0  0  0  0  # atno 6908 bound_to 6896
  152.2120  134.8492  160.0547 H   0  0  0  0  0  0  0  0  0  0  0  0  # atno 6909 bound_to 6896
  145.6984  140.9126  143.0744 H   0  0  0  0  0  0  0  0  0  0  0  0  # atno 7974 bound_to 7965
  154.4111  140.1674  156.2109 H   0  0  0  0  0  0  0  0  0  0  0  0  # atno 8008 bound_to 7997
  155.9445  140.3405  155.6332 H   0  0  0  0  0  0  0  0  0  0  0  0  # atno 8009 bound_to 7997
  155.6948  140.0738  157.2425 H   0  0  0  0  0  0  0  0  0  0  0  0  # atno 8010 bound_to 7997
  139.6389  144.7122  151.2277 H   0  0  0  0  0  0  0  0  0  0  0  0  # atno 10167 bound_to 10162
  157.5810  131.1075  150.8187 H   0  0  0  0  0  0  0  0  0  0  0  0  # atno 10718 bound_to 10713
  154.5316  135.2800  155.1175 H   0  0  0  0  0  0  0  0  0  0  0  0  # atno 10763 bound_to 10752
  154.2693  135.6306  153.5308 H   0  0  0  0  0  0  0  0  0  0  0  0  # atno 10764 bound_to 10752
  152.9958  135.5624  154.5831 H   0  0  0  0  0  0  0  0  0  0  0  0  # atno 10765 bound_to 10752
  140.9945  133.6987  156.1909 H   0  0  0  0  0  0  0  0  0  0  0  0  # atno 11005 bound_to 11000
  144.6976  139.8915  143.7453 LP  0  0  0  0  0  0  0  0  0  0  0  0  # atno 17320 bound_to 7965
  146.0820  139.3808  143.0459 LP  0  0  0  0  0  0  0  0  0  0  0  0  # atno 17321 bound_to 7965
  140.7480  143.6347  150.8391 LP  0  0  0  0  0  0  0  0  0  0  0  0  # atno 17342 bound_to 10162
  139.9981  143.5773  152.2885 LP  0  0  0  0  0  0  0  0  0  0  0  0  # atno 17343 bound_to 10162
  156.8633  130.5120  149.5302 LP  0  0  0  0  0  0  0  0  0  0  0  0  # atno 17370 bound_to 10713
  156.0856  130.5855  150.9642 LP  0  0  0  0  0  0  0  0  0  0  0  0  # atno 17371 bound_to 10713
  140.6988  134.4587  157.5587 LP  0  0  0  0  0  0  0  0  0  0  0  0  # atno 17394 bound_to 11000
  139.9008  134.8561  156.1905 LP  0  0  0  0  0  0  0  0  0  0  0  0  # atno 17395 bound_to 11000

$$$$
