AV-unprocessed.smi:1288|AV-procd|sdf|5384|dock6
  -GOLD-   22720 4533D 1   1.00000     0.00000
 Structure written by MMmdl.
 43 45  0  0  0  0  0  0  0  0  2 V2000
  149.8628  141.3982  155.6029 C   0  0  0  0  0  0  0  0  0  0  0  0
  150.5800  141.9947  156.7671 C   0  0  0  0  0  0  0  0  0  0  0  0
  150.6862  143.3238  157.0482 N   0  3  0  0  0  0  0  0  0  0  0  0
  151.4299  143.5014  158.2155 C   0  0  0  0  0  0  0  0  0  0  0  0
  151.8013  144.6602  158.8906 C   0  0  0  0  0  0  0  0  0  0  0  0
  152.5704  144.4921  160.0605 C   0  0  0  0  0  0  0  0  0  0  0  0
  152.9417  143.2107  160.5169 C   0  0  0  0  0  0  0  0  0  0  0  0
  152.5587  142.0432  159.8243 C   0  0  0  0  0  0  0  0  0  0  0  0
  151.7962  142.2173  158.6693 C   0  0  0  0  0  0  0  0  0  0  0  0
  151.2481  141.3189  157.7450 N   0  0  0  0  0  0  0  0  0  0  0  0
  151.4441  139.8711  157.9252 C   0  0  0  0  0  0  0  0  0  0  0  0
  150.1626  139.1443  158.3801 C   0  0  1  0  0  0  0  0  0  0  0  0
  149.3851  138.8132  157.2467 O   0  0  0  0  0  0  0  0  0  0  0  0
  150.4791  137.8497  159.1446 C   0  0  0  0  0  0  0  0  0  0  0  0
  149.3816  137.5327  159.9847 O   0  0  0  0  0  0  0  0  0  0  0  0
  148.5887  136.4721  159.4789 C   0  0  0  0  0  0  0  0  0  0  0  0
  147.8307  135.7748  160.5915 C   0  0  0  0  0  0  0  0  0  0  0  0
  147.7377  136.3763  161.8643 C   0  0  0  0  0  0  0  0  0  0  0  0
  147.0299  135.7365  162.9006 C   0  0  0  0  0  0  0  0  0  0  0  0
  146.4125  134.4927  162.6681 C   0  0  0  0  0  0  0  0  0  0  0  0
  146.5008  133.8902  161.3983 C   0  0  0  0  0  0  0  0  0  0  0  0
  147.2067  134.5294  160.3602 C   0  0  0  0  0  0  0  0  0  0  0  0
  147.2802  133.9429  159.1411 F   0  0  0  0  0  0  0  0  0  0  0  0
  149.4573  142.1800  154.9601 H   0  0  0  0  0  0  0  0  0  0  0  0
  149.0405  140.7721  155.9491 H   0  0  0  0  0  0  0  0  0  0  0  0
  150.5448  140.7849  155.0139 H   0  0  0  0  0  0  0  0  0  0  0  0
  151.5198  145.6430  158.5417 H   0  0  0  0  0  0  0  0  0  0  0  0
  152.8833  145.3633  160.6178 H   0  0  0  0  0  0  0  0  0  0  0  0
  153.5340  143.1207  161.4158 H   0  0  0  0  0  0  0  0  0  0  0  0
  152.8554  141.0677  160.1796 H   0  0  0  0  0  0  0  0  0  0  0  0
  151.8396  139.4407  157.0050 H   0  0  0  0  0  0  0  0  0  0  0  0
  152.2262  139.7465  158.6749 H   0  0  0  0  0  0  0  0  0  0  0  0
  149.5850  139.8125  159.0200 H   0  0  0  0  0  0  0  0  0  0  0  0
  149.9238  138.3113  156.6534 H   0  0  0  0  0  0  0  0  0  0  0  0
  150.7085  137.0315  158.4594 H   0  0  0  0  0  0  0  0  0  0  0  0
  151.3582  138.0005  159.7734 H   0  0  0  0  0  0  0  0  0  0  0  0
  147.8792  136.8525  158.7423 H   0  0  0  0  0  0  0  0  0  0  0  0
  149.2208  135.7468  158.9642 H   0  0  0  0  0  0  0  0  0  0  0  0
  148.2077  137.3311  162.0494 H   0  0  0  0  0  0  0  0  0  0  0  0
  146.9599  136.2007  163.8733 H   0  0  0  0  0  0  0  0  0  0  0  0
  145.8701  134.0017  163.4625 H   0  0  0  0  0  0  0  0  0  0  0  0
  146.0253  132.9371  161.2196 H   0  0  0  0  0  0  0  0  0  0  0  0
  150.2788  144.0554  156.4802 H   0  0  0  0  0  0  0  0  0  0  0  0
  1  2  1  0  0  0  0
  1 24  1  0  0  0  0
  1 25  1  0  0  0  0
  1 26  1  0  0  0  0
  2 10  1  0  0  0  0
  2  3  2  0  0  0  0
  3  4  1  0  0  0  0
  3 43  1  0  0  0  0
  4  9  2  0  0  0  0
  4  5  1  0  0  0  0
  5  6  2  0  0  0  0
  5 27  1  0  0  0  0
  6  7  1  0  0  0  0
  6 28  1  0  0  0  0
  7  8  2  0  0  0  0
  7 29  1  0  0  0  0
  8  9  1  0  0  0  0
  8 30  1  0  0  0  0
  9 10  1  0  0  0  0
 10 11  1  0  0  0  0
 11 12  1  0  0  0  0
 11 31  1  0  0  0  0
 11 32  1  0  0  0  0
 12 13  1  0  0  0  0
 12 14  1  0  0  0  0
 12 33  1  0  0  0  0
 13 34  1  0  0  0  0
 14 15  1  0  0  0  0
 14 35  1  0  0  0  0
 14 36  1  0  0  0  0
 15 16  1  0  0  0  0
 16 17  1  0  0  0  0
 16 37  1  0  0  0  0
 16 38  1  0  0  0  0
 17 22  1  0  0  0  0
 17 18  2  0  0  0  0
 18 19  1  0  0  0  0
 18 39  1  0  0  0  0
 19 20  2  0  0  0  0
 19 40  1  0  0  0  0
 20 21  1  0  0  0  0
 20 41  1  0  0  0  0
 21 22  2  0  0  0  0
 21 42  1  0  0  0  0
 22 23  1  0  0  0  0
M  CHG  1   3   1
M  END
> <s_m_source_file>
AV-unprocessed.smi

> <i_m_source_file_index>
1288

> <i_lp_mmshare_version>
43012

> <i_f3d_flags>
0

> <s_epik_input>
W2NIXTFbY0hdW2NIXVtjSF1jKGMxMiluKGMobjIpW0NIM10pW0NIMl1bQ0BIXShbT0hdKVtDSDJdT1tDSDJdYzNbY0hdW2NIXVtjSF1bY0hdYzNG

> <s_epik_cmdline>
J2VwaWtfcHl0aG9uJywgJy1waCcsICc3LjAnLCAnLXRuJywgJzgnLCAnLW1hJywgJzIwMCcsICctbWV0YWxfYmluZGluZycsICctaW1hZScsICc8aW5maWxlLm1hZT4nLCAnLW9tYWUnLCAnPG91dGZpbGUubWFlPic=

> <r_epik_Ionization_Penalty>
0.952

> <r_epik_Ionization_Penalty_Charging>
0.951999

> <r_epik_Ionization_Penalty_Neutral>
1.07667e-06

> <r_epik_State_Penalty>
0.996343

> <r_epik_Charging_Adjusted_Penalty>
1.94834

> <i_epik_Tot_Q>
1

> <i_epik_Tot_abs_Q>
1

> <r_epik_Metal_State_Penalty>
4.96724

> <b_epik_Metal_Only>
0

> <s_lp_Force_Field>
OPLS_2005

> <r_lp_Energy>
19.2213

> <b_lp_Chiralities_Consistent>
1

> <s_lp_Variant>
AV-unprocessed.smi:1288-4

> <Gold.Version>
5.8.1

> <Gold.Id.Protein>
6NUR|6NUR_protein|mol2

> <Gold.PLP.Fitness>
58.9615

> <Gold.PLP.PLP>
-55.2239

> <Gold.PLP.part.hbond>
-1.9883

> <Gold.PLP.part.metal>
0.0000

> <Gold.PLP.part.buried>
-6.1719

> <Gold.PLP.part.nonpolar>
-47.8862

> <Gold.PLP.part.repulsive>
0.0535

> <Gold.PLP.ligand.clash>
0.0000

> <Gold.PLP.ligand.torsion>
1.2809

> <Gold.PLP.Chemscore.Hbond>
2.0905

> <Gold.PLP.Chemscore.CHOScore>
0.0000

> <Gold.PLP.Chemscore.Metal>
0.0000

> <Gold.Chemscore.Hbonds>
donor molecule, donor type, donor heavy atom, donor atom, acceptor molecule, acceptor atom, score
      L1  H     3    43       P1  8028  2.00
      P1  H  6931  6943       L1    15  0.22

> <Gold.PLP.Chemscore.Internal.Correction>
0.0280

> <Gold.Rescore>
     Score         DG    S(hbond)    S(metal)    S(lipo)     H(rot)  DE(clash)    DE(int)     intcor
     18.29     -19.78       1.10        0.00     142.97       2.38       0.11       1.38       ----

> <Gold.Chemscore.Fitness>
18.2888

> <Gold.Chemscore.DG>
-19.7751

> <Gold.Chemscore.ZeroCoef>
-5.4800

> <Gold.Chemscore.Hbond>
1.0967

> <Gold.Chemscore.Metal>
0.0000

> <Gold.Chemscore.Lipo>
142.9664

> <Gold.Chemscore.Internal_Hbond>
0.0000

> <Gold.Chemscore.DEClash>
0.1112

> <Gold.Chemscore.DEInternal>
1.3752

> <Gold.Chemscore.Rot>
2.3809

> <Gold.Chemscore.Internal.Correction>
   9.000000E+99

> <Gold.Chemscore.Hbonds>
donor molecule, donor type, donor heavy atom, donor atom, acceptor molecule, acceptor atom, score
      L1  H     3    43       P1  8028  0.95
      P1  H  6931  6943       L1    15  0.22

> <Gold.Chemscore.Hbond.Weighted>
-3.6631

> <Gold.Chemscore.Metal.Weighted>
-0.0000

> <Gold.Chemscore.Lipo.Weighted>
-16.7271

> <Gold.Chemscore.Internal_Hbond.Weighted>
0.0000

> <Gold.Chemscore.DEClash.Weighted>
0.1112

> <Gold.Chemscore.DEInternal.Weighted>
1.3752

> <Gold.Chemscore.Rot.Weighted>
6.0951

> <Gold.Chemscore.Internal.Correction.Weighted>
   9.000000E+99

> <Gold.Protein.RotatedTorsions>
[ 6907 6896 6895 6894 ] final  175.56 input  -60.11 | X-H torsion
[ 7974 7965 7964 7962 ] final  161.35 input  175.53 | X-H torsion
[ 8008 7997 7996 7995 ] final  -36.17 input   59.86 | X-H torsion
[ 10167 10162 10161 10158 ] final -162.33 input  -65.29 | X-H torsion
[ 10718 10713 10712 10709 ] final  113.35 input   66.30 | X-H torsion
[ 10763 10752 10751 10750 ] final  121.91 input  -60.55 | X-H torsion
[ 11005 11000 10999 10996 ] final  -21.54 input  -57.11 | X-H torsion

> <Gold.Protein.ActiveResidues>
 VAL166  LYS551  ARG553  GLY616  TRP617  ASP618  TYR619  PRO620  LYS621  CYS622 
 ASP623  PHE694  ASN695  SER759  ASP760  ASP761  ALA762  ILE779  LEU786  VAL792 
 PHE793  MET794  SER795  GLU796  ALA797  LYS798  CYS799  TRP800  GLU811  SER814 

> <Gold.Protein.RotatedAtoms>
  151.7343  133.3319  159.3348 H   0  0  0  0  0  0  0  0  0  0  0  0  # atno 6907 bound_to 6896
  150.7599  134.6335  159.6208 H   0  0  0  0  0  0  0  0  0  0  0  0  # atno 6908 bound_to 6896
  152.3571  134.6926  160.0270 H   0  0  0  0  0  0  0  0  0  0  0  0  # atno 6909 bound_to 6896
  144.7690  139.7885  143.6304 H   0  0  0  0  0  0  0  0  0  0  0  0  # atno 7974 bound_to 7965
  154.4079  140.1637  156.2331 H   0  0  0  0  0  0  0  0  0  0  0  0  # atno 8008 bound_to 7997
  155.9265  140.3417  155.6192 H   0  0  0  0  0  0  0  0  0  0  0  0  # atno 8009 bound_to 7997
  155.7158  140.0762  157.2342 H   0  0  0  0  0  0  0  0  0  0  0  0  # atno 8010 bound_to 7997
  139.6400  144.0278  152.2084 H   0  0  0  0  0  0  0  0  0  0  0  0  # atno 10167 bound_to 10162
  157.6343  131.0982  150.7027 H   0  0  0  0  0  0  0  0  0  0  0  0  # atno 10718 bound_to 10713
  153.6214  135.3412  155.3012 H   0  0  0  0  0  0  0  0  0  0  0  0  # atno 10763 bound_to 10752
  154.8599  135.4274  154.2203 H   0  0  0  0  0  0  0  0  0  0  0  0  # atno 10764 bound_to 10752
  153.3077  135.7029  153.7217 H   0  0  0  0  0  0  0  0  0  0  0  0  # atno 10765 bound_to 10752
  140.8571  133.7815  156.0032 H   0  0  0  0  0  0  0  0  0  0  0  0  # atno 11005 bound_to 11000
  146.1822  139.5020  142.9859 LP  0  0  0  0  0  0  0  0  0  0  0  0  # atno 17320 bound_to 7965
  145.6380  141.0290  143.1827 LP  0  0  0  0  0  0  0  0  0  0  0  0  # atno 17321 bound_to 7965
  139.9965  144.6324  150.7767 LP  0  0  0  0  0  0  0  0  0  0  0  0  # atno 17342 bound_to 10162
  140.7485  143.2924  151.3295 LP  0  0  0  0  0  0  0  0  0  0  0  0  # atno 17343 bound_to 10162
  156.7361  130.4725  149.5488 LP  0  0  0  0  0  0  0  0  0  0  0  0  # atno 17370 bound_to 10713
  156.1570  130.6348  151.0670 LP  0  0  0  0  0  0  0  0  0  0  0  0  # atno 17371 bound_to 10713
  140.8725  134.2709  157.5184 LP  0  0  0  0  0  0  0  0  0  0  0  0  # atno 17394 bound_to 11000
  139.8705  134.9574  156.4269 LP  0  0  0  0  0  0  0  0  0  0  0  0  # atno 17395 bound_to 11000

$$$$
