AV-unprocessed.smi:1581|AV-procd|sdf|6360|dock9
  -GOLD-   22720 6583D 1   1.00000     0.00000
 Structure written by MMmdl.
 34 35  0  0  0  0  0  0  0  0  1 V2000
  149.7651  134.8176  154.5990 C   0  0  0  0  0  0  0  0  0  0  0  0
  150.7996  135.8951  154.9041 C   0  0  0  0  0  0  0  0  0  0  0  0
  151.6008  135.7405  155.8251 O   0  0  0  0  0  0  0  0  0  0  0  0
  150.7662  136.9865  154.1248 N   0  0  0  0  0  0  0  0  0  0  0  0
  151.6599  138.1339  154.2530 C   0  0  0  0  0  0  0  0  0  0  0  0
  151.0231  139.3851  154.8461 C   0  0  0  0  0  0  0  0  0  0  0  0
  149.7612  139.8060  154.3830 C   0  0  0  0  0  0  0  0  0  0  0  0
  149.1837  140.9548  154.9540 C   0  0  0  0  0  0  0  0  0  0  0  0
  149.7789  141.6775  155.9253 N   0  0  0  0  0  0  0  0  0  0  0  0
  150.9951  141.2862  156.3793 C   0  0  0  0  0  0  0  0  0  0  0  0
  151.6140  142.0550  157.3880 N   0  0  0  0  0  0  0  0  0  0  0  0
  151.2711  143.4750  157.3869 C   0  0  0  0  0  0  0  0  0  0  0  0
  152.2102  144.2547  158.3238 C   0  0  0  0  0  0  0  0  0  0  0  0
  152.1859  143.6771  159.6251 O   0  0  0  0  0  0  0  0  0  0  0  0
  152.6318  142.3252  159.6134 C   0  0  0  0  0  0  0  0  0  0  0  0
  151.6982  141.4814  158.7296 C   0  0  0  0  0  0  0  0  0  0  0  0
  151.6442  140.1370  155.8692 C   0  0  0  0  0  0  0  0  0  0  0  0
  148.7591  135.1935  154.7871 H   0  0  0  0  0  0  0  0  0  0  0  0
  149.9241  133.9387  155.2247 H   0  0  0  0  0  0  0  0  0  0  0  0
  149.8305  134.5095  153.5553 H   0  0  0  0  0  0  0  0  0  0  0  0
  150.0710  137.0293  153.3939 H   0  0  0  0  0  0  0  0  0  0  0  0
  152.5305  137.8531  154.8482 H   0  0  0  0  0  0  0  0  0  0  0  0
  152.0345  138.3817  153.2598 H   0  0  0  0  0  0  0  0  0  0  0  0
  149.2433  139.2610  153.6075 H   0  0  0  0  0  0  0  0  0  0  0  0
  148.2169  141.3031  154.6222 H   0  0  0  0  0  0  0  0  0  0  0  0
  151.3306  143.9030  156.3871 H   0  0  0  0  0  0  0  0  0  0  0  0
  150.2378  143.5866  157.7181 H   0  0  0  0  0  0  0  0  0  0  0  0
  153.2299  144.2587  157.9355 H   0  0  0  0  0  0  0  0  0  0  0  0
  151.8921  145.2951  158.3921 H   0  0  0  0  0  0  0  0  0  0  0  0
  153.6610  142.2730  159.2539 H   0  0  0  0  0  0  0  0  0  0  0  0
  152.6312  141.9415  160.6337 H   0  0  0  0  0  0  0  0  0  0  0  0
  150.7014  141.4429  159.1712 H   0  0  0  0  0  0  0  0  0  0  0  0
  152.0733  140.4583  158.6787 H   0  0  0  0  0  0  0  0  0  0  0  0
  152.5999  139.8308  156.2668 H   0  0  0  0  0  0  0  0  0  0  0  0
  1  2  1  0  0  0  0
  1 18  1  0  0  0  0
  1 19  1  0  0  0  0
  1 20  1  0  0  0  0
  2  3  2  0  0  0  0
  2  4  1  0  0  0  0
  4  5  1  0  0  0  0
  4 21  1  0  0  0  0
  5  6  1  0  0  0  0
  5 22  1  0  0  0  0
  5 23  1  0  0  0  0
  6 17  1  0  0  0  0
  6  7  2  0  0  0  0
  7  8  1  0  0  0  0
  7 24  1  0  0  0  0
  8  9  2  0  0  0  0
  8 25  1  0  0  0  0
  9 10  1  0  0  0  0
 10 11  1  0  0  0  0
 10 17  2  0  0  0  0
 11 16  1  0  0  0  0
 11 12  1  0  0  0  0
 12 13  1  0  0  0  0
 12 26  1  0  0  0  0
 12 27  1  0  0  0  0
 13 14  1  0  0  0  0
 13 28  1  0  0  0  0
 13 29  1  0  0  0  0
 14 15  1  0  0  0  0
 15 16  1  0  0  0  0
 15 30  1  0  0  0  0
 15 31  1  0  0  0  0
 16 32  1  0  0  0  0
 16 33  1  0  0  0  0
 17 34  1  0  0  0  0
M  END
> <s_m_source_file>
AV-unprocessed.smi

> <i_m_source_file_index>
1581

> <i_lp_mmshare_version>
43012

> <i_f3d_flags>
0

> <s_epik_input>
W0NIM11DKD1PKVtOSF1bQ0gyXWMxW2NIXVtjSF1uYyhbY0hdMSlOMltDSDJdW0NIMl1PW0NIMl1bQ0gyXTI=

> <s_epik_cmdline>
J2VwaWtfcHl0aG9uJywgJy1waCcsICc3LjAnLCAnLXRuJywgJzgnLCAnLW1hJywgJzIwMCcsICctbWV0YWxfYmluZGluZycsICctaW1hZScsICc8aW5maWxlLm1hZT4nLCAnLW9tYWUnLCAnPG91dGZpbGUubWFlPic=

> <r_lp_tautomer_probability>
1

> <r_epik_Ionization_Penalty>
0.0056686

> <r_epik_Ionization_Penalty_Charging>
0

> <r_epik_Ionization_Penalty_Neutral>
0.0056686

> <r_epik_State_Penalty>
0.00415614

> <r_epik_Charging_Adjusted_Penalty>
0.00415614

> <i_epik_Tot_Q>
0

> <i_epik_Tot_abs_Q>
0

> <r_epik_Metal_State_Penalty>
-0

> <b_epik_Metal_Only>
0

> <s_lp_Force_Field>
OPLS_2005

> <r_lp_Energy>
12.8791

> <b_lp_Chiralities_Consistent>
1

> <s_lp_Variant>
AV-unprocessed.smi:1581-1

> <Gold.Version>
5.8.1

> <Gold.Id.Protein>
6NUR|6NUR_protein|mol2

> <Gold.PLP.Fitness>
42.4773

> <Gold.PLP.PLP>
-37.6343

> <Gold.PLP.part.hbond>
-3.0000

> <Gold.PLP.part.metal>
0.0000

> <Gold.PLP.part.buried>
-1.3822

> <Gold.PLP.part.nonpolar>
-32.8680

> <Gold.PLP.part.repulsive>
0.2542

> <Gold.PLP.ligand.clash>
0.0000

> <Gold.PLP.ligand.torsion>
0.7348

> <Gold.PLP.Chemscore.Hbond>
2.0000

> <Gold.PLP.Chemscore.CHOScore>
0.0000

> <Gold.PLP.Chemscore.Metal>
0.0000

> <Gold.Chemscore.Hbonds>
donor molecule, donor type, donor heavy atom, donor atom, acceptor molecule, acceptor atom, score
      L1  H     4    21       P1  7948  0.90
      P1  H 10752 10764       L1     3  1.00

> <Gold.PLP.Chemscore.Internal.Correction>
0.3126

> <Gold.Rescore>
     Score         DG    S(hbond)    S(metal)    S(lipo)     H(rot)  DE(clash)    DE(int)     intcor
     15.82     -16.62       1.57        0.00      84.13       1.54       0.10       0.70       ----

> <Gold.Chemscore.Fitness>
15.8189

> <Gold.Chemscore.DG>
-16.6203

> <Gold.Chemscore.ZeroCoef>
-5.4800

> <Gold.Chemscore.Hbond>
1.5725

> <Gold.Chemscore.Metal>
0.0000

> <Gold.Chemscore.Lipo>
84.1256

> <Gold.Chemscore.Internal_Hbond>
0.0000

> <Gold.Chemscore.DEClash>
0.0998

> <Gold.Chemscore.DEInternal>
0.7016

> <Gold.Chemscore.Rot>
1.5448

> <Gold.Chemscore.Internal.Correction>
   9.000000E+99

> <Gold.Chemscore.Hbonds>
donor molecule, donor type, donor heavy atom, donor atom, acceptor molecule, acceptor atom, score
      L1  H     4    21       P1  7948  0.17
      P1  H 10752 10764       L1     3  0.45

> <Gold.Chemscore.Hbond.Weighted>
-5.2522

> <Gold.Chemscore.Metal.Weighted>
-0.0000

> <Gold.Chemscore.Lipo.Weighted>
-9.8427

> <Gold.Chemscore.Internal_Hbond.Weighted>
0.0000

> <Gold.Chemscore.DEClash.Weighted>
0.0998

> <Gold.Chemscore.DEInternal.Weighted>
0.7016

> <Gold.Chemscore.Rot.Weighted>
3.9546

> <Gold.Chemscore.Internal.Correction.Weighted>
   9.000000E+99

> <Gold.Protein.RotatedTorsions>
[ 6907 6896 6895 6894 ] final -152.91 input  -60.11 | X-H torsion
[ 7974 7965 7964 7962 ] final -131.44 input  175.53 | X-H torsion
[ 8008 7997 7996 7995 ] final   21.25 input   59.86 | X-H torsion
[ 10167 10162 10161 10158 ] final  -31.65 input  -65.29 | X-H torsion
[ 10718 10713 10712 10709 ] final   22.35 input   66.30 | X-H torsion
[ 10763 10752 10751 10750 ] final  -31.59 input  -60.55 | X-H torsion
[ 11005 11000 10999 10996 ] final -178.84 input  -57.11 | X-H torsion

> <Gold.Protein.ActiveResidues>
 VAL166  LYS551  ARG553  GLY616  TRP617  ASP618  TYR619  PRO620  LYS621  CYS622 
 ASP623  PHE694  ASN695  SER759  ASP760  ASP761  ALA762  ILE779  LEU786  VAL792 
 PHE793  MET794  SER795  GLU796  ALA797  LYS798  CYS799  TRP800  GLU811  SER814 

> <Gold.Protein.RotatedAtoms>
  151.2348  133.4431  159.2604 H   0  0  0  0  0  0  0  0  0  0  0  0  # atno 6907 bound_to 6896
  151.0760  134.9829  159.8343 H   0  0  0  0  0  0  0  0  0  0  0  0  # atno 6908 bound_to 6896
  152.5418  134.2290  159.8870 H   0  0  0  0  0  0  0  0  0  0  0  0  # atno 6909 bound_to 6896
  144.9379  140.7205  143.4865 H   0  0  0  0  0  0  0  0  0  0  0  0  # atno 7974 bound_to 7965
  154.9478  140.3061  155.5089 H   0  0  0  0  0  0  0  0  0  0  0  0  # atno 8008 bound_to 7997
  156.2990  140.2324  156.4490 H   0  0  0  0  0  0  0  0  0  0  0  0  # atno 8009 bound_to 7997
  154.8084  140.0430  157.1313 H   0  0  0  0  0  0  0  0  0  0  0  0  # atno 8010 bound_to 7997
  140.7233  143.3755  151.1698 H   0  0  0  0  0  0  0  0  0  0  0  0  # atno 10167 bound_to 10162
  157.1511  130.6675  149.6012 H   0  0  0  0  0  0  0  0  0  0  0  0  # atno 10718 bound_to 10713
  153.7999  135.6891  153.4857 H   0  0  0  0  0  0  0  0  0  0  0  0  # atno 10763 bound_to 10752
  153.1695  135.4548  154.9882 H   0  0  0  0  0  0  0  0  0  0  0  0  # atno 10764 bound_to 10752
  154.8011  135.3338  154.7488 H   0  0  0  0  0  0  0  0  0  0  0  0  # atno 10765 bound_to 10752
  140.4253  134.6568  157.4685 H   0  0  0  0  0  0  0  0  0  0  0  0  # atno 11005 bound_to 11000
  145.3038  139.1841  143.4675 LP  0  0  0  0  0  0  0  0  0  0  0  0  # atno 17320 bound_to 7965
  146.3274  140.3032  142.8622 LP  0  0  0  0  0  0  0  0  0  0  0  0  # atno 17321 bound_to 7965
  139.7334  143.9037  152.3027 LP  0  0  0  0  0  0  0  0  0  0  0  0  # atno 17342 bound_to 10162
  139.8833  144.7005  150.8852 LP  0  0  0  0  0  0  0  0  0  0  0  0  # atno 17343 bound_to 10162
  155.9770  130.4744  150.6567 LP  0  0  0  0  0  0  0  0  0  0  0  0  # atno 17370 bound_to 10713
  157.4219  131.0838  151.1122 LP  0  0  0  0  0  0  0  0  0  0  0  0  # atno 17371 bound_to 10713
  140.0171  134.6602  155.9293 LP  0  0  0  0  0  0  0  0  0  0  0  0  # atno 17394 bound_to 11000
  141.1767  133.6541  156.4858 LP  0  0  0  0  0  0  0  0  0  0  0  0  # atno 17395 bound_to 11000

$$$$
