AV-unprocessed.smi:2671|AV-procd|sdf|10352|dock6
  -GOLD-   2272014373D 1   1.00000     0.00000
 Structure written by MMmdl.
 29 30  0  0  0  0  0  0  0  0  1 V2000
  151.2784  138.1866  154.7540 O   0  0  0  0  0  0  0  0  0  0  0  0
  150.6089  139.3593  154.9401 C   0  0  0  0  0  0  0  0  0  0  0  0
  149.3197  139.5232  154.3915 C   0  0  0  0  0  0  0  0  0  0  0  0
  148.6848  140.7655  154.6233 C   0  0  0  0  0  0  0  0  0  0  0  0
  147.2946  141.0751  154.0890 C   0  0  0  0  0  0  0  0  0  0  0  0
  146.3668  140.3119  154.6675 F   0  0  0  0  0  0  0  0  0  0  0  0
  146.9965  142.3531  154.3237 F   0  0  0  0  0  0  0  0  0  0  0  0
  147.2595  140.8589  152.7740 F   0  0  0  0  0  0  0  0  0  0  0  0
  149.2893  141.7436  155.3369 N   0  0  0  0  0  0  0  0  0  0  0  0
  150.5074  141.4692  155.8044 C   0  0  0  0  0  0  0  0  0  0  0  0
  151.2954  142.7560  156.7355 S   0  0  0  0  0  0  0  0  0  0  0  0
  151.4564  141.9046  158.3289 C   0  0  0  0  0  0  0  0  0  0  0  0
  152.1429  142.7854  159.3816 C   0  0  2  0  0  0  0  0  0  0  0  0
  152.8192  142.0115  160.5186 C   0  0  0  0  0  0  0  0  0  0  0  0
  152.6373  142.9020  161.7407 C   0  0  0  0  0  0  0  0  0  0  0  0
  151.8164  144.0835  161.2251 C   0  0  0  0  0  0  0  0  0  0  0  0
  151.1837  143.5818  160.0589 O   0  0  0  0  0  0  0  0  0  0  0  0
  151.2037  140.3417  155.6504 N   0  0  0  0  0  0  0  0  0  0  0  0
  150.7969  137.5740  154.2195 H   0  0  0  0  0  0  0  0  0  0  0  0
  148.8480  138.7346  153.8237 H   0  0  0  0  0  0  0  0  0  0  0  0
  150.4596  141.6265  158.6721 H   0  0  0  0  0  0  0  0  0  0  0  0
  152.0122  140.9776  158.1849 H   0  0  0  0  0  0  0  0  0  0  0  0
  152.8637  143.4513  158.9037 H   0  0  0  0  0  0  0  0  0  0  0  0
  152.3249  141.0540  160.6871 H   0  0  0  0  0  0  0  0  0  0  0  0
  153.8686  141.8096  160.3018 H   0  0  0  0  0  0  0  0  0  0  0  0
  152.0908  142.3642  162.5162 H   0  0  0  0  0  0  0  0  0  0  0  0
  153.5876  143.2274  162.1648 H   0  0  0  0  0  0  0  0  0  0  0  0
  151.0895  144.4422  161.9543 H   0  0  0  0  0  0  0  0  0  0  0  0
  152.4671  144.9161  160.9530 H   0  0  0  0  0  0  0  0  0  0  0  0
  1  2  1  0  0  0  0
  1 19  1  0  0  0  0
  2 18  1  0  0  0  0
  2  3  2  0  0  0  0
  3  4  1  0  0  0  0
  3 20  1  0  0  0  0
  4  5  1  0  0  0  0
  4  9  2  0  0  0  0
  5  6  1  0  0  0  0
  5  7  1  0  0  0  0
  5  8  1  0  0  0  0
  9 10  1  0  0  0  0
 10 11  1  0  0  0  0
 10 18  2  0  0  0  0
 11 12  1  0  0  0  0
 12 13  1  0  0  0  0
 12 21  1  0  0  0  0
 12 22  1  0  0  0  0
 13 17  1  0  0  0  0
 13 14  1  0  0  0  0
 13 23  1  0  0  0  0
 14 15  1  0  0  0  0
 14 24  1  0  0  0  0
 14 25  1  0  0  0  0
 15 16  1  0  0  0  0
 15 26  1  0  0  0  0
 15 27  1  0  0  0  0
 16 17  1  0  0  0  0
 16 28  1  0  0  0  0
 16 29  1  0  0  0  0
M  END
> <s_m_source_file>
AV-unprocessed.smi

> <i_m_source_file_index>
2671

> <i_lp_mmshare_version>
43012

> <i_f3d_flags>
0

> <s_epik_input>
W09IXWMxW2NIXWMoQyhGKShGKUYpbmMobjEpU1tDSDJdW0NAQEhdMltDSDJdW0NIMl1bQ0gyXU8y

> <s_epik_cmdline>
J2VwaWtfcHl0aG9uJywgJy1waCcsICc3LjAnLCAnLXRuJywgJzgnLCAnLW1hJywgJzIwMCcsICctbWV0YWxfYmluZGluZycsICctaW1hZScsICc8aW5maWxlLm1hZT4nLCAnLW9tYWUnLCAnPG91dGZpbGUubWFlPic=

> <r_lp_tautomer_probability>
0.0660145

> <r_epik_Ionization_Penalty>
3.60098

> <r_epik_Ionization_Penalty_Charging>
0

> <r_epik_Ionization_Penalty_Neutral>
3.60098

> <r_epik_State_Penalty>
2.71709

> <r_epik_Charging_Adjusted_Penalty>
2.71709

> <i_epik_Tot_Q>
0

> <i_epik_Tot_abs_Q>
0

> <r_epik_Metal_State_Penalty>
3.44057

> <b_epik_Metal_Only>
0

> <s_lp_Force_Field>
OPLS_2005

> <r_lp_Energy>
11.8845

> <b_lp_Chiralities_Consistent>
1

> <s_lp_Variant>
AV-unprocessed.smi:2671-7

> <Gold.Version>
5.8.1

> <Gold.Id.Protein>
6NUR|6NUR_protein|mol2

> <Gold.PLP.Fitness>
38.9276

> <Gold.PLP.PLP>
-39.7619

> <Gold.PLP.part.hbond>
-0.8754

> <Gold.PLP.part.metal>
0.0000

> <Gold.PLP.part.buried>
-6.0458

> <Gold.PLP.part.nonpolar>
-33.2404

> <Gold.PLP.part.repulsive>
0.7611

> <Gold.PLP.ligand.clash>
0.0000

> <Gold.PLP.ligand.torsion>
0.4204

> <Gold.PLP.Chemscore.Hbond>
0.0000

> <Gold.PLP.Chemscore.CHOScore>
0.0000

> <Gold.PLP.Chemscore.Metal>
0.0000

> <Gold.PLP.Chemscore.Internal.Correction>
0.0065

> <Gold.Rescore>
     Score         DG    S(hbond)    S(metal)    S(lipo)     H(rot)  DE(clash)    DE(int)     intcor
      8.69      -9.24       0.00        0.00      81.70       2.27       0.19       0.36       ----

> <Gold.Chemscore.Fitness>
8.6871

> <Gold.Chemscore.DG>
-9.2401

> <Gold.Chemscore.ZeroCoef>
-5.4800

> <Gold.Chemscore.Hbond>
0.0000

> <Gold.Chemscore.Metal>
0.0000

> <Gold.Chemscore.Lipo>
81.6965

> <Gold.Chemscore.Internal_Hbond>
0.0000

> <Gold.Chemscore.DEClash>
0.1891

> <Gold.Chemscore.DEInternal>
0.3638

> <Gold.Chemscore.Rot>
2.2650

> <Gold.Chemscore.Internal.Correction>
   9.000000E+99

> <Gold.Chemscore.Hbond.Weighted>
-0.0000

> <Gold.Chemscore.Metal.Weighted>
-0.0000

> <Gold.Chemscore.Lipo.Weighted>
-9.5585

> <Gold.Chemscore.Internal_Hbond.Weighted>
0.0000

> <Gold.Chemscore.DEClash.Weighted>
0.1891

> <Gold.Chemscore.DEInternal.Weighted>
0.3638

> <Gold.Chemscore.Rot.Weighted>
5.7984

> <Gold.Chemscore.Internal.Correction.Weighted>
   9.000000E+99

> <Gold.Protein.RotatedTorsions>
[ 6907 6896 6895 6894 ] final   87.03 input  -60.11 | X-H torsion
[ 7974 7965 7964 7962 ] final  120.89 input  175.53 | X-H torsion
[ 8008 7997 7996 7995 ] final -130.71 input   59.86 | X-H torsion
[ 10167 10162 10161 10158 ] final  163.22 input  -65.29 | X-H torsion
[ 10718 10713 10712 10709 ] final -178.56 input   66.30 | X-H torsion
[ 10763 10752 10751 10750 ] final  170.63 input  -60.55 | X-H torsion
[ 11005 11000 10999 10996 ] final -157.05 input  -57.11 | X-H torsion

> <Gold.Protein.ActiveResidues>
 VAL166  LYS551  ARG553  GLY616  TRP617  ASP618  TYR619  PRO620  LYS621  CYS622 
 ASP623  PHE694  ASN695  SER759  ASP760  ASP761  ALA762  ILE779  LEU786  VAL792 
 PHE793  MET794  SER795  GLU796  ALA797  LYS798  CYS799  TRP800  GLU811  SER814 

> <Gold.Protein.RotatedAtoms>
  152.5404  134.2340  159.8835 H   0  0  0  0  0  0  0  0  0  0  0  0  # atno 6907 bound_to 6896
  151.2311  133.4443  159.2611 H   0  0  0  0  0  0  0  0  0  0  0  0  # atno 6908 bound_to 6896
  151.0715  134.9815  159.8367 H   0  0  0  0  0  0  0  0  0  0  0  0  # atno 6909 bound_to 6896
  145.1257  139.3359  143.4691 H   0  0  0  0  0  0  0  0  0  0  0  0  # atno 7974 bound_to 7965
  155.3003  140.0452  157.3029 H   0  0  0  0  0  0  0  0  0  0  0  0  # atno 8008 bound_to 7997
  154.5490  140.2311  155.8482 H   0  0  0  0  0  0  0  0  0  0  0  0  # atno 8009 bound_to 7997
  156.1950  140.3040  155.9416 H   0  0  0  0  0  0  0  0  0  0  0  0  # atno 8010 bound_to 7997
  139.4871  144.4358  151.9013 H   0  0  0  0  0  0  0  0  0  0  0  0  # atno 10167 bound_to 10162
  156.8462  130.9703  151.3096 H   0  0  0  0  0  0  0  0  0  0  0  0  # atno 10718 bound_to 10713
  154.4004  135.2755  155.2100 H   0  0  0  0  0  0  0  0  0  0  0  0  # atno 10763 bound_to 10752
  154.4129  135.6018  153.5967 H   0  0  0  0  0  0  0  0  0  0  0  0  # atno 10764 bound_to 10752
  152.9831  135.5953  154.4271 H   0  0  0  0  0  0  0  0  0  0  0  0  # atno 10765 bound_to 10752
  140.6688  134.4270  157.5232 H   0  0  0  0  0  0  0  0  0  0  0  0  # atno 11005 bound_to 11000
  146.3518  140.1236  142.8599 LP  0  0  0  0  0  0  0  0  0  0  0  0  # atno 17320 bound_to 7965
  145.0690  140.9142  143.4893 LP  0  0  0  0  0  0  0  0  0  0  0  0  # atno 17321 bound_to 7965
  140.3808  144.2738  150.5909 LP  0  0  0  0  0  0  0  0  0  0  0  0  # atno 17342 bound_to 10162
  140.5235  143.2260  151.8352 LP  0  0  0  0  0  0  0  0  0  0  0  0  # atno 17343 bound_to 10162
  157.6329  130.8743  149.9306 LP  0  0  0  0  0  0  0  0  0  0  0  0  # atno 17370 bound_to 10713
  156.0853  130.3668  150.0499 LP  0  0  0  0  0  0  0  0  0  0  0  0  # atno 17371 bound_to 10713
  139.8988  134.8605  156.1985 LP  0  0  0  0  0  0  0  0  0  0  0  0  # atno 17394 bound_to 11000
  141.0408  133.6939  156.1595 LP  0  0  0  0  0  0  0  0  0  0  0  0  # atno 17395 bound_to 11000

$$$$
