AV-unprocessed.smi:283|AV-procd|sdf|2138|dock5
  -GOLD-   2262021463D 1   1.00000     0.00000
 Structure written by MMmdl.
 48 51  0  0  0  0  0  0  0  0  1 V2000
  148.7184  141.7003  154.1474 C   0  0  0  0  0  0  0  0  0  0  0  0
  148.6765  140.2207  154.5529 C   0  0  1  0  0  0  0  0  0  0  0  0
  147.9305  139.4585  153.5542 N   0  0  0  0  0  0  0  0  0  0  0  0
  147.3940  138.2544  153.8512 C   0  0  0  0  0  0  0  0  0  0  0  0
  147.7305  137.7506  155.0616 N   0  0  0  0  0  0  0  0  0  0  0  0
  147.2347  136.5770  155.4596 C   0  0  0  0  0  0  0  0  0  0  0  0
  146.4122  135.7566  154.8056 N   0  0  0  0  0  0  0  0  0  0  0  0
  146.0835  136.2402  153.5716 C   0  0  0  0  0  0  0  0  0  0  0  0
  146.5242  137.4811  153.0258 C   0  0  0  0  0  0  0  0  0  0  0  0
  145.9745  137.6451  151.7615 N   0  0  0  0  0  0  0  0  0  0  0  0
  145.2444  136.5799  151.5838 C   0  0  0  0  0  0  0  0  0  0  0  0
  145.2838  135.6536  152.6047 N   0  0  0  0  0  0  0  0  0  0  0  0
  144.5330  134.3477  152.6965 C   0  0  2  0  0  0  0  0  0  0  0  0
  145.4169  133.2882  152.5141 O   0  0  0  0  0  0  0  0  0  0  0  0
  145.5838  133.0619  151.1225 C   0  0  1  0  0  0  0  0  0  0  0  0
  146.1820  131.6681  150.8828 C   0  0  0  0  0  0  0  0  0  0  0  0
  146.5201  131.5157  149.5207 O   0  0  0  0  0  0  0  0  0  0  0  0
  144.1520  133.2190  150.5958 C   0  0  2  0  0  0  0  0  0  0  0  0
  144.1825  133.7408  149.2817 O   0  0  0  0  0  0  0  0  0  0  0  0
  143.4999  134.2165  151.5587 C   0  0  1  0  0  0  0  0  0  0  0  0
  142.2687  133.7192  152.0420 O   0  0  0  0  0  0  0  0  0  0  0  0
  150.0922  139.7041  154.8250 C   0  0  0  0  0  0  0  0  0  0  0  0
  150.5817  138.5808  154.1180 C   0  0  0  0  0  0  0  0  0  0  0  0
  151.8807  138.0933  154.3532 C   0  0  0  0  0  0  0  0  0  0  0  0
  152.7106  138.7310  155.2923 C   0  0  0  0  0  0  0  0  0  0  0  0
  152.2404  139.8578  155.9914 C   0  0  0  0  0  0  0  0  0  0  0  0
  150.9397  140.3493  155.7610 C   0  0  0  0  0  0  0  0  0  0  0  0
  150.4216  141.7466  156.6380 Cl  0  0  0  0  0  0  0  0  0  0  0  0
  144.1088  134.3590  153.7014 H   0  0  0  0  0  0  0  0  0  0  0  0
  146.2262  133.8383  150.7006 H   0  0  0  0  0  0  0  0  0  0  0  0
  143.6293  132.2611  150.6087 H   0  0  0  0  0  0  0  0  0  0  0  0
  143.3141  135.1778  151.0808 H   0  0  0  0  0  0  0  0  0  0  0  0
  149.1951  142.3051  154.9193 H   0  0  0  0  0  0  0  0  0  0  0  0
  147.7134  142.0957  153.9960 H   0  0  0  0  0  0  0  0  0  0  0  0
  149.2765  141.8432  153.2214 H   0  0  0  0  0  0  0  0  0  0  0  0
  148.0948  140.1662  155.4710 H   0  0  0  0  0  0  0  0  0  0  0  0
  148.1046  139.7382  152.6000 H   0  0  0  0  0  0  0  0  0  0  0  0
  147.5402  136.2473  156.4415 H   0  0  0  0  0  0  0  0  0  0  0  0
  144.6569  136.4449  150.6874 H   0  0  0  0  0  0  0  0  0  0  0  0
  147.0538  131.4941  151.5140 H   0  0  0  0  0  0  0  0  0  0  0  0
  145.4473  130.8997  151.1246 H   0  0  0  0  0  0  0  0  0  0  0  0
  147.4126  131.2101  149.4649 H   0  0  0  0  0  0  0  0  0  0  0  0
  145.0664  134.0127  149.0867 H   0  0  0  0  0  0  0  0  0  0  0  0
  141.6973  133.5634  151.3055 H   0  0  0  0  0  0  0  0  0  0  0  0
  149.9610  138.0822  153.3881 H   0  0  0  0  0  0  0  0  0  0  0  0
  152.2404  137.2314  153.8106 H   0  0  0  0  0  0  0  0  0  0  0  0
  153.7088  138.3598  155.4724 H   0  0  0  0  0  0  0  0  0  0  0  0
  152.8835  140.3495  156.7065 H   0  0  0  0  0  0  0  0  0  0  0  0
  1  2  1  0  0  0  0
  1 33  1  0  0  0  0
  1 34  1  0  0  0  0
  1 35  1  0  0  0  0
  2  3  1  0  0  0  0
  2 22  1  0  0  0  0
  2 36  1  0  0  0  0
  3  4  1  0  0  0  0
  3 37  1  0  0  0  0
  4  9  1  0  0  0  0
  4  5  2  0  0  0  0
  5  6  1  0  0  0  0
  6  7  2  0  0  0  0
  6 38  1  0  0  0  0
  7  8  1  0  0  0  0
  8 12  1  0  0  0  0
  8  9  2  0  0  0  0
  9 10  1  0  0  0  0
 10 11  2  0  0  0  0
 11 12  1  0  0  0  0
 11 39  1  0  0  0  0
 12 13  1  0  0  0  0
 13 29  1  0  0  0  0
 13 20  1  0  0  0  0
 13 14  1  0  0  0  0
 14 15  1  0  0  0  0
 15 30  1  0  0  0  0
 15 16  1  0  0  0  0
 15 18  1  0  0  0  0
 16 17  1  0  0  0  0
 16 40  1  0  0  0  0
 16 41  1  0  0  0  0
 17 42  1  0  0  0  0
 18 31  1  0  0  0  0
 18 19  1  0  0  0  0
 18 20  1  0  0  0  0
 19 43  1  0  0  0  0
 20 32  1  0  0  0  0
 20 21  1  0  0  0  0
 21 44  1  0  0  0  0
 22 27  1  0  0  0  0
 22 23  2  0  0  0  0
 23 24  1  0  0  0  0
 23 45  1  0  0  0  0
 24 25  2  0  0  0  0
 24 46  1  0  0  0  0
 25 26  1  0  0  0  0
 25 47  1  0  0  0  0
 26 27  2  0  0  0  0
 26 48  1  0  0  0  0
 27 28  1  0  0  0  0
M  END
> <s_m_source_file>
AV-unprocessed.smi

> <i_m_source_file_index>
283

> <i_lp_mmshare_version>
43012

> <i_f3d_flags>
0

> <s_epik_input>
Q2xjMVtjSF1bY0hdW2NIXVtjSF1jMVtDQEhdKFtDSDNdKVtOSF1jKG5bY0hdbjIpYyhjMjMpbltjSF1uM1tDQEBIXTRPW0NASF0oW0NIMl1bT0hdKVtDQEBIXShbT0hdKVtDQEhdNFtPSF0=

> <s_epik_cmdline>
J2VwaWtfcHl0aG9uJywgJy1waCcsICc3LjAnLCAnLXRuJywgJzgnLCAnLW1hJywgJzIwMCcsICctbWV0YWxfYmluZGluZycsICctaW1hZScsICc8aW5maWxlLm1hZT4nLCAnLW9tYWUnLCAnPG91dGZpbGUubWFlPic=

> <r_lp_tautomer_probability>
1

> <r_epik_Ionization_Penalty>
0.000266407

> <r_epik_Ionization_Penalty_Charging>
0

> <r_epik_Ionization_Penalty_Neutral>
0.000266407

> <r_epik_State_Penalty>
-0

> <r_epik_Charging_Adjusted_Penalty>
0

> <i_epik_Tot_Q>
0

> <i_epik_Tot_abs_Q>
0

> <r_epik_Metal_State_Penalty>
-0

> <b_epik_Metal_Only>
0

> <s_epik_Chemistry_Notes>
This compound contains an acetal/aminal-like group ( X-CH(R)-Y where X, Y are N, S, or O) that may be acid/base labile, releasing an aldehyde.

> <s_lp_Force_Field>
OPLS_2005

> <r_lp_Energy>
39.8379

> <b_lp_Chiralities_Consistent>
1

> <s_lp_Variant>
AV-unprocessed.smi:283-14

> <Gold.Version>
5.8.1

> <Gold.Id.Protein>
6NUR|6NUR_protein|mol2

> <Gold.PLP.Fitness>
52.6935

> <Gold.PLP.PLP>
-41.9553

> <Gold.PLP.part.hbond>
-4.2778

> <Gold.PLP.part.metal>
0.0000

> <Gold.PLP.part.buried>
1.0109

> <Gold.PLP.part.nonpolar>
-38.5243

> <Gold.PLP.part.repulsive>
1.2562

> <Gold.PLP.ligand.clash>
0.0000

> <Gold.PLP.ligand.torsion>
0.6538

> <Gold.PLP.Chemscore.Hbond>
3.3332

> <Gold.PLP.Chemscore.CHOScore>
0.6435

> <Gold.PLP.Chemscore.Metal>
0.0000

> <Gold.Chemscore.Hbonds>
donor molecule, donor type, donor heavy atom, donor atom, acceptor molecule, acceptor atom, score
      L1  H     3    37       P1  7957  0.76
      L1  H    17    42       P1 10747  1.00
      L1  H    19    43       P1  7921  0.82
      L1  H    21    44       P1 10186  0.75
      L1  C    11    39       P1 10171  0.64

> <Gold.PLP.Chemscore.Internal.Correction>
0.1155

> <Gold.Rescore>
     Score         DG    S(hbond)    S(metal)    S(lipo)     H(rot)  DE(clash)    DE(int)     intcor
     11.57     -14.34       2.37        0.00      97.76       4.10       2.03       0.74       ----

> <Gold.Chemscore.Fitness>
11.5714

> <Gold.Chemscore.DG>
-14.3427

> <Gold.Chemscore.ZeroCoef>
-5.4800

> <Gold.Chemscore.Hbond>
2.3691

> <Gold.Chemscore.Metal>
0.0000

> <Gold.Chemscore.Lipo>
97.7582

> <Gold.Chemscore.Internal_Hbond>
0.0000

> <Gold.Chemscore.DEClash>
2.0270

> <Gold.Chemscore.DEInternal>
0.7443

> <Gold.Chemscore.Rot>
4.0968

> <Gold.Chemscore.Internal.Correction>
   9.000000E+99

> <Gold.Chemscore.Hbonds>
donor molecule, donor type, donor heavy atom, donor atom, acceptor molecule, acceptor atom, score
      L1  H     3    37       P1  7957  0.72
      L1  H    17    42       P1 10747  0.95
      L1  H    19    43       P1  7921  0.78
      L1  H    21    44       P1 10186  0.14

> <Gold.Chemscore.Hbond.Weighted>
-7.9129

> <Gold.Chemscore.Metal.Weighted>
-0.0000

> <Gold.Chemscore.Lipo.Weighted>
-11.4377

> <Gold.Chemscore.Internal_Hbond.Weighted>
0.0000

> <Gold.Chemscore.DEClash.Weighted>
2.0270

> <Gold.Chemscore.DEInternal.Weighted>
0.7443

> <Gold.Chemscore.Rot.Weighted>
10.4879

> <Gold.Chemscore.Internal.Correction.Weighted>
   9.000000E+99

> <Gold.Protein.RotatedTorsions>
[ 6907 6896 6895 6894 ] final -178.08 input  -60.11 | X-H torsion
[ 7974 7965 7964 7962 ] final  111.45 input  175.53 | X-H torsion
[ 8008 7997 7996 7995 ] final -156.03 input   59.86 | X-H torsion
[ 10167 10162 10161 10158 ] final -115.02 input  -65.29 | X-H torsion
[ 10718 10713 10712 10709 ] final  -25.89 input   66.30 | X-H torsion
[ 10763 10752 10751 10750 ] final  -29.21 input  -60.55 | X-H torsion
[ 11005 11000 10999 10996 ] final  -30.01 input  -57.11 | X-H torsion

> <Gold.Protein.ActiveResidues>
 VAL166  LYS551  ARG553  GLY616  TRP617  ASP618  TYR619  PRO620  LYS621  CYS622 
 ASP623  PHE694  ASN695  SER759  ASP760  ASP761  ALA762  ILE779  LEU786  VAL792 
 PHE793  MET794  SER795  GLU796  ALA797  LYS798  CYS799  TRP800  GLU811  SER814 

> <Gold.Protein.RotatedAtoms>
  151.6313  133.3332  159.3109 H   0  0  0  0  0  0  0  0  0  0  0  0  # atno 6907 bound_to 6896
  150.8055  134.7180  159.6651 H   0  0  0  0  0  0  0  0  0  0  0  0  # atno 6908 bound_to 6896
  152.4150  134.6062  160.0065 H   0  0  0  0  0  0  0  0  0  0  0  0  # atno 6909 bound_to 6896
  145.2420  139.2775  143.4113 H   0  0  0  0  0  0  0  0  0  0  0  0  # atno 7974 bound_to 7965
  155.7110  140.0778  157.2371 H   0  0  0  0  0  0  0  0  0  0  0  0  # atno 8008 bound_to 7997
  154.4058  140.1630  156.2350 H   0  0  0  0  0  0  0  0  0  0  0  0  # atno 8009 bound_to 7997
  155.9283  140.3393  155.6231 H   0  0  0  0  0  0  0  0  0  0  0  0  # atno 8010 bound_to 7997
  140.0946  143.4668  152.1849 H   0  0  0  0  0  0  0  0  0  0  0  0  # atno 10167 bound_to 10162
  156.4584  130.4498  149.6944 H   0  0  0  0  0  0  0  0  0  0  0  0  # atno 10718 bound_to 10713
  153.7608  135.6919  153.4926 H   0  0  0  0  0  0  0  0  0  0  0  0  # atno 10763 bound_to 10752
  153.1939  135.4461  155.0183 H   0  0  0  0  0  0  0  0  0  0  0  0  # atno 10764 bound_to 10752
  154.8153  135.3396  154.7124 H   0  0  0  0  0  0  0  0  0  0  0  0  # atno 10765 bound_to 10752
  140.9346  133.7317  156.0986 H   0  0  0  0  0  0  0  0  0  0  0  0  # atno 11005 bound_to 11000
  146.3326  140.2786  142.8609 LP  0  0  0  0  0  0  0  0  0  0  0  0  # atno 17320 bound_to 7965
  144.9580  140.8246  143.5531 LP  0  0  0  0  0  0  0  0  0  0  0  0  # atno 17321 bound_to 7965
  139.5705  144.7460  151.3903 LP  0  0  0  0  0  0  0  0  0  0  0  0  # atno 17342 bound_to 10162
  140.7010  143.7631  150.7403 LP  0  0  0  0  0  0  0  0  0  0  0  0  # atno 17343 bound_to 10162
  156.3742  130.7546  151.2532 LP  0  0  0  0  0  0  0  0  0  0  0  0  # atno 17370 bound_to 10713
  157.7499  131.0314  150.4181 LP  0  0  0  0  0  0  0  0  0  0  0  0  # atno 17371 bound_to 10713
  140.7817  134.3718  157.5486 LP  0  0  0  0  0  0  0  0  0  0  0  0  # atno 17394 bound_to 11000
  139.8804  134.9085  156.2970 LP  0  0  0  0  0  0  0  0  0  0  0  0  # atno 17395 bound_to 11000

$$$$
