AV-unprocessed.smi:69|AV-procd|sdf|655|dock8
  -GOLD-   2262016553D 1   1.00000     0.00000
 Structure written by MMmdl.
 32 34  0  0  0  0  0  0  0  0  1 V2000
  152.4873  139.8332  158.8045 N   0  0  0  0  0  0  0  0  0  0  0  0
  152.0815  139.8105  157.5276 C   0  0  0  0  0  0  0  0  0  0  0  0
  152.8035  139.0921  156.6356 N   0  0  0  0  0  0  0  0  0  0  0  0
  152.4196  139.0541  155.3551 C   0  0  0  0  0  0  0  0  0  0  0  0
  151.3714  139.6488  154.7782 N   0  0  0  0  0  0  0  0  0  0  0  0
  150.6462  140.3715  155.6814 C   0  0  0  0  0  0  0  0  0  0  0  0
  150.9329  140.5023  157.0677 C   0  0  0  0  0  0  0  0  0  0  0  0
  149.9804  141.3109  157.6726 N   0  0  0  0  0  0  0  0  0  0  0  0
  149.1782  141.6370  156.6944 C   0  0  0  0  0  0  0  0  0  0  0  0
  149.5024  141.1085  155.4620 N   0  0  0  0  0  0  0  0  0  0  0  0
  148.8038  141.2781  154.1463 C   0  0  2  0  0  0  0  0  0  0  0  0
  147.8880  142.3231  154.2921 O   0  0  0  0  0  0  0  0  0  0  0  0
  146.5575  141.8820  154.0217 C   0  0  2  0  0  0  0  0  0  0  0  0
  145.5351  142.6462  154.8812 C   0  0  0  0  0  0  0  0  0  0  0  0
  144.3577  141.8817  155.0281 O   0  0  0  0  0  0  0  0  0  0  0  0
  146.5958  140.3613  154.2300 C   0  0  2  0  0  0  0  0  0  0  0  0
  146.3783  140.0143  155.5878 O   0  0  0  0  0  0  0  0  0  0  0  0
  148.0019  140.0223  153.7553 C   0  0  2  0  0  0  0  0  0  0  0  0
  148.4866  138.7964  154.2750 O   0  0  0  0  0  0  0  0  0  0  0  0
  149.5933  141.5367  153.4396 H   0  0  0  0  0  0  0  0  0  0  0  0
  146.3605  142.0622  152.9631 H   0  0  0  0  0  0  0  0  0  0  0  0
  145.8378  139.8563  153.6304 H   0  0  0  0  0  0  0  0  0  0  0  0
  148.0013  139.9647  152.6662 H   0  0  0  0  0  0  0  0  0  0  0  0
  151.9650  140.3619  159.4882 H   0  0  0  0  0  0  0  0  0  0  0  0
  153.3144  139.3239  159.0801 H   0  0  0  0  0  0  0  0  0  0  0  0
  153.0409  138.4625  154.6990 H   0  0  0  0  0  0  0  0  0  0  0  0
  148.3217  142.2761  156.8503 H   0  0  0  0  0  0  0  0  0  0  0  0
  145.9374  142.8175  155.8801 H   0  0  0  0  0  0  0  0  0  0  0  0
  145.3015  143.6208  154.4518 H   0  0  0  0  0  0  0  0  0  0  0  0
  144.1163  141.5369  154.1820 H   0  0  0  0  0  0  0  0  0  0  0  0
  145.6902  140.5651  155.9291 H   0  0  0  0  0  0  0  0  0  0  0  0
  147.8096  138.4160  154.8140 H   0  0  0  0  0  0  0  0  0  0  0  0
  1  2  1  0  0  0  0
  1 24  1  0  0  0  0
  1 25  1  0  0  0  0
  2  7  1  0  0  0  0
  2  3  2  0  0  0  0
  3  4  1  0  0  0  0
  4  5  2  0  0  0  0
  4 26  1  0  0  0  0
  5  6  1  0  0  0  0
  6 10  1  0  0  0  0
  6  7  2  0  0  0  0
  7  8  1  0  0  0  0
  8  9  2  0  0  0  0
  9 10  1  0  0  0  0
  9 27  1  0  0  0  0
 10 11  1  0  0  0  0
 11 20  1  0  0  0  0
 11 18  1  0  0  0  0
 11 12  1  0  0  0  0
 12 13  1  0  0  0  0
 13 21  1  0  0  0  0
 13 14  1  0  0  0  0
 13 16  1  0  0  0  0
 14 15  1  0  0  0  0
 14 28  1  0  0  0  0
 14 29  1  0  0  0  0
 15 30  1  0  0  0  0
 16 22  1  0  0  0  0
 16 17  1  0  0  0  0
 16 18  1  0  0  0  0
 17 31  1  0  0  0  0
 18 23  1  0  0  0  0
 18 19  1  0  0  0  0
 19 32  1  0  0  0  0
M  END
> <s_m_source_file>
AV-unprocessed.smi

> <i_m_source_file_index>
69

> <i_lp_mmshare_version>
43012

> <i_f3d_flags>
0

> <s_epik_input>
bjFbY0hdbmMoW05IMl0pYyhjMTIpbltjSF1uMltDQEBIXTNPW0NASF0oW0NIMl1bT0hdKVtDQEBIXShbT0hdKVtDQEhdM1tPSF0=

> <s_epik_cmdline>
J2VwaWtfcHl0aG9uJywgJy1waCcsICc3LjAnLCAnLXRuJywgJzgnLCAnLW1hJywgJzIwMCcsICctbWV0YWxfYmluZGluZycsICctaW1hZScsICc8aW5maWxlLm1hZT4nLCAnLW9tYWUnLCAnPG91dGZpbGUubWFlPic=

> <r_lp_tautomer_probability>
1

> <r_epik_Ionization_Penalty>
0.000428445

> <r_epik_Ionization_Penalty_Charging>
0

> <r_epik_Ionization_Penalty_Neutral>
0.000428445

> <r_epik_State_Penalty>
-0

> <r_epik_Charging_Adjusted_Penalty>
0

> <i_epik_Tot_Q>
0

> <i_epik_Tot_abs_Q>
0

> <r_epik_Metal_State_Penalty>
-0

> <b_epik_Metal_Only>
0

> <s_epik_Chemistry_Notes>
This compound contains an acetal/aminal-like group ( X-CH(R)-Y where X, Y are N, S, or O) that may be acid/base labile, releasing an aldehyde.

> <s_lp_Force_Field>
OPLS_2005

> <r_lp_Energy>
42.2813

> <b_lp_Chiralities_Consistent>
1

> <s_lp_Variant>
AV-unprocessed.smi:69-13

> <Gold.Version>
5.8.1

> <Gold.Id.Protein>
6NUR|6NUR_protein|mol2

> <Gold.PLP.Fitness>
38.2058

> <Gold.PLP.PLP>
-28.2772

> <Gold.PLP.part.hbond>
-3.6529

> <Gold.PLP.part.metal>
0.0000

> <Gold.PLP.part.buried>
-1.0276

> <Gold.PLP.part.nonpolar>
-24.3919

> <Gold.PLP.part.repulsive>
1.4767

> <Gold.PLP.ligand.clash>
0.0000

> <Gold.PLP.ligand.torsion>
0.5987

> <Gold.PLP.Chemscore.Hbond>
3.0000

> <Gold.PLP.Chemscore.CHOScore>
0.5805

> <Gold.PLP.Chemscore.Metal>
0.0000

> <Gold.Chemscore.Hbonds>
donor molecule, donor type, donor heavy atom, donor atom, acceptor molecule, acceptor atom, score
      L1  H    15    30       P1 10175  0.95
      P1  H  7989  7998       L1     5  1.00
      P1  H  7997  8008       L1     3  0.90
      L1  C     9    27       P1  8028  0.23

> <Gold.PLP.Chemscore.Internal.Correction>
0.3843

> <Gold.Rescore>
     Score         DG    S(hbond)    S(metal)    S(lipo)     H(rot)  DE(clash)    DE(int)     intcor
      4.26      -5.81       2.36        0.00      23.55       4.03       0.05       1.50       ----

> <Gold.Chemscore.Fitness>
4.2567

> <Gold.Chemscore.DG>
-5.8102

> <Gold.Chemscore.ZeroCoef>
-5.4800

> <Gold.Chemscore.Hbond>
2.3609

> <Gold.Chemscore.Metal>
0.0000

> <Gold.Chemscore.Lipo>
23.5522

> <Gold.Chemscore.Internal_Hbond>
0.0000

> <Gold.Chemscore.DEClash>
0.0532

> <Gold.Chemscore.DEInternal>
1.5002

> <Gold.Chemscore.Rot>
4.0277

> <Gold.Chemscore.Internal.Correction>
   9.000000E+99

> <Gold.Chemscore.Hbonds>
donor molecule, donor type, donor heavy atom, donor atom, acceptor molecule, acceptor atom, score
      L1  H    15    30       P1 10175  0.20
      P1  H  7989  7998       L1     5  0.34
      P1  H  7997  8008       L1     3  0.13

> <Gold.Chemscore.Hbond.Weighted>
-7.8856

> <Gold.Chemscore.Metal.Weighted>
-0.0000

> <Gold.Chemscore.Lipo.Weighted>
-2.7556

> <Gold.Chemscore.Internal_Hbond.Weighted>
0.0000

> <Gold.Chemscore.DEClash.Weighted>
0.0532

> <Gold.Chemscore.DEInternal.Weighted>
1.5002

> <Gold.Chemscore.Rot.Weighted>
10.3110

> <Gold.Chemscore.Internal.Correction.Weighted>
   9.000000E+99

> <Gold.Protein.RotatedTorsions>
[ 6907 6896 6895 6894 ] final   33.83 input  -60.11 | X-H torsion
[ 7974 7965 7964 7962 ] final  167.05 input  175.53 | X-H torsion
[ 8008 7997 7996 7995 ] final  -72.29 input   59.86 | X-H torsion
[ 10167 10162 10161 10158 ] final -149.52 input  -65.29 | X-H torsion
[ 10718 10713 10712 10709 ] final  158.57 input   66.30 | X-H torsion
[ 10763 10752 10751 10750 ] final -173.12 input  -60.55 | X-H torsion
[ 11005 11000 10999 10996 ] final -141.10 input  -57.11 | X-H torsion

> <Gold.Protein.ActiveResidues>
 VAL166  LYS551  ARG553  GLY616  TRP617  ASP618  TYR619  PRO620  LYS621  CYS622 
 ASP623  PHE694  ASN695  SER759  ASP760  ASP761  ALA762  ILE779  LEU786  VAL792 
 PHE793  MET794  SER795  GLU796  ALA797  LYS798  CYS799  TRP800  GLU811  SER814 

> <Gold.Protein.RotatedAtoms>
  152.0939  134.9388  160.0571 H   0  0  0  0  0  0  0  0  0  0  0  0  # atno 6907 bound_to 6896
  152.0629  133.4065  159.4434 H   0  0  0  0  0  0  0  0  0  0  0  0  # atno 6908 bound_to 6896
  150.6837  134.3100  159.4786 H   0  0  0  0  0  0  0  0  0  0  0  0  # atno 6909 bound_to 6896
  144.7439  139.8705  143.6388 H   0  0  0  0  0  0  0  0  0  0  0  0  # atno 7974 bound_to 7965
  154.5155  140.0800  156.8072 H   0  0  0  0  0  0  0  0  0  0  0  0  # atno 8008 bound_to 7997
  155.3691  140.3422  155.4224 H   0  0  0  0  0  0  0  0  0  0  0  0  # atno 8009 bound_to 7997
  156.1622  140.1592  156.8580 H   0  0  0  0  0  0  0  0  0  0  0  0  # atno 8010 bound_to 7997
  139.7435  143.8625  152.2569 H   0  0  0  0  0  0  0  0  0  0  0  0  # atno 10167 bound_to 10162
  157.1761  131.0621  151.2157 H   0  0  0  0  0  0  0  0  0  0  0  0  # atno 10718 bound_to 10713
  154.6114  135.2865  155.0427 H   0  0  0  0  0  0  0  0  0  0  0  0  # atno 10763 bound_to 10752
  154.1656  135.6481  153.5000 H   0  0  0  0  0  0  0  0  0  0  0  0  # atno 10764 bound_to 10752
  153.0197  135.5388  154.6870 H   0  0  0  0  0  0  0  0  0  0  0  0  # atno 10765 bound_to 10752
  140.8357  134.2463  157.4835 H   0  0  0  0  0  0  0  0  0  0  0  0  # atno 11005 bound_to 11000
  146.1284  139.4314  143.0184 LP  0  0  0  0  0  0  0  0  0  0  0  0  # atno 17320 bound_to 7965
  145.7200  141.0078  143.1407 LP  0  0  0  0  0  0  0  0  0  0  0  0  # atno 17321 bound_to 7965
  139.8583  144.7130  150.9130 LP  0  0  0  0  0  0  0  0  0  0  0  0  # atno 17342 bound_to 10162
  140.7789  143.3840  151.1427 LP  0  0  0  0  0  0  0  0  0  0  0  0  # atno 17343 bound_to 10162
  157.3997  130.7326  149.6758 LP  0  0  0  0  0  0  0  0  0  0  0  0  # atno 17370 bound_to 10713
  155.9731  130.4124  150.4030 LP  0  0  0  0  0  0  0  0  0  0  0  0  # atno 17371 bound_to 10713
  139.8704  134.9609  156.4380 LP  0  0  0  0  0  0  0  0  0  0  0  0  # atno 17394 bound_to 11000
  140.8950  133.7821  155.9614 LP  0  0  0  0  0  0  0  0  0  0  0  0  # atno 17395 bound_to 11000

$$$$
