AV-unprocessed.smi:38|AV-procd|sdf|349|dock3
  -GOLD-   2262016183D 1   1.00000     0.00000
 Structure written by MMmdl.
 27 28  0  0  0  0  0  0  0  0  2 V2000
  152.9072  141.0816  159.0113 O   0  0  0  0  0  0  0  0  0  0  0  0
  152.2048  141.0626  158.0018 C   0  0  0  0  0  0  0  0  0  0  0  0
  152.4442  140.2259  156.9509 N   0  5  0  0  0  0  0  0  0  0  0  0
  151.6641  140.2078  155.8304 C   0  0  0  0  0  0  0  0  0  0  0  0
  151.8649  139.4473  154.8830 O   0  0  0  0  0  0  0  0  0  0  0  0
  150.5618  141.1016  155.7452 N   0  0  0  0  0  0  0  0  0  0  0  0
  149.6927  141.0767  154.5065 C   0  0  1  0  0  0  0  0  0  0  0  0
  148.9837  139.7184  154.3755 C   0  0  0  0  0  0  0  0  0  0  0  0
  147.5754  140.1209  153.9835 C   0  0  1  0  0  0  0  0  0  0  0  0
  146.6330  139.1550  154.4025 O   0  0  0  0  0  0  0  0  0  0  0  0
  147.4275  141.4466  154.7326 C   0  0  2  0  0  0  0  0  0  0  0  0
  146.3087  142.3973  154.2699 C   0  0  0  0  0  0  0  0  0  0  0  0
  145.0315  141.9643  154.6907 O   0  0  0  0  0  0  0  0  0  0  0  0
  148.7036  142.0630  154.6074 O   0  0  0  0  0  0  0  0  0  0  0  0
  150.2890  141.9552  156.8016 C   0  0  0  0  0  0  0  0  0  0  0  0
  151.0600  141.9665  157.9081 C   0  0  0  0  0  0  0  0  0  0  0  0
  150.7699  142.8057  158.9173 F   0  0  0  0  0  0  0  0  0  0  0  0
  150.3437  141.3230  153.6663 H   0  0  0  0  0  0  0  0  0  0  0  0
  147.5223  140.2596  152.9033 H   0  0  0  0  0  0  0  0  0  0  0  0
  147.2866  141.2406  155.7953 H   0  0  0  0  0  0  0  0  0  0  0  0
  149.4795  139.0831  153.6408 H   0  0  0  0  0  0  0  0  0  0  0  0
  148.9873  139.2100  155.3419 H   0  0  0  0  0  0  0  0  0  0  0  0
  146.2186  138.7896  153.6358 H   0  0  0  0  0  0  0  0  0  0  0  0
  146.4764  143.3898  154.6884 H   0  0  0  0  0  0  0  0  0  0  0  0
  146.3209  142.5031  153.1849 H   0  0  0  0  0  0  0  0  0  0  0  0
  144.6481  141.4439  154.0013 H   0  0  0  0  0  0  0  0  0  0  0  0
  149.4474  142.6289  156.7559 H   0  0  0  0  0  0  0  0  0  0  0  0
  1  2  2  0  0  0  0
  2 16  1  0  0  0  0
  2  3  1  0  0  0  0
  3  4  1  0  0  0  0
  4  5  2  0  0  0  0
  4  6  1  0  0  0  0
  6  7  1  0  0  0  0
  6 15  1  0  0  0  0
  7 18  1  0  0  0  0
  7 14  1  0  0  0  0
  7  8  1  0  0  0  0
  8  9  1  0  0  0  0
  8 21  1  0  0  0  0
  8 22  1  0  0  0  0
  9 19  1  0  0  0  0
  9 10  1  0  0  0  0
  9 11  1  0  0  0  0
 10 23  1  0  0  0  0
 11 20  1  0  0  0  0
 11 12  1  0  0  0  0
 11 14  1  0  0  0  0
 12 13  1  0  0  0  0
 12 24  1  0  0  0  0
 12 25  1  0  0  0  0
 13 26  1  0  0  0  0
 15 16  2  0  0  0  0
 15 27  1  0  0  0  0
 16 17  1  0  0  0  0
M  CHG  1   3  -1
M  END
> <s_m_source_file>
AV-unprocessed.smi

> <i_m_source_file_index>
38

> <i_lp_mmshare_version>
43012

> <i_f3d_flags>
0

> <s_epik_input>
Tz1jMVtuSF1jKD1PKW4oW2NIXWMxRilbQ0BIXTJbQ0gyXVtDQEhdKFtPSF0pW0NASF0oTzIpW0NIMl1bT0hd

> <s_epik_cmdline>
J2VwaWtfcHl0aG9uJywgJy1waCcsICc3LjAnLCAnLXRuJywgJzgnLCAnLW1hJywgJzIwMCcsICctbWV0YWxfYmluZGluZycsICctaW1hZScsICc8aW5maWxlLm1hZT4nLCAnLW9tYWUnLCAnPG91dGZpbGUubWFlPic=

> <r_epik_Ionization_Penalty>
1.68146

> <r_epik_Ionization_Penalty_Charging>
3.4211e-08

> <r_epik_Ionization_Penalty_Neutral>
1.68146

> <r_epik_State_Penalty>
1.78593

> <r_epik_Charging_Adjusted_Penalty>
1.78593

> <i_epik_Tot_Q>
-1

> <i_epik_Tot_abs_Q>
1

> <r_epik_Metal_State_Penalty>
0.0113696

> <b_epik_Metal_Only>
0

> <s_epik_Chemistry_Notes>
This compound contains an acetal/aminal-like group ( X-CH(R)-Y where X, Y are N, S, or O) that may be acid/base labile, releasing an aldehyde.

> <s_lp_Force_Field>
OPLS_2005

> <r_lp_Energy>
38.28

> <b_lp_Chiralities_Consistent>
1

> <s_lp_Variant>
AV-unprocessed.smi:38-15

> <Gold.Version>
5.8.1

> <Gold.Id.Protein>
6NUR|6NUR_protein|mol2

> <Gold.PLP.Fitness>
41.7117

> <Gold.PLP.PLP>
-27.8941

> <Gold.PLP.part.hbond>
-3.7500

> <Gold.PLP.part.metal>
0.0000

> <Gold.PLP.part.buried>
-2.3583

> <Gold.PLP.part.nonpolar>
-23.3089

> <Gold.PLP.part.repulsive>
1.8944

> <Gold.PLP.ligand.clash>
0.0000

> <Gold.PLP.ligand.torsion>
0.1434

> <Gold.PLP.Chemscore.Hbond>
3.7000

> <Gold.PLP.Chemscore.CHOScore>
1.0000

> <Gold.PLP.Chemscore.Metal>
0.0000

> <Gold.Chemscore.Hbonds>
donor molecule, donor type, donor heavy atom, donor atom, acceptor molecule, acceptor atom, score
      L1  H    13    26       P1 10175  1.00
      P1  H  7989  7998       L1     5  0.75
      P1  H  7997  8009       L1     3  2.00
      L1  C    15    27       P1  8028  1.00

> <Gold.PLP.Chemscore.Internal.Correction>
0.0045

> <Gold.Rescore>
     Score         DG    S(hbond)    S(metal)    S(lipo)     H(rot)  DE(clash)    DE(int)     intcor
      7.96     -10.27       2.58        0.00      30.27       2.88       1.10       1.21       ----

> <Gold.Chemscore.Fitness>
7.9622

> <Gold.Chemscore.DG>
-10.2697

> <Gold.Chemscore.ZeroCoef>
-5.4800

> <Gold.Chemscore.Hbond>
2.5824

> <Gold.Chemscore.Metal>
0.0000

> <Gold.Chemscore.Lipo>
30.2660

> <Gold.Chemscore.Internal_Hbond>
0.0000

> <Gold.Chemscore.DEClash>
1.0954

> <Gold.Chemscore.DEInternal>
1.2121

> <Gold.Chemscore.Rot>
2.8815

> <Gold.Chemscore.Internal.Correction>
   9.000000E+99

> <Gold.Chemscore.Hbonds>
donor molecule, donor type, donor heavy atom, donor atom, acceptor molecule, acceptor atom, score
      L1  H    13    26       P1 10175  0.28
      P1  H  7989  7998       L1     5  0.09
      P1  H  7997  8009       L1     3  0.64

> <Gold.Chemscore.Hbond.Weighted>
-8.6251

> <Gold.Chemscore.Metal.Weighted>
-0.0000

> <Gold.Chemscore.Lipo.Weighted>
-3.5411

> <Gold.Chemscore.Internal_Hbond.Weighted>
0.0000

> <Gold.Chemscore.DEClash.Weighted>
1.0954

> <Gold.Chemscore.DEInternal.Weighted>
1.2121

> <Gold.Chemscore.Rot.Weighted>
7.3765

> <Gold.Chemscore.Internal.Correction.Weighted>
   9.000000E+99

> <Gold.Protein.RotatedTorsions>
[ 6907 6896 6895 6894 ] final  -88.19 input  -60.11 | X-H torsion
[ 7974 7965 7964 7962 ] final   15.80 input  175.53 | X-H torsion
[ 8008 7997 7996 7995 ] final -170.46 input   59.86 | X-H torsion
[ 10167 10162 10161 10158 ] final  112.42 input  -65.29 | X-H torsion
[ 10718 10713 10712 10709 ] final  -33.05 input   66.30 | X-H torsion
[ 10763 10752 10751 10750 ] final -126.10 input  -60.55 | X-H torsion
[ 11005 11000 10999 10996 ] final   59.54 input  -57.11 | X-H torsion

> <Gold.Protein.ActiveResidues>
 VAL166  LYS551  ARG553  GLY616  TRP617  ASP618  TYR619  PRO620  LYS621  CYS622 
 ASP623  PHE694  ASN695  SER759  ASP760  ASP761  ALA762  ILE779  LEU786  VAL792 
 PHE793  MET794  SER795  GLU796  ALA797  LYS798  CYS799  TRP800  GLU811  SER814 

> <Gold.Protein.RotatedAtoms>
  150.6868  134.2779  159.4614 H   0  0  0  0  0  0  0  0  0  0  0  0  # atno 6907 bound_to 6896
  152.0696  134.9540  160.0584 H   0  0  0  0  0  0  0  0  0  0  0  0  # atno 6908 bound_to 6896
  152.0935  133.4178  159.4591 H   0  0  0  0  0  0  0  0  0  0  0  0  # atno 6909 bound_to 6896
  146.2268  139.8840  142.8566 H   0  0  0  0  0  0  0  0  0  0  0  0  # atno 7974 bound_to 7965
  155.9186  140.1070  157.1224 H   0  0  0  0  0  0  0  0  0  0  0  0  # atno 8008 bound_to 7997
  154.4050  140.1260  156.4715 H   0  0  0  0  0  0  0  0  0  0  0  0  # atno 8009 bound_to 7997
  155.7224  140.3469  155.5024 H   0  0  0  0  0  0  0  0  0  0  0  0  # atno 8010 bound_to 7997
  139.6537  144.7129  151.1998 H   0  0  0  0  0  0  0  0  0  0  0  0  # atno 10167 bound_to 10162
  156.3674  130.4334  149.7573 H   0  0  0  0  0  0  0  0  0  0  0  0  # atno 10718 bound_to 10713
  154.8742  135.4007  154.3376 H   0  0  0  0  0  0  0  0  0  0  0  0  # atno 10763 bound_to 10752
  153.4180  135.7022  153.6318 H   0  0  0  0  0  0  0  0  0  0  0  0  # atno 10764 bound_to 10752
  153.4993  135.3731  155.2502 H   0  0  0  0  0  0  0  0  0  0  0  0  # atno 10765 bound_to 10752
  140.0296  134.6031  155.9525 H   0  0  0  0  0  0  0  0  0  0  0  0  # atno 11005 bound_to 11000
  145.2483  141.0035  143.3895 LP  0  0  0  0  0  0  0  0  0  0  0  0  # atno 17320 bound_to 7965
  144.9395  139.4205  143.6456 LP  0  0  0  0  0  0  0  0  0  0  0  0  # atno 17321 bound_to 7965
  140.7549  143.6107  150.8608 LP  0  0  0  0  0  0  0  0  0  0  0  0  # atno 17342 bound_to 10162
  139.9758  143.6006  152.2959 LP  0  0  0  0  0  0  0  0  0  0  0  0  # atno 17343 bound_to 10162
  156.4713  130.7998  151.3016 LP  0  0  0  0  0  0  0  0  0  0  0  0  # atno 17370 bound_to 10713
  157.7480  131.0035  150.3039 LP  0  0  0  0  0  0  0  0  0  0  0  0  # atno 17371 bound_to 10713
  141.1823  133.6549  156.5072 LP  0  0  0  0  0  0  0  0  0  0  0  0  # atno 17394 bound_to 11000
  140.4247  134.7155  157.4909 LP  0  0  0  0  0  0  0  0  0  0  0  0  # atno 17395 bound_to 11000

$$$$
