#       Name:                AV-unprocessed.smi:65
#       Creating user name   scv26
#       Creation time:       Thu Mar 26 16:50:46 2020


#       File generated by GOLD software.
#

@<TRIPOS>MOLECULE
AV-unprocessed.smi:65
    29    30     1
SMALL
NO_CHARGES


@<TRIPOS>ATOM
      1 ****        -3.6903   1.2479   1.1726 N.pl3          1 S1                 0.0000
      2 ****        -2.9358   0.3602   0.4453 C.ar           1 S1                 0.0000
      3 ****        -3.6016  -0.4763  -0.3518 N.ar           1 S1                 0.0000
      4 ****        -2.8586  -1.3495  -1.0645 C.ar           1 S1                 0.0000
      5 ****        -1.4520  -1.3769  -0.9750 C.ar           1 S1                 0.0000
      6 ****        -0.8503  -0.4403  -0.1008 C.ar           1 S1                 0.0000
      7 ****         0.5463  -0.3852   0.0704 N.pl3          1 S1                 0.0000
      8 ****         1.4569  -0.9210  -0.9334 C.3            1 S1                 0.0000
      9 ****         2.7491  -0.1061  -0.7966 C.3            1 S1                 0.0000
     10 ****         2.6739   0.4560   0.6237 C.3            1 S1                 0.0000
     11 ****         3.4289   1.6387   0.7790 O.3            1 S1                 0.0000
     12 ****         1.1769   0.6934   0.8152 C.3            1 S1                 0.0000
     13 ****        -1.6134   0.4250   0.6108 N.ar           1 S1                 0.0000
     14 ****        -3.2452   1.9070   1.7946 H              1 S1                 0.0000
     15 ****        -4.6978   1.2337   1.1091 H              1 S1                 0.0000
     16 ****        -3.3894  -2.0335  -1.7099 H              1 S1                 0.0000
     17 ****        -0.8783  -2.0898  -1.5481 H              1 S1                 0.0000
     18 ****         1.6387  -1.9741  -0.7168 H              1 S1                 0.0000
     19 ****         1.0533  -0.8423  -1.9434 H              1 S1                 0.0000
     20 ****         3.6469  -0.6984  -0.9757 H              1 S1                 0.0000
     21 ****         2.7361   0.7099  -1.5210 H              1 S1                 0.0000
     22 ****         3.0225  -0.2951   1.3342 H              1 S1                 0.0000
     23 ****         3.3123   1.9553   1.6618 H              1 S1                 0.0000
     24 ****         0.8740   1.6500   0.3866 H              1 S1                 0.0000
     25 ****         0.8952   0.6799   1.8687 H              1 S1                 0.0000
     26 ****        -4.5993  -0.4577  -0.4181 LP             1 S1                 0.0000
     27 ****         3.1120   2.3290   0.1285 LP             1 S1                 0.0000
     28 ****         4.3962   1.4453   0.6150 LP             1 S1                 0.0000
     29 ****        -1.2008   1.0871   1.2364 LP             1 S1                 0.0000
@<TRIPOS>BOND
    1    1    2 1     
    2    1   14 1     
    3    1   15 1     
    4    2   13 ar    
    5    2    3 ar    
    6    3    4 ar    
    7    4    5 ar    
    8    4   16 1     
    9    5    6 ar    
   10    5   17 1     
   11    6    7 1     
   12    6   13 ar    
   13    7   12 1     
   14    7    8 1     
   15    8    9 1     
   16    8   18 1     
   17    8   19 1     
   18    9   10 1     
   19    9   20 1     
   20    9   21 1     
   21   10   11 1     
   22   10   12 1     
   23   10   22 1     
   24   11   23 1     
   25   12   24 1     
   26   12   25 1     
   27    3   26 1     
   28   11   27 1     
   29   11   28 1     
   30   13   29 1     
@<TRIPOS>SUBSTRUCTURE
      1 S1             1
@<TRIPOS>SET
LONE_PAIRS      STATIC     ATOMS    <user>   **** ""
4 26 27 28 29
DONOR_HYDROGENS      STATIC     ATOMS    <user>   **** ""
3 14 15 23
ATOM$BLUE        STATIC     ATOMS    COLORGROUP SYSTEM
4 26 27 28 29
ATOM$RED        STATIC     ATOMS    COLORGROUP SYSTEM
3 14 15 23
