AV-unprocessed.smi:101|AV-procd|sdf|943|dock10
  -GOLD-   2262017463D 1   1.00000     0.00000
 Structure written by MMmdl.
 43 45  0  0  0  0  0  0  0  0  2 V2000
  145.4884  144.8385  151.3285 C   0  0  0  0  0  0  0  0  0  0  0  0
  144.9237  144.9423  152.7343 C   0  0  0  0  0  0  0  0  0  0  0  0
  145.2060  144.0334  153.6939 C   0  0  0  0  0  0  0  0  0  0  0  0
  144.6853  144.1297  154.9721 N   0  0  0  0  0  0  0  0  0  0  0  0
  145.0218  143.0876  156.0180 C   0  0  2  0  0  0  0  0  0  0  0  0
  146.4109  142.9628  156.0954 O   0  0  0  0  0  0  0  0  0  0  0  0
  146.7641  141.5870  156.1764 C   0  0  2  0  0  0  0  0  0  0  0  0
  148.2107  141.3618  155.7144 C   0  0  0  0  0  0  0  0  0  0  0  0
  149.0948  141.9995  156.6213 O   0  0  0  0  0  0  0  0  0  0  0  0
  150.4152  142.0402  156.3588 C   0  0  0  0  0  0  0  0  0  0  0  0
  150.9517  141.3919  155.4578 O   0  0  0  0  0  0  0  0  0  0  0  0
  151.1614  142.9512  157.2743 C   0  0  0  0  0  0  0  0  0  0  0  0
  151.4783  142.5131  158.5814 C   0  0  0  0  0  0  0  0  0  0  0  0
  152.1828  143.3510  159.4676 C   0  0  0  0  0  0  0  0  0  0  0  0
  152.5792  144.6372  159.0574 C   0  0  0  0  0  0  0  0  0  0  0  0
  152.2702  145.0848  157.7597 C   0  0  0  0  0  0  0  0  0  0  0  0
  151.5656  144.2484  156.8720 C   0  0  0  0  0  0  0  0  0  0  0  0
  145.6842  140.8804  155.3479 C   0  0  2  0  0  0  0  0  0  0  0  0
  146.0039  140.9189  153.9662 O   0  0  0  0  0  0  0  0  0  0  0  0
  144.4406  141.6951  155.6906 C   0  0  2  0  0  0  0  0  0  0  0  0
  143.4477  141.6571  154.6795 O   0  0  0  0  0  0  0  0  0  0  0  0
  143.8058  145.1963  155.2937 C   0  0  0  0  0  0  0  0  0  0  0  0
  143.3232  145.2298  156.4260 O   0  0  0  0  0  0  0  0  0  0  0  0
  143.5236  146.1241  154.3355 N   0  5  0  0  0  0  0  0  0  0  0  0
  144.0352  146.0609  153.0723 C   0  0  0  0  0  0  0  0  0  0  0  0
  143.7735  146.9072  152.2180 O   0  0  0  0  0  0  0  0  0  0  0  0
  146.1406  143.9707  151.2267 H   0  0  0  0  0  0  0  0  0  0  0  0
  146.0693  145.7282  151.0834 H   0  0  0  0  0  0  0  0  0  0  0  0
  144.6813  144.7420  150.6017 H   0  0  0  0  0  0  0  0  0  0  0  0
  145.8537  143.2046  153.4501 H   0  0  0  0  0  0  0  0  0  0  0  0
  144.6690  143.4794  156.9728 H   0  0  0  0  0  0  0  0  0  0  0  0
  146.6569  141.2718  157.2162 H   0  0  0  0  0  0  0  0  0  0  0  0
  148.4331  140.2940  155.6991 H   0  0  0  0  0  0  0  0  0  0  0  0
  148.3553  141.7458  154.7034 H   0  0  0  0  0  0  0  0  0  0  0  0
  151.1844  141.5296  158.9189 H   0  0  0  0  0  0  0  0  0  0  0  0
  152.4193  143.0058  160.4633 H   0  0  0  0  0  0  0  0  0  0  0  0
  153.1196  145.2796  159.7372 H   0  0  0  0  0  0  0  0  0  0  0  0
  152.5740  146.0719  157.4435 H   0  0  0  0  0  0  0  0  0  0  0  0
  151.3456  144.6227  155.8829 H   0  0  0  0  0  0  0  0  0  0  0  0
  145.5719  139.8357  155.6392 H   0  0  0  0  0  0  0  0  0  0  0  0
  145.2012  140.8883  153.4695 H   0  0  0  0  0  0  0  0  0  0  0  0
  144.0056  141.3090  156.6133 H   0  0  0  0  0  0  0  0  0  0  0  0
  143.8246  141.2609  153.9082 H   0  0  0  0  0  0  0  0  0  0  0  0
  1  2  1  0  0  0  0
  1 27  1  0  0  0  0
  1 28  1  0  0  0  0
  1 29  1  0  0  0  0
  2 25  1  0  0  0  0
  2  3  2  0  0  0  0
  3  4  1  0  0  0  0
  3 30  1  0  0  0  0
  4  5  1  0  0  0  0
  4 22  1  0  0  0  0
  5 20  1  0  0  0  0
  5  6  1  0  0  0  0
  5 31  1  0  0  0  0
  6  7  1  0  0  0  0
  7  8  1  0  0  0  0
  7 18  1  0  0  0  0
  7 32  1  0  0  0  0
  8  9  1  0  0  0  0
  8 33  1  0  0  0  0
  8 34  1  0  0  0  0
  9 10  1  0  0  0  0
 10 11  2  0  0  0  0
 10 12  1  0  0  0  0
 12 17  1  0  0  0  0
 12 13  2  0  0  0  0
 13 14  1  0  0  0  0
 13 35  1  0  0  0  0
 14 15  2  0  0  0  0
 14 36  1  0  0  0  0
 15 16  1  0  0  0  0
 15 37  1  0  0  0  0
 16 17  2  0  0  0  0
 16 38  1  0  0  0  0
 17 39  1  0  0  0  0
 18 19  1  0  0  0  0
 18 20  1  0  0  0  0
 18 40  1  0  0  0  0
 19 41  1  0  0  0  0
 20 21  1  0  0  0  0
 20 42  1  0  0  0  0
 21 43  1  0  0  0  0
 22 23  2  0  0  0  0
 22 24  1  0  0  0  0
 24 25  1  0  0  0  0
 25 26  2  0  0  0  0
M  CHG  1  24  -1
M  END
> <s_m_source_file>
AV-unprocessed.smi

> <i_m_source_file_index>
101

> <i_lp_mmshare_version>
43012

> <i_f3d_flags>
0

> <s_epik_input>
Tz1jMVtuSF1jKD1PKW4oW2NIXWMxW0NIM10pW0NAQEhdMk9bQ0BIXShbQ0BASF0oW09IXSlbQ0BIXTJbT0hdKVtDSDJdT0MoPU8pYzNbY0hdW2NIXVtjSF1bY0hdW2NIXTM=

> <s_epik_cmdline>
J2VwaWtfcHl0aG9uJywgJy1waCcsICc3LjAnLCAnLXRuJywgJzgnLCAnLW1hJywgJzIwMCcsICctbWV0YWxfYmluZGluZycsICctaW1hZScsICc8aW5maWxlLm1hZT4nLCAnLW9tYWUnLCAnPG91dGZpbGUubWFlPic=

> <r_lp_tautomer_probability>
0.999537

> <r_epik_Ionization_Penalty>
3.21006

> <r_epik_Ionization_Penalty_Charging>
5.75142e-08

> <r_epik_Ionization_Penalty_Neutral>
3.21006

> <r_epik_State_Penalty>
3.20925

> <r_epik_Charging_Adjusted_Penalty>
3.20925

> <i_epik_Tot_Q>
-1

> <i_epik_Tot_abs_Q>
1

> <r_epik_Metal_State_Penalty>
0.119957

> <b_epik_Metal_Only>
1

> <s_epik_Chemistry_Notes>
This compound has an ester and may undergo hydrolysis at high or low pH. This compound contains an acetal/aminal-like group ( X-CH(R)-Y where X, Y are N, S, or O) that may be acid/base labile, releasing an aldehyde.

> <s_lp_Force_Field>
OPLS_2005

> <r_lp_Energy>
51.0672

> <b_lp_Chiralities_Consistent>
1

> <s_lp_Variant>
AV-unprocessed.smi:101-31

> <Gold.Version>
5.8.1

> <Gold.Id.Protein>
6NUR|6NUR_protein|mol2

> <Gold.PLP.Fitness>
51.5906

> <Gold.PLP.PLP>
-47.1735

> <Gold.PLP.part.hbond>
-5.2332

> <Gold.PLP.part.metal>
0.0000

> <Gold.PLP.part.buried>
-4.8707

> <Gold.PLP.part.nonpolar>
-36.4077

> <Gold.PLP.part.repulsive>
0.3834

> <Gold.PLP.ligand.clash>
0.0000

> <Gold.PLP.ligand.torsion>
1.6731

> <Gold.PLP.Chemscore.Hbond>
2.5801

> <Gold.PLP.Chemscore.CHOScore>
0.0000

> <Gold.PLP.Chemscore.Metal>
0.0000

> <Gold.Chemscore.Hbonds>
donor molecule, donor type, donor heavy atom, donor atom, acceptor molecule, acceptor atom, score
      L1  H    19    41       P1 10175  1.00
      L1  H    21    43       P1 10175  0.99
      P1  H  7989  7998       L1    11  0.39

> <Gold.PLP.Chemscore.Internal.Correction>
0.0229

> <Gold.Rescore>
     Score         DG    S(hbond)    S(metal)    S(lipo)     H(rot)  DE(clash)    DE(int)     intcor
     14.29     -17.19       2.85        0.00      90.09       3.27       1.29       1.61       ----

> <Gold.Chemscore.Fitness>
14.2920

> <Gold.Chemscore.DG>
-17.1934

> <Gold.Chemscore.ZeroCoef>
-5.4800

> <Gold.Chemscore.Hbond>
2.8540

> <Gold.Chemscore.Metal>
0.0000

> <Gold.Chemscore.Lipo>
90.0930

> <Gold.Chemscore.Internal_Hbond>
0.0000

> <Gold.Chemscore.DEClash>
1.2872

> <Gold.Chemscore.DEInternal>
1.6142

> <Gold.Chemscore.Rot>
3.2656

> <Gold.Chemscore.Internal.Correction>
   9.000000E+99

> <Gold.Chemscore.Hbonds>
donor molecule, donor type, donor heavy atom, donor atom, acceptor molecule, acceptor atom, score
      L1  H    19    41       P1 10175  0.74
      L1  H    21    43       P1 10175  0.28
      P1  H  7989  7998       L1    11  0.38

> <Gold.Chemscore.Hbond.Weighted>
-9.5323

> <Gold.Chemscore.Metal.Weighted>
-0.0000

> <Gold.Chemscore.Lipo.Weighted>
-10.5409

> <Gold.Chemscore.Internal_Hbond.Weighted>
0.0000

> <Gold.Chemscore.DEClash.Weighted>
1.2872

> <Gold.Chemscore.DEInternal.Weighted>
1.6142

> <Gold.Chemscore.Rot.Weighted>
8.3598

> <Gold.Chemscore.Internal.Correction.Weighted>
   9.000000E+99

> <Gold.Protein.RotatedTorsions>
[ 6907 6896 6895 6894 ] final   70.75 input  -60.11 | X-H torsion
[ 7974 7965 7964 7962 ] final   99.11 input  175.53 | X-H torsion
[ 8008 7997 7996 7995 ] final  177.47 input   59.86 | X-H torsion
[ 10167 10162 10161 10158 ] final -156.36 input  -65.29 | X-H torsion
[ 10718 10713 10712 10709 ] final   -8.68 input   66.30 | X-H torsion
[ 10763 10752 10751 10750 ] final  -96.09 input  -60.55 | X-H torsion
[ 11005 11000 10999 10996 ] final  -47.36 input  -57.11 | X-H torsion

> <Gold.Protein.ActiveResidues>
 VAL166  LYS551  ARG553  GLY616  TRP617  ASP618  TYR619  PRO620  LYS621  CYS622 
 ASP623  PHE694  ASN695  SER759  ASP760  ASP761  ALA762  ILE779  LEU786  VAL792 
 PHE793  MET794  SER795  GLU796  ALA797  LYS798  CYS799  TRP800  GLU811  SER814 

> <Gold.Protein.RotatedAtoms>
  152.4768  134.4822  159.9668 H   0  0  0  0  0  0  0  0  0  0  0  0  # atno 6907 bound_to 6896
  151.4836  133.3535  159.2850 H   0  0  0  0  0  0  0  0  0  0  0  0  # atno 6908 bound_to 6896
  150.8813  134.8231  159.7288 H   0  0  0  0  0  0  0  0  0  0  0  0  # atno 6909 bound_to 6896
  145.4032  139.2344  143.3289 H   0  0  0  0  0  0  0  0  0  0  0  0  # atno 7974 bound_to 7965
  156.0653  140.1357  156.9893 H   0  0  0  0  0  0  0  0  0  0  0  0  # atno 8008 bound_to 7997
  154.4503  140.0983  156.6649 H   0  0  0  0  0  0  0  0  0  0  0  0  # atno 8009 bound_to 7997
  155.5313  140.3458  155.4429 H   0  0  0  0  0  0  0  0  0  0  0  0  # atno 8010 bound_to 7997
  139.6857  143.9506  152.2360 H   0  0  0  0  0  0  0  0  0  0  0  0  # atno 10167 bound_to 10162
  156.6990  130.5088  149.5922 H   0  0  0  0  0  0  0  0  0  0  0  0  # atno 10718 bound_to 10713
  154.7208  135.5096  153.8808 H   0  0  0  0  0  0  0  0  0  0  0  0  # atno 10763 bound_to 10752
  153.0860  135.6645  153.9957 H   0  0  0  0  0  0  0  0  0  0  0  0  # atno 10764 bound_to 10752
  153.9780  135.3032  155.3402 H   0  0  0  0  0  0  0  0  0  0  0  0  # atno 10765 bound_to 10752
  141.0636  133.6701  156.3287 H   0  0  0  0  0  0  0  0  0  0  0  0  # atno 11005 bound_to 11000
  146.2742  140.4732  142.8802 LP  0  0  0  0  0  0  0  0  0  0  0  0  # atno 17320 bound_to 7965
  144.8360  140.6782  143.6260 LP  0  0  0  0  0  0  0  0  0  0  0  0  # atno 17321 bound_to 7965
  139.9308  144.6742  150.8365 LP  0  0  0  0  0  0  0  0  0  0  0  0  # atno 17342 bound_to 10162
  140.7667  143.3310  151.2410 LP  0  0  0  0  0  0  0  0  0  0  0  0  # atno 17343 bound_to 10162
  156.1742  130.6457  151.0874 LP  0  0  0  0  0  0  0  0  0  0  0  0  # atno 17370 bound_to 10713
  157.6980  131.0787  150.6909 LP  0  0  0  0  0  0  0  0  0  0  0  0  # atno 17371 bound_to 10713
  140.5819  134.5737  157.5481 LP  0  0  0  0  0  0  0  0  0  0  0  0  # atno 17394 bound_to 11000
  139.9455  134.7709  156.0572 LP  0  0  0  0  0  0  0  0  0  0  0  0  # atno 17395 bound_to 11000

$$$$
