AV-unprocessed.smi:1667|AV-procd|sdf|6677|dock2
  -GOLD-   22720 7393D 1   1.00000     0.00000
 Structure written by MMmdl.
 46 48  0  0  0  0  0  0  0  0  2 V2000
  144.8549  135.9793  152.4237 C   0  0  0  0  0  0  0  0  0  0  0  0
  145.5461  135.5762  153.7214 C   0  0  0  0  0  0  0  0  0  0  0  0
  144.8785  135.2860  154.7136 O   0  0  0  0  0  0  0  0  0  0  0  0
  146.8879  135.5675  153.7022 N   0  0  0  0  0  0  0  0  0  0  0  0
  147.7390  135.2109  154.8333 C   0  0  1  0  0  0  0  0  0  0  0  0
  148.5993  133.9913  154.4745 C   0  0  0  0  0  0  0  0  0  0  0  0
  148.6032  136.3583  155.2685 C   0  0  0  0  0  0  0  0  0  0  0  0
  149.4423  137.0735  154.4659 N   0  3  0  0  0  0  0  0  0  0  0  0
  150.0880  138.0583  155.2124 C   0  0  0  0  0  0  0  0  0  0  0  0
  151.0286  139.0122  154.8370 C   0  0  0  0  0  0  0  0  0  0  0  0
  151.4991  139.8705  155.8519 C   0  0  0  0  0  0  0  0  0  0  0  0
  151.0333  139.7623  157.1781 C   0  0  0  0  0  0  0  0  0  0  0  0
  150.0763  138.7937  157.5452 C   0  0  0  0  0  0  0  0  0  0  0  0
  149.6158  137.9467  156.5362 C   0  0  0  0  0  0  0  0  0  0  0  0
  148.6990  136.8872  156.5233 N   0  0  0  0  0  0  0  0  0  0  0  0
  148.0177  136.4979  157.7697 C   0  0  0  0  0  0  0  0  0  0  0  0
  148.9248  135.6679  158.6997 C   0  0  2  0  0  0  0  0  0  0  0  0
  149.2687  134.4733  158.0295 O   0  0  0  0  0  0  0  0  0  0  0  0
  148.2825  135.4087  160.0553 C   0  0  0  0  0  0  0  0  0  0  0  0
  147.8720  134.1084  160.4246 C   0  0  0  0  0  0  0  0  0  0  0  0
  147.2543  133.8867  161.6707 C   0  0  0  0  0  0  0  0  0  0  0  0
  147.0415  134.9628  162.5535 C   0  0  0  0  0  0  0  0  0  0  0  0
  147.4464  136.2613  162.1898 C   0  0  0  0  0  0  0  0  0  0  0  0
  147.2369  137.2981  163.0349 F   0  0  0  0  0  0  0  0  0  0  0  0
  148.0664  136.4830  160.9452 C   0  0  0  0  0  0  0  0  0  0  0  0
  147.0907  134.9219  155.6611 H   0  0  0  0  0  0  0  0  0  0  0  0
  145.1256  136.9992  152.1493 H   0  0  0  0  0  0  0  0  0  0  0  0
  143.7706  135.9312  152.5304 H   0  0  0  0  0  0  0  0  0  0  0  0
  145.1470  135.3125  151.6119 H   0  0  0  0  0  0  0  0  0  0  0  0
  147.3518  135.8157  152.8402 H   0  0  0  0  0  0  0  0  0  0  0  0
  149.2151  133.6857  155.3211 H   0  0  0  0  0  0  0  0  0  0  0  0
  149.2658  134.2017  153.6371 H   0  0  0  0  0  0  0  0  0  0  0  0
  147.9764  133.1402  154.1974 H   0  0  0  0  0  0  0  0  0  0  0  0
  151.3880  139.0953  153.8218 H   0  0  0  0  0  0  0  0  0  0  0  0
  152.2325  140.6258  155.6087 H   0  0  0  0  0  0  0  0  0  0  0  0
  151.4179  140.4356  157.9303 H   0  0  0  0  0  0  0  0  0  0  0  0
  149.7336  138.7213  158.5663 H   0  0  0  0  0  0  0  0  0  0  0  0
  147.6326  137.3833  158.2747 H   0  0  0  0  0  0  0  0  0  0  0  0
  147.1404  135.9160  157.4847 H   0  0  0  0  0  0  0  0  0  0  0  0
  149.8588  136.2080  158.8588 H   0  0  0  0  0  0  0  0  0  0  0  0
  148.5071  134.1579  157.5671 H   0  0  0  0  0  0  0  0  0  0  0  0
  148.0214  133.2777  159.7503 H   0  0  0  0  0  0  0  0  0  0  0  0
  146.9414  132.8910  161.9482 H   0  0  0  0  0  0  0  0  0  0  0  0
  146.5665  134.7922  163.5085 H   0  0  0  0  0  0  0  0  0  0  0  0
  148.3671  137.4836  160.6708 H   0  0  0  0  0  0  0  0  0  0  0  0
  149.5638  136.8947  153.4776 H   0  0  0  0  0  0  0  0  0  0  0  0
  1  2  1  0  0  0  0
  1 27  1  0  0  0  0
  1 28  1  0  0  0  0
  1 29  1  0  0  0  0
  2  3  2  0  0  0  0
  2  4  1  0  0  0  0
  4  5  1  0  0  0  0
  4 30  1  0  0  0  0
  5 26  1  0  0  0  0
  5  6  1  0  0  0  0
  5  7  1  0  0  0  0
  6 31  1  0  0  0  0
  6 32  1  0  0  0  0
  6 33  1  0  0  0  0
  7 15  1  0  0  0  0
  7  8  2  0  0  0  0
  8  9  1  0  0  0  0
  8 46  1  0  0  0  0
  9 14  2  0  0  0  0
  9 10  1  0  0  0  0
 10 11  2  0  0  0  0
 10 34  1  0  0  0  0
 11 12  1  0  0  0  0
 11 35  1  0  0  0  0
 12 13  2  0  0  0  0
 12 36  1  0  0  0  0
 13 14  1  0  0  0  0
 13 37  1  0  0  0  0
 14 15  1  0  0  0  0
 15 16  1  0  0  0  0
 16 17  1  0  0  0  0
 16 38  1  0  0  0  0
 16 39  1  0  0  0  0
 17 18  1  0  0  0  0
 17 19  1  0  0  0  0
 17 40  1  0  0  0  0
 18 41  1  0  0  0  0
 19 25  1  0  0  0  0
 19 20  2  0  0  0  0
 20 21  1  0  0  0  0
 20 42  1  0  0  0  0
 21 22  2  0  0  0  0
 21 43  1  0  0  0  0
 22 23  1  0  0  0  0
 22 44  1  0  0  0  0
 23 24  1  0  0  0  0
 23 25  2  0  0  0  0
 25 45  1  0  0  0  0
M  CHG  1   8   1
M  END
> <s_m_source_file>
AV-unprocessed.smi

> <i_m_source_file_index>
1667

> <i_lp_mmshare_version>
43012

> <i_f3d_flags>
0

> <s_epik_input>
W0NIM11DKD1PKVtOSF1bQ0BASF0oW0NIM10pYyhuMSluKGMoYzEyKVtjSF1bY0hdW2NIXVtjSF0yKVtDSDJdW0NASF0oW09IXSljM1tjSF1bY0hdW2NIXWMoRilbY0hdMw==

> <s_epik_cmdline>
J2VwaWtfcHl0aG9uJywgJy1waCcsICc3LjAnLCAnLXRuJywgJzgnLCAnLW1hJywgJzIwMCcsICctbWV0YWxfYmluZGluZycsICctaW1hZScsICc8aW5maWxlLm1hZT4nLCAnLW9tYWUnLCAnPG91dGZpbGUubWFlPic=

> <r_epik_Ionization_Penalty>
0.950383

> <r_epik_Ionization_Penalty_Charging>
0.950379

> <r_epik_Ionization_Penalty_Neutral>
3.60962e-06

> <r_epik_State_Penalty>
0.994584

> <r_epik_Charging_Adjusted_Penalty>
1.94496

> <i_epik_Tot_Q>
1

> <i_epik_Tot_abs_Q>
1

> <r_epik_Metal_State_Penalty>
1.10485

> <b_epik_Metal_Only>
0

> <s_lp_Force_Field>
OPLS_2005

> <r_lp_Energy>
12.0521

> <b_lp_Chiralities_Consistent>
1

> <s_lp_Variant>
AV-unprocessed.smi:1667-5

> <Gold.Version>
5.8.1

> <Gold.Id.Protein>
6NUR|6NUR_protein|mol2

> <Gold.PLP.Fitness>
47.9167

> <Gold.PLP.PLP>
-36.9330

> <Gold.PLP.part.hbond>
-3.0000

> <Gold.PLP.part.metal>
0.0000

> <Gold.PLP.part.buried>
-3.5171

> <Gold.PLP.part.nonpolar>
-31.3880

> <Gold.PLP.part.repulsive>
0.0620

> <Gold.PLP.ligand.clash>
0.0000

> <Gold.PLP.ligand.torsion>
0.5440

> <Gold.PLP.Chemscore.Hbond>
3.9840

> <Gold.PLP.Chemscore.CHOScore>
0.0000

> <Gold.PLP.Chemscore.Metal>
0.0000

> <Gold.Chemscore.Hbonds>
donor molecule, donor type, donor heavy atom, donor atom, acceptor molecule, acceptor atom, score
      L1  H     4    30       P1  7948  1.00
      L1  H     8    46       P1  7948  2.00
      P1  H  6896  6909       L1    18  0.75

> <Gold.PLP.Chemscore.Internal.Correction>
0.1198

> <Gold.Rescore>
     Score         DG    S(hbond)    S(metal)    S(lipo)     H(rot)  DE(clash)    DE(int)     intcor
     17.11     -17.54       2.49        0.00      87.34       2.53       0.05       0.37       ----

> <Gold.Chemscore.Fitness>
17.1123

> <Gold.Chemscore.DG>
-17.5371

> <Gold.Chemscore.ZeroCoef>
-5.4800

> <Gold.Chemscore.Hbond>
2.4921

> <Gold.Chemscore.Metal>
0.0000

> <Gold.Chemscore.Lipo>
87.3435

> <Gold.Chemscore.Internal_Hbond>
0.0000

> <Gold.Chemscore.DEClash>
0.0513

> <Gold.Chemscore.DEInternal>
0.3735

> <Gold.Chemscore.Rot>
2.5335

> <Gold.Chemscore.Internal.Correction>
   9.000000E+99

> <Gold.Chemscore.Hbonds>
donor molecule, donor type, donor heavy atom, donor atom, acceptor molecule, acceptor atom, score
      L1  H     4    30       P1  7948  0.95
      L1  H     8    46       P1  7948  0.76
      P1  H  6896  6909       L1    18  0.09

> <Gold.Chemscore.Hbond.Weighted>
-8.3235

> <Gold.Chemscore.Metal.Weighted>
-0.0000

> <Gold.Chemscore.Lipo.Weighted>
-10.2192

> <Gold.Chemscore.Internal_Hbond.Weighted>
0.0000

> <Gold.Chemscore.DEClash.Weighted>
0.0513

> <Gold.Chemscore.DEInternal.Weighted>
0.3735

> <Gold.Chemscore.Rot.Weighted>
6.4856

> <Gold.Chemscore.Internal.Correction.Weighted>
   9.000000E+99

> <Gold.Protein.RotatedTorsions>
[ 6907 6896 6895 6894 ] final   10.18 input  -60.11 | X-H torsion
[ 7974 7965 7964 7962 ] final  124.66 input  175.53 | X-H torsion
[ 8008 7997 7996 7995 ] final -174.45 input   59.86 | X-H torsion
[ 10167 10162 10161 10158 ] final  103.94 input  -65.29 | X-H torsion
[ 10718 10713 10712 10709 ] final  -77.49 input   66.30 | X-H torsion
[ 10763 10752 10751 10750 ] final   44.04 input  -60.55 | X-H torsion
[ 11005 11000 10999 10996 ] final   33.91 input  -57.11 | X-H torsion

> <Gold.Protein.ActiveResidues>
 VAL166  LYS551  ARG553  GLY616  TRP617  ASP618  TYR619  PRO620  LYS621  CYS622 
 ASP623  PHE694  ASN695  SER759  ASP760  ASP761  ALA762  ILE779  LEU786  VAL792 
 PHE793  MET794  SER795  GLU796  ALA797  LYS798  CYS799  TRP800  GLU811  SER814 

> <Gold.Protein.RotatedAtoms>
  151.7341  135.0868  160.0304 H   0  0  0  0  0  0  0  0  0  0  0  0  # atno 6907 bound_to 6896
  152.3522  133.6189  159.5961 H   0  0  0  0  0  0  0  0  0  0  0  0  # atno 6908 bound_to 6896
  150.7547  133.9472  159.3516 H   0  0  0  0  0  0  0  0  0  0  0  0  # atno 6909 bound_to 6896
  145.0818  139.3651  143.4905 H   0  0  0  0  0  0  0  0  0  0  0  0  # atno 7974 bound_to 7965
  155.9703  140.1161  157.0818 H   0  0  0  0  0  0  0  0  0  0  0  0  # atno 8008 bound_to 7997
  154.4154  140.1164  156.5364 H   0  0  0  0  0  0  0  0  0  0  0  0  # atno 8009 bound_to 7997
  155.6606  140.3473  155.4783 H   0  0  0  0  0  0  0  0  0  0  0  0  # atno 8010 bound_to 7997
  139.7220  144.7056  151.0858 H   0  0  0  0  0  0  0  0  0  0  0  0  # atno 10167 bound_to 10162
  156.0143  130.4493  150.3353 H   0  0  0  0  0  0  0  0  0  0  0  0  # atno 10718 bound_to 10713
  152.9849  135.6083  154.3209 H   0  0  0  0  0  0  0  0  0  0  0  0  # atno 10763 bound_to 10752
  154.2919  135.2774  155.2653 H   0  0  0  0  0  0  0  0  0  0  0  0  # atno 10764 bound_to 10752
  154.4944  135.5883  153.6540 H   0  0  0  0  0  0  0  0  0  0  0  0  # atno 10765 bound_to 10752
  140.2583  134.3222  155.7866 H   0  0  0  0  0  0  0  0  0  0  0  0  # atno 11005 bound_to 11000
  146.3531  140.0612  142.8629 LP  0  0  0  0  0  0  0  0  0  0  0  0  # atno 17320 bound_to 7965
  145.1169  140.9439  143.4623 LP  0  0  0  0  0  0  0  0  0  0  0  0  # atno 17321 bound_to 7965
  140.7755  143.5154  150.9601 LP  0  0  0  0  0  0  0  0  0  0  0  0  # atno 17342 bound_to 10162
  139.8841  143.7035  152.3153 LP  0  0  0  0  0  0  0  0  0  0  0  0  # atno 17343 bound_to 10162
  157.1450  131.0306  151.2911 LP  0  0  0  0  0  0  0  0  0  0  0  0  # atno 17370 bound_to 10713
  157.4440  130.7560  149.7094 LP  0  0  0  0  0  0  0  0  0  0  0  0  # atno 17371 bound_to 10713
  141.2193  133.7394  156.9146 LP  0  0  0  0  0  0  0  0  0  0  0  0  # atno 17394 bound_to 11000
  140.1490  134.9243  157.2567 LP  0  0  0  0  0  0  0  0  0  0  0  0  # atno 17395 bound_to 11000

$$$$
