AV-unprocessed.smi:1128|AV-procd|sdf|4845|dock4
  -GOLD-   22720 3413D 1   1.00000     0.00000
 Structure written by MMmdl.
 37 38  0  0  0  0  0  0  0  0  2 V2000
  148.8060  144.3367  161.2682 O   0  0  0  0  0  0  0  0  0  0  0  0
  148.8406  144.4734  160.0457 C   0  0  0  0  0  0  0  0  0  0  0  0
  149.8618  145.0572  159.4029 N   0  0  0  0  0  0  0  0  0  0  0  0
  151.0567  145.6000  160.0406 C   0  0  0  0  0  0  0  0  0  0  0  0
  152.1216  144.5190  160.3210 C   0  0  1  0  0  0  0  0  0  0  0  0
  151.9436  143.8632  161.7112 C   0  0  0  0  0  0  0  0  0  0  0  0
  152.7869  142.6123  161.8825 C   0  0  0  0  0  0  0  0  0  0  0  0
  153.3778  141.9712  160.8603 C   0  0  0  0  0  0  0  0  0  0  0  0
  153.2615  142.4210  159.4161 C   0  0  0  0  0  0  0  0  0  0  0  0
  152.1306  143.4468  159.2151 C   0  0  0  0  0  0  0  0  0  0  0  0
  147.8900  144.0874  159.1753 N   0  0  0  0  0  0  0  0  0  0  0  0
  146.6622  143.4427  159.4073 C   0  0  0  0  0  0  0  0  0  0  0  0
  145.6461  143.9401  160.1663 C   0  0  0  0  0  0  0  0  0  0  0  0
  144.3970  143.2165  160.3693 C   0  0  0  0  0  0  0  0  0  0  0  0
  143.2779  143.7032  161.2729 C   0  0  0  0  0  0  0  0  0  0  0  0
  142.2640  142.8376  161.2897 F   0  0  0  0  0  0  0  0  0  0  0  0
  143.7103  143.8682  162.5232 F   0  0  0  0  0  0  0  0  0  0  0  0
  142.8172  144.8737  160.8344 F   0  0  0  0  0  0  0  0  0  0  0  0
  144.3918  141.9904  159.7330 C   0  0  0  0  0  0  0  0  0  0  0  0
  145.3461  141.4301  158.9585 N   0  5  0  0  0  0  0  0  0  0  0  0
  146.5084  142.1170  158.7722 C   0  0  0  0  0  0  0  0  0  0  0  0
  147.4247  141.6577  158.0894 O   0  0  0  0  0  0  0  0  0  0  0  0
  149.8073  145.1347  158.3978 H   0  0  0  0  0  0  0  0  0  0  0  0
  151.4691  146.3662  159.3836 H   0  0  0  0  0  0  0  0  0  0  0  0
  150.7785  146.1088  160.9652 H   0  0  0  0  0  0  0  0  0  0  0  0
  153.1004  145.0014  160.3040 H   0  0  0  0  0  0  0  0  0  0  0  0
  152.2098  144.5718  162.4963 H   0  0  0  0  0  0  0  0  0  0  0  0
  150.9010  143.5877  161.8731 H   0  0  0  0  0  0  0  0  0  0  0  0
  152.8952  142.2327  162.8879 H   0  0  0  0  0  0  0  0  0  0  0  0
  153.9796  141.0945  161.0509 H   0  0  0  0  0  0  0  0  0  0  0  0
  154.2183  142.8507  159.1183 H   0  0  0  0  0  0  0  0  0  0  0  0
  153.0914  141.5518  158.7802 H   0  0  0  0  0  0  0  0  0  0  0  0
  151.1700  142.9298  159.2107 H   0  0  0  0  0  0  0  0  0  0  0  0
  152.2329  143.9111  158.2337 H   0  0  0  0  0  0  0  0  0  0  0  0
  148.0571  144.3124  158.2054 H   0  0  0  0  0  0  0  0  0  0  0  0
  145.7331  144.8949  160.6564 H   0  0  0  0  0  0  0  0  0  0  0  0
  143.4857  141.3625  159.8719 H   0  0  0  0  0  0  0  0  0  0  0  0
  1  2  2  0  0  0  0
  2  3  1  0  0  0  0
  2 11  1  0  0  0  0
  3  4  1  0  0  0  0
  3 23  1  0  0  0  0
  4  5  1  0  0  0  0
  4 24  1  0  0  0  0
  4 25  1  0  0  0  0
  5 10  1  0  0  0  0
  5  6  1  0  0  0  0
  5 26  1  0  0  0  0
  6  7  1  0  0  0  0
  6 27  1  0  0  0  0
  6 28  1  0  0  0  0
  7  8  2  0  0  0  0
  7 29  1  0  0  0  0
  8  9  1  0  0  0  0
  8 30  1  0  0  0  0
  9 10  1  0  0  0  0
  9 31  1  0  0  0  0
  9 32  1  0  0  0  0
 10 33  1  0  0  0  0
 10 34  1  0  0  0  0
 11 12  1  0  0  0  0
 11 35  1  0  0  0  0
 12 21  1  0  0  0  0
 12 13  2  0  0  0  0
 13 14  1  0  0  0  0
 13 36  1  0  0  0  0
 14 15  1  0  0  0  0
 14 19  2  0  0  0  0
 15 16  1  0  0  0  0
 15 17  1  0  0  0  0
 15 18  1  0  0  0  0
 19 20  1  0  0  0  0
 19 37  1  0  0  0  0
 20 21  1  0  0  0  0
 21 22  2  0  0  0  0
M  CHG  1  20  -1
M  END
> <s_m_source_file>
AV-unprocessed.smi

> <i_m_source_file_index>
1128

> <i_lp_mmshare_version>
43012

> <i_f3d_flags>
0

> <s_epik_input>
Tz1jMVtuSF1bY0hdYyhDKEYpKEYpRilbY0hdYzFbTkhdQyg9TylbTkhdW0NIMl1bQ0BASF0yW0NIMl1bQ0hdPVtDSF1bQ0gyXVtDSDJdMg==

> <s_epik_cmdline>
J2VwaWtfcHl0aG9uJywgJy1waCcsICc3LjAnLCAnLXRuJywgJzgnLCAnLW1hJywgJzIwMCcsICctbWV0YWxfYmluZGluZycsICctaW1hZScsICc8aW5maWxlLm1hZT4nLCAnLW9tYWUnLCAnPG91dGZpbGUubWFlPic=

> <r_lp_tautomer_probability>
1

> <r_epik_Ionization_Penalty>
3.16664

> <r_epik_Ionization_Penalty_Charging>
0.172425

> <r_epik_Ionization_Penalty_Neutral>
2.99422

> <r_epik_State_Penalty>
2.99038

> <r_epik_Charging_Adjusted_Penalty>
3.16281

> <i_epik_Tot_Q>
-1

> <i_epik_Tot_abs_Q>
1

> <r_epik_Metal_State_Penalty>
0.453031

> <b_epik_Metal_Only>
1

> <s_lp_Force_Field>
OPLS_2005

> <r_lp_Energy>
22.2299

> <b_lp_Chiralities_Consistent>
1

> <s_lp_Variant>
AV-unprocessed.smi:1128-4

> <Gold.Version>
5.8.1

> <Gold.Id.Protein>
6NUR|6NUR_protein|mol2

> <Gold.PLP.Fitness>
46.0361

> <Gold.PLP.PLP>
-43.9883

> <Gold.PLP.part.hbond>
-3.5766

> <Gold.PLP.part.metal>
0.0000

> <Gold.PLP.part.buried>
-4.7242

> <Gold.PLP.part.nonpolar>
-37.1679

> <Gold.PLP.part.repulsive>
0.6225

> <Gold.PLP.ligand.clash>
0.0000

> <Gold.PLP.ligand.torsion>
1.0922

> <Gold.PLP.Chemscore.Hbond>
1.3896

> <Gold.PLP.Chemscore.CHOScore>
0.0000

> <Gold.PLP.Chemscore.Metal>
0.0000

> <Gold.Chemscore.Hbonds>
donor molecule, donor type, donor heavy atom, donor atom, acceptor molecule, acceptor atom, score
      L1  H     3    23       P1  8029  0.10
      L1  H    11    35       P1  8029  0.62
      P1  H  6933  6944       L1     1  0.70

> <Gold.PLP.Chemscore.Internal.Correction>
0.0635

> <Gold.Rescore>
     Score         DG    S(hbond)    S(metal)    S(lipo)     H(rot)  DE(clash)    DE(int)     intcor
     20.49     -21.94       2.51        0.00      97.49       1.29       0.43       1.03       ----

> <Gold.Chemscore.Fitness>
20.4930

> <Gold.Chemscore.DG>
-21.9436

> <Gold.Chemscore.ZeroCoef>
-5.4800

> <Gold.Chemscore.Hbond>
2.5061

> <Gold.Chemscore.Metal>
0.0000

> <Gold.Chemscore.Lipo>
97.4929

> <Gold.Chemscore.Internal_Hbond>
0.0000

> <Gold.Chemscore.DEClash>
0.4251

> <Gold.Chemscore.DEInternal>
1.0254

> <Gold.Chemscore.Rot>
1.2943

> <Gold.Chemscore.Internal.Correction>
   9.000000E+99

> <Gold.Chemscore.Hbonds>
donor molecule, donor type, donor heavy atom, donor atom, acceptor molecule, acceptor atom, score
      L1  H     3    23       P1  8029  0.05
      L1  H    11    35       P1  8029  0.28
      P1  H  6933  6944       L1     1  0.24

> <Gold.Chemscore.Hbond.Weighted>
-8.3702

> <Gold.Chemscore.Metal.Weighted>
-0.0000

> <Gold.Chemscore.Lipo.Weighted>
-11.4067

> <Gold.Chemscore.Internal_Hbond.Weighted>
0.0000

> <Gold.Chemscore.DEClash.Weighted>
0.4251

> <Gold.Chemscore.DEInternal.Weighted>
1.0254

> <Gold.Chemscore.Rot.Weighted>
3.3133

> <Gold.Chemscore.Internal.Correction.Weighted>
   9.000000E+99

> <Gold.Protein.RotatedTorsions>
[ 6907 6896 6895 6894 ] final  104.51 input  -60.11 | X-H torsion
[ 7974 7965 7964 7962 ] final -148.00 input  175.53 | X-H torsion
[ 8008 7997 7996 7995 ] final -151.54 input   59.86 | X-H torsion
[ 10167 10162 10161 10158 ] final -172.31 input  -65.29 | X-H torsion
[ 10718 10713 10712 10709 ] final   53.32 input   66.30 | X-H torsion
[ 10763 10752 10751 10750 ] final   67.46 input  -60.55 | X-H torsion
[ 11005 11000 10999 10996 ] final -104.46 input  -57.11 | X-H torsion

> <Gold.Protein.ActiveResidues>
 VAL166  LYS551  ARG553  GLY616  TRP617  ASP618  TYR619  PRO620  LYS621  CYS622 
 ASP623  PHE694  ASN695  SER759  ASP760  ASP761  ALA762  ILE779  LEU786  VAL792 
 PHE793  MET794  SER795  GLU796  ALA797  LYS798  CYS799  TRP800  GLU811  SER814 

> <Gold.Protein.RotatedAtoms>
  152.5262  133.9667  159.7742 H   0  0  0  0  0  0  0  0  0  0  0  0  # atno 6907 bound_to 6896
  150.9947  133.6107  159.2710 H   0  0  0  0  0  0  0  0  0  0  0  0  # atno 6908 bound_to 6896
  151.3238  135.0831  159.9368 H   0  0  0  0  0  0  0  0  0  0  0  0  # atno 6909 bound_to 6896
  144.8057  140.5254  143.5676 H   0  0  0  0  0  0  0  0  0  0  0  0  # atno 7974 bound_to 7965
  155.6410  140.0701  157.2618 H   0  0  0  0  0  0  0  0  0  0  0  0  # atno 8008 bound_to 7997
  154.4184  140.1750  156.1622 H   0  0  0  0  0  0  0  0  0  0  0  0  # atno 8009 bound_to 7997
  155.9855  140.3350  155.6707 H   0  0  0  0  0  0  0  0  0  0  0  0  # atno 8010 bound_to 7997
  139.5752  144.1550  152.1440 H   0  0  0  0  0  0  0  0  0  0  0  0  # atno 10167 bound_to 10162
  157.5156  130.8530  149.8492 H   0  0  0  0  0  0  0  0  0  0  0  0  # atno 10718 bound_to 10713
  153.0187  135.5283  154.6983 H   0  0  0  0  0  0  0  0  0  0  0  0  # atno 10763 bound_to 10752
  154.6099  135.2877  155.0446 H   0  0  0  0  0  0  0  0  0  0  0  0  # atno 10764 bound_to 10752
  154.1472  135.6569  153.5007 H   0  0  0  0  0  0  0  0  0  0  0  0  # atno 10765 bound_to 10752
  141.1099  133.8725  157.1613 H   0  0  0  0  0  0  0  0  0  0  0  0  # atno 11005 bound_to 11000
  145.5443  139.1475  143.3429 LP  0  0  0  0  0  0  0  0  0  0  0  0  # atno 17320 bound_to 7965
  146.2348  140.5582  142.8959 LP  0  0  0  0  0  0  0  0  0  0  0  0  # atno 17321 bound_to 7965
  140.1091  144.5473  150.6937 LP  0  0  0  0  0  0  0  0  0  0  0  0  # atno 17342 bound_to 10162
  140.7034  143.2451  151.4796 LP  0  0  0  0  0  0  0  0  0  0  0  0  # atno 17343 bound_to 10162
  156.0318  130.3762  150.1666 LP  0  0  0  0  0  0  0  0  0  0  0  0  # atno 17370 bound_to 10713
  156.9855  130.9877  151.3427 LP  0  0  0  0  0  0  0  0  0  0  0  0  # atno 17371 bound_to 10713
  139.9988  135.0036  157.0143 LP  0  0  0  0  0  0  0  0  0  0  0  0  # atno 17394 bound_to 11000
  140.4802  134.1297  155.7216 LP  0  0  0  0  0  0  0  0  0  0  0  0  # atno 17395 bound_to 11000

$$$$
