AV-unprocessed.smi:3343|AV-procd|sdf|12894|dock9
  -GOLD-   2272019303D 1   1.00000     0.00000
 Structure written by MMmdl.
 41 42  0  0  0  0  0  0  0  0  1 V2000
  152.2075  145.2311  158.9401 C   0  0  0  0  0  0  0  0  0  0  0  0
  151.4451  144.2688  159.8737 C   0  0  1  0  0  0  0  0  0  0  0  0
  150.4420  143.3893  159.1123 C   0  0  0  0  0  0  0  0  0  0  0  0
  149.2521  143.3815  159.4289 O   0  0  0  0  0  0  0  0  0  0  0  0
  150.9414  142.6515  158.1077 N   0  0  0  0  0  0  0  0  0  0  0  0
  150.1774  141.7279  157.2755 C   0  0  0  0  0  0  0  0  0  0  0  0
  150.9718  141.3023  156.0251 C   0  0  0  0  0  0  0  0  0  0  0  0
  150.1930  140.6456  154.9753 N   0  0  0  0  0  0  0  0  0  0  0  0
  149.8278  139.2684  155.3209 C   0  0  0  0  0  0  0  0  0  0  0  0
  149.0210  138.5998  154.1923 C   0  0  0  0  0  0  0  0  0  0  0  0
  147.8000  139.3459  153.8947 N   0  0  0  0  0  0  0  0  0  0  0  0
  147.0343  138.7144  152.8312 C   0  0  0  0  0  0  0  0  0  0  0  0
  148.1569  140.7218  153.5555 C   0  0  0  0  0  0  0  0  0  0  0  0
  148.9653  141.3868  154.6853 C   0  0  0  0  0  0  0  0  0  0  0  0
  152.3415  143.4371  160.6675 N   0  0  0  0  0  0  0  0  0  0  0  0
  152.5106  143.3814  161.9905 C   0  0  0  0  0  0  0  0  0  0  0  0
  153.3853  142.4668  162.3848 N   0  0  0  0  0  0  0  0  0  0  0  0
  153.7340  141.9472  161.1706 C   0  0  0  0  0  0  0  0  0  0  0  0
  153.1306  142.4842  160.1107 N   0  0  0  0  0  0  0  0  0  0  0  0
  151.5175  145.8767  158.3956 H   0  0  0  0  0  0  0  0  0  0  0  0
  152.8108  144.6993  158.2031 H   0  0  0  0  0  0  0  0  0  0  0  0
  152.8766  145.8760  159.5105 H   0  0  0  0  0  0  0  0  0  0  0  0
  150.8792  144.8853  160.5745 H   0  0  0  0  0  0  0  0  0  0  0  0
  151.9307  142.7194  157.9180 H   0  0  0  0  0  0  0  0  0  0  0  0
  149.8276  140.8682  157.8480 H   0  0  0  0  0  0  0  0  0  0  0  0
  149.2766  142.2529  156.9573 H   0  0  0  0  0  0  0  0  0  0  0  0
  151.4760  142.1755  155.6087 H   0  0  0  0  0  0  0  0  0  0  0  0
  151.7674  140.6309  156.3511 H   0  0  0  0  0  0  0  0  0  0  0  0
  150.7206  138.6726  155.5055 H   0  0  0  0  0  0  0  0  0  0  0  0
  149.2476  139.2549  156.2449 H   0  0  0  0  0  0  0  0  0  0  0  0
  149.6411  138.5229  153.2975 H   0  0  0  0  0  0  0  0  0  0  0  0
  148.7676  137.5802  154.4850 H   0  0  0  0  0  0  0  0  0  0  0  0
  146.1154  139.2681  152.6358 H   0  0  0  0  0  0  0  0  0  0  0  0
  146.7566  137.6969  153.1079 H   0  0  0  0  0  0  0  0  0  0  0  0
  147.6081  138.6706  151.9045 H   0  0  0  0  0  0  0  0  0  0  0  0
  148.7372  140.7411  152.6313 H   0  0  0  0  0  0  0  0  0  0  0  0
  147.2524  141.3017  153.3687 H   0  0  0  0  0  0  0  0  0  0  0  0
  148.3498  141.4588  155.5837 H   0  0  0  0  0  0  0  0  0  0  0  0
  149.2115  142.4084  154.3933 H   0  0  0  0  0  0  0  0  0  0  0  0
  151.9801  144.0214  162.6804 H   0  0  0  0  0  0  0  0  0  0  0  0
  154.4496  141.1451  161.0649 H   0  0  0  0  0  0  0  0  0  0  0  0
  1  2  1  0  0  0  0
  1 20  1  0  0  0  0
  1 21  1  0  0  0  0
  1 22  1  0  0  0  0
  2  3  1  0  0  0  0
  2 15  1  0  0  0  0
  2 23  1  0  0  0  0
  3  4  2  0  0  0  0
  3  5  1  0  0  0  0
  5  6  1  0  0  0  0
  5 24  1  0  0  0  0
  6  7  1  0  0  0  0
  6 25  1  0  0  0  0
  6 26  1  0  0  0  0
  7  8  1  0  0  0  0
  7 27  1  0  0  0  0
  7 28  1  0  0  0  0
  8 14  1  0  0  0  0
  8  9  1  0  0  0  0
  9 10  1  0  0  0  0
  9 29  1  0  0  0  0
  9 30  1  0  0  0  0
 10 11  1  0  0  0  0
 10 31  1  0  0  0  0
 10 32  1  0  0  0  0
 11 12  1  0  0  0  0
 11 13  1  0  0  0  0
 12 33  1  0  0  0  0
 12 34  1  0  0  0  0
 12 35  1  0  0  0  0
 13 14  1  0  0  0  0
 13 36  1  0  0  0  0
 13 37  1  0  0  0  0
 14 38  1  0  0  0  0
 14 39  1  0  0  0  0
 15 19  1  0  0  0  0
 15 16  1  0  0  0  0
 16 17  2  0  0  0  0
 16 40  1  0  0  0  0
 17 18  1  0  0  0  0
 18 19  2  0  0  0  0
 18 41  1  0  0  0  0
M  END
> <s_m_source_file>
AV-unprocessed.smi

> <i_m_source_file_index>
3343

> <i_lp_mmshare_version>
43012

> <i_f3d_flags>
0

> <s_epik_input>
bjFbY0hdbltjSF1uMVtDQEhdKFtDSDNdKUMoPU8pW05IXVtDSDJdW0NIMl1OMltDSDJdW0NIMl1OKFtDSDNdKVtDSDJdW0NIMl0y

> <s_epik_cmdline>
J2VwaWtfcHl0aG9uJywgJy1waCcsICc3LjAnLCAnLXRuJywgJzgnLCAnLW1hJywgJzIwMCcsICctbWV0YWxfYmluZGluZycsICctaW1hZScsICc8aW5maWxlLm1hZT4nLCAnLW9tYWUnLCAnPG91dGZpbGUubWFlPic=

> <r_lp_tautomer_probability>
1

> <r_epik_Ionization_Penalty>
1.97295

> <r_epik_Ionization_Penalty_Charging>
0

> <r_epik_Ionization_Penalty_Neutral>
1.97295

> <r_epik_State_Penalty>
1.8027

> <r_epik_Charging_Adjusted_Penalty>
1.8027

> <i_epik_Tot_Q>
0

> <i_epik_Tot_abs_Q>
0

> <r_epik_Metal_State_Penalty>
1.8027

> <b_epik_Metal_Only>
0

> <s_lp_Force_Field>
OPLS_2005

> <r_lp_Energy>
40.9653

> <b_lp_Chiralities_Consistent>
1

> <s_lp_Variant>
AV-unprocessed.smi:3343-4

> <Gold.Version>
5.8.1

> <Gold.Id.Protein>
6NUR|6NUR_protein|mol2

> <Gold.PLP.Fitness>
42.9840

> <Gold.PLP.PLP>
-41.8959

> <Gold.PLP.part.hbond>
-2.0000

> <Gold.PLP.part.metal>
0.0000

> <Gold.PLP.part.buried>
-4.9313

> <Gold.PLP.part.nonpolar>
-35.0057

> <Gold.PLP.part.repulsive>
0.5028

> <Gold.PLP.ligand.clash>
0.0000

> <Gold.PLP.ligand.torsion>
0.3596

> <Gold.PLP.Chemscore.Hbond>
0.5626

> <Gold.PLP.Chemscore.CHOScore>
0.0000

> <Gold.PLP.Chemscore.Metal>
0.0000

> <Gold.Chemscore.Hbonds>
donor molecule, donor type, donor heavy atom, donor atom, acceptor molecule, acceptor atom, score
      P1  H  6933  6944       L1     4  0.07
      P1  H  7989  7998       L1     8  0.60

> <Gold.PLP.Chemscore.Internal.Correction>
0.1197

> <Gold.Rescore>
     Score         DG    S(hbond)    S(metal)    S(lipo)     H(rot)  DE(clash)    DE(int)     intcor
      7.51      -8.35       0.24        0.00      73.74       2.56       0.27       0.57       ----

> <Gold.Chemscore.Fitness>
7.5052

> <Gold.Chemscore.DG>
-8.3497

> <Gold.Chemscore.ZeroCoef>
-5.4800

> <Gold.Chemscore.Hbond>
0.2366

> <Gold.Chemscore.Metal>
0.0000

> <Gold.Chemscore.Lipo>
73.7371

> <Gold.Chemscore.Internal_Hbond>
0.0000

> <Gold.Chemscore.DEClash>
0.2702

> <Gold.Chemscore.DEInternal>
0.5742

> <Gold.Chemscore.Rot>
2.5577

> <Gold.Chemscore.Internal.Correction>
   9.000000E+99

> <Gold.Chemscore.Hbonds>
donor molecule, donor type, donor heavy atom, donor atom, acceptor molecule, acceptor atom, score
      P1  H  6933  6944       L1     4  0.07
      P1  H  7989  7998       L1     8  0.05

> <Gold.Chemscore.Hbond.Weighted>
-0.7901

> <Gold.Chemscore.Metal.Weighted>
-0.0000

> <Gold.Chemscore.Lipo.Weighted>
-8.6272

> <Gold.Chemscore.Internal_Hbond.Weighted>
0.0000

> <Gold.Chemscore.DEClash.Weighted>
0.2702

> <Gold.Chemscore.DEInternal.Weighted>
0.5742

> <Gold.Chemscore.Rot.Weighted>
6.5477

> <Gold.Chemscore.Internal.Correction.Weighted>
   9.000000E+99

> <Gold.Protein.RotatedTorsions>
[ 6907 6896 6895 6894 ] final  -17.12 input  -60.11 | X-H torsion
[ 7974 7965 7964 7962 ] final  110.30 input  175.53 | X-H torsion
[ 8008 7997 7996 7995 ] final  172.77 input   59.86 | X-H torsion
[ 10167 10162 10161 10158 ] final   -6.38 input  -65.29 | X-H torsion
[ 10718 10713 10712 10709 ] final -169.75 input   66.30 | X-H torsion
[ 10763 10752 10751 10750 ] final  -35.52 input  -60.55 | X-H torsion
[ 11005 11000 10999 10996 ] final  137.10 input  -57.11 | X-H torsion

> <Gold.Protein.ActiveResidues>
 VAL166  LYS551  ARG553  GLY616  TRP617  ASP618  TYR619  PRO620  LYS621  CYS622 
 ASP623  PHE694  ASN695  SER759  ASP760  ASP761  ALA762  ILE779  LEU786  VAL792 
 PHE793  MET794  SER795  GLU796  ALA797  LYS798  CYS799  TRP800  GLU811  SER814 

> <Gold.Protein.RotatedAtoms>
  151.2981  135.0761  159.9228 H   0  0  0  0  0  0  0  0  0  0  0  0  # atno 6907 bound_to 6896
  152.5303  133.9862  159.7840 H   0  0  0  0  0  0  0  0  0  0  0  0  # atno 6908 bound_to 6896
  151.0143  133.5884  159.2709 H   0  0  0  0  0  0  0  0  0  0  0  0  # atno 6909 bound_to 6896
  145.2567  139.2718  143.4038 H   0  0  0  0  0  0  0  0  0  0  0  0  # atno 7974 bound_to 7965
  156.1141  140.1477  156.9297 H   0  0  0  0  0  0  0  0  0  0  0  0  # atno 8008 bound_to 7997
  154.4788  140.0886  156.7370 H   0  0  0  0  0  0  0  0  0  0  0  0  # atno 8009 bound_to 7997
  155.4544  140.3436  155.4307 H   0  0  0  0  0  0  0  0  0  0  0  0  # atno 8010 bound_to 7997
  140.6995  143.6201  150.8621 H   0  0  0  0  0  0  0  0  0  0  0  0  # atno 10167 bound_to 10162
  156.7160  130.9252  151.3093 H   0  0  0  0  0  0  0  0  0  0  0  0  # atno 10718 bound_to 10713
  153.8645  135.6837  153.4780 H   0  0  0  0  0  0  0  0  0  0  0  0  # atno 10763 bound_to 10752
  153.1322  135.4693  154.9365 H   0  0  0  0  0  0  0  0  0  0  0  0  # atno 10764 bound_to 10752
  154.7743  135.3248  154.8074 H   0  0  0  0  0  0  0  0  0  0  0  0  # atno 10765 bound_to 10752
  140.0091  134.9446  157.0239 H   0  0  0  0  0  0  0  0  0  0  0  0  # atno 11005 bound_to 11000
  146.3287  140.2973  142.8618 LP  0  0  0  0  0  0  0  0  0  0  0  0  # atno 17320 bound_to 7965
  144.9455  140.8123  143.5604 LP  0  0  0  0  0  0  0  0  0  0  0  0  # atno 17321 bound_to 7965
  139.9922  143.5835  152.2906 LP  0  0  0  0  0  0  0  0  0  0  0  0  # atno 17342 bound_to 10162
  139.6494  144.7660  151.2178 LP  0  0  0  0  0  0  0  0  0  0  0  0  # atno 17343 bound_to 10162
  157.6917  130.9240  150.0532 LP  0  0  0  0  0  0  0  0  0  0  0  0  # atno 17370 bound_to 10713
  156.1627  130.3644  149.9276 LP  0  0  0  0  0  0  0  0  0  0  0  0  # atno 17371 bound_to 10713
  140.4587  134.1507  155.7189 LP  0  0  0  0  0  0  0  0  0  0  0  0  # atno 17394 bound_to 11000
  141.1698  133.8631  157.1605 LP  0  0  0  0  0  0  0  0  0  0  0  0  # atno 17395 bound_to 11000

$$$$
