AV-unprocessed.smi:1244|AV-procd|sdf|5238|dock5
  -GOLD-   22720 4343D 1   1.00000     0.00000
 Structure written by MMmdl.
 55 57  0  0  0  0  0  0  0  0  4 V2000
  145.3689  142.3201  159.2736 C   0  0  0  0  0  0  0  0  0  0  0  0
  146.0400  142.5231  157.9106 C   0  0  1  0  0  0  0  0  0  0  0  0
  147.4846  141.9921  157.8959 C   0  0  0  0  0  0  0  0  0  0  0  0
  148.0701  142.1192  156.5407 N   0  3  1  0  0  0  0  0  0  0  0  0
  149.5065  141.7364  156.4930 C   0  0  0  0  0  0  0  0  0  0  0  0
  149.7299  140.2622  156.8875 C   0  0  0  0  0  0  0  0  0  0  0  0
  151.1590  139.9528  156.8670 N   0  5  0  0  0  0  0  0  0  0  0  0
  151.9032  139.6338  157.9594 C   0  0  0  0  0  0  0  0  0  0  0  0
  152.2702  138.5105  158.3218 O   0  0  0  0  0  0  0  0  0  0  0  0
  152.2214  140.7218  158.6817 N   0  0  0  0  0  0  0  0  0  0  0  0
  152.9571  140.8192  159.8968 C   0  0  0  0  0  0  0  0  0  0  0  0
  153.7838  139.7577  160.3465 C   0  0  0  0  0  0  0  0  0  0  0  0
  154.4840  139.8763  161.5613 C   0  0  0  0  0  0  0  0  0  0  0  0
  154.3544  141.0597  162.3070 C   0  0  0  0  0  0  0  0  0  0  0  0
  153.5810  142.0616  161.8411 N   0  3  0  0  0  0  0  0  0  0  0  0
  152.8929  142.0144  160.6724 C   0  0  0  0  0  0  0  0  0  0  0  0
  152.1370  143.1553  160.3137 N   0  0  0  0  0  0  0  0  0  0  0  0
  151.9158  144.2284  161.2757 C   0  0  0  0  0  0  0  0  0  0  0  0
  151.3585  145.3887  160.4555 C   0  0  0  0  0  0  0  0  0  0  0  0
  152.0964  145.2373  159.1291 C   0  0  0  0  0  0  0  0  0  0  0  0
  152.2576  143.7216  158.9737 C   0  0  0  0  0  0  0  0  0  0  0  0
  147.2213  141.4053  155.5508 C   0  0  0  0  0  0  0  0  0  0  0  0
  145.7679  141.9135  155.6006 C   0  0  2  0  0  0  0  0  0  0  0  0
  145.5864  143.3156  154.9919 C   0  0  0  0  0  0  0  0  0  0  0  0
  145.2653  141.8313  156.9344 O   0  0  0  0  0  0  0  0  0  0  0  0
  145.9135  142.8409  160.0613 H   0  0  0  0  0  0  0  0  0  0  0  0
  145.3258  141.2634  159.5389 H   0  0  0  0  0  0  0  0  0  0  0  0
  144.3483  142.7034  159.2664 H   0  0  0  0  0  0  0  0  0  0  0  0
  146.0403  143.5909  157.6906 H   0  0  0  0  0  0  0  0  0  0  0  0
  148.0844  142.5569  158.6111 H   0  0  0  0  0  0  0  0  0  0  0  0
  147.5122  140.9465  158.2073 H   0  0  0  0  0  0  0  0  0  0  0  0
  149.8845  141.8724  155.4783 H   0  0  0  0  0  0  0  0  0  0  0  0
  150.0937  142.4057  157.1239 H   0  0  0  0  0  0  0  0  0  0  0  0
  149.3109  140.0943  157.8797 H   0  0  0  0  0  0  0  0  0  0  0  0
  149.1515  139.6222  156.2195 H   0  0  0  0  0  0  0  0  0  0  0  0
  151.7939  141.5796  158.3655 H   0  0  0  0  0  0  0  0  0  0  0  0
  153.8981  138.8507  159.7728 H   0  0  0  0  0  0  0  0  0  0  0  0
  155.1102  139.0700  161.9142 H   0  0  0  0  0  0  0  0  0  0  0  0
  154.8493  141.2397  163.2501 H   0  0  0  0  0  0  0  0  0  0  0  0
  151.2287  143.9233  162.0653 H   0  0  0  0  0  0  0  0  0  0  0  0
  152.8602  144.5241  161.7343 H   0  0  0  0  0  0  0  0  0  0  0  0
  150.2865  145.2572  160.3019 H   0  0  0  0  0  0  0  0  0  0  0  0
  151.5186  146.3589  160.9266 H   0  0  0  0  0  0  0  0  0  0  0  0
  151.5679  145.6948  158.2925 H   0  0  0  0  0  0  0  0  0  0  0  0
  153.0792  145.7050  159.2017 H   0  0  0  0  0  0  0  0  0  0  0  0
  153.2097  143.4713  158.5040 H   0  0  0  0  0  0  0  0  0  0  0  0
  151.4545  143.3241  158.3527 H   0  0  0  0  0  0  0  0  0  0  0  0
  147.6187  141.5231  154.5422 H   0  0  0  0  0  0  0  0  0  0  0  0
  147.2418  140.3366  155.7709 H   0  0  0  0  0  0  0  0  0  0  0  0
  145.1581  141.2319  155.0069 H   0  0  0  0  0  0  0  0  0  0  0  0
  145.8547  143.3153  153.9351 H   0  0  0  0  0  0  0  0  0  0  0  0
  146.2084  144.0646  155.4816 H   0  0  0  0  0  0  0  0  0  0  0  0
  144.5485  143.6406  155.0672 H   0  0  0  0  0  0  0  0  0  0  0  0
  148.0373  143.1022  156.3101 H   0  0  0  0  0  0  0  0  0  0  0  0
  153.5163  142.9128  162.3991 H   0  0  0  0  0  0  0  0  0  0  0  0
  1  2  1  0  0  0  0
  1 26  1  0  0  0  0
  1 27  1  0  0  0  0
  1 28  1  0  0  0  0
  2 25  1  0  0  0  0
  2  3  1  0  0  0  0
  2 29  1  0  0  0  0
  3  4  1  0  0  0  0
  3 30  1  0  0  0  0
  3 31  1  0  0  0  0
  4  5  1  0  0  0  0
  4 22  1  0  0  0  0
  4 54  1  0  0  0  0
  5  6  1  0  0  0  0
  5 32  1  0  0  0  0
  5 33  1  0  0  0  0
  6  7  1  0  0  0  0
  6 34  1  0  0  0  0
  6 35  1  0  0  0  0
  7  8  1  0  0  0  0
  8  9  2  0  0  0  0
  8 10  1  0  0  0  0
 10 11  1  0  0  0  0
 10 36  1  0  0  0  0
 11 16  1  0  0  0  0
 11 12  2  0  0  0  0
 12 13  1  0  0  0  0
 12 37  1  0  0  0  0
 13 14  2  0  0  0  0
 13 38  1  0  0  0  0
 14 15  1  0  0  0  0
 14 39  1  0  0  0  0
 15 16  2  0  0  0  0
 15 55  1  0  0  0  0
 16 17  1  0  0  0  0
 17 21  1  0  0  0  0
 17 18  1  0  0  0  0
 18 19  1  0  0  0  0
 18 40  1  0  0  0  0
 18 41  1  0  0  0  0
 19 20  1  0  0  0  0
 19 42  1  0  0  0  0
 19 43  1  0  0  0  0
 20 21  1  0  0  0  0
 20 44  1  0  0  0  0
 20 45  1  0  0  0  0
 21 46  1  0  0  0  0
 21 47  1  0  0  0  0
 22 23  1  0  0  0  0
 22 48  1  0  0  0  0
 22 49  1  0  0  0  0
 23 24  1  0  0  0  0
 23 25  1  0  0  0  0
 23 50  1  0  0  0  0
 24 51  1  0  0  0  0
 24 52  1  0  0  0  0
 24 53  1  0  0  0  0
M  CHG  1   4   1
M  CHG  1   7  -1
M  CHG  1  15   1
M  END
> <s_m_source_file>
AV-unprocessed.smi

> <i_m_source_file_index>
1244

> <i_lp_mmshare_version>
43012

> <i_f3d_flags>
0

> <s_epik_input>
W0NIM11bQ0BASF0xW0NIMl1OKFtDSDJdW0NASF0oTzEpW0NIM10pW0NIMl1bQ0gyXVtOSF1DKD1PKVtOSF1jMltjSF1bY0hdW2NIXW5jMk4zW0NIMl1bQ0gyXVtDSDJdW0NIMl0z

> <s_epik_cmdline>
J2VwaWtfcHl0aG9uJywgJy1waCcsICc3LjAnLCAnLXRuJywgJzgnLCAnLW1hJywgJzIwMCcsICctbWV0YWxfYmluZGluZycsICctaW1hZScsICc8aW5maWxlLm1hZT4nLCAnLW9tYWUnLCAnPG91dGZpbGUubWFlPic=

> <r_lp_tautomer_probability>
0.999994

> <r_epik_Ionization_Penalty>
8.60539

> <r_epik_Ionization_Penalty_Charging>
8.60539

> <r_epik_Ionization_Penalty_Neutral>
3.60441e-06

> <r_epik_State_Penalty>
8.59967

> <r_epik_Charging_Adjusted_Penalty>
17.2051

> <i_epik_Tot_Q>
1

> <i_epik_Tot_abs_Q>
3

> <r_epik_Metal_State_Penalty>
4.59489

> <b_epik_Metal_Only>
1

> <s_lp_Force_Field>
OPLS_2005

> <r_lp_Energy>
46.9431

> <b_lp_Chiralities_Consistent>
1

> <s_lp_Variant>
AV-unprocessed.smi:1244-18

> <Gold.Version>
5.8.1

> <Gold.Id.Protein>
6NUR|6NUR_protein|mol2

> <Gold.PLP.Fitness>
57.1433

> <Gold.PLP.PLP>
-52.6107

> <Gold.PLP.part.hbond>
-1.0000

> <Gold.PLP.part.metal>
0.0000

> <Gold.PLP.part.buried>
-6.0078

> <Gold.PLP.part.nonpolar>
-45.8026

> <Gold.PLP.part.repulsive>
0.3100

> <Gold.PLP.ligand.clash>
0.0000

> <Gold.PLP.ligand.torsion>
1.2697

> <Gold.PLP.Chemscore.Hbond>
2.0000

> <Gold.PLP.Chemscore.CHOScore>
0.0000

> <Gold.PLP.Chemscore.Metal>
0.0000

> <Gold.Chemscore.Hbonds>
donor molecule, donor type, donor heavy atom, donor atom, acceptor molecule, acceptor atom, score
      L1  H     4    54       P1  8028  2.00

> <Gold.PLP.Chemscore.Internal.Correction>
1.0720

> <Gold.Rescore>
     Score         DG    S(hbond)    S(metal)    S(lipo)     H(rot)  DE(clash)    DE(int)     intcor
     13.67     -19.19       0.95        0.00     121.01       1.42       1.71       3.82       ----

> <Gold.Chemscore.Fitness>
13.6655

> <Gold.Chemscore.DG>
-19.1896

> <Gold.Chemscore.ZeroCoef>
-5.4800

> <Gold.Chemscore.Hbond>
0.9528

> <Gold.Chemscore.Metal>
0.0000

> <Gold.Chemscore.Lipo>
121.0125

> <Gold.Chemscore.Internal_Hbond>
0.0000

> <Gold.Chemscore.DEClash>
1.7060

> <Gold.Chemscore.DEInternal>
3.8181

> <Gold.Chemscore.Rot>
1.4185

> <Gold.Chemscore.Internal.Correction>
   9.000000E+99

> <Gold.Chemscore.Hbonds>
donor molecule, donor type, donor heavy atom, donor atom, acceptor molecule, acceptor atom, score
      L1  H     4    54       P1  8028  0.38

> <Gold.Chemscore.Hbond.Weighted>
-3.1824

> <Gold.Chemscore.Metal.Weighted>
-0.0000

> <Gold.Chemscore.Lipo.Weighted>
-14.1585

> <Gold.Chemscore.Internal_Hbond.Weighted>
0.0000

> <Gold.Chemscore.DEClash.Weighted>
1.7060

> <Gold.Chemscore.DEInternal.Weighted>
3.8181

> <Gold.Chemscore.Rot.Weighted>
3.6313

> <Gold.Chemscore.Internal.Correction.Weighted>
   9.000000E+99

> <Gold.Protein.RotatedTorsions>
[ 6907 6896 6895 6894 ] final -125.92 input  -60.11 | X-H torsion
[ 7974 7965 7964 7962 ] final  -69.02 input  175.53 | X-H torsion
[ 8008 7997 7996 7995 ] final -104.32 input   59.86 | X-H torsion
[ 10167 10162 10161 10158 ] final  168.11 input  -65.29 | X-H torsion
[ 10718 10713 10712 10709 ] final  -67.22 input   66.30 | X-H torsion
[ 10763 10752 10751 10750 ] final   44.66 input  -60.55 | X-H torsion
[ 11005 11000 10999 10996 ] final   46.94 input  -57.11 | X-H torsion

> <Gold.Protein.ActiveResidues>
 VAL166  LYS551  ARG553  GLY616  TRP617  ASP618  TYR619  PRO620  LYS621  CYS622 
 ASP623  PHE694  ASN695  SER759  ASP760  ASP761  ALA762  ILE779  LEU786  VAL792 
 PHE793  MET794  SER795  GLU796  ALA797  LYS798  CYS799  TRP800  GLU811  SER814 

> <Gold.Protein.RotatedAtoms>
  150.8916  133.7235  159.2902 H   0  0  0  0  0  0  0  0  0  0  0  0  # atno 6907 bound_to 6896
  151.4783  135.1049  159.9780 H   0  0  0  0  0  0  0  0  0  0  0  0  # atno 6908 bound_to 6896
  152.4824  133.8239  159.7123 H   0  0  0  0  0  0  0  0  0  0  0  0  # atno 6909 bound_to 6896
  145.7091  140.9086  143.0690 H   0  0  0  0  0  0  0  0  0  0  0  0  # atno 7974 bound_to 7965
  154.8836  140.0418  157.1797 H   0  0  0  0  0  0  0  0  0  0  0  0  # atno 8008 bound_to 7997
  154.8614  140.2944  155.5516 H   0  0  0  0  0  0  0  0  0  0  0  0  # atno 8009 bound_to 7997
  156.2998  140.2446  156.3589 H   0  0  0  0  0  0  0  0  0  0  0  0  # atno 8010 bound_to 7997
  139.4960  144.3849  151.9581 H   0  0  0  0  0  0  0  0  0  0  0  0  # atno 10167 bound_to 10162
  156.0569  130.4274  150.1822 H   0  0  0  0  0  0  0  0  0  0  0  0  # atno 10718 bound_to 10713
  152.9837  135.6064  154.3309 H   0  0  0  0  0  0  0  0  0  0  0  0  # atno 10763 bound_to 10752
  154.3013  135.2773  155.2611 H   0  0  0  0  0  0  0  0  0  0  0  0  # atno 10764 bound_to 10752
  154.4862  135.5904  153.6482 H   0  0  0  0  0  0  0  0  0  0  0  0  # atno 10765 bound_to 10752
  140.1323  134.4689  155.8512 H   0  0  0  0  0  0  0  0  0  0  0  0  # atno 11005 bound_to 11000
  144.6947  139.9050  143.7460 LP  0  0  0  0  0  0  0  0  0  0  0  0  # atno 17320 bound_to 7965
  146.0729  139.3717  143.0512 LP  0  0  0  0  0  0  0  0  0  0  0  0  # atno 17321 bound_to 7965
  140.3286  144.3343  150.5992 LP  0  0  0  0  0  0  0  0  0  0  0  0  # atno 17342 bound_to 10162
  140.5664  143.2186  151.7677 LP  0  0  0  0  0  0  0  0  0  0  0  0  # atno 17343 bound_to 10162
  156.9897  130.9889  151.3418 LP  0  0  0  0  0  0  0  0  0  0  0  0  # atno 17370 bound_to 10713
  157.5547  130.8206  149.8189 LP  0  0  0  0  0  0  0  0  0  0  0  0  # atno 17371 bound_to 10713
  141.2172  133.6801  156.7093 LP  0  0  0  0  0  0  0  0  0  0  0  0  # atno 17394 bound_to 11000
  140.2826  134.8305  157.3946 LP  0  0  0  0  0  0  0  0  0  0  0  0  # atno 17395 bound_to 11000

$$$$
