AV-unprocessed.smi:160|AV-procd|sdf|1352|dock2
  -GOLD-   2262019 53D 1   1.00000     0.00000
 Structure written by MMmdl.
 29 30  0  0  0  0  0  0  0  0  1 V2000
  141.3102  139.0646  153.6846 N   0  0  0  0  0  0  0  0  0  0  0  0
  140.8905  137.8300  153.9802 C   0  0  0  0  0  0  0  0  0  0  0  0
  139.8016  137.6142  154.5099 O   0  0  0  0  0  0  0  0  0  0  0  0
  141.8247  136.7070  153.6221 C   0  0  0  0  0  0  0  0  0  0  0  0
  141.5877  135.4305  154.0452 N   0  0  0  0  0  0  0  0  0  0  0  0
  142.6426  134.8330  153.5064 C   0  0  0  0  0  0  0  0  0  0  0  0
  143.4387  135.6509  152.8066 N   0  0  0  0  0  0  0  0  0  0  0  0
  144.7328  135.4000  152.0921 C   0  0  1  0  0  0  0  0  0  0  0  0
  145.1584  134.1067  152.3863 O   0  0  0  0  0  0  0  0  0  0  0  0
  144.5877  133.2049  151.4474 C   0  0  2  0  0  0  0  0  0  0  0  0
  145.3833  131.8910  151.4307 C   0  0  0  0  0  0  0  0  0  0  0  0
  146.7686  132.1623  151.4137 O   0  0  0  0  0  0  0  0  0  0  0  0
  144.6837  133.9951  150.1366 C   0  0  1  0  0  0  0  0  0  0  0  0
  143.6332  133.6219  149.2676 O   0  0  0  0  0  0  0  0  0  0  0  0
  144.5323  135.4560  150.5658 C   0  0  2  0  0  0  0  0  0  0  0  0
  145.5148  136.2603  149.9455 O   0  0  0  0  0  0  0  0  0  0  0  0
  142.9245  136.9031  152.8923 N   0  0  0  0  0  0  0  0  0  0  0  0
  145.4114  136.1532  152.4952 H   0  0  0  0  0  0  0  0  0  0  0  0
  143.5406  133.0243  151.6990 H   0  0  0  0  0  0  0  0  0  0  0  0
  145.6501  133.8239  149.6592 H   0  0  0  0  0  0  0  0  0  0  0  0
  143.5452  135.8533  150.3246 H   0  0  0  0  0  0  0  0  0  0  0  0
  140.7268  139.8597  153.8997 H   0  0  0  0  0  0  0  0  0  0  0  0
  142.2105  139.1925  153.2458 H   0  0  0  0  0  0  0  0  0  0  0  0
  142.8379  133.7774  153.6276 H   0  0  0  0  0  0  0  0  0  0  0  0
  145.1747  131.3165  152.3336 H   0  0  0  0  0  0  0  0  0  0  0  0
  145.1065  131.2689  150.5788 H   0  0  0  0  0  0  0  0  0  0  0  0
  147.2000  131.4915  150.9067 H   0  0  0  0  0  0  0  0  0  0  0  0
  142.8789  134.1558  149.4652 H   0  0  0  0  0  0  0  0  0  0  0  0
  145.2515  137.1650  150.0187 H   0  0  0  0  0  0  0  0  0  0  0  0
  1  2  1  0  0  0  0
  1 22  1  0  0  0  0
  1 23  1  0  0  0  0
  2  3  2  0  0  0  0
  2  4  1  0  0  0  0
  4 17  2  0  0  0  0
  4  5  1  0  0  0  0
  5  6  2  0  0  0  0
  6  7  1  0  0  0  0
  6 24  1  0  0  0  0
  7  8  1  0  0  0  0
  7 17  1  0  0  0  0
  8 18  1  0  0  0  0
  8 15  1  0  0  0  0
  8  9  1  0  0  0  0
  9 10  1  0  0  0  0
 10 19  1  0  0  0  0
 10 11  1  0  0  0  0
 10 13  1  0  0  0  0
 11 12  1  0  0  0  0
 11 25  1  0  0  0  0
 11 26  1  0  0  0  0
 12 27  1  0  0  0  0
 13 20  1  0  0  0  0
 13 14  1  0  0  0  0
 13 15  1  0  0  0  0
 14 28  1  0  0  0  0
 15 21  1  0  0  0  0
 15 16  1  0  0  0  0
 16 29  1  0  0  0  0
M  END
> <s_m_source_file>
AV-unprocessed.smi

> <i_m_source_file_index>
160

> <i_lp_mmshare_version>
43012

> <i_f3d_flags>
0

> <s_epik_input>
W05IMl1DKD1PKWMxbltjSF1uKG4xKVtDQEBIXTJPW0NASF0oW0NIMl1bT0hdKVtDQEBIXShbT0hdKVtDQEhdMltPSF0=

> <s_epik_cmdline>
J2VwaWtfcHl0aG9uJywgJy1waCcsICc3LjAnLCAnLXRuJywgJzgnLCAnLW1hJywgJzIwMCcsICctbWV0YWxfYmluZGluZycsICctaW1hZScsICc8aW5maWxlLm1hZT4nLCAnLW9tYWUnLCAnPG91dGZpbGUubWFlPic=

> <r_lp_tautomer_probability>
1

> <r_epik_Ionization_Penalty>
1.06932e-05

> <r_epik_Ionization_Penalty_Charging>
0

> <r_epik_Ionization_Penalty_Neutral>
1.06932e-05

> <r_epik_State_Penalty>
-0

> <r_epik_Charging_Adjusted_Penalty>
0

> <i_epik_Tot_Q>
0

> <i_epik_Tot_abs_Q>
0

> <r_epik_Metal_State_Penalty>
0.0142097

> <b_epik_Metal_Only>
0

> <s_epik_Chemistry_Notes>
This compound contains an acetal/aminal-like group ( X-CH(R)-Y where X, Y are N, S, or O) that may be acid/base labile, releasing an aldehyde.

> <s_lp_Force_Field>
OPLS_2005

> <r_lp_Energy>
33.6029

> <b_lp_Chiralities_Consistent>
1

> <s_lp_Variant>
AV-unprocessed.smi:160-10

> <Gold.Version>
5.8.1

> <Gold.Id.Protein>
6NUR|6NUR_protein|mol2

> <Gold.PLP.Fitness>
41.5445

> <Gold.PLP.PLP>
-27.3287

> <Gold.PLP.part.hbond>
-6.4356

> <Gold.PLP.part.metal>
0.0000

> <Gold.PLP.part.buried>
-5.3512

> <Gold.PLP.part.nonpolar>
-15.9917

> <Gold.PLP.part.repulsive>
0.5645

> <Gold.PLP.ligand.clash>
0.0000

> <Gold.PLP.ligand.torsion>
0.3573

> <Gold.PLP.Chemscore.Hbond>
3.9593

> <Gold.PLP.Chemscore.CHOScore>
1.0000

> <Gold.PLP.Chemscore.Metal>
0.0000

> <Gold.Chemscore.Hbonds>
donor molecule, donor type, donor heavy atom, donor atom, acceptor molecule, acceptor atom, score
      L1  H     1    23       P1 10175  0.96
      L1  H    12    27       P1 10747  0.88
      L1  H    14    28       P1 10186  1.00
      L1  H    16    29       P1 10171  0.99
      L1  C     6    24       P1 10957  1.00

> <Gold.PLP.Chemscore.Internal.Correction>
0.0525

> <Gold.Rescore>
     Score         DG    S(hbond)    S(metal)    S(lipo)     H(rot)  DE(clash)    DE(int)     intcor
      9.79     -11.53       3.89        0.00      29.35       4.06       1.08       0.66       ----

> <Gold.Chemscore.Fitness>
9.7865

> <Gold.Chemscore.DG>
-11.5274

> <Gold.Chemscore.ZeroCoef>
-5.4800

> <Gold.Chemscore.Hbond>
3.8943

> <Gold.Chemscore.Metal>
0.0000

> <Gold.Chemscore.Lipo>
29.3503

> <Gold.Chemscore.Internal_Hbond>
0.0000

> <Gold.Chemscore.DEClash>
1.0800

> <Gold.Chemscore.DEInternal>
0.6610

> <Gold.Chemscore.Rot>
4.0600

> <Gold.Chemscore.Internal.Correction>
   9.000000E+99

> <Gold.Chemscore.Hbonds>
donor molecule, donor type, donor heavy atom, donor atom, acceptor molecule, acceptor atom, score
      L1  H     1    23       P1 10175  0.86
      L1  H    12    27       P1 10747  0.84
      L1  H    14    28       P1 10186  0.96
      L1  H    16    29       P1 10171  0.92

> <Gold.Chemscore.Hbond.Weighted>
-13.0070

> <Gold.Chemscore.Metal.Weighted>
-0.0000

> <Gold.Chemscore.Lipo.Weighted>
-3.4340

> <Gold.Chemscore.Internal_Hbond.Weighted>
0.0000

> <Gold.Chemscore.DEClash.Weighted>
1.0800

> <Gold.Chemscore.DEInternal.Weighted>
0.6610

> <Gold.Chemscore.Rot.Weighted>
10.3936

> <Gold.Chemscore.Internal.Correction.Weighted>
   9.000000E+99

> <Gold.Protein.RotatedTorsions>
[ 6907 6896 6895 6894 ] final  -18.98 input  -60.11 | X-H torsion
[ 7974 7965 7964 7962 ] final  114.61 input  175.53 | X-H torsion
[ 8008 7997 7996 7995 ] final  -51.07 input   59.86 | X-H torsion
[ 10167 10162 10161 10158 ] final  114.95 input  -65.29 | X-H torsion
[ 10718 10713 10712 10709 ] final -115.55 input   66.30 | X-H torsion
[ 10763 10752 10751 10750 ] final   37.93 input  -60.55 | X-H torsion
[ 11005 11000 10999 10996 ] final  118.39 input  -57.11 | X-H torsion

> <Gold.Protein.ActiveResidues>
 VAL166  LYS551  ARG553  GLY616  TRP617  ASP618  TYR619  PRO620  LYS621  CYS622 
 ASP623  PHE694  ASN695  SER759  ASP760  ASP761  ALA762  ILE779  LEU786  VAL792 
 PHE793  MET794  SER795  GLU796  ALA797  LYS798  CYS799  TRP800  GLU811  SER814 

> <Gold.Protein.RotatedAtoms>
  151.2701  135.0681  159.9130 H   0  0  0  0  0  0  0  0  0  0  0  0  # atno 6907 bound_to 6896
  152.5352  134.0140  159.7961 H   0  0  0  0  0  0  0  0  0  0  0  0  # atno 6908 bound_to 6896
  151.0377  133.5684  159.2685 H   0  0  0  0  0  0  0  0  0  0  0  0  # atno 6909 bound_to 6896
  145.2023  139.2946  143.4312 H   0  0  0  0  0  0  0  0  0  0  0  0  # atno 7974 bound_to 7965
  154.4075  140.1257  156.4768 H   0  0  0  0  0  0  0  0  0  0  0  0  # atno 8008 bound_to 7997
  155.7124  140.3493  155.4960 H   0  0  0  0  0  0  0  0  0  0  0  0  # atno 8009 bound_to 7997
  155.9288  140.1066  157.1139 H   0  0  0  0  0  0  0  0  0  0  0  0  # atno 8010 bound_to 7997
  139.6352  144.7119  151.2350 H   0  0  0  0  0  0  0  0  0  0  0  0  # atno 10167 bound_to 10162
  156.0903  130.6087  150.8921 H   0  0  0  0  0  0  0  0  0  0  0  0  # atno 10718 bound_to 10713
  153.0019  135.6264  154.2223 H   0  0  0  0  0  0  0  0  0  0  0  0  # atno 10763 bound_to 10752
  154.1966  135.2806  155.3006 H   0  0  0  0  0  0  0  0  0  0  0  0  # atno 10764 bound_to 10752
  154.5717  135.5674  153.7160 H   0  0  0  0  0  0  0  0  0  0  0  0  # atno 10765 bound_to 10752
  139.9108  134.9620  156.7495 H   0  0  0  0  0  0  0  0  0  0  0  0  # atno 11005 bound_to 11000
  146.3415  140.2271  142.8592 LP  0  0  0  0  0  0  0  0  0  0  0  0  # atno 17320 bound_to 7965
  144.9936  140.8569  143.5324 LP  0  0  0  0  0  0  0  0  0  0  0  0  # atno 17321 bound_to 7965
  140.7461  143.6410  150.8335 LP  0  0  0  0  0  0  0  0  0  0  0  0  # atno 17342 bound_to 10162
  140.0040  143.5714  152.2865 LP  0  0  0  0  0  0  0  0  0  0  0  0  # atno 17343 bound_to 10162
  157.6051  131.0939  150.8894 LP  0  0  0  0  0  0  0  0  0  0  0  0  # atno 17370 bound_to 10713
  156.9044  130.5258  149.5282 LP  0  0  0  0  0  0  0  0  0  0  0  0  # atno 17371 bound_to 10713
  140.6785  133.9496  155.7896 LP  0  0  0  0  0  0  0  0  0  0  0  0  # atno 17394 bound_to 11000
  141.0527  134.0461  157.3762 LP  0  0  0  0  0  0  0  0  0  0  0  0  # atno 17395 bound_to 11000

$$$$
