AV-unprocessed.smi:686|AV-procd|sdf|3347|dock5
  -GOLD-   22720 0323D 1   1.00000     0.00000
 Structure written by MMmdl.
 40 41  0  0  0  0  0  0  0  0  3 V2000
  152.6534  143.4425  158.8983 C   0  0  0  0  0  0  0  0  0  0  0  0
  151.1983  143.6775  158.4487 C   0  0  2  0  0  0  0  0  0  0  0  0
  150.3358  144.3551  159.5153 C   0  0  0  0  0  0  0  0  0  0  0  0
  148.9403  144.1055  159.0927 N   0  3  2  0  0  0  0  0  0  0  0  0
  147.9055  144.2589  160.1547 C   0  0  0  0  0  0  0  0  0  0  0  0
  146.4876  144.0824  159.5789 C   0  0  0  0  0  0  0  0  0  0  0  0
  148.0093  145.6258  160.8574 C   0  0  0  0  0  0  0  0  0  0  0  0
  148.9291  142.8035  158.3792 C   0  0  0  0  0  0  0  0  0  0  0  0
  150.3951  142.4089  158.1171 C   0  0  1  0  0  0  0  0  0  0  0  0
  150.6105  141.9924  156.7366 N   0  5  0  0  0  0  0  0  0  0  0  0
  151.1387  140.4959  156.3740 S   0  0  0  0  0  0  0  0  0  0  0  0
  150.9620  140.1343  154.9568 O   0  0  0  0  0  0  0  0  0  0  0  0
  152.4692  140.2537  156.9516 O   0  0  0  0  0  0  0  0  0  0  0  0
  149.9783  139.4245  157.3391 C   0  0  0  0  0  0  0  0  0  0  0  0
  150.7529  138.5143  158.2514 C   0  0  0  0  0  0  0  0  0  0  0  0
  151.7413  138.8569  159.2158 C   0  0  0  0  0  0  0  0  0  0  0  0
  152.1067  137.6515  159.7414 C   0  0  0  0  0  0  0  0  0  0  0  0
  151.4149  136.6457  159.1492 O   0  0  0  0  0  0  0  0  0  0  0  0
  150.5558  137.2060  158.1971 N   0  0  0  0  0  0  0  0  0  0  0  0
  152.7161  142.8169  159.7907 H   0  0  0  0  0  0  0  0  0  0  0  0
  153.1360  144.3908  159.1356 H   0  0  0  0  0  0  0  0  0  0  0  0
  153.2476  142.9683  158.1150 H   0  0  0  0  0  0  0  0  0  0  0  0
  151.2088  144.3314  157.5738 H   0  0  0  0  0  0  0  0  0  0  0  0
  150.5139  143.9231  160.5041 H   0  0  0  0  0  0  0  0  0  0  0  0
  150.5452  145.4236  159.5796 H   0  0  0  0  0  0  0  0  0  0  0  0
  148.0709  143.4814  160.9023 H   0  0  0  0  0  0  0  0  0  0  0  0
  145.7321  144.2168  160.3537 H   0  0  0  0  0  0  0  0  0  0  0  0
  146.3349  143.0885  159.1585 H   0  0  0  0  0  0  0  0  0  0  0  0
  146.2865  144.8109  158.7926 H   0  0  0  0  0  0  0  0  0  0  0  0
  147.2181  145.7440  161.5984 H   0  0  0  0  0  0  0  0  0  0  0  0
  147.9181  146.4463  160.1447 H   0  0  0  0  0  0  0  0  0  0  0  0
  148.9549  145.7434  161.3865 H   0  0  0  0  0  0  0  0  0  0  0  0
  148.4481  142.0247  158.9730 H   0  0  0  0  0  0  0  0  0  0  0  0
  148.3514  142.9169  157.4604 H   0  0  0  0  0  0  0  0  0  0  0  0
  150.6741  141.6329  158.8311 H   0  0  0  0  0  0  0  0  0  0  0  0
  149.3092  140.0740  157.9046 H   0  0  0  0  0  0  0  0  0  0  0  0
  149.3710  138.8458  156.6443 H   0  0  0  0  0  0  0  0  0  0  0  0
  152.1154  139.8338  159.4841 H   0  0  0  0  0  0  0  0  0  0  0  0
  152.8119  137.3578  160.5046 H   0  0  0  0  0  0  0  0  0  0  0  0
  148.7447  144.8000  158.3861 H   0  0  0  0  0  0  0  0  0  0  0  0
  1  2  1  0  0  0  0
  1 20  1  0  0  0  0
  1 21  1  0  0  0  0
  1 22  1  0  0  0  0
  2  9  1  0  0  0  0
  2  3  1  0  0  0  0
  2 23  1  0  0  0  0
  3  4  1  0  0  0  0
  3 24  1  0  0  0  0
  3 25  1  0  0  0  0
  4  5  1  0  0  0  0
  4  8  1  0  0  0  0
  4 40  1  0  0  0  0
  5  6  1  0  0  0  0
  5  7  1  0  0  0  0
  5 26  1  0  0  0  0
  6 27  1  0  0  0  0
  6 28  1  0  0  0  0
  6 29  1  0  0  0  0
  7 30  1  0  0  0  0
  7 31  1  0  0  0  0
  7 32  1  0  0  0  0
  8  9  1  0  0  0  0
  8 33  1  0  0  0  0
  8 34  1  0  0  0  0
  9 10  1  0  0  0  0
  9 35  1  0  0  0  0
 10 11  1  0  0  0  0
 11 12  2  0  0  0  0
 11 13  2  0  0  0  0
 11 14  1  0  0  0  0
 14 15  1  0  0  0  0
 14 36  1  0  0  0  0
 14 37  1  0  0  0  0
 15 19  2  0  0  0  0
 15 16  1  0  0  0  0
 16 17  2  0  0  0  0
 16 38  1  0  0  0  0
 17 18  1  0  0  0  0
 17 39  1  0  0  0  0
 18 19  1  0  0  0  0
M  CHG  1   4   1
M  CHG  1  10  -1
M  END
> <s_m_source_file>
AV-unprocessed.smi

> <i_m_source_file_index>
686

> <i_lp_mmshare_version>
43012

> <i_f3d_flags>
0

> <s_epik_input>
W0NIM11bQ0BASF0xW0NIMl1OKFtDSF0oW0NIM10pW0NIM10pW0NIMl1bQ0BIXTFbTkhdUyg9TykoPU8pW0NIMl1jMltjSF1bY0hdb24y

> <s_epik_cmdline>
J2VwaWtfcHl0aG9uJywgJy1waCcsICc3LjAnLCAnLXRuJywgJzgnLCAnLW1hJywgJzIwMCcsICctbWV0YWxfYmluZGluZycsICctaW1hZScsICc8aW5maWxlLm1hZT4nLCAnLW9tYWUnLCAnPG91dGZpbGUubWFlPic=

> <r_epik_Ionization_Penalty>
3.62478

> <r_epik_Ionization_Penalty_Charging>
3.62478

> <r_epik_Ionization_Penalty_Neutral>
2.03645e-10

> <r_epik_State_Penalty>
3.6247

> <r_epik_Charging_Adjusted_Penalty>
7.24949

> <i_epik_Tot_Q>
0

> <i_epik_Tot_abs_Q>
2

> <r_epik_Metal_State_Penalty>
0.530836

> <b_epik_Metal_Only>
1

> <s_lp_Force_Field>
OPLS_2005

> <r_lp_Energy>
16.7108

> <b_lp_Chiralities_Consistent>
1

> <s_lp_Variant>
AV-unprocessed.smi:686-11

> <Gold.Version>
5.8.1

> <Gold.Id.Protein>
6NUR|6NUR_protein|mol2

> <Gold.PLP.Fitness>
44.9069

> <Gold.PLP.PLP>
-30.1599

> <Gold.PLP.part.hbond>
-4.0000

> <Gold.PLP.part.metal>
0.0000

> <Gold.PLP.part.buried>
-4.5021

> <Gold.PLP.part.nonpolar>
-21.4522

> <Gold.PLP.part.repulsive>
0.2692

> <Gold.PLP.ligand.clash>
0.0000

> <Gold.PLP.ligand.torsion>
0.6515

> <Gold.PLP.Chemscore.Hbond>
5.0000

> <Gold.PLP.Chemscore.CHOScore>
0.0000

> <Gold.PLP.Chemscore.Metal>
0.0000

> <Gold.Chemscore.Hbonds>
donor molecule, donor type, donor heavy atom, donor atom, acceptor molecule, acceptor atom, score
      L1  H     4    40       P1  8029  2.00
      P1  H  6896  6908       L1    18  1.00
      P1  H  7989  7998       L1    12  1.00
      P1  H  7997  8009       L1    13  1.00

> <Gold.PLP.Chemscore.Internal.Correction>
1.0499

> <Gold.Rescore>
     Score         DG    S(hbond)    S(metal)    S(lipo)     H(rot)  DE(clash)    DE(int)     intcor
     20.13     -22.16       3.77        0.00      70.24       1.61       0.05       1.98       ----

> <Gold.Chemscore.Fitness>
20.1309

> <Gold.Chemscore.DG>
-22.1634

> <Gold.Chemscore.ZeroCoef>
-5.4800

> <Gold.Chemscore.Hbond>
3.7722

> <Gold.Chemscore.Metal>
0.0000

> <Gold.Chemscore.Lipo>
70.2435

> <Gold.Chemscore.Internal_Hbond>
0.0000

> <Gold.Chemscore.DEClash>
0.0499

> <Gold.Chemscore.DEInternal>
1.9826

> <Gold.Chemscore.Rot>
1.6149

> <Gold.Chemscore.Internal.Correction>
   9.000000E+99

> <Gold.Chemscore.Hbonds>
donor molecule, donor type, donor heavy atom, donor atom, acceptor molecule, acceptor atom, score
      L1  H     4    40       P1  8029  0.78
      P1  H  6896  6908       L1    18  0.91
      P1  H  7989  7998       L1    12  1.00
      P1  H  7997  8009       L1    13  0.96

> <Gold.Chemscore.Hbond.Weighted>
-12.5990

> <Gold.Chemscore.Metal.Weighted>
-0.0000

> <Gold.Chemscore.Lipo.Weighted>
-8.2185

> <Gold.Chemscore.Internal_Hbond.Weighted>
0.0000

> <Gold.Chemscore.DEClash.Weighted>
0.0499

> <Gold.Chemscore.DEInternal.Weighted>
1.9826

> <Gold.Chemscore.Rot.Weighted>
4.1341

> <Gold.Chemscore.Internal.Correction.Weighted>
   9.000000E+99

> <Gold.Protein.RotatedTorsions>
[ 6907 6896 6895 6894 ] final -129.72 input  -60.11 | X-H torsion
[ 7974 7965 7964 7962 ] final -102.58 input  175.53 | X-H torsion
[ 8008 7997 7996 7995 ] final -174.53 input   59.86 | X-H torsion
[ 10167 10162 10161 10158 ] final  -11.44 input  -65.29 | X-H torsion
[ 10718 10713 10712 10709 ] final  155.32 input   66.30 | X-H torsion
[ 10763 10752 10751 10750 ] final   59.95 input  -60.55 | X-H torsion
[ 11005 11000 10999 10996 ] final  -15.98 input  -57.11 | X-H torsion

> <Gold.Protein.ActiveResidues>
 VAL166  LYS551  ARG553  GLY616  TRP617  ASP618  TYR619  PRO620  LYS621  CYS622 
 ASP623  PHE694  ASN695  SER759  ASP760  ASP761  ALA762  ILE779  LEU786  VAL792 
 PHE793  MET794  SER795  GLU796  ALA797  LYS798  CYS799  TRP800  GLU811  SER814 

> <Gold.Protein.RotatedAtoms>
  150.9319  133.6757  159.2808 H   0  0  0  0  0  0  0  0  0  0  0  0  # atno 6907 bound_to 6896
  151.4176  135.0992  159.9614 H   0  0  0  0  0  0  0  0  0  0  0  0  # atno 6908 bound_to 6896
  152.5030  133.8778  159.7386 H   0  0  0  0  0  0  0  0  0  0  0  0  # atno 6909 bound_to 6896
  145.2669  140.9286  143.3009 H   0  0  0  0  0  0  0  0  0  0  0  0  # atno 7974 bound_to 7965
  155.9712  140.1163  157.0811 H   0  0  0  0  0  0  0  0  0  0  0  0  # atno 8008 bound_to 7997
  154.4157  140.1163  156.5376 H   0  0  0  0  0  0  0  0  0  0  0  0  # atno 8009 bound_to 7997
  155.6594  140.3473  155.4779 H   0  0  0  0  0  0  0  0  0  0  0  0  # atno 8010 bound_to 7997
  140.7138  143.5639  150.9166 H   0  0  0  0  0  0  0  0  0  0  0  0  # atno 10167 bound_to 10162
  157.2199  131.0716  151.1918 H   0  0  0  0  0  0  0  0  0  0  0  0  # atno 10718 bound_to 10713
  152.9908  135.5553  154.5796 H   0  0  0  0  0  0  0  0  0  0  0  0  # atno 10763 bound_to 10752
  154.5180  135.2806  155.1289 H   0  0  0  0  0  0  0  0  0  0  0  0  # atno 10764 bound_to 10752
  154.2654  135.6373  153.5343 H   0  0  0  0  0  0  0  0  0  0  0  0  # atno 10765 bound_to 10752
  140.8021  133.8205  155.9480 H   0  0  0  0  0  0  0  0  0  0  0  0  # atno 11005 bound_to 11000
  144.9369  139.4233  143.6467 LP  0  0  0  0  0  0  0  0  0  0  0  0  # atno 17320 bound_to 7965
  146.3258  139.8309  142.8908 LP  0  0  0  0  0  0  0  0  0  0  0  0  # atno 17321 bound_to 7965
  139.9364  143.6432  152.3064 LP  0  0  0  0  0  0  0  0  0  0  0  0  # atno 17342 bound_to 10162
  139.6902  144.7647  151.1453 LP  0  0  0  0  0  0  0  0  0  0  0  0  # atno 17343 bound_to 10162
  157.3586  130.7120  149.6487 LP  0  0  0  0  0  0  0  0  0  0  0  0  # atno 17370 bound_to 10713
  155.9683  130.4232  150.4550 LP  0  0  0  0  0  0  0  0  0  0  0  0  # atno 17371 bound_to 10713
  140.9284  134.2053  157.4880 LP  0  0  0  0  0  0  0  0  0  0  0  0  # atno 17394 bound_to 11000
  139.8721  134.9822  156.5147 LP  0  0  0  0  0  0  0  0  0  0  0  0  # atno 17395 bound_to 11000

$$$$
