AV-unprocessed.smi:1027|AV-procd|sdf|4471|dock3
  -GOLD-   22720 2443D 1   1.00000     0.00000
 Structure written by MMmdl.
 34 35  0  0  0  0  0  0  0  0  2 V2000
  152.2337  143.9974  161.5923 C   0  0  0  0  0  0  0  0  0  0  0  0
  152.6894  143.3992  160.2488 C   0  0  0  0  0  0  0  0  0  0  0  0
  151.7259  143.8520  159.1341 C   0  0  0  0  0  0  0  0  0  0  0  0
  152.8353  141.8553  160.3065 C   0  0  2  0  0  0  0  0  0  0  0  0
  154.0656  141.3884  161.1077 C   0  0  0  0  0  0  0  0  0  0  0  0
  152.9181  141.3070  158.9521 N   0  0  0  0  0  0  0  0  0  0  0  0
  152.2185  140.2709  158.4661 C   0  0  0  0  0  0  0  0  0  0  0  0
  151.4195  139.6715  159.1895 O   0  0  0  0  0  0  0  0  0  0  0  0
  152.4880  139.9944  157.1697 N   0  5  0  0  0  0  0  0  0  0  0  0
  151.5581  140.2223  156.2274 C   0  0  0  0  0  0  0  0  0  0  0  0
  151.5338  139.5545  155.0655 N   0  0  0  0  0  0  0  0  0  0  0  0
  150.4931  139.9446  154.2352 N   0  0  0  0  0  0  0  0  0  0  0  0
  149.7486  140.9097  154.7798 C   0  0  0  0  0  0  0  0  0  0  0  0
  148.5659  141.4958  154.0838 C   0  0  0  0  0  0  0  0  0  0  0  0
  147.2149  141.5880  154.7594 C   0  0  0  0  0  0  0  0  0  0  0  0
  147.4249  140.6162  153.6265 C   0  0  0  0  0  0  0  0  0  0  0  0
  150.2792  141.4276  156.3722 S   0  0  0  0  0  0  0  0  0  0  0  0
  151.2868  143.5653  161.9171 H   0  0  0  0  0  0  0  0  0  0  0  0
  152.0953  145.0762  161.5143 H   0  0  0  0  0  0  0  0  0  0  0  0
  152.9673  143.8316  162.3804 H   0  0  0  0  0  0  0  0  0  0  0  0
  153.6686  143.8224  160.0199 H   0  0  0  0  0  0  0  0  0  0  0  0
  150.7329  143.4235  159.2738 H   0  0  0  0  0  0  0  0  0  0  0  0
  152.0784  143.5579  158.1453 H   0  0  0  0  0  0  0  0  0  0  0  0
  151.6201  144.9370  159.1227 H   0  0  0  0  0  0  0  0  0  0  0  0
  151.9422  141.4570  160.7916 H   0  0  0  0  0  0  0  0  0  0  0  0
  153.9934  141.6653  162.1588 H   0  0  0  0  0  0  0  0  0  0  0  0
  154.9850  141.8173  160.7084 H   0  0  0  0  0  0  0  0  0  0  0  0
  154.1668  140.3029  161.0763 H   0  0  0  0  0  0  0  0  0  0  0  0
  153.5604  141.7619  158.3200 H   0  0  0  0  0  0  0  0  0  0  0  0
  148.8684  142.3170  153.4371 H   0  0  0  0  0  0  0  0  0  0  0  0
  147.1088  141.1702  155.7586 H   0  0  0  0  0  0  0  0  0  0  0  0
  146.6136  142.4719  154.5581 H   0  0  0  0  0  0  0  0  0  0  0  0
  146.9637  140.8505  152.6692 H   0  0  0  0  0  0  0  0  0  0  0  0
  147.4718  139.5579  153.8758 H   0  0  0  0  0  0  0  0  0  0  0  0
  1  2  1  0  0  0  0
  1 18  1  0  0  0  0
  1 19  1  0  0  0  0
  1 20  1  0  0  0  0
  2  3  1  0  0  0  0
  2  4  1  0  0  0  0
  2 21  1  0  0  0  0
  3 22  1  0  0  0  0
  3 23  1  0  0  0  0
  3 24  1  0  0  0  0
  4  5  1  0  0  0  0
  4  6  1  0  0  0  0
  4 25  1  0  0  0  0
  5 26  1  0  0  0  0
  5 27  1  0  0  0  0
  5 28  1  0  0  0  0
  6  7  1  0  0  0  0
  6 29  1  0  0  0  0
  7  8  2  0  0  0  0
  7  9  1  0  0  0  0
  9 10  1  0  0  0  0
 10 17  1  0  0  0  0
 10 11  2  0  0  0  0
 11 12  1  0  0  0  0
 12 13  2  0  0  0  0
 13 14  1  0  0  0  0
 13 17  1  0  0  0  0
 14 16  1  0  0  0  0
 14 15  1  0  0  0  0
 14 30  1  0  0  0  0
 15 16  1  0  0  0  0
 15 31  1  0  0  0  0
 15 32  1  0  0  0  0
 16 33  1  0  0  0  0
 16 34  1  0  0  0  0
M  CHG  1   9  -1
M  END
> <s_m_source_file>
AV-unprocessed.smi

> <i_m_source_file_index>
1027

> <i_lp_mmshare_version>
43012

> <i_f3d_flags>
0

> <s_epik_input>
W0NIM11bQ0hdKFtDSDNdKVtDQEhdKFtDSDNdKVtOSF1DKD1PKVtOSF1jMW5uYyhzMSlbQ0hdMltDSDJdW0NIMl0y

> <s_epik_cmdline>
J2VwaWtfcHl0aG9uJywgJy1waCcsICc3LjAnLCAnLXRuJywgJzgnLCAnLW1hJywgJzIwMCcsICctbWV0YWxfYmluZGluZycsICctaW1hZScsICc8aW5maWxlLm1hZT4nLCAnLW9tYWUnLCAnPG91dGZpbGUubWFlPic=

> <r_lp_tautomer_probability>
1

> <r_epik_Ionization_Penalty>
3.99975

> <r_epik_Ionization_Penalty_Charging>
3.83446

> <r_epik_Ionization_Penalty_Neutral>
0.165297

> <r_epik_State_Penalty>
3.83354

> <r_epik_Charging_Adjusted_Penalty>
7.668

> <i_epik_Tot_Q>
-1

> <i_epik_Tot_abs_Q>
1

> <r_epik_Metal_State_Penalty>
0.575872

> <b_epik_Metal_Only>
1

> <s_lp_Force_Field>
OPLS_2005

> <r_lp_Energy>
2.28672

> <b_lp_Chiralities_Consistent>
1

> <s_lp_Variant>
AV-unprocessed.smi:1027-3

> <Gold.Version>
5.8.1

> <Gold.Id.Protein>
6NUR|6NUR_protein|mol2

> <Gold.PLP.Fitness>
44.6632

> <Gold.PLP.PLP>
-40.1610

> <Gold.PLP.part.hbond>
-2.9891

> <Gold.PLP.part.metal>
0.0000

> <Gold.PLP.part.buried>
-1.8280

> <Gold.PLP.part.nonpolar>
-35.8260

> <Gold.PLP.part.repulsive>
0.2636

> <Gold.PLP.ligand.clash>
0.0000

> <Gold.PLP.ligand.torsion>
1.2784

> <Gold.PLP.Chemscore.Hbond>
2.3000

> <Gold.PLP.Chemscore.CHOScore>
0.0000

> <Gold.PLP.Chemscore.Metal>
0.0000

> <Gold.Chemscore.Hbonds>
donor molecule, donor type, donor heavy atom, donor atom, acceptor molecule, acceptor atom, score
      P1  H  7989  7998       L1    12  0.24
      P1  H  7997  8008       L1     9  2.00

> <Gold.PLP.Chemscore.Internal.Correction>
0.1589

> <Gold.Rescore>
     Score         DG    S(hbond)    S(metal)    S(lipo)     H(rot)  DE(clash)    DE(int)     intcor
     14.63     -15.73       0.90        0.00      91.62       1.36       0.01       1.09       ----

> <Gold.Chemscore.Fitness>
14.6258

> <Gold.Chemscore.DG>
-15.7305

> <Gold.Chemscore.ZeroCoef>
-5.4800

> <Gold.Chemscore.Hbond>
0.9035

> <Gold.Chemscore.Metal>
0.0000

> <Gold.Chemscore.Lipo>
91.6159

> <Gold.Chemscore.Internal_Hbond>
0.0000

> <Gold.Chemscore.DEClash>
0.0134

> <Gold.Chemscore.DEInternal>
1.0913

> <Gold.Chemscore.Rot>
1.3618

> <Gold.Chemscore.Internal.Correction>
   9.000000E+99

> <Gold.Chemscore.Hbonds>
donor molecule, donor type, donor heavy atom, donor atom, acceptor molecule, acceptor atom, score
      P1  H  7997  8008       L1     9  0.87

> <Gold.Chemscore.Hbond.Weighted>
-3.0177

> <Gold.Chemscore.Metal.Weighted>
-0.0000

> <Gold.Chemscore.Lipo.Weighted>
-10.7191

> <Gold.Chemscore.Internal_Hbond.Weighted>
0.0000

> <Gold.Chemscore.DEClash.Weighted>
0.0134

> <Gold.Chemscore.DEInternal.Weighted>
1.0913

> <Gold.Chemscore.Rot.Weighted>
3.4863

> <Gold.Chemscore.Internal.Correction.Weighted>
   9.000000E+99

> <Gold.Protein.RotatedTorsions>
[ 6907 6896 6895 6894 ] final   72.61 input  -60.11 | X-H torsion
[ 7974 7965 7964 7962 ] final -151.64 input  175.53 | X-H torsion
[ 8008 7997 7996 7995 ] final  -56.29 input   59.86 | X-H torsion
[ 10167 10162 10161 10158 ] final -105.60 input  -65.29 | X-H torsion
[ 10718 10713 10712 10709 ] final  129.35 input   66.30 | X-H torsion
[ 10763 10752 10751 10750 ] final  -68.26 input  -60.55 | X-H torsion
[ 11005 11000 10999 10996 ] final -123.50 input  -57.11 | X-H torsion

> <Gold.Protein.ActiveResidues>
 VAL166  LYS551  ARG553  GLY616  TRP617  ASP618  TYR619  PRO620  LYS621  CYS622 
 ASP623  PHE694  ASN695  SER759  ASP760  ASP761  ALA762  ILE779  LEU786  VAL792 
 PHE793  MET794  SER795  GLU796  ALA797  LYS798  CYS799  TRP800  GLU811  SER814 

> <Gold.Protein.RotatedAtoms>
  152.4877  134.4546  159.9585 H   0  0  0  0  0  0  0  0  0  0  0  0  # atno 6907 bound_to 6896
  151.4539  133.3604  159.2807 H   0  0  0  0  0  0  0  0  0  0  0  0  # atno 6908 bound_to 6896
  150.9002  134.8439  159.7415 H   0  0  0  0  0  0  0  0  0  0  0  0  # atno 6909 bound_to 6896
  144.7839  140.4771  143.5820 H   0  0  0  0  0  0  0  0  0  0  0  0  # atno 7974 bound_to 7965
  154.4225  140.1133  156.5613 H   0  0  0  0  0  0  0  0  0  0  0  0  # atno 8008 bound_to 7997
  155.6308  140.3495  155.4663 H   0  0  0  0  0  0  0  0  0  0  0  0  # atno 8009 bound_to 7997
  155.9949  140.1187  157.0592 H   0  0  0  0  0  0  0  0  0  0  0  0  # atno 8010 bound_to 7997
  140.1968  143.3849  152.1162 H   0  0  0  0  0  0  0  0  0  0  0  0  # atno 10167 bound_to 10162
  157.5162  131.1097  150.9221 H   0  0  0  0  0  0  0  0  0  0  0  0  # atno 10718 bound_to 10713
  154.3864  135.6062  153.5819 H   0  0  0  0  0  0  0  0  0  0  0  0  # atno 10763 bound_to 10752
  152.9787  135.5873  154.4349 H   0  0  0  0  0  0  0  0  0  0  0  0  # atno 10764 bound_to 10752
  154.4127  135.2844  155.2004 H   0  0  0  0  0  0  0  0  0  0  0  0  # atno 10765 bound_to 10752
  140.9914  134.0533  157.3650 H   0  0  0  0  0  0  0  0  0  0  0  0  # atno 11005 bound_to 11000
  145.5976  139.1501  143.3147 LP  0  0  0  0  0  0  0  0  0  0  0  0  # atno 17320 bound_to 7965
  146.2061  140.6099  142.9080 LP  0  0  0  0  0  0  0  0  0  0  0  0  # atno 17321 bound_to 7965
  139.5233  144.7070  151.5324 LP  0  0  0  0  0  0  0  0  0  0  0  0  # atno 17342 bound_to 10162
  140.6418  143.8874  150.6699 LP  0  0  0  0  0  0  0  0  0  0  0  0  # atno 17343 bound_to 10162
  156.9846  130.5540  149.5298 LP  0  0  0  0  0  0  0  0  0  0  0  0  # atno 17370 bound_to 10713
  156.0322  130.5412  150.8563 LP  0  0  0  0  0  0  0  0  0  0  0  0  # atno 17371 bound_to 10713
  139.8994  135.0158  156.7194 LP  0  0  0  0  0  0  0  0  0  0  0  0  # atno 17394 bound_to 11000
  140.7034  133.9286  155.8038 LP  0  0  0  0  0  0  0  0  0  0  0  0  # atno 17395 bound_to 11000

$$$$
