AV-unprocessed.smi:3025|AV-procd|sdf|11507|dock4
  -GOLD-   2272016443D 1   1.00000     0.00000
 Structure written by MMmdl.
 42 43  0  0  0  0  0  0  0  0  2 V2000
  151.8559  141.1131  159.2749 C   0  0  0  0  0  0  0  0  0  0  0  0
  151.2991  140.5204  157.9756 C   0  0  0  0  0  0  0  0  0  0  0  0
  151.0677  141.5892  156.8939 C   0  0  0  0  0  0  0  0  0  0  0  0
  150.4763  141.0401  155.5791 C   0  0  2  0  0  0  0  0  0  0  0  0
  148.9775  141.3721  155.4189 C   0  0  0  0  0  0  0  0  0  0  0  0
  148.3974  140.7950  154.1173 C   0  0  0  0  0  0  0  0  0  0  0  0
  148.6151  139.2709  154.0232 C   0  0  1  0  0  0  0  0  0  0  0  0
  148.1109  138.7258  152.7430 N   0  3  0  0  0  0  0  0  0  0  0  0
  146.6400  138.6383  152.6307 C   0  0  0  0  0  0  0  0  0  0  0  0
  146.1342  137.2606  153.0782 C   0  0  0  0  0  0  0  0  0  0  0  0
  145.5003  136.5071  151.9564 C   0  0  0  0  0  0  0  0  0  0  0  0
  146.0799  136.4404  150.7569 N   0  0  0  0  0  0  0  0  0  0  0  0
  145.2229  135.6519  150.0729 N   0  0  0  0  0  0  0  0  0  0  0  0
  144.2277  135.2958  150.8837 C   0  0  0  0  0  0  0  0  0  0  0  0
  144.3415  135.7956  152.1073 N   0  0  0  0  0  0  0  0  0  0  0  0
  150.1110  138.9435  154.1751 C   0  0  0  0  0  0  0  0  0  0  0  0
  150.6846  139.5154  155.4812 C   0  0  0  0  0  0  0  0  0  0  0  0
  152.0045  140.3353  160.0239 H   0  0  0  0  0  0  0  0  0  0  0  0
  151.1741  141.8529  159.6954 H   0  0  0  0  0  0  0  0  0  0  0  0
  152.8167  141.5996  159.1057 H   0  0  0  0  0  0  0  0  0  0  0  0
  151.9924  139.7613  157.6145 H   0  0  0  0  0  0  0  0  0  0  0  0
  150.3611  140.0071  158.1902 H   0  0  0  0  0  0  0  0  0  0  0  0
  150.3858  142.3384  157.2984 H   0  0  0  0  0  0  0  0  0  0  0  0
  152.0017  142.1137  156.6881 H   0  0  0  0  0  0  0  0  0  0  0  0
  151.0181  141.5001  154.7510 H   0  0  0  0  0  0  0  0  0  0  0  0
  148.4199  140.9795  156.2702 H   0  0  0  0  0  0  0  0  0  0  0  0
  148.8235  142.4507  155.4210 H   0  0  0  0  0  0  0  0  0  0  0  0
  147.3358  141.0369  154.0706 H   0  0  0  0  0  0  0  0  0  0  0  0
  148.8642  141.2883  153.2636 H   0  0  0  0  0  0  0  0  0  0  0  0
  148.0782  138.7813  154.8376 H   0  0  0  0  0  0  0  0  0  0  0  0
  148.4709  139.2884  151.9851 H   0  0  0  0  0  0  0  0  0  0  0  0
  146.1854  139.4168  153.2449 H   0  0  0  0  0  0  0  0  0  0  0  0
  146.3348  138.8201  151.6002 H   0  0  0  0  0  0  0  0  0  0  0  0
  146.9602  136.6699  153.4773 H   0  0  0  0  0  0  0  0  0  0  0  0
  145.4115  137.3693  153.8883 H   0  0  0  0  0  0  0  0  0  0  0  0
  143.4116  134.6579  150.5765 H   0  0  0  0  0  0  0  0  0  0  0  0
  150.2606  137.8632  154.1552 H   0  0  0  0  0  0  0  0  0  0  0  0
  150.6682  139.3477  153.3287 H   0  0  0  0  0  0  0  0  0  0  0  0
  151.7475  139.2793  155.5420 H   0  0  0  0  0  0  0  0  0  0  0  0
  150.2115  139.0233  156.3323 H   0  0  0  0  0  0  0  0  0  0  0  0
  148.4746  137.7886  152.6461 H   0  0  0  0  0  0  0  0  0  0  0  0
  145.3568  135.3936  149.1055 H   0  0  0  0  0  0  0  0  0  0  0  0
  1  2  1  0  0  0  0
  1 18  1  0  0  0  0
  1 19  1  0  0  0  0
  1 20  1  0  0  0  0
  2  3  1  0  0  0  0
  2 21  1  0  0  0  0
  2 22  1  0  0  0  0
  3  4  1  0  0  0  0
  3 23  1  0  0  0  0
  3 24  1  0  0  0  0
  4 17  1  0  0  0  0
  4  5  1  0  0  0  0
  4 25  1  0  0  0  0
  5  6  1  0  0  0  0
  5 26  1  0  0  0  0
  5 27  1  0  0  0  0
  6  7  1  0  0  0  0
  6 28  1  0  0  0  0
  6 29  1  0  0  0  0
  7  8  1  0  0  0  0
  7 16  1  0  0  0  0
  7 30  1  0  0  0  0
  8  9  1  0  0  0  0
  8 31  1  0  0  0  0
  8 41  1  0  0  0  0
  9 10  1  0  0  0  0
  9 32  1  0  0  0  0
  9 33  1  0  0  0  0
 10 34  1  0  0  0  0
 10 35  1  0  0  0  0
 10 11  1  0  0  0  0
 11 15  1  0  0  0  0
 11 12  2  0  0  0  0
 12 13  1  0  0  0  0
 13 14  1  0  0  0  0
 13 42  1  0  0  0  0
 14 15  2  0  0  0  0
 14 36  1  0  0  0  0
 16 17  1  0  0  0  0
 16 37  1  0  0  0  0
 16 38  1  0  0  0  0
 17 39  1  0  0  0  0
 17 40  1  0  0  0  0
M  CHG  1   8   1
M  END
> <s_m_source_file>
AV-unprocessed.smi

> <i_m_source_file_index>
3025

> <i_lp_mmshare_version>
43012

> <i_f3d_flags>
0

> <s_epik_input>
W0NIM11bQ0gyXVtDSDJdW0NAQEhdMVtDSDJdW0NIMl1bQ0BIXShbQ0gyXVtDSDJdMSlbTkhdW0NIMl1bQ0gyXWMybm5bY0hdW25IXTI=

> <s_epik_cmdline>
J2VwaWtfcHl0aG9uJywgJy1waCcsICc3LjAnLCAnLXRuJywgJzgnLCAnLW1hJywgJzIwMCcsICctbWV0YWxfYmluZGluZycsICctaW1hZScsICc8aW5maWxlLm1hZT4nLCAnLW9tYWUnLCAnPG91dGZpbGUubWFlPic=

> <r_epik_Ionization_Penalty>
0.00995411

> <r_epik_Ionization_Penalty_Charging>
0.000442289

> <r_epik_Ionization_Penalty_Neutral>
0.00951182

> <r_epik_State_Penalty>
0.448541

> <r_epik_Charging_Adjusted_Penalty>
0.448983

> <i_epik_Tot_Q>
1

> <i_epik_Tot_abs_Q>
1

> <r_epik_Metal_State_Penalty>
0.682245

> <b_epik_Metal_Only>
0

> <s_lp_Force_Field>
OPLS_2005

> <r_lp_Energy>
10.682

> <b_lp_Chiralities_Consistent>
1

> <s_lp_Variant>
AV-unprocessed.smi:3025-3

> <Gold.Version>
5.8.1

> <Gold.Id.Protein>
6NUR|6NUR_protein|mol2

> <Gold.PLP.Fitness>
44.8194

> <Gold.PLP.PLP>
-32.7942

> <Gold.PLP.part.hbond>
-3.7569

> <Gold.PLP.part.metal>
0.0000

> <Gold.PLP.part.buried>
-4.6592

> <Gold.PLP.part.nonpolar>
-26.7036

> <Gold.PLP.part.repulsive>
0.7210

> <Gold.PLP.ligand.clash>
0.0000

> <Gold.PLP.ligand.torsion>
1.5084

> <Gold.PLP.Chemscore.Hbond>
4.0000

> <Gold.PLP.Chemscore.CHOScore>
1.0000

> <Gold.PLP.Chemscore.Metal>
0.0000

> <Gold.Chemscore.Hbonds>
donor molecule, donor type, donor heavy atom, donor atom, acceptor molecule, acceptor atom, score
      L1  H     8    31       P1  7957  1.00
      L1  H     8    41       P1  7948  2.00
      L1  H    13    42       P1  7921  1.00
      L1  C    14    36       P1 10186  0.79

> <Gold.PLP.Chemscore.Internal.Correction>
0.0421

> <Gold.Rescore>
     Score         DG    S(hbond)    S(metal)    S(lipo)     H(rot)  DE(clash)    DE(int)     intcor
     15.46     -17.07       2.95        0.00      70.78       2.56       0.22       1.38       ----

> <Gold.Chemscore.Fitness>
15.4638

> <Gold.Chemscore.DG>
-17.0691

> <Gold.Chemscore.ZeroCoef>
-5.4800

> <Gold.Chemscore.Hbond>
2.9528

> <Gold.Chemscore.Metal>
0.0000

> <Gold.Chemscore.Lipo>
70.7787

> <Gold.Chemscore.Internal_Hbond>
0.0000

> <Gold.Chemscore.DEClash>
0.2225

> <Gold.Chemscore.DEInternal>
1.3827

> <Gold.Chemscore.Rot>
2.5602

> <Gold.Chemscore.Internal.Correction>
   9.000000E+99

> <Gold.Chemscore.Hbonds>
donor molecule, donor type, donor heavy atom, donor atom, acceptor molecule, acceptor atom, score
      L1  H     8    31       P1  7957  0.95
      L1  H     8    41       P1  7948  0.99
      L1  H    13    42       P1  7921  1.00

> <Gold.Chemscore.Hbond.Weighted>
-9.8622

> <Gold.Chemscore.Metal.Weighted>
-0.0000

> <Gold.Chemscore.Lipo.Weighted>
-8.2811

> <Gold.Chemscore.Internal_Hbond.Weighted>
0.0000

> <Gold.Chemscore.DEClash.Weighted>
0.2225

> <Gold.Chemscore.DEInternal.Weighted>
1.3827

> <Gold.Chemscore.Rot.Weighted>
6.5542

> <Gold.Chemscore.Internal.Correction.Weighted>
   9.000000E+99

> <Gold.Protein.RotatedTorsions>
[ 6907 6896 6895 6894 ] final -145.38 input  -60.11 | X-H torsion
[ 7974 7965 7964 7962 ] final    3.52 input  175.53 | X-H torsion
[ 8008 7997 7996 7995 ] final -151.71 input   59.86 | X-H torsion
[ 10167 10162 10161 10158 ] final  178.76 input  -65.29 | X-H torsion
[ 10718 10713 10712 10709 ] final  173.51 input   66.30 | X-H torsion
[ 10763 10752 10751 10750 ] final -140.72 input  -60.55 | X-H torsion
[ 11005 11000 10999 10996 ] final  144.72 input  -57.11 | X-H torsion

> <Gold.Protein.ActiveResidues>
 VAL166  LYS551  ARG553  GLY616  TRP617  ASP618  TYR619  PRO620  LYS621  CYS622 
 ASP623  PHE694  ASN695  SER759  ASP760  ASP761  ALA762  ILE779  LEU786  VAL792 
 PHE793  MET794  SER795  GLU796  ALA797  LYS798  CYS799  TRP800  GLU811  SER814 

> <Gold.Protein.RotatedAtoms>
  151.1270  133.5063  159.2600 H   0  0  0  0  0  0  0  0  0  0  0  0  # atno 6907 bound_to 6896
  151.1799  135.0355  159.8798 H   0  0  0  0  0  0  0  0  0  0  0  0  # atno 6908 bound_to 6896
  152.5458  134.1124  159.8417 H   0  0  0  0  0  0  0  0  0  0  0  0  # atno 6909 bound_to 6896
  146.2445  140.0672  142.8364 H   0  0  0  0  0  0  0  0  0  0  0  0  # atno 7974 bound_to 7965
  155.6438  140.0704  157.2610 H   0  0  0  0  0  0  0  0  0  0  0  0  # atno 8008 bound_to 7997
  154.4178  140.1745  156.1650 H   0  0  0  0  0  0  0  0  0  0  0  0  # atno 8009 bound_to 7997
  155.9834  140.3351  155.6687 H   0  0  0  0  0  0  0  0  0  0  0  0  # atno 8010 bound_to 7997
  139.5307  144.2641  152.0682 H   0  0  0  0  0  0  0  0  0  0  0  0  # atno 10167 bound_to 10162
  156.9632  131.0067  151.2922 H   0  0  0  0  0  0  0  0  0  0  0  0  # atno 10718 bound_to 10713
  154.8569  135.3545  154.5752 H   0  0  0  0  0  0  0  0  0  0  0  0  # atno 10763 bound_to 10752
  153.6364  135.7000  153.5262 H   0  0  0  0  0  0  0  0  0  0  0  0  # atno 10764 bound_to 10752
  153.3007  135.4207  155.1209 H   0  0  0  0  0  0  0  0  0  0  0  0  # atno 10765 bound_to 10752
  140.0655  134.9181  157.1257 H   0  0  0  0  0  0  0  0  0  0  0  0  # atno 11005 bound_to 11000
  145.0847  140.9245  143.4804 LP  0  0  0  0  0  0  0  0  0  0  0  0  # atno 17320 bound_to 7965
  145.0833  139.2944  143.5772 LP  0  0  0  0  0  0  0  0  0  0  0  0  # atno 17321 bound_to 7965
  140.2104  144.4568  150.6388 LP  0  0  0  0  0  0  0  0  0  0  0  0  # atno 17342 bound_to 10162
  140.6484  143.2219  151.6134 LP  0  0  0  0  0  0  0  0  0  0  0  0  # atno 17343 bound_to 10162
  157.5643  130.8267  149.8307 LP  0  0  0  0  0  0  0  0  0  0  0  0  # atno 17370 bound_to 10713
  156.0313  130.3764  150.1679 LP  0  0  0  0  0  0  0  0  0  0  0  0  # atno 17371 bound_to 10713
  140.3706  134.2395  155.7178 LP  0  0  0  0  0  0  0  0  0  0  0  0  # atno 17394 bound_to 11000
  141.1991  133.8020  157.0553 LP  0  0  0  0  0  0  0  0  0  0  0  0  # atno 17395 bound_to 11000

$$$$
