#       Name:                AV-unprocessed.smi:910
#       Creating user name   scv26
#       Creation time:       Fri Mar 27 02:03:17 2020


#       File generated by GOLD software.
#

@<TRIPOS>MOLECULE
AV-unprocessed.smi:910
    53    54     1
SMALL
NO_CHARGES


@<TRIPOS>ATOM
      1 ****        -3.2359   5.5956   0.0860 C.3            1 S1                 0.0000
      2 ****        -3.0649   4.1966   0.5882 C.2            1 S1                 0.0000
      3 ****        -1.9014   3.5174   0.8595 N.pl3          1 S1                 1.0000
      4 ****        -2.1874   2.2874   1.2885 C.2            1 S1                 0.0000
      5 ****        -1.2677   1.2777   1.6684 N.am           1 S1                 0.0000
      6 ****         0.0732   1.3555   1.6510 C.2            1 S1                 0.0000
      7 ****         0.7173   2.3456   1.3023 O.2            1 S1                 0.0000
      8 ****         0.6373   0.2084   2.0547 N.am           1 S1                 0.0000
      9 ****         2.0724  -0.0553   2.0881 C.3            1 S1                 0.0000
     10 ****         2.6335  -0.3061   0.6808 C.3            1 S1                 0.0000
     11 ****         1.9396  -1.4050   0.1094 O.3            1 S1                 0.0000
     12 ****         2.2753  -1.6853  -1.2449 C.3            1 S1                 0.0000
     13 ****         3.5567  -2.5418  -1.3188 C.3            1 S1                 0.0000
     14 ****         3.3490  -3.9305  -0.6926 C.3            1 S1                 0.0000
     15 ****         2.1599  -4.6592  -1.3369 C.3            1 S1                 0.0000
     16 ****         0.8782  -3.8136  -1.2644 C.3            1 S1                 0.0000
     17 ****         1.0824  -2.4211  -1.8946 C.3            1 S1                 0.0000
     18 ****        -0.2033  -1.5795  -1.8539 C.3            1 S1                 0.0000
     19 ****        -3.5329   2.1007   1.3208 O.3            1 S1                 0.0000
     20 ****        -4.0656   3.2961   0.8804 C.2            1 S1                 0.0000
     21 ****        -5.5520   3.3936   0.8059 C.3            1 S1                 0.0000
     22 ****        -3.5895   5.6017  -0.9451 H              1 S1                 0.0000
     23 ****        -2.2950   6.1455   0.1161 H              1 S1                 0.0000
     24 ****        -3.9591   6.1461   0.6880 H              1 S1                 0.0000
     25 ****        -0.9812   3.9230   0.7394 H              1 S1                 0.0000
     26 ****         0.0340  -0.5553   2.3240 H              1 S1                 0.0000
     27 ****         2.5950   0.7767   2.5626 H              1 S1                 0.0000
     28 ****         2.2448  -0.9302   2.7153 H              1 S1                 0.0000
     29 ****         2.5132   0.5849   0.0630 H              1 S1                 0.0000
     30 ****         3.7009  -0.5175   0.7416 H              1 S1                 0.0000
     31 ****         2.4337  -0.7513  -1.7869 H              1 S1                 0.0000
     32 ****         3.8460  -2.6617  -2.3636 H              1 S1                 0.0000
     33 ****         4.3912  -2.0356  -0.8346 H              1 S1                 0.0000
     34 ****         4.2545  -4.5273  -0.8050 H              1 S1                 0.0000
     35 ****         3.1787  -3.8279   0.3797 H              1 S1                 0.0000
     36 ****         2.3908  -4.8829  -2.3793 H              1 S1                 0.0000
     37 ****         2.0007  -5.6184  -0.8434 H              1 S1                 0.0000
     38 ****         0.0684  -4.3375  -1.7731 H              1 S1                 0.0000
     39 ****         0.5695  -3.7087  -0.2235 H              1 S1                 0.0000
     40 ****         1.3278  -2.5730  -2.9467 H              1 S1                 0.0000
     41 ****        -0.5327  -1.4011  -0.8298 H              1 S1                 0.0000
     42 ****        -1.0156  -2.0810  -2.3804 H              1 S1                 0.0000
     43 ****        -0.0525  -0.6096  -2.3287 H              1 S1                 0.0000
     44 ****        -5.9450   3.9505   1.6565 H              1 S1                 0.0000
     45 ****        -6.0109   2.4047   0.8077 H              1 S1                 0.0000
     46 ****        -5.8615   3.9057  -0.1053 H              1 S1                 0.0000
     47 ****        -1.6718   0.4045   1.9734 H              1 S1                 0.0000
     48 ****         0.2407   3.1723   1.0033 LP             1 S1                 0.0000
     49 ****         1.7170   2.3228   1.3182 LP             1 S1                 0.0000
     50 ****         0.9597  -1.2105   0.1529 LP             1 S1                 0.0000
     51 ****         2.1426  -2.2183   0.6547 LP             1 S1                 0.0000
     52 ****        -3.8385   1.9005   2.2517 LP             1 S1                 0.0000
     53 ****        -3.7992   1.3516   0.7142 LP             1 S1                 0.0000
@<TRIPOS>BOND
    1    1   22 1     
    2    1   23 1     
    3    1   24 1     
    4    1    2 1     
    5    2    3 1     
    6    2   20 2     
    7    3   25 1     
    8    3    4 2     
    9    4   19 1     
   10    4    5 1     
   11    5    6 am    
   12    5   47 1     
   13    6    8 am    
   14    6    7 2     
   15    8    9 1     
   16    8   26 1     
   17    9   10 1     
   18    9   27 1     
   19    9   28 1     
   20   10   11 1     
   21   10   29 1     
   22   10   30 1     
   23   11   12 1     
   24   12   17 1     
   25   12   13 1     
   26   12   31 1     
   27   13   14 1     
   28   13   32 1     
   29   13   33 1     
   30   14   15 1     
   31   14   34 1     
   32   14   35 1     
   33   15   16 1     
   34   15   36 1     
   35   15   37 1     
   36   16   17 1     
   37   16   38 1     
   38   16   39 1     
   39   17   18 1     
   40   17   40 1     
   41   18   41 1     
   42   18   42 1     
   43   18   43 1     
   44   19   20 1     
   45   20   21 1     
   46   21   44 1     
   47   21   45 1     
   48   21   46 1     
   49    7   48 1     
   50    7   49 1     
   51   11   50 1     
   52   11   51 1     
   53   19   52 1     
   54   19   53 1     
@<TRIPOS>SUBSTRUCTURE
      1 S1             1
@<TRIPOS>SET
LONE_PAIRS      STATIC     ATOMS    <user>   **** ""
6 48 49 50 51 52 53
DONOR_HYDROGENS      STATIC     ATOMS    <user>   **** ""
3 25 47 26
ATOM$BLUE        STATIC     ATOMS    COLORGROUP SYSTEM
6 48 49 50 51 52 53
ATOM$RED        STATIC     ATOMS    COLORGROUP SYSTEM
3 25 47 26
