AV-unprocessed.smi:34|AV-procd|sdf|236|dock1
  -GOLD-   2262015573D 1   1.00000     0.00000
 Structure written by MMmdl.
 54 58  0  0  0  0  0  0  0  0  2 V2000
  152.8678  140.1536  158.2394 O   0  0  0  0  0  0  0  0  0  0  0  0
  151.9377  140.8430  157.8156 C   0  0  0  0  0  0  0  0  0  0  0  0
  151.0855  140.5577  156.7988 N   0  5  0  0  0  0  0  0  0  0  0  0
  151.2125  139.4058  156.1217 C   0  0  0  0  0  0  0  0  0  0  0  0
  151.6722  139.4084  154.8445 N   0  0  0  0  0  0  0  0  0  0  0  0
  151.7929  138.2609  154.1666 C   0  0  0  0  0  0  0  0  0  0  0  0
  151.5103  137.0168  154.5641 N   0  0  0  0  0  0  0  0  0  0  0  0
  151.0386  136.9997  155.8450 C   0  0  0  0  0  0  0  0  0  0  0  0
  150.8622  138.1442  156.6771 C   0  0  0  0  0  0  0  0  0  0  0  0
  150.3662  137.7782  157.9195 N   0  0  0  0  0  0  0  0  0  0  0  0
  150.2688  136.4572  157.7915 C   0  0  0  0  0  0  0  0  0  0  0  0
  150.6419  135.9164  156.6147 N   0  0  0  0  0  0  0  0  0  0  0  0
  150.6219  134.4660  156.2454 C   0  0  1  0  0  0  0  0  0  0  0  0
  150.0387  133.7299  157.2768 O   0  0  0  0  0  0  0  0  0  0  0  0
  149.1817  132.7158  156.7520 C   0  0  1  0  0  0  0  0  0  0  0  0
  147.7491  132.9933  157.2292 C   0  0  0  0  0  0  0  0  0  0  0  0
  147.7909  133.7389  158.4354 O   0  0  0  0  0  0  0  0  0  0  0  0
  148.1326  133.1361  159.5906 C   0  0  0  0  0  0  0  0  0  0  0  0
  148.5030  131.9626  159.6650 O   0  0  0  0  0  0  0  0  0  0  0  0
  148.0143  134.0379  160.7727 C   0  0  0  0  0  0  0  0  0  0  0  0
  147.9240  133.4750  162.0674 C   0  0  0  0  0  0  0  0  0  0  0  0
  147.8121  134.3010  163.2028 C   0  0  0  0  0  0  0  0  0  0  0  0
  147.7879  135.7001  163.0573 C   0  0  0  0  0  0  0  0  0  0  0  0
  147.8766  136.2726  161.7750 C   0  0  0  0  0  0  0  0  0  0  0  0
  147.9898  135.4482  160.6384 C   0  0  0  0  0  0  0  0  0  0  0  0
  149.3353  132.7698  155.2264 C   0  0  2  0  0  0  0  0  0  0  0  0
  150.2668  131.8945  154.8438 F   0  0  0  0  0  0  0  0  0  0  0  0
  149.8348  134.1766  154.9599 C   0  0  1  0  0  0  0  0  0  0  0  0
  148.7646  135.0700  154.7127 O   0  0  0  0  0  0  0  0  0  0  0  0
  151.7110  142.2044  158.4172 C   0  0  0  0  0  0  0  0  0  0  0  0
  152.4775  142.6135  159.5322 C   0  0  0  0  0  0  0  0  0  0  0  0
  152.2643  143.8735  160.1249 C   0  0  0  0  0  0  0  0  0  0  0  0
  151.2744  144.7343  159.6149 C   0  0  0  0  0  0  0  0  0  0  0  0
  150.4954  144.3326  158.5139 C   0  0  0  0  0  0  0  0  0  0  0  0
  150.7084  143.0729  157.9205 C   0  0  0  0  0  0  0  0  0  0  0  0
  152.1700  138.3534  153.1590 H   0  0  0  0  0  0  0  0  0  0  0  0
  149.9064  135.8446  158.6038 H   0  0  0  0  0  0  0  0  0  0  0  0
  151.6717  134.1805  156.1626 H   0  0  0  0  0  0  0  0  0  0  0  0
  149.5069  131.7499  157.1409 H   0  0  0  0  0  0  0  0  0  0  0  0
  147.2159  133.5722  156.4738 H   0  0  0  0  0  0  0  0  0  0  0  0
  147.2010  132.0617  157.3746 H   0  0  0  0  0  0  0  0  0  0  0  0
  147.9391  132.4033  162.2038 H   0  0  0  0  0  0  0  0  0  0  0  0
  147.7447  133.8599  164.1863 H   0  0  0  0  0  0  0  0  0  0  0  0
  147.7019  136.3333  163.9281 H   0  0  0  0  0  0  0  0  0  0  0  0
  147.8577  137.3465  161.6621 H   0  0  0  0  0  0  0  0  0  0  0  0
  148.0570  135.9204  159.6693 H   0  0  0  0  0  0  0  0  0  0  0  0
  148.4245  132.5165  154.6817 H   0  0  0  0  0  0  0  0  0  0  0  0
  150.5089  134.2181  154.1035 H   0  0  0  0  0  0  0  0  0  0  0  0
  148.8356  135.3865  153.8249 H   0  0  0  0  0  0  0  0  0  0  0  0
  153.2400  141.9638  159.9370 H   0  0  0  0  0  0  0  0  0  0  0  0
  152.8601  144.1782  160.9722 H   0  0  0  0  0  0  0  0  0  0  0  0
  151.1102  145.6998  160.0699 H   0  0  0  0  0  0  0  0  0  0  0  0
  149.7312  144.9890  158.1251 H   0  0  0  0  0  0  0  0  0  0  0  0
  150.0920  142.7793  157.0830 H   0  0  0  0  0  0  0  0  0  0  0  0
  1  2  2  0  0  0  0
  2  3  1  0  0  0  0
  2 30  1  0  0  0  0
  3  4  1  0  0  0  0
  4  9  1  0  0  0  0
  4  5  2  0  0  0  0
  5  6  1  0  0  0  0
  6  7  2  0  0  0  0
  6 36  1  0  0  0  0
  7  8  1  0  0  0  0
  8 12  1  0  0  0  0
  8  9  2  0  0  0  0
  9 10  1  0  0  0  0
 10 11  2  0  0  0  0
 11 12  1  0  0  0  0
 11 37  1  0  0  0  0
 12 13  1  0  0  0  0
 13 28  1  0  0  0  0
 13 14  1  0  0  0  0
 13 38  1  0  0  0  0
 14 15  1  0  0  0  0
 15 16  1  0  0  0  0
 15 26  1  0  0  0  0
 15 39  1  0  0  0  0
 16 17  1  0  0  0  0
 16 40  1  0  0  0  0
 16 41  1  0  0  0  0
 17 18  1  0  0  0  0
 18 19  2  0  0  0  0
 18 20  1  0  0  0  0
 20 25  1  0  0  0  0
 20 21  2  0  0  0  0
 21 22  1  0  0  0  0
 21 42  1  0  0  0  0
 22 23  2  0  0  0  0
 22 43  1  0  0  0  0
 23 24  1  0  0  0  0
 23 44  1  0  0  0  0
 24 25  2  0  0  0  0
 24 45  1  0  0  0  0
 25 46  1  0  0  0  0
 26 27  1  0  0  0  0
 26 28  1  0  0  0  0
 26 47  1  0  0  0  0
 28 29  1  0  0  0  0
 28 48  1  0  0  0  0
 29 49  1  0  0  0  0
 30 35  1  0  0  0  0
 30 31  2  0  0  0  0
 31 32  1  0  0  0  0
 31 50  1  0  0  0  0
 32 33  2  0  0  0  0
 32 51  1  0  0  0  0
 33 34  1  0  0  0  0
 33 52  1  0  0  0  0
 34 35  2  0  0  0  0
 34 53  1  0  0  0  0
 35 54  1  0  0  0  0
M  CHG  1   3  -1
M  END
> <s_m_source_file>
AV-unprocessed.smi

> <i_m_source_file_index>
34

> <i_lp_mmshare_version>
43012

> <i_f3d_flags>
0

> <s_epik_input>
W2NIXTFbY0hdW2NIXVtjSF1bY0hdYzFDKD1PKVtOSF1jKG5bY0hdbjIpYyhjMjMpbltjSF1uM1tDQEBIXTRPW0NASF0oW0NAQEhdKEYpW0NASF00W09IXSlbQ0gyXU9DKD1PKWM1W2NIXVtjSF1bY0hdW2NIXVtjSF01

> <s_epik_cmdline>
J2VwaWtfcHl0aG9uJywgJy1waCcsICc3LjAnLCAnLXRuJywgJzgnLCAnLW1hJywgJzIwMCcsICctbWV0YWxfYmluZGluZycsICctaW1hZScsICc8aW5maWxlLm1hZT4nLCAnLW9tYWUnLCAnPG91dGZpbGUubWFlPic=

> <r_lp_tautomer_probability>
1

> <r_epik_Ionization_Penalty>
4.33227

> <r_epik_Ionization_Penalty_Charging>
3.41027

> <r_epik_Ionization_Penalty_Neutral>
0.922001

> <r_epik_State_Penalty>
3.41358

> <r_epik_Charging_Adjusted_Penalty>
6.82385

> <i_epik_Tot_Q>
-1

> <i_epik_Tot_abs_Q>
1

> <r_epik_Metal_State_Penalty>
0.496292

> <b_epik_Metal_Only>
1

> <s_epik_Chemistry_Notes>
This compound has an ester and may undergo hydrolysis at high or low pH. This compound contains an acetal/aminal-like group ( X-CH(R)-Y where X, Y are N, S, or O) that may be acid/base labile, releasing an aldehyde.

> <s_lp_Force_Field>
OPLS_2005

> <r_lp_Energy>
54.5703

> <b_lp_Chiralities_Consistent>
1

> <s_lp_Variant>
AV-unprocessed.smi:34-22

> <Gold.Version>
5.8.1

> <Gold.Id.Protein>
6NUR|6NUR_protein|mol2

> <Gold.PLP.Fitness>
73.5575

> <Gold.PLP.PLP>
-61.4483

> <Gold.PLP.part.hbond>
-5.0000

> <Gold.PLP.part.metal>
0.0000

> <Gold.PLP.part.buried>
-7.8540

> <Gold.PLP.part.nonpolar>
-49.5203

> <Gold.PLP.part.repulsive>
0.1762

> <Gold.PLP.ligand.clash>
0.0000

> <Gold.PLP.ligand.torsion>
1.4773

> <Gold.PLP.Chemscore.Hbond>
4.7346

> <Gold.PLP.Chemscore.CHOScore>
0.0000

> <Gold.PLP.Chemscore.Metal>
0.0000

> <Gold.Chemscore.Hbonds>
donor molecule, donor type, donor heavy atom, donor atom, acceptor molecule, acceptor atom, score
      L1  H    29    49       P1  7948  0.78
      P1  H  6896  6907       L1    14  0.77
      P1  H  7989  7998       L1     5  1.00
      P1  H  7997  8008       L1     1  0.83
      P1  H 10752 10764       L1     7  1.00

> <Gold.PLP.Chemscore.Internal.Correction>
0.8599

> <Gold.Rescore>
     Score         DG    S(hbond)    S(metal)    S(lipo)     H(rot)  DE(clash)    DE(int)     intcor
     20.47     -24.63       3.34        0.00     127.34       2.69       0.58       3.58       ----

> <Gold.Chemscore.Fitness>
20.4749

> <Gold.Chemscore.DG>
-24.6349

> <Gold.Chemscore.ZeroCoef>
-5.4800

> <Gold.Chemscore.Hbond>
3.3394

> <Gold.Chemscore.Metal>
0.0000

> <Gold.Chemscore.Lipo>
127.3393

> <Gold.Chemscore.Internal_Hbond>
0.0000

> <Gold.Chemscore.DEClash>
0.5841

> <Gold.Chemscore.DEInternal>
3.5759

> <Gold.Chemscore.Rot>
2.6944

> <Gold.Chemscore.Internal.Correction>
   9.000000E+99

> <Gold.Chemscore.Hbonds>
donor molecule, donor type, donor heavy atom, donor atom, acceptor molecule, acceptor atom, score
      L1  H    29    49       P1  7948  0.65
      P1  H  6896  6907       L1    14  0.71
      P1  H  7989  7998       L1     5  0.53
      P1  H  7997  8008       L1     1  0.69
      P1  H 10752 10764       L1     7  0.64

> <Gold.Chemscore.Hbond.Weighted>
-11.1537

> <Gold.Chemscore.Metal.Weighted>
-0.0000

> <Gold.Chemscore.Lipo.Weighted>
-14.8987

> <Gold.Chemscore.Internal_Hbond.Weighted>
0.0000

> <Gold.Chemscore.DEClash.Weighted>
0.5841

> <Gold.Chemscore.DEInternal.Weighted>
3.5759

> <Gold.Chemscore.Rot.Weighted>
6.8975

> <Gold.Chemscore.Internal.Correction.Weighted>
   9.000000E+99

> <Gold.Protein.RotatedTorsions>
[ 6907 6896 6895 6894 ] final -115.45 input  -60.11 | X-H torsion
[ 7974 7965 7964 7962 ] final  -81.74 input  175.53 | X-H torsion
[ 8008 7997 7996 7995 ] final  -82.67 input   59.86 | X-H torsion
[ 10167 10162 10161 10158 ] final  -94.98 input  -65.29 | X-H torsion
[ 10718 10713 10712 10709 ] final -127.34 input   66.30 | X-H torsion
[ 10763 10752 10751 10750 ] final  -72.91 input  -60.55 | X-H torsion
[ 11005 11000 10999 10996 ] final  141.89 input  -57.11 | X-H torsion

> <Gold.Protein.ActiveResidues>
 VAL166  LYS551  ARG553  GLY616  TRP617  ASP618  TYR619  PRO620  LYS621  CYS622 
 ASP623  PHE694  ASN695  SER759  ASP760  ASP761  ALA762  ILE779  LEU786  VAL792 
 PHE793  MET794  SER795  GLU796  ALA797  LYS798  CYS799  TRP800  GLU811  SER814 

> <Gold.Protein.RotatedAtoms>
  150.7979  133.8656  159.3243 H   0  0  0  0  0  0  0  0  0  0  0  0  # atno 6907 bound_to 6896
  151.6476  135.1003  160.0163 H   0  0  0  0  0  0  0  0  0  0  0  0  # atno 6908 bound_to 6896
  152.4063  133.6855  159.6394 H   0  0  0  0  0  0  0  0  0  0  0  0  # atno 6909 bound_to 6896
  145.5426  140.9507  143.1543 H   0  0  0  0  0  0  0  0  0  0  0  0  # atno 7974 bound_to 7965
  154.6110  140.0630  156.9493 H   0  0  0  0  0  0  0  0  0  0  0  0  # atno 8008 bound_to 7997
  155.1974  140.3312  155.4330 H   0  0  0  0  0  0  0  0  0  0  0  0  # atno 8009 bound_to 7997
  156.2376  140.1870  156.7059 H   0  0  0  0  0  0  0  0  0  0  0  0  # atno 8010 bound_to 7997
  140.3089  143.3117  152.0169 H   0  0  0  0  0  0  0  0  0  0  0  0  # atno 10167 bound_to 10162
  156.1848  130.6756  151.0350 H   0  0  0  0  0  0  0  0  0  0  0  0  # atno 10718 bound_to 10713
  154.4522  135.5914  153.6199 H   0  0  0  0  0  0  0  0  0  0  0  0  # atno 10763 bound_to 10752
  152.9814  135.6023  154.3591 H   0  0  0  0  0  0  0  0  0  0  0  0  # atno 10764 bound_to 10752
  154.3453  135.2841  155.2380 H   0  0  0  0  0  0  0  0  0  0  0  0  # atno 10765 bound_to 10752
  140.0435  134.9292  157.0887 H   0  0  0  0  0  0  0  0  0  0  0  0  # atno 11005 bound_to 11000
  144.7569  139.7052  143.7250 LP  0  0  0  0  0  0  0  0  0  0  0  0  # atno 17320 bound_to 7965
  146.1971  139.5243  142.9767 LP  0  0  0  0  0  0  0  0  0  0  0  0  # atno 17321 bound_to 7965
  139.4898  144.6400  151.6897 LP  0  0  0  0  0  0  0  0  0  0  0  0  # atno 17342 bound_to 10162
  140.5586  144.0307  150.6159 LP  0  0  0  0  0  0  0  0  0  0  0  0  # atno 17343 bound_to 10162
  157.6891  131.0815  150.7158 LP  0  0  0  0  0  0  0  0  0  0  0  0  # atno 17370 bound_to 10713
  156.7215  130.4682  149.5522 LP  0  0  0  0  0  0  0  0  0  0  0  0  # atno 17371 bound_to 10713
  140.4031  134.2061  155.7163 LP  0  0  0  0  0  0  0  0  0  0  0  0  # atno 17394 bound_to 11000
  141.1895  133.8237  157.0954 LP  0  0  0  0  0  0  0  0  0  0  0  0  # atno 17395 bound_to 11000

$$$$
