AV-unprocessed.smi:3031|AV-procd|sdf|11542|dock3
  -GOLD-   2272016493D 1   1.00000     0.00000
 Structure written by MMmdl.
 47 48  0  0  0  0  0  0  0  0  2 V2000
  151.0125  140.2420  156.3060 C   0  0  0  0  0  0  0  0  0  0  0  0
  149.8352  140.6468  155.4668 C   0  0  0  0  0  0  0  0  0  0  0  0
  149.2684  141.9451  155.3207 C   0  0  0  0  0  0  0  0  0  0  0  0
  148.2343  141.9642  154.4951 N   0  0  0  0  0  0  0  0  0  0  0  0
  148.1046  140.6834  154.0877 N   0  0  0  0  0  0  0  0  0  0  0  0
  147.0663  140.3294  153.1370 C   0  0  0  0  0  0  0  0  0  0  0  0
  146.4322  138.9502  153.4239 C   0  0  1  0  0  0  0  0  0  0  0  0
  145.7706  138.9372  154.8084 C   0  0  0  0  0  0  0  0  0  0  0  0
  145.4259  138.5957  152.3965 N   0  3  0  0  0  0  0  0  0  0  0  0
  144.9883  137.1828  152.4052 C   0  0  0  0  0  0  0  0  0  0  0  0
  145.8016  136.3414  151.4072 C   0  0  2  0  0  0  0  0  0  0  0  0
  146.3383  137.2287  150.4458 O   0  0  0  0  0  0  0  0  0  0  0  0
  144.9985  135.2735  150.6313 C   0  0  0  0  0  0  0  0  0  0  0  0
  145.0213  133.9233  151.2031 N   0  0  0  0  0  0  0  0  0  0  0  0
  144.3899  132.9300  150.3322 C   0  0  0  0  0  0  0  0  0  0  0  0
  144.4309  131.5197  150.9456 C   0  0  0  0  0  0  0  0  0  0  0  0
  145.7807  131.1549  151.2098 O   0  0  0  0  0  0  0  0  0  0  0  0
  146.4355  132.0724  152.0790 C   0  0  0  0  0  0  0  0  0  0  0  0
  146.3894  133.4837  151.4676 C   0  0  0  0  0  0  0  0  0  0  0  0
  149.0540  139.8661  154.6628 C   0  0  0  0  0  0  0  0  0  0  0  0
  151.3735  141.0647  156.9233 H   0  0  0  0  0  0  0  0  0  0  0  0
  151.8490  139.9116  155.6903 H   0  0  0  0  0  0  0  0  0  0  0  0
  150.7639  139.4214  156.9789 H   0  0  0  0  0  0  0  0  0  0  0  0
  149.5800  142.8697  155.7841 H   0  0  0  0  0  0  0  0  0  0  0  0
  146.3020  141.1066  153.1795 H   0  0  0  0  0  0  0  0  0  0  0  0
  147.4805  140.3598  152.1276 H   0  0  0  0  0  0  0  0  0  0  0  0
  147.2160  138.1908  153.4341 H   0  0  0  0  0  0  0  0  0  0  0  0
  146.4947  139.1633  155.5918 H   0  0  0  0  0  0  0  0  0  0  0  0
  145.3435  137.9587  155.0307 H   0  0  0  0  0  0  0  0  0  0  0  0
  144.9692  139.6738  154.8744 H   0  0  0  0  0  0  0  0  0  0  0  0
  144.6032  139.1622  152.5463 H   0  0  0  0  0  0  0  0  0  0  0  0
  145.1371  136.8015  153.4092 H   0  0  0  0  0  0  0  0  0  0  0  0
  143.9202  137.1214  152.1920 H   0  0  0  0  0  0  0  0  0  0  0  0
  146.6333  135.8578  151.9218 H   0  0  0  0  0  0  0  0  0  0  0  0
  145.7096  137.9170  150.2877 H   0  0  0  0  0  0  0  0  0  0  0  0
  143.9716  135.6039  150.4674 H   0  0  0  0  0  0  0  0  0  0  0  0
  145.4418  135.2295  149.6348 H   0  0  0  0  0  0  0  0  0  0  0  0
  143.3555  133.1852  150.1240 H   0  0  0  0  0  0  0  0  0  0  0  0
  144.8978  132.9110  149.3665 H   0  0  0  0  0  0  0  0  0  0  0  0
  143.8491  131.4813  151.8676 H   0  0  0  0  0  0  0  0  0  0  0  0
  143.9939  130.7944  150.2593 H   0  0  0  0  0  0  0  0  0  0  0  0
  145.9572  132.0601  153.0597 H   0  0  0  0  0  0  0  0  0  0  0  0
  147.4683  131.7537  152.2214 H   0  0  0  0  0  0  0  0  0  0  0  0
  146.9692  133.4965  150.5431 H   0  0  0  0  0  0  0  0  0  0  0  0
  146.8769  134.1800  152.1508 H   0  0  0  0  0  0  0  0  0  0  0  0
  149.1005  138.8086  154.4477 H   0  0  0  0  0  0  0  0  0  0  0  0
  145.8051  138.8184  151.4872 H   0  0  0  0  0  0  0  0  0  0  0  0
  1  2  1  0  0  0  0
  1 21  1  0  0  0  0
  1 22  1  0  0  0  0
  1 23  1  0  0  0  0
  2 20  2  0  0  0  0
  2  3  1  0  0  0  0
  3  4  2  0  0  0  0
  3 24  1  0  0  0  0
  4  5  1  0  0  0  0
  5  6  1  0  0  0  0
  5 20  1  0  0  0  0
  6  7  1  0  0  0  0
  6 25  1  0  0  0  0
  6 26  1  0  0  0  0
  7  8  1  0  0  0  0
  7  9  1  0  0  0  0
  7 27  1  0  0  0  0
  8 28  1  0  0  0  0
  8 29  1  0  0  0  0
  8 30  1  0  0  0  0
  9 10  1  0  0  0  0
  9 31  1  0  0  0  0
  9 47  1  0  0  0  0
 10 11  1  0  0  0  0
 10 32  1  0  0  0  0
 10 33  1  0  0  0  0
 11 12  1  0  0  0  0
 11 13  1  0  0  0  0
 11 34  1  0  0  0  0
 12 35  1  0  0  0  0
 13 14  1  0  0  0  0
 13 36  1  0  0  0  0
 13 37  1  0  0  0  0
 14 19  1  0  0  0  0
 14 15  1  0  0  0  0
 15 16  1  0  0  0  0
 15 38  1  0  0  0  0
 15 39  1  0  0  0  0
 16 17  1  0  0  0  0
 16 40  1  0  0  0  0
 16 41  1  0  0  0  0
 17 18  1  0  0  0  0
 18 19  1  0  0  0  0
 18 42  1  0  0  0  0
 18 43  1  0  0  0  0
 19 44  1  0  0  0  0
 19 45  1  0  0  0  0
 20 46  1  0  0  0  0
M  CHG  1   9   1
M  END
> <s_m_source_file>
AV-unprocessed.smi

> <i_m_source_file_index>
3031

> <i_lp_mmshare_version>
43012

> <i_f3d_flags>
0

> <s_epik_input>
W0NIM11jMVtjSF1ubihbY0hdMSlbQ0gyXVtDQEhdKFtDSDNdKVtOSF1bQ0gyXVtDQEhdKFtPSF0pW0NIMl1OMltDSDJdW0NIMl1PW0NIMl1bQ0gyXTI=

> <s_epik_cmdline>
J2VwaWtfcHl0aG9uJywgJy1waCcsICc3LjAnLCAnLXRuJywgJzgnLCAnLW1hJywgJzIwMCcsICctbWV0YWxfYmluZGluZycsICctaW1hZScsICc8aW5maWxlLm1hZT4nLCAnLW9tYWUnLCAnPG91dGZpbGUubWFlPic=

> <r_lp_tautomer_probability>
1

> <r_epik_Ionization_Penalty>
0.108564

> <r_epik_Ionization_Penalty_Charging>
0.01811

> <r_epik_Ionization_Penalty_Neutral>
0.0904541

> <r_epik_State_Penalty>
0.141043

> <r_epik_Charging_Adjusted_Penalty>
0.159153

> <i_epik_Tot_Q>
1

> <i_epik_Tot_abs_Q>
1

> <r_epik_Metal_State_Penalty>
0.141052

> <b_epik_Metal_Only>
0

> <s_lp_Force_Field>
OPLS_2005

> <r_lp_Energy>
29.6303

> <b_lp_Chiralities_Consistent>
1

> <s_lp_Variant>
AV-unprocessed.smi:3031-2

> <Gold.Version>
5.8.1

> <Gold.Id.Protein>
6NUR|6NUR_protein|mol2

> <Gold.PLP.Fitness>
49.3651

> <Gold.PLP.PLP>
-38.1647

> <Gold.PLP.part.hbond>
-5.0415

> <Gold.PLP.part.metal>
0.0000

> <Gold.PLP.part.buried>
2.1404

> <Gold.PLP.part.nonpolar>
-35.1813

> <Gold.PLP.part.repulsive>
0.5927

> <Gold.PLP.ligand.clash>
0.0000

> <Gold.PLP.ligand.torsion>
1.6569

> <Gold.PLP.Chemscore.Hbond>
3.7517

> <Gold.PLP.Chemscore.CHOScore>
0.9987

> <Gold.PLP.Chemscore.Metal>
0.0000

> <Gold.Chemscore.Hbonds>
donor molecule, donor type, donor heavy atom, donor atom, acceptor molecule, acceptor atom, score
      L1  H     9    31       P1 10175  2.00
      L1  H    12    35       P1 10171  1.00
      P1  H  7954  7966       L1    12  0.85
      L1  C     3    24       P1  8028  0.87

> <Gold.PLP.Chemscore.Internal.Correction>
0.2631

> <Gold.Rescore>
     Score         DG    S(hbond)    S(metal)    S(lipo)     H(rot)  DE(clash)    DE(int)     intcor
     16.20     -18.23       2.63        0.00      91.40       2.63       0.35       1.68       ----

> <Gold.Chemscore.Fitness>
16.2042

> <Gold.Chemscore.DG>
-18.2335

> <Gold.Chemscore.ZeroCoef>
-5.4800

> <Gold.Chemscore.Hbond>
2.6303

> <Gold.Chemscore.Metal>
0.0000

> <Gold.Chemscore.Lipo>
91.3976

> <Gold.Chemscore.Internal_Hbond>
0.0000

> <Gold.Chemscore.DEClash>
0.3521

> <Gold.Chemscore.DEInternal>
1.6773

> <Gold.Chemscore.Rot>
2.6270

> <Gold.Chemscore.Internal.Correction>
   9.000000E+99

> <Gold.Chemscore.Hbonds>
donor molecule, donor type, donor heavy atom, donor atom, acceptor molecule, acceptor atom, score
      L1  H     9    31       P1 10175  0.97
      L1  H    12    35       P1 10171  0.93
      P1  H  7954  7966       L1    12  0.57

> <Gold.Chemscore.Hbond.Weighted>
-8.7851

> <Gold.Chemscore.Metal.Weighted>
-0.0000

> <Gold.Chemscore.Lipo.Weighted>
-10.6935

> <Gold.Chemscore.Internal_Hbond.Weighted>
0.0000

> <Gold.Chemscore.DEClash.Weighted>
0.3521

> <Gold.Chemscore.DEInternal.Weighted>
1.6773

> <Gold.Chemscore.Rot.Weighted>
6.7251

> <Gold.Chemscore.Internal.Correction.Weighted>
   9.000000E+99

> <Gold.Protein.RotatedTorsions>
[ 6907 6896 6895 6894 ] final   45.51 input  -60.11 | X-H torsion
[ 7974 7965 7964 7962 ] final  -53.02 input  175.53 | X-H torsion
[ 8008 7997 7996 7995 ] final  158.63 input   59.86 | X-H torsion
[ 10167 10162 10161 10158 ] final   74.23 input  -65.29 | X-H torsion
[ 10718 10713 10712 10709 ] final -164.38 input   66.30 | X-H torsion
[ 10763 10752 10751 10750 ] final  141.27 input  -60.55 | X-H torsion
[ 11005 11000 10999 10996 ] final  -89.91 input  -57.11 | X-H torsion

> <Gold.Protein.ActiveResidues>
 VAL166  LYS551  ARG553  GLY616  TRP617  ASP618  TYR619  PRO620  LYS621  CYS622 
 ASP623  PHE694  ASN695  SER759  ASP760  ASP761  ALA762  ILE779  LEU786  VAL792 
 PHE793  MET794  SER795  GLU796  ALA797  LYS798  CYS799  TRP800  GLU811  SER814 

> <Gold.Protein.RotatedAtoms>
  152.2454  134.8187  160.0453 H   0  0  0  0  0  0  0  0  0  0  0  0  # atno 6907 bound_to 6896
  151.8886  133.3506  159.3799 H   0  0  0  0  0  0  0  0  0  0  0  0  # atno 6908 bound_to 6896
  150.7067  134.4873  159.5543 H   0  0  0  0  0  0  0  0  0  0  0  0  # atno 6909 bound_to 6896
  145.9015  140.7990  142.9741 H   0  0  0  0  0  0  0  0  0  0  0  0  # atno 7974 bound_to 7965
  156.2290  140.1853  156.7290 H   0  0  0  0  0  0  0  0  0  0  0  0  # atno 8008 bound_to 7997
  154.5990  140.0639  156.9371 H   0  0  0  0  0  0  0  0  0  0  0  0  # atno 8009 bound_to 7997
  155.2206  140.3307  155.4318 H   0  0  0  0  0  0  0  0  0  0  0  0  # atno 8010 bound_to 7997
  140.0160  144.5578  150.7620 H   0  0  0  0  0  0  0  0  0  0  0  0  # atno 10167 bound_to 10162
  156.6381  130.8957  151.2991 H   0  0  0  0  0  0  0  0  0  0  0  0  # atno 10718 bound_to 10713
  153.9365  135.2984  155.3444 H   0  0  0  0  0  0  0  0  0  0  0  0  # atno 10763 bound_to 10752
  154.7499  135.4985  153.9274 H   0  0  0  0  0  0  0  0  0  0  0  0  # atno 10764 bound_to 10752
  153.1064  135.6748  153.9684 H   0  0  0  0  0  0  0  0  0  0  0  0  # atno 10765 bound_to 10752
  141.1576  133.7659  156.9662 H   0  0  0  0  0  0  0  0  0  0  0  0  # atno 11005 bound_to 11000
  144.6736  140.1684  143.7416 LP  0  0  0  0  0  0  0  0  0  0  0  0  # atno 17320 bound_to 7965
  145.8785  139.2310  143.1619 LP  0  0  0  0  0  0  0  0  0  0  0  0  # atno 17321 bound_to 7965
  140.7362  143.2750  151.3769 LP  0  0  0  0  0  0  0  0  0  0  0  0  # atno 17342 bound_to 10162
  139.6172  144.0978  152.2357 LP  0  0  0  0  0  0  0  0  0  0  0  0  # atno 17343 bound_to 10162
  157.7179  130.9521  150.1326 LP  0  0  0  0  0  0  0  0  0  0  0  0  # atno 17370 bound_to 10713
  156.2180  130.3672  149.8589 LP  0  0  0  0  0  0  0  0  0  0  0  0  # atno 17371 bound_to 10713
  140.1160  134.9447  157.2134 LP  0  0  0  0  0  0  0  0  0  0  0  0  # atno 17394 bound_to 11000
  140.3133  134.2999  155.7262 LP  0  0  0  0  0  0  0  0  0  0  0  0  # atno 17395 bound_to 11000

$$$$
