AV-unprocessed.smi:254|AV-procd|sdf|1948|dock10
  -GOLD-   2262021 83D 1   1.00000     0.00000
 Structure written by MMmdl.
 50 53  0  0  0  0  0  0  0  0  1 V2000
  147.1996  132.5290  159.8970 O   0  0  0  0  0  0  0  0  0  0  0  0
  147.6619  133.6328  159.6124 C   0  0  0  0  0  0  0  0  0  0  0  0
  148.3325  133.9328  158.2844 C   0  0  0  0  0  0  0  0  0  0  0  0
  148.6719  135.3413  158.4456 N   0  0  0  0  0  0  0  0  0  0  0  0
  149.2970  136.0696  157.4849 C   0  0  0  0  0  0  0  0  0  0  0  0
  149.2785  135.5979  156.2103 N   0  0  0  0  0  0  0  0  0  0  0  0
  149.8786  136.2724  155.2260 C   0  0  0  0  0  0  0  0  0  0  0  0
  150.5464  137.4245  155.2923 N   0  0  0  0  0  0  0  0  0  0  0  0
  150.5695  137.9081  156.5665 C   0  0  0  0  0  0  0  0  0  0  0  0
  149.9786  137.3025  157.7134 C   0  0  0  0  0  0  0  0  0  0  0  0
  150.2213  138.0946  158.8315 N   0  0  0  0  0  0  0  0  0  0  0  0
  150.9133  139.1016  158.3743 C   0  0  0  0  0  0  0  0  0  0  0  0
  151.1594  139.0739  157.0213 N   0  0  0  0  0  0  0  0  0  0  0  0
  151.9005  140.0562  156.2480 C   0  0  0  0  0  0  0  0  0  0  0  0
  151.2419  141.4601  156.2315 C   0  0  1  0  0  0  0  0  0  0  0  0
  149.8169  141.4020  155.6227 C   0  0  0  0  0  0  0  0  0  0  0  0
  149.7956  140.7097  154.3924 O   0  0  0  0  0  0  0  0  0  0  0  0
  151.2485  142.0771  157.6579 C   0  0  1  0  0  0  0  0  0  0  0  0
  152.4508  141.7043  158.5107 C   0  0  0  0  0  0  0  0  0  0  0  0
  152.4214  142.7643  159.6062 C   0  0  0  0  0  0  0  0  0  0  0  0
  151.8734  143.9284  159.0005 O   0  0  0  0  0  0  0  0  0  0  0  0
  151.3465  143.6063  157.7177 C   0  0  0  0  0  0  0  0  0  0  0  0
  148.2532  135.8735  159.7348 C   0  0  0  0  0  0  0  0  0  0  0  0
  147.6502  134.7231  160.3875 N   0  0  0  0  0  0  0  0  0  0  0  0
  147.0782  134.8368  161.7273 C   0  0  0  0  0  0  0  0  0  0  0  0
  145.6371  134.3008  161.7986 C   0  0  0  0  0  0  0  0  0  0  0  0
  145.6752  132.9842  161.9987 F   0  0  0  0  0  0  0  0  0  0  0  0
  144.9623  134.8611  162.8020 F   0  0  0  0  0  0  0  0  0  0  0  0
  144.9972  134.5378  160.6534 F   0  0  0  0  0  0  0  0  0  0  0  0
  149.2220  133.3164  158.1492 H   0  0  0  0  0  0  0  0  0  0  0  0
  147.6413  133.7765  157.4553 H   0  0  0  0  0  0  0  0  0  0  0  0
  149.8135  135.8253  154.2450 H   0  0  0  0  0  0  0  0  0  0  0  0
  151.2592  139.8999  159.0150 H   0  0  0  0  0  0  0  0  0  0  0  0
  152.9129  140.1218  156.6484 H   0  0  0  0  0  0  0  0  0  0  0  0
  151.9927  139.6586  155.2376 H   0  0  0  0  0  0  0  0  0  0  0  0
  151.8532  142.0934  155.5868 H   0  0  0  0  0  0  0  0  0  0  0  0
  149.1237  140.8729  156.2750 H   0  0  0  0  0  0  0  0  0  0  0  0
  149.4138  142.4057  155.4846 H   0  0  0  0  0  0  0  0  0  0  0  0
  149.3494  139.8861  154.5182 H   0  0  0  0  0  0  0  0  0  0  0  0
  150.3456  141.7685  158.1875 H   0  0  0  0  0  0  0  0  0  0  0  0
  152.3977  140.6942  158.9175 H   0  0  0  0  0  0  0  0  0  0  0  0
  153.3705  141.7916  157.9300 H   0  0  0  0  0  0  0  0  0  0  0  0
  151.7633  142.4540  160.4183 H   0  0  0  0  0  0  0  0  0  0  0  0
  153.4090  142.9584  160.0250 H   0  0  0  0  0  0  0  0  0  0  0  0
  152.0401  143.9789  156.9626 H   0  0  0  0  0  0  0  0  0  0  0  0
  150.3836  144.0939  157.5642 H   0  0  0  0  0  0  0  0  0  0  0  0
  149.1060  136.2368  160.3096 H   0  0  0  0  0  0  0  0  0  0  0  0
  147.5228  136.6748  159.6135 H   0  0  0  0  0  0  0  0  0  0  0  0
  147.7080  134.2874  162.4284 H   0  0  0  0  0  0  0  0  0  0  0  0
  147.1052  135.8795  162.0479 H   0  0  0  0  0  0  0  0  0  0  0  0
  1  2  2  0  0  0  0
  2 24  1  0  0  0  0
  2  3  1  0  0  0  0
  3  4  1  0  0  0  0
  3 30  1  0  0  0  0
  3 31  1  0  0  0  0
  4  5  1  0  0  0  0
  4 23  1  0  0  0  0
  5 10  1  0  0  0  0
  5  6  2  0  0  0  0
  6  7  1  0  0  0  0
  7  8  2  0  0  0  0
  7 32  1  0  0  0  0
  8  9  1  0  0  0  0
  9 13  1  0  0  0  0
  9 10  2  0  0  0  0
 10 11  1  0  0  0  0
 11 12  2  0  0  0  0
 12 13  1  0  0  0  0
 12 33  1  0  0  0  0
 13 14  1  0  0  0  0
 14 15  1  0  0  0  0
 14 34  1  0  0  0  0
 14 35  1  0  0  0  0
 15 16  1  0  0  0  0
 15 18  1  0  0  0  0
 15 36  1  0  0  0  0
 16 17  1  0  0  0  0
 16 37  1  0  0  0  0
 16 38  1  0  0  0  0
 17 39  1  0  0  0  0
 18 22  1  0  0  0  0
 18 19  1  0  0  0  0
 18 40  1  0  0  0  0
 19 20  1  0  0  0  0
 19 41  1  0  0  0  0
 19 42  1  0  0  0  0
 20 21  1  0  0  0  0
 20 43  1  0  0  0  0
 20 44  1  0  0  0  0
 21 22  1  0  0  0  0
 22 45  1  0  0  0  0
 22 46  1  0  0  0  0
 23 24  1  0  0  0  0
 23 47  1  0  0  0  0
 23 48  1  0  0  0  0
 24 25  1  0  0  0  0
 25 26  1  0  0  0  0
 25 49  1  0  0  0  0
 25 50  1  0  0  0  0
 26 27  1  0  0  0  0
 26 28  1  0  0  0  0
 26 29  1  0  0  0  0
M  END
> <s_m_source_file>
AV-unprocessed.smi

> <i_m_source_file_index>
254

> <i_lp_mmshare_version>
43012

> <i_f3d_flags>
0

> <s_epik_input>
RkMoRikoRilbQ0gyXU4xW0NIMl1OKFtDSDJdQzE9TyljKG5bY0hdbjIpYyhjMjMpbltjSF1uM1tDSDJdW0NASF0oW0NIMl1bT0hdKVtDQEBIXTRbQ0gyXVtDSDJdT1tDSDJdNA==

> <s_epik_cmdline>
J2VwaWtfcHl0aG9uJywgJy1waCcsICc3LjAnLCAnLXRuJywgJzgnLCAnLW1hJywgJzIwMCcsICctbWV0YWxfYmluZGluZycsICctaW1hZScsICc8aW5maWxlLm1hZT4nLCAnLW9tYWUnLCAnPG91dGZpbGUubWFlPic=

> <r_lp_tautomer_probability>
1

> <r_epik_Ionization_Penalty>
0.000292924

> <r_epik_Ionization_Penalty_Charging>
0

> <r_epik_Ionization_Penalty_Neutral>
0.000292924

> <r_epik_State_Penalty>
-0

> <r_epik_Charging_Adjusted_Penalty>
0

> <i_epik_Tot_Q>
0

> <i_epik_Tot_abs_Q>
0

> <r_epik_Metal_State_Penalty>
-0

> <b_epik_Metal_Only>
0

> <s_epik_Chemistry_Notes>
This compound contains an acetal/aminal-like group ( X-CH(R)-Y where X, Y are N, S, or O) that may be acid/base labile, releasing an aldehyde.

> <s_lp_Force_Field>
OPLS_2005

> <r_lp_Energy>
39.6801

> <b_lp_Chiralities_Consistent>
1

> <s_lp_Variant>
AV-unprocessed.smi:254-4

> <Gold.Version>
5.8.1

> <Gold.Id.Protein>
6NUR|6NUR_protein|mol2

> <Gold.PLP.Fitness>
43.2521

> <Gold.PLP.PLP>
-40.5817

> <Gold.PLP.part.hbond>
-1.0000

> <Gold.PLP.part.metal>
0.0000

> <Gold.PLP.part.buried>
-7.6406

> <Gold.PLP.part.nonpolar>
-31.0927

> <Gold.PLP.part.repulsive>
0.1538

> <Gold.PLP.ligand.clash>
0.0000

> <Gold.PLP.ligand.torsion>
1.3353

> <Gold.PLP.Chemscore.Hbond>
0.7040

> <Gold.PLP.Chemscore.CHOScore>
0.9971

> <Gold.PLP.Chemscore.Metal>
0.0000

> <Gold.Chemscore.Hbonds>
donor molecule, donor type, donor heavy atom, donor atom, acceptor molecule, acceptor atom, score
      P1  H  7989  7998       L1    17  0.70
      L1  C     7    32       P1  7948  1.00

> <Gold.PLP.Chemscore.Internal.Correction>
0.2377

> <Gold.Rescore>
     Score         DG    S(hbond)    S(metal)    S(lipo)     H(rot)  DE(clash)    DE(int)     intcor
      5.88      -8.75       0.93        0.00      73.56       3.30       0.05       2.82       ----

> <Gold.Chemscore.Fitness>
5.8786

> <Gold.Chemscore.DG>
-8.7455

> <Gold.Chemscore.ZeroCoef>
-5.4800

> <Gold.Chemscore.Hbond>
0.9281

> <Gold.Chemscore.Metal>
0.0000

> <Gold.Chemscore.Lipo>
73.5645

> <Gold.Chemscore.Internal_Hbond>
0.0000

> <Gold.Chemscore.DEClash>
0.0462

> <Gold.Chemscore.DEInternal>
2.8206

> <Gold.Chemscore.Rot>
3.2974

> <Gold.Chemscore.Internal.Correction>
   9.000000E+99

> <Gold.Chemscore.Hbonds>
donor molecule, donor type, donor heavy atom, donor atom, acceptor molecule, acceptor atom, score
      P1  H  7989  7998       L1    17  0.45

> <Gold.Chemscore.Hbond.Weighted>
-3.0998

> <Gold.Chemscore.Metal.Weighted>
-0.0000

> <Gold.Chemscore.Lipo.Weighted>
-8.6070

> <Gold.Chemscore.Internal_Hbond.Weighted>
0.0000

> <Gold.Chemscore.DEClash.Weighted>
0.0462

> <Gold.Chemscore.DEInternal.Weighted>
2.8206

> <Gold.Chemscore.Rot.Weighted>
8.4414

> <Gold.Chemscore.Internal.Correction.Weighted>
   9.000000E+99

> <Gold.Protein.RotatedTorsions>
[ 6907 6896 6895 6894 ] final  174.45 input  -60.11 | X-H torsion
[ 7974 7965 7964 7962 ] final  -86.67 input  175.53 | X-H torsion
[ 8008 7997 7996 7995 ] final  -29.75 input   59.86 | X-H torsion
[ 10167 10162 10161 10158 ] final  -69.53 input  -65.29 | X-H torsion
[ 10718 10713 10712 10709 ] final  -60.45 input   66.30 | X-H torsion
[ 10763 10752 10751 10750 ] final -107.77 input  -60.55 | X-H torsion
[ 11005 11000 10999 10996 ] final   95.66 input  -57.11 | X-H torsion

> <Gold.Protein.ActiveResidues>
 VAL166  LYS551  ARG553  GLY616  TRP617  ASP618  TYR619  PRO620  LYS621  CYS622 
 ASP623  PHE694  ASN695  SER759  ASP760  ASP761  ALA762  ILE779  LEU786  VAL792 
 PHE793  MET794  SER795  GLU796  ALA797  LYS798  CYS799  TRP800  GLU811  SER814 

> <Gold.Protein.RotatedAtoms>
  151.7522  133.3328  159.3394 H   0  0  0  0  0  0  0  0  0  0  0  0  # atno 6907 bound_to 6896
  150.7531  134.6182  159.6131 H   0  0  0  0  0  0  0  0  0  0  0  0  # atno 6908 bound_to 6896
  152.3461  134.7071  160.0301 H   0  0  0  0  0  0  0  0  0  0  0  0  # atno 6909 bound_to 6896
  145.4767  140.9558  143.1887 H   0  0  0  0  0  0  0  0  0  0  0  0  # atno 7974 bound_to 7965
  154.4277  140.1810  156.1298 H   0  0  0  0  0  0  0  0  0  0  0  0  # atno 8008 bound_to 7997
  156.0077  140.3354  155.6884 H   0  0  0  0  0  0  0  0  0  0  0  0  # atno 8009 bound_to 7997
  155.6154  140.0654  157.2684 H   0  0  0  0  0  0  0  0  0  0  0  0  # atno 8010 bound_to 7997
  140.5423  143.2314  151.7066 H   0  0  0  0  0  0  0  0  0  0  0  0  # atno 10167 bound_to 10162
  156.0989  130.4189  150.0856 H   0  0  0  0  0  0  0  0  0  0  0  0  # atno 10718 bound_to 10713
  154.8095  135.4662  154.0480 H   0  0  0  0  0  0  0  0  0  0  0  0  # atno 10763 bound_to 10752
  153.1922  135.6857  153.8345 H   0  0  0  0  0  0  0  0  0  0  0  0  # atno 10764 bound_to 10752
  153.7859  135.3250  155.3349 H   0  0  0  0  0  0  0  0  0  0  0  0  # atno 10765 bound_to 10752
  139.8787  134.8910  156.4044 H   0  0  0  0  0  0  0  0  0  0  0  0  # atno 11005 bound_to 11000
  144.7913  139.6323  143.7112 LP  0  0  0  0  0  0  0  0  0  0  0  0  # atno 17320 bound_to 7965
  146.2365  139.5915  142.9520 LP  0  0  0  0  0  0  0  0  0  0  0  0  # atno 17321 bound_to 7965
  139.4993  144.3949  152.0241 LP  0  0  0  0  0  0  0  0  0  0  0  0  # atno 17342 bound_to 10162
  140.3059  144.3593  150.6047 LP  0  0  0  0  0  0  0  0  0  0  0  0  # atno 17343 bound_to 10162
  156.8848  130.9569  151.3595 LP  0  0  0  0  0  0  0  0  0  0  0  0  # atno 17370 bound_to 10713
  157.6156  130.8616  149.9023 LP  0  0  0  0  0  0  0  0  0  0  0  0  # atno 17371 bound_to 10713
  140.9244  133.7622  155.9947 LP  0  0  0  0  0  0  0  0  0  0  0  0  # atno 17394 bound_to 11000
  140.8402  134.3075  157.5316 LP  0  0  0  0  0  0  0  0  0  0  0  0  # atno 17395 bound_to 11000

$$$$
