#       Name:                AV-unprocessed.smi:3155
#       Creating user name   scv26
#       Creation time:       Fri Mar 27 17:44:36 2020


#       File generated by GOLD software.
#

@<TRIPOS>MOLECULE
AV-unprocessed.smi:3155
    41    42     1
SMALL
NO_CHARGES


@<TRIPOS>ATOM
      1 ****        -1.6236  -2.3798  -2.6675 C.3            1 S1                 0.0000
      2 ****        -1.5653  -1.2020  -1.6841 C.3            1 S1                 0.0000
      3 ****        -2.1560  -1.6096  -0.3137 C.3            1 S1                 0.0000
      4 ****        -2.4247  -0.4844   0.5648 N.pl3          1 S1                 0.0000
      5 ****        -3.2988   0.5652   0.3714 C.2            1 S1                 0.0000
      6 ****        -3.2187   1.3697   1.4716 C.2            1 S1                 0.0000
      7 ****        -2.2682   0.7130   2.3017 C.2            1 S1                 0.0000
      8 ****        -1.8025  -0.4008   1.7605 N.2            1 S1                 0.0000
      9 ****        -0.1605  -0.8182  -1.5683 N.3            1 S1                 0.0000
     10 ****         0.0217   0.6275  -1.3846 C.3            1 S1                 0.0000
     11 ****         1.5032   0.9961  -1.2520 C.2            1 S1                 0.0000
     12 ****         2.0976   1.4140  -2.2460 O.2            1 S1                 0.0000
     13 ****         2.1115   0.8553  -0.0549 N.am           1 S1                 0.0000
     14 ****         1.4938   0.3450   1.1683 C.3            1 S1                 0.0000
     15 ****         2.6405   0.1377   2.1571 C.3            1 S1                 0.0000
     16 ****         3.7111   1.1161   1.6953 C.3            1 S1                 0.0000
     17 ****         3.5123   1.1994   0.1816 C.3            1 S1                 0.0000
     18 ****        -2.6523  -2.7042  -2.8276 H              1 S1                 0.0000
     19 ****        -1.0604  -3.2380  -2.2984 H              1 S1                 0.0000
     20 ****        -1.2148  -2.1049  -3.6405 H              1 S1                 0.0000
     21 ****        -2.1486  -0.3901  -2.1216 H              1 S1                 0.0000
     22 ****        -3.1043  -2.1274  -0.4625 H              1 S1                 0.0000
     23 ****        -1.4976  -2.3189   0.1915 H              1 S1                 0.0000
     24 ****        -3.8933   0.6540  -0.5260 H              1 S1                 0.0000
     25 ****        -3.7591   2.2860   1.6571 H              1 S1                 0.0000
     26 ****        -1.9069   1.0087   3.2757 H              1 S1                 0.0000
     27 ****         0.3244  -1.1295  -2.3981 H              1 S1                 0.0000
     28 ****        -0.3917   1.1555  -2.2452 H              1 S1                 0.0000
     29 ****        -0.5232   0.9842  -0.5129 H              1 S1                 0.0000
     30 ****         0.7923   1.0879   1.5505 H              1 S1                 0.0000
     31 ****         0.9516  -0.5864   1.0018 H              1 S1                 0.0000
     32 ****         2.3389   0.2952   3.1931 H              1 S1                 0.0000
     33 ****         3.0171  -0.8825   2.0702 H              1 S1                 0.0000
     34 ****         3.5278   2.0937   2.1430 H              1 S1                 0.0000
     35 ****         4.7182   0.8043   1.9736 H              1 S1                 0.0000
     36 ****         4.1470   0.4738  -0.3289 H              1 S1                 0.0000
     37 ****         3.7604   2.1926  -0.1961 H              1 S1                 0.0000
     38 ****        -1.1379  -1.0385   2.1500 LP             1 S1                 0.0000
     39 ****         0.2164  -1.2539  -0.7509 LP             1 S1                 0.0000
     40 ****         1.6133   1.5067  -3.1160 LP             1 S1                 0.0000
     41 ****         3.0647   1.6608  -2.1833 LP             1 S1                 0.0000
@<TRIPOS>BOND
    1    1    2 1     
    2    1   18 1     
    3    1   19 1     
    4    1   20 1     
    5    2    3 1     
    6    2    9 1     
    7    2   21 1     
    8    3    4 1     
    9    3   22 1     
   10    3   23 1     
   11    4    8 1     
   12    4    5 1     
   13    5    6 2     
   14    5   24 1     
   15    6    7 1     
   16    6   25 1     
   17    7    8 2     
   18    7   26 1     
   19    9   10 1     
   20    9   27 1     
   21   10   11 1     
   22   10   28 1     
   23   10   29 1     
   24   11   12 2     
   25   11   13 am    
   26   13   17 1     
   27   13   14 1     
   28   14   15 1     
   29   14   30 1     
   30   14   31 1     
   31   15   16 1     
   32   15   32 1     
   33   15   33 1     
   34   16   17 1     
   35   16   34 1     
   36   16   35 1     
   37   17   36 1     
   38   17   37 1     
   39    8   38 1     
   40    9   39 1     
   41   12   40 1     
   42   12   41 1     
@<TRIPOS>SUBSTRUCTURE
      1 S1             1
@<TRIPOS>SET
LONE_PAIRS      STATIC     ATOMS    <user>   **** ""
4 38 39 40 41
DONOR_HYDROGENS      STATIC     ATOMS    <user>   **** ""
1 27
ATOM$BLUE        STATIC     ATOMS    COLORGROUP SYSTEM
4 38 39 40 41
ATOM$RED        STATIC     ATOMS    COLORGROUP SYSTEM
1 27
