AV-unprocessed.smi:2079|AV-procd|sdf|8481|dock5
  -GOLD-   2272011183D 1   1.00000     0.00000
 Structure written by MMmdl.
 41 42  0  0  0  0  0  0  0  0  3 V2000
  146.8019  135.2820  162.8651 C   0  0  0  0  0  0  0  0  0  0  0  0
  147.4617  135.3141  161.5290 C   0  0  0  0  0  0  0  0  0  0  0  0
  147.9467  134.3349  160.7092 C   0  0  0  0  0  0  0  0  0  0  0  0
  148.4394  135.0621  159.5914 C   0  0  0  0  0  0  0  0  0  0  0  0
  149.0333  134.5377  158.5086 N   0  5  0  0  0  0  0  0  0  0  0  0
  148.7353  135.0048  157.2753 C   0  0  0  0  0  0  0  0  0  0  0  0
  148.1878  136.0775  157.0098 O   0  0  0  0  0  0  0  0  0  0  0  0
  149.0897  134.1732  156.2854 N   0  0  0  0  0  0  0  0  0  0  0  0
  148.8870  134.4096  154.8616 C   0  0  0  0  0  0  0  0  0  0  0  0
  147.4690  134.9419  154.5795 C   0  0  0  0  0  0  0  0  0  0  0  0
  147.0803  134.8510  153.1464 N   0  3  2  0  0  0  0  0  0  0  0  0
  145.8859  135.6838  152.8399 C   0  0  0  0  0  0  0  0  0  0  0  0
  145.6281  135.7603  151.3265 C   0  0  0  0  0  0  0  0  0  0  0  0
  145.4894  134.3607  150.7181 C   0  0  0  0  0  0  0  0  0  0  0  0
  146.7243  133.5176  151.0644 C   0  0  0  0  0  0  0  0  0  0  0  0
  146.9885  133.4659  152.5845 C   0  0  2  0  0  0  0  0  0  0  0  0
  145.9751  132.5640  153.3216 C   0  0  0  0  0  0  0  0  0  0  0  0
  148.2809  136.3678  159.7277 N   0  0  0  0  0  0  0  0  0  0  0  0
  147.6495  136.5375  160.9655 O   0  0  0  0  0  0  0  0  0  0  0  0
  147.5410  135.1539  163.6558 H   0  0  0  0  0  0  0  0  0  0  0  0
  146.0932  134.4561  162.9258 H   0  0  0  0  0  0  0  0  0  0  0  0
  146.2584  136.2075  163.0563 H   0  0  0  0  0  0  0  0  0  0  0  0
  147.9475  133.2690  160.8793 H   0  0  0  0  0  0  0  0  0  0  0  0
  149.5395  133.3078  156.5474 H   0  0  0  0  0  0  0  0  0  0  0  0
  149.6430  135.0994  154.4830 H   0  0  0  0  0  0  0  0  0  0  0  0
  149.0513  133.4562  154.3614 H   0  0  0  0  0  0  0  0  0  0  0  0
  146.7356  134.4360  155.2076 H   0  0  0  0  0  0  0  0  0  0  0  0
  147.4342  135.9926  154.8705 H   0  0  0  0  0  0  0  0  0  0  0  0
  145.0107  135.2888  153.3569 H   0  0  0  0  0  0  0  0  0  0  0  0
  146.0378  136.6947  153.2200 H   0  0  0  0  0  0  0  0  0  0  0  0
  144.7271  136.3425  151.1304 H   0  0  0  0  0  0  0  0  0  0  0  0
  146.4497  136.2899  150.8422 H   0  0  0  0  0  0  0  0  0  0  0  0
  144.5862  133.8786  151.0934 H   0  0  0  0  0  0  0  0  0  0  0  0
  145.3752  134.4321  149.6362 H   0  0  0  0  0  0  0  0  0  0  0  0
  146.6128  132.5093  150.6642 H   0  0  0  0  0  0  0  0  0  0  0  0
  147.5950  133.9444  150.5646 H   0  0  0  0  0  0  0  0  0  0  0  0
  147.9659  132.9976  152.6937 H   0  0  0  0  0  0  0  0  0  0  0  0
  145.9335  131.5770  152.8603 H   0  0  0  0  0  0  0  0  0  0  0  0
  144.9651  132.9721  153.3028 H   0  0  0  0  0  0  0  0  0  0  0  0
  146.2534  132.4095  154.3638 H   0  0  0  0  0  0  0  0  0  0  0  0
  147.8387  135.2903  152.6443 H   0  0  0  0  0  0  0  0  0  0  0  0
  1  2  1  0  0  0  0
  1 20  1  0  0  0  0
  1 21  1  0  0  0  0
  1 22  1  0  0  0  0
  2 19  1  0  0  0  0
  2  3  2  0  0  0  0
  3  4  1  0  0  0  0
  3 23  1  0  0  0  0
  4  5  1  0  0  0  0
  4 18  2  0  0  0  0
  5  6  1  0  0  0  0
  6  7  2  0  0  0  0
  6  8  1  0  0  0  0
  8  9  1  0  0  0  0
  8 24  1  0  0  0  0
  9 10  1  0  0  0  0
  9 25  1  0  0  0  0
  9 26  1  0  0  0  0
 10 11  1  0  0  0  0
 10 27  1  0  0  0  0
 10 28  1  0  0  0  0
 11 16  1  0  0  0  0
 11 12  1  0  0  0  0
 11 41  1  0  0  0  0
 12 13  1  0  0  0  0
 12 29  1  0  0  0  0
 12 30  1  0  0  0  0
 13 14  1  0  0  0  0
 13 31  1  0  0  0  0
 13 32  1  0  0  0  0
 14 15  1  0  0  0  0
 14 33  1  0  0  0  0
 14 34  1  0  0  0  0
 15 16  1  0  0  0  0
 15 35  1  0  0  0  0
 15 36  1  0  0  0  0
 16 17  1  0  0  0  0
 16 37  1  0  0  0  0
 17 38  1  0  0  0  0
 17 39  1  0  0  0  0
 17 40  1  0  0  0  0
 18 19  1  0  0  0  0
M  CHG  1   5  -1
M  CHG  1  11   1
M  END
> <s_m_source_file>
AV-unprocessed.smi

> <i_m_source_file_index>
2079

> <i_lp_mmshare_version>
43012

> <i_f3d_flags>
0

> <s_epik_input>
W0NIM11jMVtjSF1jKG5vMSlbTkhdQyg9TylbTkhdW0NIMl1bQ0gyXU4yW0NIMl1bQ0gyXVtDSDJdW0NIMl1bQ0BIXTJbQ0gzXQ==

> <s_epik_cmdline>
J2VwaWtfcHl0aG9uJywgJy1waCcsICc3LjAnLCAnLXRuJywgJzgnLCAnLW1hJywgJzIwMCcsICctbWV0YWxfYmluZGluZycsICctaW1hZScsICc8aW5maWxlLm1hZT4nLCAnLW9tYWUnLCAnPG91dGZpbGUubWFlPic=

> <r_epik_Ionization_Penalty>
6.22371

> <r_epik_Ionization_Penalty_Charging>
6.22362

> <r_epik_Ionization_Penalty_Neutral>
9.40454e-05

> <r_epik_State_Penalty>
6.22363

> <r_epik_Charging_Adjusted_Penalty>
12.4472

> <i_epik_Tot_Q>
0

> <i_epik_Tot_abs_Q>
2

> <r_epik_Metal_State_Penalty>
2.16675

> <b_epik_Metal_Only>
1

> <s_lp_Force_Field>
OPLS_2005

> <r_lp_Energy>
7.26358

> <b_lp_Chiralities_Consistent>
1

> <s_lp_Variant>
AV-unprocessed.smi:2079-7

> <Gold.Version>
5.8.1

> <Gold.Id.Protein>
6NUR|6NUR_protein|mol2

> <Gold.PLP.Fitness>
43.3396

> <Gold.PLP.PLP>
-27.1599

> <Gold.PLP.part.hbond>
-4.0000

> <Gold.PLP.part.metal>
0.0000

> <Gold.PLP.part.buried>
-3.5855

> <Gold.PLP.part.nonpolar>
-19.4468

> <Gold.PLP.part.repulsive>
0.0370

> <Gold.PLP.ligand.clash>
0.0000

> <Gold.PLP.ligand.torsion>
0.6240

> <Gold.PLP.Chemscore.Hbond>
5.7760

> <Gold.PLP.Chemscore.CHOScore>
0.0000

> <Gold.PLP.Chemscore.Metal>
0.0000

> <Gold.Chemscore.Hbonds>
donor molecule, donor type, donor heavy atom, donor atom, acceptor molecule, acceptor atom, score
      L1  H    11    41       P1  7948  2.00
      P1  H  6896  6908       L1     5  1.10
      P1  H  6931  6943       L1    19  0.10

> <Gold.PLP.Chemscore.Internal.Correction>
0.0996

> <Gold.Rescore>
     Score         DG    S(hbond)    S(metal)    S(lipo)     H(rot)  DE(clash)    DE(int)     intcor
     13.60     -17.01       2.55        0.00      59.51       1.54       0.01       3.40       ----

> <Gold.Chemscore.Fitness>
13.5998

> <Gold.Chemscore.DG>
-17.0111

> <Gold.Chemscore.ZeroCoef>
-5.4800

> <Gold.Chemscore.Hbond>
2.5488

> <Gold.Chemscore.Metal>
0.0000

> <Gold.Chemscore.Lipo>
59.5094

> <Gold.Chemscore.Internal_Hbond>
0.0000

> <Gold.Chemscore.DEClash>
0.0089

> <Gold.Chemscore.DEInternal>
3.4025

> <Gold.Chemscore.Rot>
1.5409

> <Gold.Chemscore.Internal.Correction>
   9.000000E+99

> <Gold.Chemscore.Hbonds>
donor molecule, donor type, donor heavy atom, donor atom, acceptor molecule, acceptor atom, score
      L1  H    11    41       P1  7948  0.99
      P1  H  6896  6908       L1     5  0.03
      P1  H  6931  6943       L1    19  0.03

> <Gold.Chemscore.Hbond.Weighted>
-8.5131

> <Gold.Chemscore.Metal.Weighted>
-0.0000

> <Gold.Chemscore.Lipo.Weighted>
-6.9626

> <Gold.Chemscore.Internal_Hbond.Weighted>
0.0000

> <Gold.Chemscore.DEClash.Weighted>
0.0089

> <Gold.Chemscore.DEInternal.Weighted>
3.4025

> <Gold.Chemscore.Rot.Weighted>
3.9446

> <Gold.Chemscore.Internal.Correction.Weighted>
   9.000000E+99

> <Gold.Protein.RotatedTorsions>
[ 6907 6896 6895 6894 ] final  155.36 input  -60.11 | X-H torsion
[ 7974 7965 7964 7962 ] final  170.77 input  175.53 | X-H torsion
[ 8008 7997 7996 7995 ] final   47.66 input   59.86 | X-H torsion
[ 10167 10162 10161 10158 ] final -109.05 input  -65.29 | X-H torsion
[ 10718 10713 10712 10709 ] final  -16.99 input   66.30 | X-H torsion
[ 10763 10752 10751 10750 ] final  -68.59 input  -60.55 | X-H torsion
[ 11005 11000 10999 10996 ] final   -2.50 input  -57.11 | X-H torsion

> <Gold.Protein.ActiveResidues>
 VAL166  LYS551  ARG553  GLY616  TRP617  ASP618  TYR619  PRO620  LYS621  CYS622 
 ASP623  PHE694  ASN695  SER759  ASP760  ASP761  ALA762  ILE779  LEU786  VAL792 
 PHE793  MET794  SER795  GLU796  ALA797  LYS798  CYS799  TRP800  GLU811  SER814 

> <Gold.Protein.RotatedAtoms>
  152.0452  133.3995  159.4353 H   0  0  0  0  0  0  0  0  0  0  0  0  # atno 6907 bound_to 6896
  150.6873  134.3370  159.4860 H   0  0  0  0  0  0  0  0  0  0  0  0  # atno 6908 bound_to 6896
  152.1173  134.9231  160.0615 H   0  0  0  0  0  0  0  0  0  0  0  0  # atno 6909 bound_to 6896
  144.7314  139.9251  143.6422 H   0  0  0  0  0  0  0  0  0  0  0  0  # atno 7974 bound_to 7965
  155.3728  140.3424  155.4244 H   0  0  0  0  0  0  0  0  0  0  0  0  # atno 8008 bound_to 7997
  156.1653  140.1614  156.8575 H   0  0  0  0  0  0  0  0  0  0  0  0  # atno 8009 bound_to 7997
  154.5179  140.0774  156.8099 H   0  0  0  0  0  0  0  0  0  0  0  0  # atno 8010 bound_to 7997
  140.1595  143.4132  152.1436 H   0  0  0  0  0  0  0  0  0  0  0  0  # atno 10167 bound_to 10162
  156.5798  130.4771  149.6325 H   0  0  0  0  0  0  0  0  0  0  0  0  # atno 10718 bound_to 10713
  154.3913  135.6052  153.5844 H   0  0  0  0  0  0  0  0  0  0  0  0  # atno 10763 bound_to 10752
  152.9787  135.5884  154.4294 H   0  0  0  0  0  0  0  0  0  0  0  0  # atno 10764 bound_to 10752
  154.4079  135.2844  155.2033 H   0  0  0  0  0  0  0  0  0  0  0  0  # atno 10765 bound_to 10752
  140.6591  133.9336  155.8425 H   0  0  0  0  0  0  0  0  0  0  0  0  # atno 11005 bound_to 11000
  146.0900  139.3890  143.0411 LP  0  0  0  0  0  0  0  0  0  0  0  0  # atno 17320 bound_to 7965
  145.7724  140.9891  143.1142 LP  0  0  0  0  0  0  0  0  0  0  0  0  # atno 17321 bound_to 7965
  139.5388  144.7236  151.4804 LP  0  0  0  0  0  0  0  0  0  0  0  0  # atno 17342 bound_to 10162
  140.6652  143.8413  150.6933 LP  0  0  0  0  0  0  0  0  0  0  0  0  # atno 17343 bound_to 10162
  156.2641  130.6979  151.1757 LP  0  0  0  0  0  0  0  0  0  0  0  0  # atno 17370 bound_to 10713
  157.7329  131.0596  150.5604 LP  0  0  0  0  0  0  0  0  0  0  0  0  # atno 17371 bound_to 10713
  141.0479  134.0527  157.3821 LP  0  0  0  0  0  0  0  0  0  0  0  0  # atno 17394 bound_to 11000
  139.9019  135.0167  156.7309 LP  0  0  0  0  0  0  0  0  0  0  0  0  # atno 17395 bound_to 11000

$$$$
