#       Name:                AV-unprocessed.smi:1739
#       Creating user name   scv26
#       Creation time:       Fri Mar 27 08:21:43 2020


#       File generated by GOLD software.
#

@<TRIPOS>MOLECULE
AV-unprocessed.smi:1739
    46    47     1
SMALL
NO_CHARGES


@<TRIPOS>ATOM
      1 ****        -7.2681  -0.0023   0.5994 C.3            1 S1                 0.0000
      2 ****        -6.3582  -0.1121  -0.6305 C.3            1 S1                 0.0000
      3 ****        -5.1046   0.5930  -0.4435 N.pl3          1 S1                 0.0000
      4 ****        -3.8468   0.0595  -0.2421 C.2            1 S1                 0.0000
      5 ****        -3.0047   1.1296  -0.1300 C.2            1 S1                 0.0000
      6 ****        -1.6042   1.1535   0.0910 N.am           1 S1                 0.0000
      7 ****        -0.7794   0.0999   0.2077 C.2            1 S1                 0.0000
      8 ****        -1.1185  -1.0790   0.1027 O.2            1 S1                 0.0000
      9 ****         0.4797   0.4913   0.4514 N.am           1 S1                 0.0000
     10 ****         1.6197  -0.4029   0.6305 C.3            1 S1                 0.0000
     11 ****         2.6680   0.2665   1.5450 C.3            1 S1                 0.0000
     12 ****         3.9641  -0.5618   1.6077 C.3            1 S1                 0.0000
     13 ****         4.4683  -0.7538   0.2429 N.am           1 S1                 0.0000
     14 ****         5.5808  -0.1347  -0.2204 C.2            1 S1                 0.0000
     15 ****         5.9852  -0.3188  -1.6848 C.3            1 S1                 0.0000
     16 ****         6.2877   0.5817   0.4887 O.2            1 S1                 0.0000
     17 ****         3.5465  -1.5625  -0.5644 C.3            1 S1                 0.0000
     18 ****         2.2277  -0.7882  -0.7377 C.3            1 S1                 0.0000
     19 ****        -3.8212   2.2813  -0.2734 C.2            1 S1                 0.0000
     20 ****        -5.0888   1.9492  -0.4658 N.2            1 S1                 0.0000
     21 ****        -8.1949  -0.5551   0.4454 H              1 S1                 0.0000
     22 ****        -7.5322   1.0354   0.8060 H              1 S1                 0.0000
     23 ****        -6.7814  -0.4084   1.4864 H              1 S1                 0.0000
     24 ****        -6.1409  -1.1596  -0.8424 H              1 S1                 0.0000
     25 ****        -6.8589   0.2924  -1.5109 H              1 S1                 0.0000
     26 ****        -3.6761  -1.0059  -0.1969 H              1 S1                 0.0000
     27 ****        -1.1885   2.0693   0.1782 H              1 S1                 0.0000
     28 ****         0.6650   1.4814   0.5192 H              1 S1                 0.0000
     29 ****         1.2871  -1.3162   1.1279 H              1 S1                 0.0000
     30 ****         2.9022   1.2652   1.1724 H              1 S1                 0.0000
     31 ****         2.2613   0.3978   2.5484 H              1 S1                 0.0000
     32 ****         4.6870  -0.0719   2.2613 H              1 S1                 0.0000
     33 ****         3.7670  -1.5342   2.0612 H              1 S1                 0.0000
     34 ****         5.1892   0.0146  -2.3515 H              1 S1                 0.0000
     35 ****         6.2110  -1.3646  -1.8950 H              1 S1                 0.0000
     36 ****         6.8769   0.2660  -1.9130 H              1 S1                 0.0000
     37 ****         3.9457  -1.8382  -1.5393 H              1 S1                 0.0000
     38 ****         3.3569  -2.5069  -0.0520 H              1 S1                 0.0000
     39 ****         1.5183  -1.3880  -1.3092 H              1 S1                 0.0000
     40 ****         2.4167   0.1111  -1.3262 H              1 S1                 0.0000
     41 ****        -3.5435   3.3247  -0.2459 H              1 S1                 0.0000
     42 ****        -2.0735  -1.3098  -0.0837 LP             1 S1                 0.0000
     43 ****        -0.4390  -1.8056   0.2039 LP             1 S1                 0.0000
     44 ****         6.0490   0.7260   1.4491 LP             1 S1                 0.0000
     45 ****         7.1006   1.0194   0.1044 LP             1 S1                 0.0000
     46 ****        -5.8657   2.5647  -0.5986 LP             1 S1                 0.0000
@<TRIPOS>BOND
    1    1    2 1     
    2    1   21 1     
    3    1   22 1     
    4    1   23 1     
    5    2    3 1     
    6    2   24 1     
    7    2   25 1     
    8    3   20 1     
    9    3    4 1     
   10    4    5 2     
   11    4   26 1     
   12    5    6 1     
   13    5   19 1     
   14    6    7 am    
   15    6   27 1     
   16    7    8 2     
   17    7    9 am    
   18    9   10 1     
   19    9   28 1     
   20   10   18 1     
   21   10   11 1     
   22   10   29 1     
   23   11   12 1     
   24   11   30 1     
   25   11   31 1     
   26   12   13 1     
   27   12   32 1     
   28   12   33 1     
   29   13   14 am    
   30   13   17 1     
   31   14   15 1     
   32   14   16 2     
   33   15   34 1     
   34   15   35 1     
   35   15   36 1     
   36   17   18 1     
   37   17   37 1     
   38   17   38 1     
   39   18   39 1     
   40   18   40 1     
   41   19   20 2     
   42   19   41 1     
   43    8   42 1     
   44    8   43 1     
   45   16   44 1     
   46   16   45 1     
   47   20   46 1     
@<TRIPOS>SUBSTRUCTURE
      1 S1             1
@<TRIPOS>SET
LONE_PAIRS      STATIC     ATOMS    <user>   **** ""
5 42 43 44 45 46
DONOR_HYDROGENS      STATIC     ATOMS    <user>   **** ""
2 27 28
ATOM$BLUE        STATIC     ATOMS    COLORGROUP SYSTEM
5 42 43 44 45 46
ATOM$RED        STATIC     ATOMS    COLORGROUP SYSTEM
2 27 28
