AV-unprocessed.smi:471|AV-procd|sdf|2659|dock10
  -GOLD-   2262023 73D 1   1.00000     0.00000
 Structure written by MMmdl.
 16 16  0  0  0  0  0  0  0  0  3 V2000
  150.7519  140.0716  154.5576 O   0  0  0  0  0  0  0  0  0  0  0  0
  151.6159  139.2259  154.8770 C   0  0  0  0  0  0  0  0  0  0  0  0
  152.8334  139.4590  155.0449 O   0  5  0  0  0  0  0  0  0  0  0  0
  151.1428  137.7832  155.0849 C   0  0  0  0  0  0  0  0  0  0  0  0
  150.7773  137.5117  156.4863 N   0  0  0  0  0  0  0  0  0  0  0  0
  149.8078  138.3462  157.0737 C   0  0  0  0  0  0  0  0  0  0  0  0
  149.3820  138.1663  158.3382 C   0  0  0  0  0  0  0  0  0  0  0  0
  149.9468  137.0636  159.1049 C   0  0  0  0  0  0  0  0  0  0  0  0
  149.5748  136.8863  160.2636 O   0  0  0  0  0  0  0  0  0  0  0  0
  150.8698  136.2698  158.4878 N   0  5  0  0  0  0  0  0  0  0  0  0
  151.2914  136.4626  157.1985 C   0  0  0  0  0  0  0  0  0  0  0  0
  152.1165  135.7195  156.6666 O   0  0  0  0  0  0  0  0  0  0  0  0
  150.2687  137.6017  154.4576 H   0  0  0  0  0  0  0  0  0  0  0  0
  151.9125  137.1113  154.7033 H   0  0  0  0  0  0  0  0  0  0  0  0
  149.4350  139.1333  156.4346 H   0  0  0  0  0  0  0  0  0  0  0  0
  148.6379  138.8182  158.7714 H   0  0  0  0  0  0  0  0  0  0  0  0
  1  2  2  0  0  0  0
  2  3  1  0  0  0  0
  2  4  1  0  0  0  0
  4  5  1  0  0  0  0
  4 13  1  0  0  0  0
  4 14  1  0  0  0  0
  5 11  1  0  0  0  0
  5  6  1  0  0  0  0
  6  7  2  0  0  0  0
  6 15  1  0  0  0  0
  7  8  1  0  0  0  0
  7 16  1  0  0  0  0
  8  9  2  0  0  0  0
  8 10  1  0  0  0  0
 10 11  1  0  0  0  0
 11 12  2  0  0  0  0
M  CHG  1   3  -1
M  CHG  1  10  -1
M  END
> <s_m_source_file>
AV-unprocessed.smi

> <i_m_source_file_index>
471

> <i_lp_mmshare_version>
43012

> <i_f3d_flags>
0

> <s_epik_input>
Tz1DKFtPSF0pW0NIMl1uMVtjSF1bY0hdYyg9TylbbkhdYzE9Tw==

> <s_epik_cmdline>
J2VwaWtfcHl0aG9uJywgJy1waCcsICc3LjAnLCAnLXRuJywgJzgnLCAnLW1hJywgJzIwMCcsICctbWV0YWxfYmluZGluZycsICctaW1hZScsICc8aW5maWxlLm1hZT4nLCAnLW9tYWUnLCAnPG91dGZpbGUubWFlPic=

> <r_lp_tautomer_probability>
1

> <r_epik_Ionization_Penalty>
3.94908

> <r_epik_Ionization_Penalty_Charging>
0.000183212

> <r_epik_Ionization_Penalty_Neutral>
3.94889

> <r_epik_State_Penalty>
3.94814

> <r_epik_Charging_Adjusted_Penalty>
3.94832

> <i_epik_Tot_Q>
-2

> <i_epik_Tot_abs_Q>
2

> <r_epik_Metal_State_Penalty>
0.342776

> <b_epik_Metal_Only>
1

> <s_lp_Force_Field>
OPLS_2005

> <r_lp_Energy>
13.443

> <b_lp_Chiralities_Consistent>
1

> <s_lp_Variant>
AV-unprocessed.smi:471-2

> <Gold.Version>
5.8.1

> <Gold.Id.Protein>
6NUR|6NUR_protein|mol2

> <Gold.PLP.Fitness>
33.9484

> <Gold.PLP.PLP>
-16.3799

> <Gold.PLP.part.hbond>
-5.6266

> <Gold.PLP.part.metal>
0.0000

> <Gold.PLP.part.buried>
-3.3903

> <Gold.PLP.part.nonpolar>
-8.2824

> <Gold.PLP.part.repulsive>
0.0978

> <Gold.PLP.ligand.clash>
0.0000

> <Gold.PLP.ligand.torsion>
0.4069

> <Gold.PLP.Chemscore.Hbond>
6.1258

> <Gold.PLP.Chemscore.CHOScore>
0.0000

> <Gold.PLP.Chemscore.Metal>
0.0000

> <Gold.Chemscore.Hbonds>
donor molecule, donor type, donor heavy atom, donor atom, acceptor molecule, acceptor atom, score
      P1  H  6896  6908       L1    10  1.35
      P1  H  6931  6943       L1     9  0.32
      P1  H  7989  7998       L1     1  0.85
      P1  H  7997  8008       L1     3  2.00
      P1  H 10752 10764       L1    12  1.00

> <Gold.PLP.Chemscore.Internal.Correction>
0.0048

> <Gold.Rescore>
     Score         DG    S(hbond)    S(metal)    S(lipo)     H(rot)  DE(clash)    DE(int)     intcor
     14.77     -15.18       3.79        0.00      10.69       1.64       0.00       0.41       ----

> <Gold.Chemscore.Fitness>
14.7717

> <Gold.Chemscore.DG>
-15.1786

> <Gold.Chemscore.ZeroCoef>
-5.4800

> <Gold.Chemscore.Hbond>
3.7867

> <Gold.Chemscore.Metal>
0.0000

> <Gold.Chemscore.Lipo>
10.6870

> <Gold.Chemscore.Internal_Hbond>
0.0000

> <Gold.Chemscore.DEClash>
0.0000

> <Gold.Chemscore.DEInternal>
0.4069

> <Gold.Chemscore.Rot>
1.6404

> <Gold.Chemscore.Internal.Correction>
   9.000000E+99

> <Gold.Chemscore.Hbonds>
donor molecule, donor type, donor heavy atom, donor atom, acceptor molecule, acceptor atom, score
      P1  H  6896  6908       L1    10  0.14
      P1  H  6931  6943       L1     9  0.32
      P1  H  7989  7998       L1     1  0.14
      P1  H  7997  8008       L1     3  0.98
      P1  H 10752 10764       L1    12  1.00

> <Gold.Chemscore.Hbond.Weighted>
-12.6476

> <Gold.Chemscore.Metal.Weighted>
-0.0000

> <Gold.Chemscore.Lipo.Weighted>
-1.2504

> <Gold.Chemscore.Internal_Hbond.Weighted>
0.0000

> <Gold.Chemscore.DEClash.Weighted>
0.0000

> <Gold.Chemscore.DEInternal.Weighted>
0.4069

> <Gold.Chemscore.Rot.Weighted>
4.1994

> <Gold.Chemscore.Internal.Correction.Weighted>
   9.000000E+99

> <Gold.Protein.RotatedTorsions>
[ 6907 6896 6895 6894 ] final -159.71 input  -60.11 | X-H torsion
[ 7974 7965 7964 7962 ] final  -76.49 input  175.53 | X-H torsion
[ 8008 7997 7996 7995 ] final  -15.71 input   59.86 | X-H torsion
[ 10167 10162 10161 10158 ] final -152.84 input  -65.29 | X-H torsion
[ 10718 10713 10712 10709 ] final  148.04 input   66.30 | X-H torsion
[ 10763 10752 10751 10750 ] final  -21.58 input  -60.55 | X-H torsion
[ 11005 11000 10999 10996 ] final  145.07 input  -57.11 | X-H torsion

> <Gold.Protein.ActiveResidues>
 VAL166  LYS551  ARG553  GLY616  TRP617  ASP618  TYR619  PRO620  LYS621  CYS622 
 ASP623  PHE694  ASN695  SER759  ASP760  ASP761  ALA762  ILE779  LEU786  VAL792 
 PHE793  MET794  SER795  GLU796  ALA797  LYS798  CYS799  TRP800  GLU811  SER814 

> <Gold.Protein.RotatedAtoms>
  151.3378  133.3974  159.2668 H   0  0  0  0  0  0  0  0  0  0  0  0  # atno 6907 bound_to 6896
  150.9903  134.9240  159.7906 H   0  0  0  0  0  0  0  0  0  0  0  0  # atno 6908 bound_to 6896
  152.5245  134.3343  159.9246 H   0  0  0  0  0  0  0  0  0  0  0  0  # atno 6909 bound_to 6896
  145.6122  140.9384  143.1183 H   0  0  0  0  0  0  0  0  0  0  0  0  # atno 7974 bound_to 7965
  154.5109  140.2189  155.9158 H   0  0  0  0  0  0  0  0  0  0  0  0  # atno 8008 bound_to 7997
  156.1551  140.3153  155.8678 H   0  0  0  0  0  0  0  0  0  0  0  0  # atno 8009 bound_to 7997
  155.3863  140.0475  157.3033 H   0  0  0  0  0  0  0  0  0  0  0  0  # atno 8010 bound_to 7997
  139.7147  143.9052  152.2481 H   0  0  0  0  0  0  0  0  0  0  0  0  # atno 10167 bound_to 10162
  157.3135  131.0892  151.1297 H   0  0  0  0  0  0  0  0  0  0  0  0  # atno 10718 bound_to 10713
  153.6384  135.6986  153.5250 H   0  0  0  0  0  0  0  0  0  0  0  0  # atno 10763 bound_to 10752
  153.2803  135.4188  155.1071 H   0  0  0  0  0  0  0  0  0  0  0  0  # atno 10764 bound_to 10752
  154.8505  135.3600  154.5927 H   0  0  0  0  0  0  0  0  0  0  0  0  # atno 10765 bound_to 10752
  140.0683  134.9166  157.1301 H   0  0  0  0  0  0  0  0  0  0  0  0  # atno 11005 bound_to 11000
  144.7265  139.7859  143.7363 LP  0  0  0  0  0  0  0  0  0  0  0  0  # atno 17320 bound_to 7965
  146.1496  139.4575  143.0057 LP  0  0  0  0  0  0  0  0  0  0  0  0  # atno 17321 bound_to 7965
  139.8931  144.6954  150.8748 LP  0  0  0  0  0  0  0  0  0  0  0  0  # atno 17342 bound_to 10162
  140.7741  143.3571  151.1900 LP  0  0  0  0  0  0  0  0  0  0  0  0  # atno 17343 bound_to 10162
  157.2610  130.6659  149.5974 LP  0  0  0  0  0  0  0  0  0  0  0  0  # atno 17370 bound_to 10713
  155.9679  130.4509  150.5713 LP  0  0  0  0  0  0  0  0  0  0  0  0  # atno 17371 bound_to 10713
  140.3666  134.2436  155.7182 LP  0  0  0  0  0  0  0  0  0  0  0  0  # atno 17394 bound_to 11000
  141.2001  133.7994  157.0503 LP  0  0  0  0  0  0  0  0  0  0  0  0  # atno 17395 bound_to 11000

$$$$
