AV-unprocessed.smi:1179|AV-procd|sdf|4958|dock2
  -GOLD-   22720 3553D 1   1.00000     0.00000
 Structure written by MMmdl.
 47 48  0  0  0  0  0  0  0  0  2 V2000
  151.7714  141.0266  158.5807 C   0  0  0  0  0  0  0  0  0  0  0  0
  151.1536  140.7720  157.2375 C   0  0  0  0  0  0  0  0  0  0  0  0
  150.2160  141.5769  156.5323 C   0  0  0  0  0  0  0  0  0  0  0  0
  149.9876  140.8924  155.3721 C   0  0  0  0  0  0  0  0  0  0  0  0
  149.1009  141.2240  154.2171 C   0  0  0  0  0  0  0  0  0  0  0  0
  150.7640  139.7480  155.4220 N   0  0  0  0  0  0  0  0  0  0  0  0
  150.8961  138.6841  154.4383 C   0  0  0  0  0  0  0  0  0  0  0  0
  150.7251  137.3078  155.0834 C   0  0  0  0  0  0  0  0  0  0  0  0
  151.5011  136.9385  155.9645 O   0  0  0  0  0  0  0  0  0  0  0  0
  149.7041  136.5589  154.6381 N   0  0  0  0  0  0  0  0  0  0  0  0
  149.3628  135.2319  155.1341 C   0  0  0  0  0  0  0  0  0  0  0  0
  147.8477  134.9681  155.0344 C   0  0  0  0  0  0  0  0  0  0  0  0
  147.4318  134.5605  153.6691 N   0  3  2  0  0  0  0  0  0  0  0  0
  145.9765  134.7599  153.4445 C   0  0  0  0  0  0  0  0  0  0  0  0
  145.5915  134.4612  151.9858 C   0  0  0  0  0  0  0  0  0  0  0  0
  146.0022  133.0360  151.5804 C   0  0  1  0  0  0  0  0  0  0  0  0
  145.6514  132.7373  150.1160 C   0  0  0  0  0  0  0  0  0  0  0  0
  147.5028  132.8453  151.8569 C   0  0  0  0  0  0  0  0  0  0  0  0
  147.8498  133.1768  153.3183 C   0  0  0  0  0  0  0  0  0  0  0  0
  151.4797  139.6796  156.5663 N   0  0  0  0  0  0  0  0  0  0  0  0
  151.3363  141.9071  159.0537 H   0  0  0  0  0  0  0  0  0  0  0  0
  152.8452  141.1932  158.4933 H   0  0  0  0  0  0  0  0  0  0  0  0
  151.6177  140.1810  159.2518 H   0  0  0  0  0  0  0  0  0  0  0  0
  149.7766  142.5163  156.8336 H   0  0  0  0  0  0  0  0  0  0  0  0
  148.5935  142.1754  154.3773 H   0  0  0  0  0  0  0  0  0  0  0  0
  148.3388  140.4572  154.0787 H   0  0  0  0  0  0  0  0  0  0  0  0
  149.6760  141.3028  153.2946 H   0  0  0  0  0  0  0  0  0  0  0  0
  150.1514  138.8190  153.6521 H   0  0  0  0  0  0  0  0  0  0  0  0
  151.8747  138.7576  153.9625 H   0  0  0  0  0  0  0  0  0  0  0  0
  149.1165  136.9450  153.9126 H   0  0  0  0  0  0  0  0  0  0  0  0
  149.9073  134.4982  154.5393 H   0  0  0  0  0  0  0  0  0  0  0  0
  149.7235  135.1310  156.1581 H   0  0  0  0  0  0  0  0  0  0  0  0
  147.5302  134.2110  155.7531 H   0  0  0  0  0  0  0  0  0  0  0  0
  147.3296  135.8878  155.3102 H   0  0  0  0  0  0  0  0  0  0  0  0
  145.4112  134.1186  154.1230 H   0  0  0  0  0  0  0  0  0  0  0  0
  145.7038  135.7894  153.6797 H   0  0  0  0  0  0  0  0  0  0  0  0
  144.5162  134.5911  151.8576 H   0  0  0  0  0  0  0  0  0  0  0  0
  146.0706  135.1869  151.3268 H   0  0  0  0  0  0  0  0  0  0  0  0
  145.4486  132.3321  152.2039 H   0  0  0  0  0  0  0  0  0  0  0  0
  146.1789  133.4068  149.4357 H   0  0  0  0  0  0  0  0  0  0  0  0
  144.5824  132.8554  149.9361 H   0  0  0  0  0  0  0  0  0  0  0  0
  145.9186  131.7144  149.8498 H   0  0  0  0  0  0  0  0  0  0  0  0
  147.7953  131.8182  151.6357 H   0  0  0  0  0  0  0  0  0  0  0  0
  148.0868  133.4824  151.1911 H   0  0  0  0  0  0  0  0  0  0  0  0
  148.9230  133.0550  153.4594 H   0  0  0  0  0  0  0  0  0  0  0  0
  147.3627  132.4670  153.9886 H   0  0  0  0  0  0  0  0  0  0  0  0
  147.9026  135.1833  153.0283 H   0  0  0  0  0  0  0  0  0  0  0  0
  1  2  1  0  0  0  0
  1 21  1  0  0  0  0
  1 22  1  0  0  0  0
  1 23  1  0  0  0  0
  2 20  2  0  0  0  0
  2  3  1  0  0  0  0
  3  4  2  0  0  0  0
  3 24  1  0  0  0  0
  4  5  1  0  0  0  0
  4  6  1  0  0  0  0
  5 25  1  0  0  0  0
  5 26  1  0  0  0  0
  5 27  1  0  0  0  0
  6  7  1  0  0  0  0
  6 20  1  0  0  0  0
  7  8  1  0  0  0  0
  7 28  1  0  0  0  0
  7 29  1  0  0  0  0
  8  9  2  0  0  0  0
  8 10  1  0  0  0  0
 10 11  1  0  0  0  0
 10 30  1  0  0  0  0
 11 12  1  0  0  0  0
 11 31  1  0  0  0  0
 11 32  1  0  0  0  0
 12 13  1  0  0  0  0
 12 33  1  0  0  0  0
 12 34  1  0  0  0  0
 13 19  1  0  0  0  0
 13 14  1  0  0  0  0
 13 47  1  0  0  0  0
 14 15  1  0  0  0  0
 14 35  1  0  0  0  0
 14 36  1  0  0  0  0
 15 16  1  0  0  0  0
 15 37  1  0  0  0  0
 15 38  1  0  0  0  0
 16 17  1  0  0  0  0
 16 18  1  0  0  0  0
 16 39  1  0  0  0  0
 17 40  1  0  0  0  0
 17 41  1  0  0  0  0
 17 42  1  0  0  0  0
 18 19  1  0  0  0  0
 18 43  1  0  0  0  0
 18 44  1  0  0  0  0
 19 45  1  0  0  0  0
 19 46  1  0  0  0  0
M  CHG  1  13   1
M  END
> <s_m_source_file>
AV-unprocessed.smi

> <i_m_source_file_index>
1179

> <i_lp_mmshare_version>
43012

> <i_f3d_flags>
0

> <s_epik_input>
W0NIM11jMVtjSF1jKFtDSDNdKW4objEpW0NIMl1DKD1PKVtOSF1bQ0gyXVtDSDJdTjJbQ0gyXVtDSDJdW0NIXShbQ0gzXSlbQ0gyXVtDSDJdMg==

> <s_epik_cmdline>
J2VwaWtfcHl0aG9uJywgJy1waCcsICc3LjAnLCAnLXRuJywgJzgnLCAnLW1hJywgJzIwMCcsICctbWV0YWxfYmluZGluZycsICctaW1hZScsICc8aW5maWxlLm1hZT4nLCAnLW9tYWUnLCAnPG91dGZpbGUubWFlPic=

> <r_lp_tautomer_probability>
1

> <r_epik_Ionization_Penalty>
0.00206343

> <r_epik_Ionization_Penalty_Charging>
0.00187095

> <r_epik_Ionization_Penalty_Neutral>
0.000192474

> <r_epik_State_Penalty>
-0

> <r_epik_Charging_Adjusted_Penalty>
0.00187095

> <i_epik_Tot_Q>
1

> <i_epik_Tot_abs_Q>
1

> <r_epik_Metal_State_Penalty>
-0

> <b_epik_Metal_Only>
0

> <s_lp_Force_Field>
OPLS_2005

> <r_lp_Energy>
13.8345

> <b_lp_Chiralities_Consistent>
1

> <s_lp_Variant>
AV-unprocessed.smi:1179-1

> <Gold.Version>
5.8.1

> <Gold.Id.Protein>
6NUR|6NUR_protein|mol2

> <Gold.PLP.Fitness>
45.7186

> <Gold.PLP.PLP>
-36.8264

> <Gold.PLP.part.hbond>
-3.0390

> <Gold.PLP.part.metal>
0.0000

> <Gold.PLP.part.buried>
-1.0376

> <Gold.PLP.part.nonpolar>
-32.0127

> <Gold.PLP.part.repulsive>
0.0807

> <Gold.PLP.ligand.clash>
0.0000

> <Gold.PLP.ligand.torsion>
0.5130

> <Gold.PLP.Chemscore.Hbond>
3.2964

> <Gold.PLP.Chemscore.CHOScore>
0.0000

> <Gold.PLP.Chemscore.Metal>
0.0000

> <Gold.Chemscore.Hbonds>
donor molecule, donor type, donor heavy atom, donor atom, acceptor molecule, acceptor atom, score
      L1  H    10    30       P1  7948  0.35
      L1  H    13    47       P1  7948  2.00
      P1  H 10752 10763       L1     9  0.19

> <Gold.PLP.Chemscore.Internal.Correction>
0.0290

> <Gold.Rescore>
     Score         DG    S(hbond)    S(metal)    S(lipo)     H(rot)  DE(clash)    DE(int)     intcor
     16.49     -17.24       2.00        0.00      79.92       1.67       0.02       0.72       ----

> <Gold.Chemscore.Fitness>
16.4903

> <Gold.Chemscore.DG>
-17.2351

> <Gold.Chemscore.ZeroCoef>
-5.4800

> <Gold.Chemscore.Hbond>
1.9966

> <Gold.Chemscore.Metal>
0.0000

> <Gold.Chemscore.Lipo>
79.9182

> <Gold.Chemscore.Internal_Hbond>
0.0000

> <Gold.Chemscore.DEClash>
0.0239

> <Gold.Chemscore.DEInternal>
0.7209

> <Gold.Chemscore.Rot>
1.6657

> <Gold.Chemscore.Internal.Correction>
   9.000000E+99

> <Gold.Chemscore.Hbonds>
donor molecule, donor type, donor heavy atom, donor atom, acceptor molecule, acceptor atom, score
      L1  H    10    30       P1  7948  0.35
      L1  H    13    47       P1  7948  1.00
      P1  H 10752 10763       L1     9  0.07

> <Gold.Chemscore.Hbond.Weighted>
-6.6687

> <Gold.Chemscore.Metal.Weighted>
-0.0000

> <Gold.Chemscore.Lipo.Weighted>
-9.3504

> <Gold.Chemscore.Internal_Hbond.Weighted>
0.0000

> <Gold.Chemscore.DEClash.Weighted>
0.0239

> <Gold.Chemscore.DEInternal.Weighted>
0.7209

> <Gold.Chemscore.Rot.Weighted>
4.2641

> <Gold.Chemscore.Internal.Correction.Weighted>
   9.000000E+99

> <Gold.Protein.RotatedTorsions>
[ 6907 6896 6895 6894 ] final  -49.97 input  -60.11 | X-H torsion
[ 7974 7965 7964 7962 ] final -145.89 input  175.53 | X-H torsion
[ 8008 7997 7996 7995 ] final -161.09 input   59.86 | X-H torsion
[ 10167 10162 10161 10158 ] final -130.83 input  -65.29 | X-H torsion
[ 10718 10713 10712 10709 ] final  -91.81 input   66.30 | X-H torsion
[ 10763 10752 10751 10750 ] final   70.52 input  -60.55 | X-H torsion
[ 11005 11000 10999 10996 ] final  171.31 input  -57.11 | X-H torsion

> <Gold.Protein.ActiveResidues>
 VAL166  LYS551  ARG553  GLY616  TRP617  ASP618  TYR619  PRO620  LYS621  CYS622 
 ASP623  PHE694  ASN695  SER759  ASP760  ASP761  ALA762  ILE779  LEU786  VAL792 
 PHE793  MET794  SER795  GLU796  ALA797  LYS798  CYS799  TRP800  GLU811  SER814 

> <Gold.Protein.RotatedAtoms>
  150.8753  134.8135  159.7184 H   0  0  0  0  0  0  0  0  0  0  0  0  # atno 6907 bound_to 6896
  152.4742  134.4881  159.9696 H   0  0  0  0  0  0  0  0  0  0  0  0  # atno 6908 bound_to 6896
  151.4964  133.3475  159.2897 H   0  0  0  0  0  0  0  0  0  0  0  0  # atno 6909 bound_to 6896
  144.8196  140.5526  143.5587 H   0  0  0  0  0  0  0  0  0  0  0  0  # atno 7974 bound_to 7965
  155.7871  140.0873  157.2029 H   0  0  0  0  0  0  0  0  0  0  0  0  # atno 8008 bound_to 7997
  154.3987  140.1497  156.3177 H   0  0  0  0  0  0  0  0  0  0  0  0  # atno 8009 bound_to 7997
  155.8596  140.3431  155.5750 H   0  0  0  0  0  0  0  0  0  0  0  0  # atno 8010 bound_to 7997
  139.9253  143.6335  152.2543 H   0  0  0  0  0  0  0  0  0  0  0  0  # atno 10167 bound_to 10162
  155.9996  130.4962  150.5530 H   0  0  0  0  0  0  0  0  0  0  0  0  # atno 10718 bound_to 10713
  153.0346  135.5171  154.7453 H   0  0  0  0  0  0  0  0  0  0  0  0  # atno 10763 bound_to 10752
  154.6440  135.2916  155.0071 H   0  0  0  0  0  0  0  0  0  0  0  0  # atno 10764 bound_to 10752
  154.0978  135.6641  153.4915 H   0  0  0  0  0  0  0  0  0  0  0  0  # atno 10765 bound_to 10752
  140.3176  134.7464  157.4040 H   0  0  0  0  0  0  0  0  0  0  0  0  # atno 11005 bound_to 11000
  145.5135  139.1478  143.3592 LP  0  0  0  0  0  0  0  0  0  0  0  0  # atno 17320 bound_to 7965
  146.2501  140.5275  142.8897 LP  0  0  0  0  0  0  0  0  0  0  0  0  # atno 17321 bound_to 7965
  139.6827  144.7654  151.1579 LP  0  0  0  0  0  0  0  0  0  0  0  0  # atno 17342 bound_to 10162
  140.7652  143.5701  150.9005 LP  0  0  0  0  0  0  0  0  0  0  0  0  # atno 17343 bound_to 10162
  157.3450  131.0723  151.1758 LP  0  0  0  0  0  0  0  0  0  0  0  0  # atno 17370 bound_to 10713
  157.2593  130.6651  149.5967 LP  0  0  0  0  0  0  0  0  0  0  0  0  # atno 17371 bound_to 10713
  140.0969  134.5524  155.8389 LP  0  0  0  0  0  0  0  0  0  0  0  0  # atno 17394 bound_to 11000
  141.2094  133.6683  156.6436 LP  0  0  0  0  0  0  0  0  0  0  0  0  # atno 17395 bound_to 11000

$$$$
