AV-unprocessed.smi:1419|AV-procd|sdf|5775|dock4
  -GOLD-   22720 5423D 1   1.00000     0.00000
 Structure written by MMmdl.
 42 43  0  0  0  0  0  0  0  0  2 V2000
  146.5706  136.4832  155.9783 C   0  0  0  0  0  0  0  0  0  0  0  0
  146.6615  136.6522  154.4560 C   0  0  1  0  0  0  0  0  0  0  0  0
  145.3303  137.1678  153.8680 C   0  0  0  0  0  0  0  0  0  0  0  0
  144.4295  136.0840  153.4593 N   0  0  0  0  0  0  0  0  0  0  0  0
  143.8453  135.9091  152.2312 C   0  0  0  0  0  0  0  0  0  0  0  0
  143.0743  134.7789  152.3228 C   0  0  0  0  0  0  0  0  0  0  0  0
  143.2241  134.3092  153.6002 N   0  3  0  0  0  0  0  0  0  0  0  0
  144.0532  135.1007  154.2882 C   0  0  0  0  0  0  0  0  0  0  0  0
  147.7561  137.5704  154.1445 N   0  0  0  0  0  0  0  0  0  0  0  0
  147.9136  138.8092  154.6440 C   0  0  0  0  0  0  0  0  0  0  0  0
  147.0778  139.3309  155.3832 O   0  0  0  0  0  0  0  0  0  0  0  0
  149.0598  139.4279  154.2687 N   0  0  0  0  0  0  0  0  0  0  0  0
  150.2747  138.7784  153.7590 C   0  0  0  0  0  0  0  0  0  0  0  0
  151.3078  138.7430  154.9035 C   0  0  1  0  0  0  0  0  0  0  0  0
  152.6390  138.1236  154.4649 C   0  0  0  0  0  0  0  0  0  0  0  0
  151.5606  140.0771  155.3451 O   0  0  0  0  0  0  0  0  0  0  0  0
  150.3964  140.7736  155.7914 C   0  0  1  0  0  0  0  0  0  0  0  0
  150.8185  142.1776  156.2366 C   0  0  0  0  0  0  0  0  0  0  0  0
  149.3611  140.8093  154.6486 C   0  0  0  0  0  0  0  0  0  0  0  0
  145.7805  135.7818  156.2486 H   0  0  0  0  0  0  0  0  0  0  0  0
  146.3560  137.4314  156.4725 H   0  0  0  0  0  0  0  0  0  0  0  0
  147.5051  136.0975  156.3875 H   0  0  0  0  0  0  0  0  0  0  0  0
  146.8730  135.6672  154.0357 H   0  0  0  0  0  0  0  0  0  0  0  0
  144.7966  137.7655  154.6082 H   0  0  0  0  0  0  0  0  0  0  0  0
  145.5091  137.8162  153.0084 H   0  0  0  0  0  0  0  0  0  0  0  0
  144.0104  136.5892  151.4079 H   0  0  0  0  0  0  0  0  0  0  0  0
  142.4455  134.2879  151.5942 H   0  0  0  0  0  0  0  0  0  0  0  0
  144.3489  134.9764  155.3149 H   0  0  0  0  0  0  0  0  0  0  0  0
  148.4742  137.2228  153.5256 H   0  0  0  0  0  0  0  0  0  0  0  0
  150.1080  137.7733  153.3713 H   0  0  0  0  0  0  0  0  0  0  0  0
  150.6642  139.3535  152.9174 H   0  0  0  0  0  0  0  0  0  0  0  0
  150.9117  138.1628  155.7388 H   0  0  0  0  0  0  0  0  0  0  0  0
  152.5024  137.0948  154.1304 H   0  0  0  0  0  0  0  0  0  0  0  0
  153.3538  138.1133  155.2880 H   0  0  0  0  0  0  0  0  0  0  0  0
  153.0844  138.6867  153.6442 H   0  0  0  0  0  0  0  0  0  0  0  0
  149.9776  140.2468  156.6510 H   0  0  0  0  0  0  0  0  0  0  0  0
  149.9639  142.7465  156.6036 H   0  0  0  0  0  0  0  0  0  0  0  0
  151.2638  142.7358  155.4122 H   0  0  0  0  0  0  0  0  0  0  0  0
  151.5536  142.1270  157.0403 H   0  0  0  0  0  0  0  0  0  0  0  0
  149.7620  141.3458  153.7870 H   0  0  0  0  0  0  0  0  0  0  0  0
  148.4727  141.3627  154.9574 H   0  0  0  0  0  0  0  0  0  0  0  0
  142.7729  133.4829  153.9728 H   0  0  0  0  0  0  0  0  0  0  0  0
  1  2  1  0  0  0  0
  1 20  1  0  0  0  0
  1 21  1  0  0  0  0
  1 22  1  0  0  0  0
  2  3  1  0  0  0  0
  2  9  1  0  0  0  0
  2 23  1  0  0  0  0
  3  4  1  0  0  0  0
  3 24  1  0  0  0  0
  3 25  1  0  0  0  0
  4  8  1  0  0  0  0
  4  5  1  0  0  0  0
  5  6  2  0  0  0  0
  5 26  1  0  0  0  0
  6  7  1  0  0  0  0
  6 27  1  0  0  0  0
  7  8  2  0  0  0  0
  7 42  1  0  0  0  0
  8 28  1  0  0  0  0
  9 10  1  0  0  0  0
  9 29  1  0  0  0  0
 10 11  2  0  0  0  0
 10 12  1  0  0  0  0
 12 19  1  0  0  0  0
 12 13  1  0  0  0  0
 13 14  1  0  0  0  0
 13 30  1  0  0  0  0
 13 31  1  0  0  0  0
 14 15  1  0  0  0  0
 14 16  1  0  0  0  0
 14 32  1  0  0  0  0
 15 33  1  0  0  0  0
 15 34  1  0  0  0  0
 15 35  1  0  0  0  0
 16 17  1  0  0  0  0
 17 18  1  0  0  0  0
 17 19  1  0  0  0  0
 17 36  1  0  0  0  0
 18 37  1  0  0  0  0
 18 38  1  0  0  0  0
 18 39  1  0  0  0  0
 19 40  1  0  0  0  0
 19 41  1  0  0  0  0
M  CHG  1   7   1
M  END
> <s_m_source_file>
AV-unprocessed.smi

> <i_m_source_file_index>
1419

> <i_lp_mmshare_version>
43012

> <i_f3d_flags>
0

> <s_epik_input>
W2NIXTFuW2NIXVtjSF1uMVtDSDJdW0NAQEhdKFtDSDNdKVtOSF1DKD1PKU4yW0NIMl1bQ0BASF0oW0NIM10pT1tDQEBIXShbQ0gzXSlbQ0gyXTI=

> <s_epik_cmdline>
J2VwaWtfcHl0aG9uJywgJy1waCcsICc3LjAnLCAnLXRuJywgJzgnLCAnLW1hJywgJzIwMCcsICctbWV0YWxfYmluZGluZycsICctaW1hZScsICc8aW5maWxlLm1hZT4nLCAnLW9tYWUnLCAnPG91dGZpbGUubWFlPic=

> <r_lp_tautomer_probability>
1

> <r_epik_Ionization_Penalty>
0.253607

> <r_epik_Ionization_Penalty_Charging>
0

> <r_epik_Ionization_Penalty_Neutral>
0.253607

> <r_epik_State_Penalty>
0.245018

> <r_epik_Charging_Adjusted_Penalty>
0.245018

> <i_epik_Tot_Q>
1

> <i_epik_Tot_abs_Q>
1

> <r_epik_Metal_State_Penalty>
0.535379

> <b_epik_Metal_Only>
0

> <s_lp_Force_Field>
OPLS_2005

> <r_lp_Energy>
29.1854

> <b_lp_Chiralities_Consistent>
1

> <s_lp_Variant>
AV-unprocessed.smi:1419-2

> <Gold.Version>
5.8.1

> <Gold.Id.Protein>
6NUR|6NUR_protein|mol2

> <Gold.PLP.Fitness>
39.3260

> <Gold.PLP.PLP>
-26.3260

> <Gold.PLP.part.hbond>
-3.0000

> <Gold.PLP.part.metal>
0.0000

> <Gold.PLP.part.buried>
-2.2590

> <Gold.PLP.part.nonpolar>
-22.0317

> <Gold.PLP.part.repulsive>
0.0335

> <Gold.PLP.ligand.clash>
0.0000

> <Gold.PLP.ligand.torsion>
0.5944

> <Gold.PLP.Chemscore.Hbond>
3.7068

> <Gold.PLP.Chemscore.CHOScore>
1.0000

> <Gold.PLP.Chemscore.Metal>
0.0000

> <Gold.Chemscore.Hbonds>
donor molecule, donor type, donor heavy atom, donor atom, acceptor molecule, acceptor atom, score
      L1  H     7    42       P1 10957  2.00
      L1  H     9    29       P1  7948  0.99
      P1  H  7989  7998       L1    16  0.71
      L1  C     5    26       P1 10171  0.94

> <Gold.PLP.Chemscore.Internal.Correction>
0.0685

> <Gold.Rescore>
     Score         DG    S(hbond)    S(metal)    S(lipo)     H(rot)  DE(clash)    DE(int)     intcor
     12.50     -14.70       1.88        0.00      60.63       1.63       0.54       1.65       ----

> <Gold.Chemscore.Fitness>
12.5010

> <Gold.Chemscore.DG>
-14.6966

> <Gold.Chemscore.ZeroCoef>
-5.4800

> <Gold.Chemscore.Hbond>
1.8829

> <Gold.Chemscore.Metal>
0.0000

> <Gold.Chemscore.Lipo>
60.6288

> <Gold.Chemscore.Internal_Hbond>
0.0000

> <Gold.Chemscore.DEClash>
0.5446

> <Gold.Chemscore.DEInternal>
1.6510

> <Gold.Chemscore.Rot>
1.6273

> <Gold.Chemscore.Internal.Correction>
   9.000000E+99

> <Gold.Chemscore.Hbonds>
donor molecule, donor type, donor heavy atom, donor atom, acceptor molecule, acceptor atom, score
      L1  H     7    42       P1 10957  0.99
      L1  H     9    29       P1  7948  0.91
      P1  H  7989  7998       L1    16  0.02

> <Gold.Chemscore.Hbond.Weighted>
-6.2889

> <Gold.Chemscore.Metal.Weighted>
-0.0000

> <Gold.Chemscore.Lipo.Weighted>
-7.0936

> <Gold.Chemscore.Internal_Hbond.Weighted>
0.0000

> <Gold.Chemscore.DEClash.Weighted>
0.5446

> <Gold.Chemscore.DEInternal.Weighted>
1.6510

> <Gold.Chemscore.Rot.Weighted>
4.1658

> <Gold.Chemscore.Internal.Correction.Weighted>
   9.000000E+99

> <Gold.Protein.RotatedTorsions>
[ 6907 6896 6895 6894 ] final  -53.60 input  -60.11 | X-H torsion
[ 7974 7965 7964 7962 ] final  116.50 input  175.53 | X-H torsion
[ 8008 7997 7996 7995 ] final  -66.33 input   59.86 | X-H torsion
[ 10167 10162 10161 10158 ] final  131.34 input  -65.29 | X-H torsion
[ 10718 10713 10712 10709 ] final -148.16 input   66.30 | X-H torsion
[ 10763 10752 10751 10750 ] final  168.03 input  -60.55 | X-H torsion
[ 11005 11000 10999 10996 ] final  139.05 input  -57.11 | X-H torsion

> <Gold.Protein.ActiveResidues>
 VAL166  LYS551  ARG553  GLY616  TRP617  ASP618  TYR619  PRO620  LYS621  CYS622 
 ASP623  PHE694  ASN695  SER759  ASP760  ASP761  ALA762  ILE779  LEU786  VAL792 
 PHE793  MET794  SER795  GLU796  ALA797  LYS798  CYS799  TRP800  GLU811  SER814 

> <Gold.Protein.RotatedAtoms>
  150.8412  134.7705  159.6933 H   0  0  0  0  0  0  0  0  0  0  0  0  # atno 6907 bound_to 6896
  152.4499  134.5413  159.9849 H   0  0  0  0  0  0  0  0  0  0  0  0  # atno 6908 bound_to 6896
  151.5552  133.3373  159.2996 H   0  0  0  0  0  0  0  0  0  0  0  0  # atno 6909 bound_to 6896
  145.1789  139.3060  143.4428 H   0  0  0  0  0  0  0  0  0  0  0  0  # atno 7974 bound_to 7965
  154.4728  140.0915  156.7186 H   0  0  0  0  0  0  0  0  0  0  0  0  # atno 8008 bound_to 7997
  155.4679  140.3463  155.4303 H   0  0  0  0  0  0  0  0  0  0  0  0  # atno 8009 bound_to 7997
  156.1067  140.1436  156.9383 H   0  0  0  0  0  0  0  0  0  0  0  0  # atno 8010 bound_to 7997
  139.5388  144.6710  151.4693 H   0  0  0  0  0  0  0  0  0  0  0  0  # atno 10167 bound_to 10162
  156.4167  130.8008  151.2229 H   0  0  0  0  0  0  0  0  0  0  0  0  # atno 10718 bound_to 10713
  154.3626  135.2753  155.2311 H   0  0  0  0  0  0  0  0  0  0  0  0  # atno 10763 bound_to 10752
  154.4493  135.5935  153.6184 H   0  0  0  0  0  0  0  0  0  0  0  0  # atno 10764 bound_to 10752
  152.9842  135.6038  154.3848 H   0  0  0  0  0  0  0  0  0  0  0  0  # atno 10765 bound_to 10752
  140.0227  134.9389  157.0507 H   0  0  0  0  0  0  0  0  0  0  0  0  # atno 11005 bound_to 11000
  146.3456  140.1962  142.8589 LP  0  0  0  0  0  0  0  0  0  0  0  0  # atno 17320 bound_to 7965
  145.0156  140.8751  143.5198 LP  0  0  0  0  0  0  0  0  0  0  0  0  # atno 17321 bound_to 7965
  140.6609  143.8501  150.6886 LP  0  0  0  0  0  0  0  0  0  0  0  0  # atno 17342 bound_to 10162
  140.1895  143.4048  152.1874 LP  0  0  0  0  0  0  0  0  0  0  0  0  # atno 17343 bound_to 10162
  157.7508  131.0241  150.3861 LP  0  0  0  0  0  0  0  0  0  0  0  0  # atno 17370 bound_to 10713
  156.4170  130.3945  149.6851 LP  0  0  0  0  0  0  0  0  0  0  0  0  # atno 17371 bound_to 10713
  140.4359  134.1732  155.7170 LP  0  0  0  0  0  0  0  0  0  0  0  0  # atno 17394 bound_to 11000
  141.1784  133.8466  157.1343 LP  0  0  0  0  0  0  0  0  0  0  0  0  # atno 17395 bound_to 11000

$$$$
