AV-unprocessed.smi:1869|AV-procd|sdf|7592|dock7
  -GOLD-   22720 9303D 1   1.00000     0.00000
 Structure written by MMmdl.
 39 40  0  0  0  0  0  0  0  0  1 V2000
  146.4554  142.0744  154.8069 C   0  0  0  0  0  0  0  0  0  0  0  0
  146.5980  140.7505  155.2906 O   0  0  0  0  0  0  0  0  0  0  0  0
  146.4400  139.7791  154.2698 C   0  0  0  0  0  0  0  0  0  0  0  0
  147.4977  140.0118  153.1866 C   0  0  0  0  0  0  0  0  0  0  0  0
  148.6994  139.3490  153.5684 O   0  0  0  0  0  0  0  0  0  0  0  0
  149.4996  139.9349  154.5275 C   0  0  0  0  0  0  0  0  0  0  0  0
  150.7227  139.3159  154.8532 C   0  0  0  0  0  0  0  0  0  0  0  0
  151.5479  139.9082  155.8281 C   0  0  0  0  0  0  0  0  0  0  0  0
  151.1252  141.1109  156.4421 C   0  0  0  0  0  0  0  0  0  0  0  0
  151.8580  141.7927  157.4503 N   0  0  0  0  0  0  0  0  0  0  0  0
  151.4383  142.7653  158.2840 C   0  0  0  0  0  0  0  0  0  0  0  0
  150.2888  143.2073  158.2810 O   0  0  0  0  0  0  0  0  0  0  0  0
  152.3888  143.2086  159.1475 N   0  0  0  0  0  0  0  0  0  0  0  0
  153.6585  142.5328  159.4645 C   0  0  0  0  0  0  0  0  0  0  0  0
  153.4915  141.7370  160.7695 C   0  0  0  0  0  0  0  0  0  0  0  0
  153.1238  142.8466  162.1649 S   0  0  0  0  0  0  0  0  0  0  0  0
  151.7654  143.8159  161.4373 C   0  0  0  0  0  0  0  0  0  0  0  0
  152.1472  144.3456  160.0445 C   0  0  0  0  0  0  0  0  0  0  0  0
  149.8755  141.6399  156.0592 C   0  0  0  0  0  0  0  0  0  0  0  0
  149.0801  141.0778  155.1249 N   0  0  0  0  0  0  0  0  0  0  0  0
  146.5808  142.7796  155.6286 H   0  0  0  0  0  0  0  0  0  0  0  0
  145.4663  142.2333  154.3750 H   0  0  0  0  0  0  0  0  0  0  0  0
  147.2086  142.3012  154.0511 H   0  0  0  0  0  0  0  0  0  0  0  0
  146.5727  138.7848  154.6989 H   0  0  0  0  0  0  0  0  0  0  0  0
  145.4379  139.8204  153.8402 H   0  0  0  0  0  0  0  0  0  0  0  0
  147.1333  139.6529  152.2224 H   0  0  0  0  0  0  0  0  0  0  0  0
  147.6882  141.0824  153.0965 H   0  0  0  0  0  0  0  0  0  0  0  0
  151.0217  138.3996  154.3657 H   0  0  0  0  0  0  0  0  0  0  0  0
  152.4752  139.4242  156.0930 H   0  0  0  0  0  0  0  0  0  0  0  0
  152.7954  141.4530  157.6087 H   0  0  0  0  0  0  0  0  0  0  0  0
  154.0059  141.8756  158.6673 H   0  0  0  0  0  0  0  0  0  0  0  0
  154.4531  143.2714  159.5807 H   0  0  0  0  0  0  0  0  0  0  0  0
  152.6871  141.0069  160.6713 H   0  0  0  0  0  0  0  0  0  0  0  0
  154.4019  141.1817  160.9956 H   0  0  0  0  0  0  0  0  0  0  0  0
  150.8749  143.1891  161.3750 H   0  0  0  0  0  0  0  0  0  0  0  0
  151.5274  144.6423  162.1071 H   0  0  0  0  0  0  0  0  0  0  0  0
  153.0388  144.9707  160.1101 H   0  0  0  0  0  0  0  0  0  0  0  0
  151.3622  145.0045  159.6707 H   0  0  0  0  0  0  0  0  0  0  0  0
  149.5026  142.5472  156.5121 H   0  0  0  0  0  0  0  0  0  0  0  0
  1  2  1  0  0  0  0
  1 21  1  0  0  0  0
  1 22  1  0  0  0  0
  1 23  1  0  0  0  0
  2  3  1  0  0  0  0
  3  4  1  0  0  0  0
  3 24  1  0  0  0  0
  3 25  1  0  0  0  0
  4  5  1  0  0  0  0
  4 26  1  0  0  0  0
  4 27  1  0  0  0  0
  5  6  1  0  0  0  0
  6 20  1  0  0  0  0
  6  7  2  0  0  0  0
  7  8  1  0  0  0  0
  7 28  1  0  0  0  0
  8  9  2  0  0  0  0
  8 29  1  0  0  0  0
  9 10  1  0  0  0  0
  9 19  1  0  0  0  0
 10 11  1  0  0  0  0
 10 30  1  0  0  0  0
 11 12  2  0  0  0  0
 11 13  1  0  0  0  0
 13 18  1  0  0  0  0
 13 14  1  0  0  0  0
 14 15  1  0  0  0  0
 14 31  1  0  0  0  0
 14 32  1  0  0  0  0
 15 16  1  0  0  0  0
 15 33  1  0  0  0  0
 15 34  1  0  0  0  0
 16 17  1  0  0  0  0
 17 18  1  0  0  0  0
 17 35  1  0  0  0  0
 17 36  1  0  0  0  0
 18 37  1  0  0  0  0
 18 38  1  0  0  0  0
 19 20  2  0  0  0  0
 19 39  1  0  0  0  0
M  END
> <s_m_source_file>
AV-unprocessed.smi

> <i_m_source_file_index>
1869

> <i_lp_mmshare_version>
43012

> <i_f3d_flags>
0

> <s_epik_input>
W0NIM11PW0NIMl1bQ0gyXU9jMVtjSF1bY0hdYyhbY0hdbjEpW05IXUMoPU8pTjJbQ0gyXVtDSDJdU1tDSDJdW0NIMl0y

> <s_epik_cmdline>
J2VwaWtfcHl0aG9uJywgJy1waCcsICc3LjAnLCAnLXRuJywgJzgnLCAnLW1hJywgJzIwMCcsICctbWV0YWxfYmluZGluZycsICctaW1hZScsICc8aW5maWxlLm1hZT4nLCAnLW9tYWUnLCAnPG91dGZpbGUubWFlPic=

> <r_lp_tautomer_probability>
1

> <r_epik_Ionization_Penalty>
6.51674e-05

> <r_epik_Ionization_Penalty_Charging>
0

> <r_epik_Ionization_Penalty_Neutral>
6.51674e-05

> <r_epik_State_Penalty>
-0

> <r_epik_Charging_Adjusted_Penalty>
0

> <i_epik_Tot_Q>
0

> <i_epik_Tot_abs_Q>
0

> <r_epik_Metal_State_Penalty>
-0

> <b_epik_Metal_Only>
0

> <s_lp_Force_Field>
OPLS_2005

> <r_lp_Energy>
28.6984

> <b_lp_Chiralities_Consistent>
1

> <s_lp_Variant>
AV-unprocessed.smi:1869-1

> <Gold.Version>
5.8.1

> <Gold.Id.Protein>
6NUR|6NUR_protein|mol2

> <Gold.PLP.Fitness>
42.5779

> <Gold.PLP.PLP>
-40.1987

> <Gold.PLP.part.hbond>
0.0000

> <Gold.PLP.part.metal>
0.0000

> <Gold.PLP.part.buried>
-3.8934

> <Gold.PLP.part.nonpolar>
-38.0562

> <Gold.PLP.part.repulsive>
1.6405

> <Gold.PLP.ligand.clash>
0.0000

> <Gold.PLP.ligand.torsion>
0.3377

> <Gold.PLP.Chemscore.Hbond>
0.0000

> <Gold.PLP.Chemscore.CHOScore>
1.0000

> <Gold.PLP.Chemscore.Metal>
0.0000

> <Gold.Chemscore.Hbonds>
donor molecule, donor type, donor heavy atom, donor atom, acceptor molecule, acceptor atom, score
      L1  C    19    39       P1  8028  1.00

> <Gold.PLP.Chemscore.Internal.Correction>
0.0545

> <Gold.Rescore>
     Score         DG    S(hbond)    S(metal)    S(lipo)     H(rot)  DE(clash)    DE(int)     intcor
      9.44     -12.93       0.00        0.00      98.87       1.61       0.10       3.40       ----

> <Gold.Chemscore.Fitness>
9.4394

> <Gold.Chemscore.DG>
-12.9312

> <Gold.Chemscore.ZeroCoef>
-5.4800

> <Gold.Chemscore.Hbond>
0.0000

> <Gold.Chemscore.Metal>
0.0000

> <Gold.Chemscore.Lipo>
98.8655

> <Gold.Chemscore.Internal_Hbond>
0.0000

> <Gold.Chemscore.DEClash>
0.0953

> <Gold.Chemscore.DEInternal>
3.3965

> <Gold.Chemscore.Rot>
1.6078

> <Gold.Chemscore.Internal.Correction>
   9.000000E+99

> <Gold.Chemscore.Hbond.Weighted>
-0.0000

> <Gold.Chemscore.Metal.Weighted>
-0.0000

> <Gold.Chemscore.Lipo.Weighted>
-11.5673

> <Gold.Chemscore.Internal_Hbond.Weighted>
0.0000

> <Gold.Chemscore.DEClash.Weighted>
0.0953

> <Gold.Chemscore.DEInternal.Weighted>
3.3965

> <Gold.Chemscore.Rot.Weighted>
4.1161

> <Gold.Chemscore.Internal.Correction.Weighted>
   9.000000E+99

> <Gold.Protein.RotatedTorsions>
[ 6907 6896 6895 6894 ] final   14.44 input  -60.11 | X-H torsion
[ 7974 7965 7964 7962 ] final  -73.85 input  175.53 | X-H torsion
[ 8008 7997 7996 7995 ] final  142.90 input   59.86 | X-H torsion
[ 10167 10162 10161 10158 ] final  139.85 input  -65.29 | X-H torsion
[ 10718 10713 10712 10709 ] final -106.81 input   66.30 | X-H torsion
[ 10763 10752 10751 10750 ] final -157.29 input  -60.55 | X-H torsion
[ 11005 11000 10999 10996 ] final  146.43 input  -57.11 | X-H torsion

> <Gold.Protein.ActiveResidues>
 VAL166  LYS551  ARG553  GLY616  TRP617  ASP618  TYR619  PRO620  LYS621  CYS622 
 ASP623  PHE694  ASN695  SER759  ASP760  ASP761  ALA762  ILE779  LEU786  VAL792 
 PHE793  MET794  SER795  GLU796  ALA797  LYS798  CYS799  TRP800  GLU811  SER814 

> <Gold.Protein.RotatedAtoms>
  151.8023  135.0705  160.0401 H   0  0  0  0  0  0  0  0  0  0  0  0  # atno 6907 bound_to 6896
  152.3080  133.5718  159.5670 H   0  0  0  0  0  0  0  0  0  0  0  0  # atno 6908 bound_to 6896
  150.7305  134.0110  159.3712 H   0  0  0  0  0  0  0  0  0  0  0  0  # atno 6909 bound_to 6896
  145.6467  140.9295  143.1006 H   0  0  0  0  0  0  0  0  0  0  0  0  # atno 7974 bound_to 7965
  156.2941  140.2276  156.4803 H   0  0  0  0  0  0  0  0  0  0  0  0  # atno 8008 bound_to 7997
  154.7859  140.0457  157.1184 H   0  0  0  0  0  0  0  0  0  0  0  0  # atno 8009 bound_to 7997
  154.9703  140.3065  155.4994 H   0  0  0  0  0  0  0  0  0  0  0  0  # atno 8010 bound_to 7997
  139.5066  144.6269  151.5914 H   0  0  0  0  0  0  0  0  0  0  0  0  # atno 10167 bound_to 10162
  156.0407  130.5631  150.7734 H   0  0  0  0  0  0  0  0  0  0  0  0  # atno 10718 bound_to 10713
  154.7648  135.3128  154.8308 H   0  0  0  0  0  0  0  0  0  0  0  0  # atno 10763 bound_to 10752
  153.9059  135.6811  153.4757 H   0  0  0  0  0  0  0  0  0  0  0  0  # atno 10764 bound_to 10752
  153.1252  135.4804  154.9193 H   0  0  0  0  0  0  0  0  0  0  0  0  # atno 10765 bound_to 10752
  140.0792  134.9107  157.1473 H   0  0  0  0  0  0  0  0  0  0  0  0  # atno 11005 bound_to 11000
  144.7137  139.8274  143.7406 LP  0  0  0  0  0  0  0  0  0  0  0  0  # atno 17320 bound_to 7965
  146.1237  139.4259  143.0212 LP  0  0  0  0  0  0  0  0  0  0  0  0  # atno 17321 bound_to 7965
  140.5989  143.9645  150.6373 LP  0  0  0  0  0  0  0  0  0  0  0  0  # atno 17342 bound_to 10162
  140.2850  143.3363  152.1116 LP  0  0  0  0  0  0  0  0  0  0  0  0  # atno 17343 bound_to 10162
  157.5221  131.0932  151.0065 LP  0  0  0  0  0  0  0  0  0  0  0  0  # atno 17370 bound_to 10713
  157.0392  130.5742  149.5354 LP  0  0  0  0  0  0  0  0  0  0  0  0  # atno 17371 bound_to 10713
  140.3512  134.2596  155.7198 LP  0  0  0  0  0  0  0  0  0  0  0  0  # atno 17394 bound_to 11000
  141.2041  133.7896  157.0307 LP  0  0  0  0  0  0  0  0  0  0  0  0  # atno 17395 bound_to 11000

$$$$
