AV-unprocessed.smi:1791|AV-procd|sdf|7218|dock5
  -GOLD-   22720 8463D 1   1.00000     0.00000
 Structure written by MMmdl.
 38 39  0  0  0  0  0  0  0  0  1 V2000
  152.2323  141.1234  158.0805 C   0  0  0  0  0  0  0  0  0  0  0  0
  151.6385  141.1837  156.7881 O   0  0  0  0  0  0  0  0  0  0  0  0
  151.1284  140.0211  156.2470 C   0  0  0  0  0  0  0  0  0  0  0  0
  150.9307  138.9125  157.0940 C   0  0  0  0  0  0  0  0  0  0  0  0
  150.4186  137.7195  156.5481 C   0  0  0  0  0  0  0  0  0  0  0  0
  150.1258  137.6714  155.1638 C   0  0  0  0  0  0  0  0  0  0  0  0
  149.6014  136.5370  154.4865 N   0  0  0  0  0  0  0  0  0  0  0  0
  149.2821  135.3288  154.9813 C   0  0  0  0  0  0  0  0  0  0  0  0
  149.3564  134.9987  156.1642 O   0  0  0  0  0  0  0  0  0  0  0  0
  148.8715  134.5068  154.0046 N   0  0  0  0  0  0  0  0  0  0  0  0
  148.4579  133.1141  154.1681 C   0  0  2  0  0  0  0  0  0  0  0  0
  149.6917  132.2682  154.5150 C   0  0  0  0  0  0  0  0  0  0  0  0
  147.7605  132.6133  152.8880 C   0  0  2  0  0  0  0  0  0  0  0  0
  146.6018  133.4856  152.3998 C   0  0  0  0  0  0  0  0  0  0  0  0
  145.7256  132.5179  151.6190 C   0  0  0  0  0  0  0  0  0  0  0  0
  146.2481  131.1348  152.0168 C   0  0  0  0  0  0  0  0  0  0  0  0
  147.1157  131.3701  153.1162 O   0  0  0  0  0  0  0  0  0  0  0  0
  150.3443  138.8411  154.4073 C   0  0  0  0  0  0  0  0  0  0  0  0
  150.8348  139.9871  154.9240 N   0  0  0  0  0  0  0  0  0  0  0  0
  152.5719  142.1179  158.3689 H   0  0  0  0  0  0  0  0  0  0  0  0
  153.0997  140.4617  158.0900 H   0  0  0  0  0  0  0  0  0  0  0  0
  151.5175  140.7874  158.8331 H   0  0  0  0  0  0  0  0  0  0  0  0
  151.1672  138.9759  158.1460 H   0  0  0  0  0  0  0  0  0  0  0  0
  150.2551  136.8786  157.2030 H   0  0  0  0  0  0  0  0  0  0  0  0
  149.5268  136.6332  153.4843 H   0  0  0  0  0  0  0  0  0  0  0  0
  148.8464  134.8726  153.0642 H   0  0  0  0  0  0  0  0  0  0  0  0
  147.7560  133.0266  154.9991 H   0  0  0  0  0  0  0  0  0  0  0  0
  149.4227  131.2226  154.6678 H   0  0  0  0  0  0  0  0  0  0  0  0
  150.1636  132.6213  155.4325 H   0  0  0  0  0  0  0  0  0  0  0  0
  150.4374  132.3062  153.7201 H   0  0  0  0  0  0  0  0  0  0  0  0
  148.4891  132.4874  152.0842 H   0  0  0  0  0  0  0  0  0  0  0  0
  146.0415  133.8780  153.2497 H   0  0  0  0  0  0  0  0  0  0  0  0
  146.9368  134.3323  151.8000 H   0  0  0  0  0  0  0  0  0  0  0  0
  144.6761  132.6441  151.8870 H   0  0  0  0  0  0  0  0  0  0  0  0
  145.8182  132.6697  150.5432 H   0  0  0  0  0  0  0  0  0  0  0  0
  145.4481  130.4453  152.2869 H   0  0  0  0  0  0  0  0  0  0  0  0
  146.8186  130.6911  151.1995 H   0  0  0  0  0  0  0  0  0  0  0  0
  150.1247  138.8585  153.3496 H   0  0  0  0  0  0  0  0  0  0  0  0
  1  2  1  0  0  0  0
  1 20  1  0  0  0  0
  1 21  1  0  0  0  0
  1 22  1  0  0  0  0
  2  3  1  0  0  0  0
  3 19  1  0  0  0  0
  3  4  2  0  0  0  0
  4  5  1  0  0  0  0
  4 23  1  0  0  0  0
  5  6  2  0  0  0  0
  5 24  1  0  0  0  0
  6  7  1  0  0  0  0
  6 18  1  0  0  0  0
  7  8  1  0  0  0  0
  7 25  1  0  0  0  0
  8  9  2  0  0  0  0
  8 10  1  0  0  0  0
 10 11  1  0  0  0  0
 10 26  1  0  0  0  0
 11 12  1  0  0  0  0
 11 13  1  0  0  0  0
 11 27  1  0  0  0  0
 12 28  1  0  0  0  0
 12 29  1  0  0  0  0
 12 30  1  0  0  0  0
 13 17  1  0  0  0  0
 13 14  1  0  0  0  0
 13 31  1  0  0  0  0
 14 15  1  0  0  0  0
 14 32  1  0  0  0  0
 14 33  1  0  0  0  0
 15 16  1  0  0  0  0
 15 34  1  0  0  0  0
 15 35  1  0  0  0  0
 16 17  1  0  0  0  0
 16 36  1  0  0  0  0
 16 37  1  0  0  0  0
 18 19  2  0  0  0  0
 18 38  1  0  0  0  0
M  END
> <s_m_source_file>
AV-unprocessed.smi

> <i_m_source_file_index>
1791

> <i_lp_mmshare_version>
43012

> <i_f3d_flags>
0

> <s_epik_input>
W0NIM11PYzFbY0hdW2NIXWMoW2NIXW4xKVtOSF1DKD1PKVtOSF1bQ0BIXShbQ0gzXSlbQ0BASF0yW0NIMl1bQ0gyXVtDSDJdTzI=

> <s_epik_cmdline>
J2VwaWtfcHl0aG9uJywgJy1waCcsICc3LjAnLCAnLXRuJywgJzgnLCAnLW1hJywgJzIwMCcsICctbWV0YWxfYmluZGluZycsICctaW1hZScsICc8aW5maWxlLm1hZT4nLCAnLW9tYWUnLCAnPG91dGZpbGUubWFlPic=

> <r_lp_tautomer_probability>
1

> <r_epik_Ionization_Penalty>
9.18737e-05

> <r_epik_Ionization_Penalty_Charging>
0

> <r_epik_Ionization_Penalty_Neutral>
9.18737e-05

> <r_epik_State_Penalty>
-0

> <r_epik_Charging_Adjusted_Penalty>
0

> <i_epik_Tot_Q>
0

> <i_epik_Tot_abs_Q>
0

> <r_epik_Metal_State_Penalty>
-0

> <b_epik_Metal_Only>
0

> <s_lp_Force_Field>
OPLS_2005

> <r_lp_Energy>
20.7661

> <b_lp_Chiralities_Consistent>
1

> <s_lp_Variant>
AV-unprocessed.smi:1791-1

> <Gold.Version>
5.8.1

> <Gold.Id.Protein>
6NUR|6NUR_protein|mol2

> <Gold.PLP.Fitness>
38.0157

> <Gold.PLP.PLP>
-26.7799

> <Gold.PLP.part.hbond>
-3.0000

> <Gold.PLP.part.metal>
0.0000

> <Gold.PLP.part.buried>
-2.8627

> <Gold.PLP.part.nonpolar>
-20.7275

> <Gold.PLP.part.repulsive>
0.2426

> <Gold.PLP.ligand.clash>
0.0482

> <Gold.PLP.ligand.torsion>
0.3825

> <Gold.PLP.Chemscore.Hbond>
3.0000

> <Gold.PLP.Chemscore.CHOScore>
1.0000

> <Gold.PLP.Chemscore.Metal>
0.0000

> <Gold.Chemscore.Hbonds>
donor molecule, donor type, donor heavy atom, donor atom, acceptor molecule, acceptor atom, score
      L1  H     7    25       P1  7948  1.00
      L1  H    10    26       P1  7948  0.95
      P1  H  7989  7998       L1    19  1.00
      L1  C    18    38       P1  7957  1.00

> <Gold.PLP.Chemscore.Internal.Correction>
0.0490

> <Gold.Rescore>
     Score         DG    S(hbond)    S(metal)    S(lipo)     H(rot)  DE(clash)    DE(int)     intcor
     15.41     -16.91       2.50        0.00      58.41       1.47       0.02       1.48       ----

> <Gold.Chemscore.Fitness>
15.4127

> <Gold.Chemscore.DG>
-16.9060

> <Gold.Chemscore.ZeroCoef>
-5.4800

> <Gold.Chemscore.Hbond>
2.5011

> <Gold.Chemscore.Metal>
0.0000

> <Gold.Chemscore.Lipo>
58.4056

> <Gold.Chemscore.Internal_Hbond>
0.0000

> <Gold.Chemscore.DEClash>
0.0174

> <Gold.Chemscore.DEInternal>
1.4759

> <Gold.Chemscore.Rot>
1.4693

> <Gold.Chemscore.Internal.Correction>
   9.000000E+99

> <Gold.Chemscore.Hbonds>
donor molecule, donor type, donor heavy atom, donor atom, acceptor molecule, acceptor atom, score
      L1  H     7    25       P1  7948  0.74
      L1  H    10    26       P1  7948  0.21
      P1  H  7989  7998       L1    19  0.50

> <Gold.Chemscore.Hbond.Weighted>
-8.3538

> <Gold.Chemscore.Metal.Weighted>
-0.0000

> <Gold.Chemscore.Lipo.Weighted>
-6.8335

> <Gold.Chemscore.Internal_Hbond.Weighted>
0.0000

> <Gold.Chemscore.DEClash.Weighted>
0.0174

> <Gold.Chemscore.DEInternal.Weighted>
1.4759

> <Gold.Chemscore.Rot.Weighted>
3.7613

> <Gold.Chemscore.Internal.Correction.Weighted>
   9.000000E+99

> <Gold.Protein.RotatedTorsions>
[ 6907 6896 6895 6894 ] final   -5.99 input  -60.11 | X-H torsion
[ 7974 7965 7964 7962 ] final   49.30 input  175.53 | X-H torsion
[ 8008 7997 7996 7995 ] final  -61.20 input   59.86 | X-H torsion
[ 10167 10162 10161 10158 ] final  -81.02 input  -65.29 | X-H torsion
[ 10718 10713 10712 10709 ] final -124.58 input   66.30 | X-H torsion
[ 10763 10752 10751 10750 ] final -160.85 input  -60.55 | X-H torsion
[ 11005 11000 10999 10996 ] final  119.39 input  -57.11 | X-H torsion

> <Gold.Protein.ActiveResidues>
 VAL166  LYS551  ARG553  GLY616  TRP617  ASP618  TYR619  PRO620  LYS621  CYS622 
 ASP623  PHE694  ASN695  SER759  ASP760  ASP761  ALA762  ILE779  LEU786  VAL792 
 PHE793  MET794  SER795  GLU796  ALA797  LYS798  CYS799  TRP800  GLU811  SER814 

> <Gold.Protein.RotatedAtoms>
  151.4728  135.1047  159.9755 H   0  0  0  0  0  0  0  0  0  0  0  0  # atno 6907 bound_to 6896
  152.4810  133.8250  159.7084 H   0  0  0  0  0  0  0  0  0  0  0  0  # atno 6908 bound_to 6896
  150.8881  133.7219  159.2939 H   0  0  0  0  0  0  0  0  0  0  0  0  # atno 6909 bound_to 6896
  146.0122  139.4556  142.9949 H   0  0  0  0  0  0  0  0  0  0  0  0  # atno 7974 bound_to 7965
  154.4436  140.1023  156.6393 H   0  0  0  0  0  0  0  0  0  0  0  0  # atno 8008 bound_to 7997
  155.5519  140.3486  155.4452 H   0  0  0  0  0  0  0  0  0  0  0  0  # atno 8009 bound_to 7997
  156.0523  140.1307  157.0025 H   0  0  0  0  0  0  0  0  0  0  0  0  # atno 8010 bound_to 7997
  140.4450  143.2502  151.8572 H   0  0  0  0  0  0  0  0  0  0  0  0  # atno 10167 bound_to 10162
  156.1600  130.6595  151.0036 H   0  0  0  0  0  0  0  0  0  0  0  0  # atno 10718 bound_to 10713
  154.7354  135.3056  154.8820 H   0  0  0  0  0  0  0  0  0  0  0  0  # atno 10763 bound_to 10752
  153.9650  135.6748  153.4750 H   0  0  0  0  0  0  0  0  0  0  0  0  # atno 10764 bound_to 10752
  153.0958  135.4936  154.8698 H   0  0  0  0  0  0  0  0  0  0  0  0  # atno 10765 bound_to 10752
  139.9145  134.9628  156.7648 H   0  0  0  0  0  0  0  0  0  0  0  0  # atno 11005 bound_to 11000
  145.7324  141.0037  143.1344 LP  0  0  0  0  0  0  0  0  0  0  0  0  # atno 17320 bound_to 7965
  144.6957  139.9000  143.7458 LP  0  0  0  0  0  0  0  0  0  0  0  0  # atno 17321 bound_to 7965
  139.4792  144.5186  151.8833 LP  0  0  0  0  0  0  0  0  0  0  0  0  # atno 17342 bound_to 10162
  140.4274  144.2161  150.5887 LP  0  0  0  0  0  0  0  0  0  0  0  0  # atno 17343 bound_to 10162
  157.6725  131.0858  150.7577 LP  0  0  0  0  0  0  0  0  0  0  0  0  # atno 17370 bound_to 10713
  156.7641  130.4808  149.5431 LP  0  0  0  0  0  0  0  0  0  0  0  0  # atno 17371 bound_to 10713
  140.6668  133.9595  155.7835 LP  0  0  0  0  0  0  0  0  0  0  0  0  # atno 17394 bound_to 11000
  141.0605  134.0353  157.3665 LP  0  0  0  0  0  0  0  0  0  0  0  0  # atno 17395 bound_to 11000

$$$$
