AV-unprocessed.smi:2526|AV-procd|sdf|9937|dock8
  -GOLD-   2272013583D 1   1.00000     0.00000
 Structure written by MMmdl.
 29 30  0  0  0  0  0  0  0  0  2 V2000
  151.1699  138.5232  154.8066 C   0  0  0  0  0  0  0  0  0  0  0  0
  150.9579  139.7163  155.5977 N   0  0  0  0  0  0  0  0  0  0  0  0
  151.1096  139.8845  156.9568 C   0  0  0  0  0  0  0  0  0  0  0  0
  150.7920  141.1827  157.2504 C   0  0  0  0  0  0  0  0  0  0  0  0
  150.7981  141.8911  158.5840 C   0  0  1  0  0  0  0  0  0  0  0  0
  152.0663  141.6660  159.2829 N   0  0  0  0  0  0  0  0  0  0  0  0
  152.7091  142.5312  160.0877 C   0  0  0  0  0  0  0  0  0  0  0  0
  153.7385  142.2131  160.6772 O   0  0  0  0  0  0  0  0  0  0  0  0
  152.1627  143.9590  160.2415 C   0  0  0  0  0  0  0  0  0  0  0  0
  150.7144  144.1241  159.7519 C   0  0  0  0  0  0  0  0  0  0  0  0
  150.5007  143.3997  158.4178 C   0  0  2  0  0  0  0  0  0  0  0  0
  149.1420  143.6345  157.8959 N   0  3  0  0  0  0  0  0  0  0  0  0
  150.4502  141.7287  155.9793 C   0  0  0  0  0  0  0  0  0  0  0  0
  150.5533  140.8523  154.9948 N   0  0  0  0  0  0  0  0  0  0  0  0
  151.7697  137.8055  155.3672 H   0  0  0  0  0  0  0  0  0  0  0  0
  151.6928  138.7746  153.8829 H   0  0  0  0  0  0  0  0  0  0  0  0
  150.2087  138.0701  154.5623 H   0  0  0  0  0  0  0  0  0  0  0  0
  151.4297  139.0748  157.5966 H   0  0  0  0  0  0  0  0  0  0  0  0
  150.0296  141.4614  159.2287 H   0  0  0  0  0  0  0  0  0  0  0  0
  152.4703  140.7451  159.1865 H   0  0  0  0  0  0  0  0  0  0  0  0
  152.2426  144.2689  161.2842 H   0  0  0  0  0  0  0  0  0  0  0  0
  152.8148  144.6205  159.6704 H   0  0  0  0  0  0  0  0  0  0  0  0
  150.0256  143.7349  160.5035 H   0  0  0  0  0  0  0  0  0  0  0  0
  150.4876  145.1857  159.6460 H   0  0  0  0  0  0  0  0  0  0  0  0
  151.1948  143.8198  157.6877 H   0  0  0  0  0  0  0  0  0  0  0  0
  148.7484  144.4556  158.3332 H   0  0  0  0  0  0  0  0  0  0  0  0
  148.5619  142.8330  158.0994 H   0  0  0  0  0  0  0  0  0  0  0  0
  150.1345  142.7344  155.7441 H   0  0  0  0  0  0  0  0  0  0  0  0
  149.1842  143.7732  156.8962 H   0  0  0  0  0  0  0  0  0  0  0  0
  1  2  1  0  0  0  0
  1 15  1  0  0  0  0
  1 16  1  0  0  0  0
  1 17  1  0  0  0  0
  2 14  1  0  0  0  0
  2  3  1  0  0  0  0
  3  4  2  0  0  0  0
  3 18  1  0  0  0  0
  4  5  1  0  0  0  0
  4 13  1  0  0  0  0
  5 11  1  0  0  0  0
  5  6  1  0  0  0  0
  5 19  1  0  0  0  0
  6  7  1  0  0  0  0
  6 20  1  0  0  0  0
  7  8  2  0  0  0  0
  7  9  1  0  0  0  0
  9 10  1  0  0  0  0
  9 21  1  0  0  0  0
  9 22  1  0  0  0  0
 10 11  1  0  0  0  0
 10 23  1  0  0  0  0
 10 24  1  0  0  0  0
 11 12  1  0  0  0  0
 11 25  1  0  0  0  0
 12 26  1  0  0  0  0
 12 27  1  0  0  0  0
 12 29  1  0  0  0  0
 13 14  2  0  0  0  0
 13 28  1  0  0  0  0
M  CHG  1  12   1
M  END
> <s_m_source_file>
AV-unprocessed.smi

> <i_m_source_file_index>
2526

> <i_lp_mmshare_version>
43012

> <i_f3d_flags>
0

> <s_epik_input>
W0NIM11uMVtjSF1jKFtjSF1uMSlbQ0BASF0yW05IXUMoPU8pW0NIMl1bQ0gyXVtDQEhdMltOSDJd

> <s_epik_cmdline>
J2VwaWtfcHl0aG9uJywgJy1waCcsICc3LjAnLCAnLXRuJywgJzgnLCAnLW1hJywgJzIwMCcsICctbWV0YWxfYmluZGluZycsICctaW1hZScsICc8aW5maWxlLm1hZT4nLCAnLW9tYWUnLCAnPG91dGZpbGUubWFlPic=

> <r_lp_tautomer_probability>
1

> <r_epik_Ionization_Penalty>
0.00878543

> <r_epik_Ionization_Penalty_Charging>
0.00874185

> <r_epik_Ionization_Penalty_Neutral>
4.35793e-05

> <r_epik_State_Penalty>
0.00660351

> <r_epik_Charging_Adjusted_Penalty>
0.0153454

> <i_epik_Tot_Q>
1

> <i_epik_Tot_abs_Q>
1

> <r_epik_Metal_State_Penalty>
0.00660727

> <b_epik_Metal_Only>
0

> <s_lp_Force_Field>
OPLS_2005

> <r_lp_Energy>
10.7235

> <b_lp_Chiralities_Consistent>
1

> <s_lp_Variant>
AV-unprocessed.smi:2526-4

> <Gold.Version>
5.8.1

> <Gold.Id.Protein>
6NUR|6NUR_protein|mol2

> <Gold.PLP.Fitness>
40.5050

> <Gold.PLP.PLP>
-27.0042

> <Gold.PLP.part.hbond>
-2.8669

> <Gold.PLP.part.metal>
0.0000

> <Gold.PLP.part.buried>
-1.4276

> <Gold.PLP.part.nonpolar>
-22.5432

> <Gold.PLP.part.repulsive>
0.2346

> <Gold.PLP.ligand.clash>
0.0000

> <Gold.PLP.ligand.torsion>
0.1242

> <Gold.PLP.Chemscore.Hbond>
3.5759

> <Gold.PLP.Chemscore.CHOScore>
1.0000

> <Gold.PLP.Chemscore.Metal>
0.0000

> <Gold.Chemscore.Hbonds>
donor molecule, donor type, donor heavy atom, donor atom, acceptor molecule, acceptor atom, score
      L1  H    12    26       P1  8029  0.90
      L1  H    12    29       P1  8028  1.86
      P1  H  7989  7998       L1    14  0.80
      L1  C    13    28       P1  8028  1.00

> <Gold.PLP.Chemscore.Internal.Correction>
0.0215

> <Gold.Rescore>
     Score         DG    S(hbond)    S(metal)    S(lipo)     H(rot)  DE(clash)    DE(int)     intcor
     14.03     -15.30       1.62        0.00      59.61       1.00       0.02       1.26       ----

> <Gold.Chemscore.Fitness>
14.0250

> <Gold.Chemscore.DG>
-15.3019

> <Gold.Chemscore.ZeroCoef>
-5.4800

> <Gold.Chemscore.Hbond>
1.6189

> <Gold.Chemscore.Metal>
0.0000

> <Gold.Chemscore.Lipo>
59.6119

> <Gold.Chemscore.Internal_Hbond>
0.0000

> <Gold.Chemscore.DEClash>
0.0195

> <Gold.Chemscore.DEInternal>
1.2573

> <Gold.Chemscore.Rot>
1.0000

> <Gold.Chemscore.Internal.Correction>
   9.000000E+99

> <Gold.Chemscore.Hbonds>
donor molecule, donor type, donor heavy atom, donor atom, acceptor molecule, acceptor atom, score
      L1  H    12    26       P1  8029  0.21
      L1  H    12    29       P1  8028  0.61
      P1  H  7989  7998       L1    14  0.28

> <Gold.Chemscore.Hbond.Weighted>
-5.4073

> <Gold.Chemscore.Metal.Weighted>
-0.0000

> <Gold.Chemscore.Lipo.Weighted>
-6.9746

> <Gold.Chemscore.Internal_Hbond.Weighted>
0.0000

> <Gold.Chemscore.DEClash.Weighted>
0.0195

> <Gold.Chemscore.DEInternal.Weighted>
1.2573

> <Gold.Chemscore.Rot.Weighted>
2.5600

> <Gold.Chemscore.Internal.Correction.Weighted>
   9.000000E+99

> <Gold.Protein.RotatedTorsions>
[ 6907 6896 6895 6894 ] final  127.42 input  -60.11 | X-H torsion
[ 7974 7965 7964 7962 ] final -133.42 input  175.53 | X-H torsion
[ 8008 7997 7996 7995 ] final  107.41 input   59.86 | X-H torsion
[ 10167 10162 10161 10158 ] final  -92.84 input  -65.29 | X-H torsion
[ 10718 10713 10712 10709 ] final -128.62 input   66.30 | X-H torsion
[ 10763 10752 10751 10750 ] final  -41.82 input  -60.55 | X-H torsion
[ 11005 11000 10999 10996 ] final -116.28 input  -57.11 | X-H torsion

> <Gold.Protein.ActiveResidues>
 VAL166  LYS551  ARG553  GLY616  TRP617  ASP618  TYR619  PRO620  LYS621  CYS622 
 ASP623  PHE694  ASN695  SER759  ASP760  ASP761  ALA762  ILE779  LEU786  VAL792 
 PHE793  MET794  SER795  GLU796  ALA797  LYS798  CYS799  TRP800  GLU811  SER814 

> <Gold.Protein.RotatedAtoms>
  152.3814  133.6551  159.6163 H   0  0  0  0  0  0  0  0  0  0  0  0  # atno 6907 bound_to 6896
  150.7744  133.9108  159.3377 H   0  0  0  0  0  0  0  0  0  0  0  0  # atno 6908 bound_to 6896
  151.6912  135.0947  160.0285 H   0  0  0  0  0  0  0  0  0  0  0  0  # atno 6909 bound_to 6896
  144.9195  140.6996  143.4974 H   0  0  0  0  0  0  0  0  0  0  0  0  # atno 7974 bound_to 7965
  156.1822  140.3095  155.9170 H   0  0  0  0  0  0  0  0  0  0  0  0  # atno 8008 bound_to 7997
  155.3359  140.0463  157.3061 H   0  0  0  0  0  0  0  0  0  0  0  0  # atno 8009 bound_to 7997
  154.5355  140.2244  155.8739 H   0  0  0  0  0  0  0  0  0  0  0  0  # atno 8010 bound_to 7997
  140.3307  143.2996  151.9945 H   0  0  0  0  0  0  0  0  0  0  0  0  # atno 10167 bound_to 10162
  156.1968  130.6831  151.0491 H   0  0  0  0  0  0  0  0  0  0  0  0  # atno 10718 bound_to 10713
  153.9688  135.6731  153.4746 H   0  0  0  0  0  0  0  0  0  0  0  0  # atno 10763 bound_to 10752
  153.0803  135.4927  154.8485 H   0  0  0  0  0  0  0  0  0  0  0  0  # atno 10764 bound_to 10752
  154.7231  135.3121  154.8976 H   0  0  0  0  0  0  0  0  0  0  0  0  # atno 10765 bound_to 10752
  141.0432  133.9803  157.2960 H   0  0  0  0  0  0  0  0  0  0  0  0  # atno 11005 bound_to 11000
  145.3320  139.1757  143.4532 LP  0  0  0  0  0  0  0  0  0  0  0  0  # atno 17320 bound_to 7965
  146.3198  140.3350  142.8643 LP  0  0  0  0  0  0  0  0  0  0  0  0  # atno 17321 bound_to 7965
  139.4857  144.6237  151.7205 LP  0  0  0  0  0  0  0  0  0  0  0  0  # atno 17342 bound_to 10162
  140.5400  144.0595  150.6084 LP  0  0  0  0  0  0  0  0  0  0  0  0  # atno 17343 bound_to 10162
  157.6962  131.0793  150.6960 LP  0  0  0  0  0  0  0  0  0  0  0  0  # atno 17370 bound_to 10713
  156.7017  130.4625  149.5571 LP  0  0  0  0  0  0  0  0  0  0  0  0  # atno 17371 bound_to 10713
  139.9292  135.0200  156.8340 LP  0  0  0  0  0  0  0  0  0  0  0  0  # atno 17394 bound_to 11000
  140.6195  134.0007  155.7612 LP  0  0  0  0  0  0  0  0  0  0  0  0  # atno 17395 bound_to 11000

$$$$
