AV-unprocessed.smi:532|AV-procd|sdf|2850|dock2
  -GOLD-   2262023343D 1   1.00000     0.00000
 Structure written by MMmdl.
 49 51  0  0  0  0  0  0  0  0  1 V2000
  150.9151  132.6310  156.9426 C   0  0  0  0  0  0  0  0  0  0  0  0
  150.0802  133.5109  157.6746 O   0  0  0  0  0  0  0  0  0  0  0  0
  148.9640  133.9498  156.9199 C   0  0  0  0  0  0  0  0  0  0  0  0
  148.1356  134.9179  157.7725 C   0  0  0  0  0  0  0  0  0  0  0  0
  148.9709  135.9487  158.3727 N   0  0  0  0  0  0  0  0  0  0  0  0
  149.0357  136.3196  159.6766 C   0  0  0  0  0  0  0  0  0  0  0  0
  148.2391  135.7104  160.6416 N   0  0  0  0  0  0  0  0  0  0  0  0
  147.9942  136.3090  161.9545 C   0  0  0  0  0  0  0  0  0  0  0  0
  146.6055  135.9744  162.5447 C   0  0  1  0  0  0  0  0  0  0  0  0
  145.4611  136.7611  161.8846 C   0  0  0  0  0  0  0  0  0  0  0  0
  146.3628  134.4553  162.5352 C   0  0  0  0  0  0  0  0  0  0  0  0
  146.6545  133.8540  161.1510 C   0  0  2  0  0  0  0  0  0  0  0  0
  146.4861  132.3287  161.1562 C   0  0  0  0  0  0  0  0  0  0  0  0
  148.0680  134.2610  160.6978 C   0  0  0  0  0  0  0  0  0  0  0  0
  149.9139  137.2908  159.9420 N   0  0  0  0  0  0  0  0  0  0  0  0
  150.4443  137.5728  158.6914 C   0  0  0  0  0  0  0  0  0  0  0  0
  149.8893  136.7830  157.7379 C   0  0  0  0  0  0  0  0  0  0  0  0
  150.2622  136.8753  156.3219 C   0  0  0  0  0  0  0  0  0  0  0  0
  149.7616  136.1772  155.4429 O   0  0  0  0  0  0  0  0  0  0  0  0
  151.2125  137.8122  156.0851 N   0  0  0  0  0  0  0  0  0  0  0  0
  151.8138  138.6382  156.9959 C   0  0  0  0  0  0  0  0  0  0  0  0
  152.6643  139.4438  156.6191 O   0  0  0  0  0  0  0  0  0  0  0  0
  151.4301  138.5245  158.3098 N   0  0  0  0  0  0  0  0  0  0  0  0
  152.0086  139.3622  159.3621 C   0  0  0  0  0  0  0  0  0  0  0  0
  151.5095  137.9149  155.1258 H   0  0  0  0  0  0  0  0  0  0  0  0
  151.7564  132.3223  157.5631 H   0  0  0  0  0  0  0  0  0  0  0  0
  151.3142  133.1166  156.0512 H   0  0  0  0  0  0  0  0  0  0  0  0
  150.3738  131.7336  156.6401 H   0  0  0  0  0  0  0  0  0  0  0  0
  149.2988  134.4431  156.0062 H   0  0  0  0  0  0  0  0  0  0  0  0
  148.3550  133.0952  156.6230 H   0  0  0  0  0  0  0  0  0  0  0  0
  147.3604  135.3929  157.1726 H   0  0  0  0  0  0  0  0  0  0  0  0
  147.6067  134.3806  158.5592 H   0  0  0  0  0  0  0  0  0  0  0  0
  148.7718  135.9557  162.6329 H   0  0  0  0  0  0  0  0  0  0  0  0
  148.1203  137.3904  161.8889 H   0  0  0  0  0  0  0  0  0  0  0  0
  146.6191  136.2910  163.5881 H   0  0  0  0  0  0  0  0  0  0  0  0
  145.3509  136.5167  160.8299 H   0  0  0  0  0  0  0  0  0  0  0  0
  145.6289  137.8351  161.9635 H   0  0  0  0  0  0  0  0  0  0  0  0
  144.5091  136.5456  162.3702 H   0  0  0  0  0  0  0  0  0  0  0  0
  147.0163  133.9875  163.2732 H   0  0  0  0  0  0  0  0  0  0  0  0
  145.3416  134.2298  162.8448 H   0  0  0  0  0  0  0  0  0  0  0  0
  145.9375  134.2585  160.4355 H   0  0  0  0  0  0  0  0  0  0  0  0
  147.1867  131.8543  161.8442 H   0  0  0  0  0  0  0  0  0  0  0  0
  146.6593  131.9122  160.1635 H   0  0  0  0  0  0  0  0  0  0  0  0
  145.4778  132.0463  161.4601 H   0  0  0  0  0  0  0  0  0  0  0  0
  148.2697  133.8451  159.7098 H   0  0  0  0  0  0  0  0  0  0  0  0
  148.8181  133.8414  161.3695 H   0  0  0  0  0  0  0  0  0  0  0  0
  152.7622  140.0658  159.0072 H   0  0  0  0  0  0  0  0  0  0  0  0
  152.4790  138.7346  160.1199 H   0  0  0  0  0  0  0  0  0  0  0  0
  151.2234  139.9423  159.8477 H   0  0  0  0  0  0  0  0  0  0  0  0
  1  2  1  0  0  0  0
  1 26  1  0  0  0  0
  1 27  1  0  0  0  0
  1 28  1  0  0  0  0
  2  3  1  0  0  0  0
  3  4  1  0  0  0  0
  3 29  1  0  0  0  0
  3 30  1  0  0  0  0
  4  5  1  0  0  0  0
  4 31  1  0  0  0  0
  4 32  1  0  0  0  0
  5 17  1  0  0  0  0
  5  6  1  0  0  0  0
  6  7  1  0  0  0  0
  6 15  2  0  0  0  0
  7 14  1  0  0  0  0
  7  8  1  0  0  0  0
  8  9  1  0  0  0  0
  8 33  1  0  0  0  0
  8 34  1  0  0  0  0
  9 10  1  0  0  0  0
  9 11  1  0  0  0  0
  9 35  1  0  0  0  0
 10 36  1  0  0  0  0
 10 37  1  0  0  0  0
 10 38  1  0  0  0  0
 11 12  1  0  0  0  0
 11 39  1  0  0  0  0
 11 40  1  0  0  0  0
 12 13  1  0  0  0  0
 12 14  1  0  0  0  0
 12 41  1  0  0  0  0
 13 42  1  0  0  0  0
 13 43  1  0  0  0  0
 13 44  1  0  0  0  0
 14 45  1  0  0  0  0
 14 46  1  0  0  0  0
 15 16  1  0  0  0  0
 16 23  1  0  0  0  0
 16 17  2  0  0  0  0
 17 18  1  0  0  0  0
 18 19  2  0  0  0  0
 18 20  1  0  0  0  0
 20 25  1  0  0  0  0
 20 21  1  0  0  0  0
 21 22  2  0  0  0  0
 21 23  1  0  0  0  0
 23 24  1  0  0  0  0
 24 47  1  0  0  0  0
 24 48  1  0  0  0  0
 24 49  1  0  0  0  0
M  END
> <s_m_source_file>
AV-unprocessed.smi

> <i_m_source_file_index>
532

> <i_lp_mmshare_version>
43012

> <i_f3d_flags>
0

> <s_epik_input>
W0NIM11uMWMoPU8pW25IXWMoPU8pYyhjMTIpbihbQ0gyXVtDSDJdT1tDSDNdKWMobjIpTjNbQ0gyXVtDQEBIXShbQ0gzXSlbQ0gyXVtDQEBIXShbQ0gzXSlbQ0gyXTM=

> <s_epik_cmdline>
J2VwaWtfcHl0aG9uJywgJy1waCcsICc3LjAnLCAnLXRuJywgJzgnLCAnLW1hJywgJzIwMCcsICctbWV0YWxfYmluZGluZycsICctaW1hZScsICc8aW5maWxlLm1hZT4nLCAnLW9tYWUnLCAnPG91dGZpbGUubWFlPic=

> <r_lp_tautomer_probability>
1

> <r_epik_Ionization_Penalty>
0.000642525

> <r_epik_Ionization_Penalty_Charging>
0.000121571

> <r_epik_Ionization_Penalty_Neutral>
0.000520954

> <r_epik_State_Penalty>
-0

> <r_epik_Charging_Adjusted_Penalty>
0.000121571

> <i_epik_Tot_Q>
0

> <i_epik_Tot_abs_Q>
0

> <r_epik_Metal_State_Penalty>
0.0931709

> <b_epik_Metal_Only>
0

> <s_lp_Force_Field>
OPLS_2005

> <r_lp_Energy>
43.7667

> <b_lp_Chiralities_Consistent>
1

> <s_lp_Variant>
AV-unprocessed.smi:532-3

> <Gold.Version>
5.8.1

> <Gold.Id.Protein>
6NUR|6NUR_protein|mol2

> <Gold.PLP.Fitness>
38.0980

> <Gold.PLP.PLP>
-32.2264

> <Gold.PLP.part.hbond>
-3.0000

> <Gold.PLP.part.metal>
0.0000

> <Gold.PLP.part.buried>
-5.3985

> <Gold.PLP.part.nonpolar>
-24.2821

> <Gold.PLP.part.repulsive>
0.1651

> <Gold.PLP.ligand.clash>
0.0364

> <Gold.PLP.ligand.torsion>
0.5422

> <Gold.PLP.Chemscore.Hbond>
2.0270

> <Gold.PLP.Chemscore.CHOScore>
0.0000

> <Gold.PLP.Chemscore.Metal>
0.0000

> <Gold.Chemscore.Hbonds>
donor molecule, donor type, donor heavy atom, donor atom, acceptor molecule, acceptor atom, score
      P1  H  6896  6908       L1     2  1.00
      P1  H  6931  6943       L1    15  0.06
      P1  H  7997  8009       L1    22  1.00

> <Gold.PLP.Chemscore.Internal.Correction>
0.9112

> <Gold.Rescore>
     Score         DG    S(hbond)    S(metal)    S(lipo)     H(rot)  DE(clash)    DE(int)     intcor
     12.57     -15.66       1.78        0.00      67.50       1.43       0.31       2.78       ----

> <Gold.Chemscore.Fitness>
12.5677

> <Gold.Chemscore.DG>
-15.6615

> <Gold.Chemscore.ZeroCoef>
-5.4800

> <Gold.Chemscore.Hbond>
1.7818

> <Gold.Chemscore.Metal>
0.0000

> <Gold.Chemscore.Lipo>
67.4982

> <Gold.Chemscore.Internal_Hbond>
0.0000

> <Gold.Chemscore.DEClash>
0.3104

> <Gold.Chemscore.DEInternal>
2.7835

> <Gold.Chemscore.Rot>
1.4324

> <Gold.Chemscore.Internal.Correction>
   9.000000E+99

> <Gold.Chemscore.Hbonds>
donor molecule, donor type, donor heavy atom, donor atom, acceptor molecule, acceptor atom, score
      P1  H  6896  6908       L1     2  0.29
      P1  H  6931  6943       L1    15  0.03
      P1  H  7997  8009       L1    22  1.00

> <Gold.Chemscore.Hbond.Weighted>
-5.9511

> <Gold.Chemscore.Metal.Weighted>
-0.0000

> <Gold.Chemscore.Lipo.Weighted>
-7.8973

> <Gold.Chemscore.Internal_Hbond.Weighted>
0.0000

> <Gold.Chemscore.DEClash.Weighted>
0.3104

> <Gold.Chemscore.DEInternal.Weighted>
2.7835

> <Gold.Chemscore.Rot.Weighted>
3.6669

> <Gold.Chemscore.Internal.Correction.Weighted>
   9.000000E+99

> <Gold.Protein.RotatedTorsions>
[ 6907 6896 6895 6894 ] final  104.91 input  -60.11 | X-H torsion
[ 7974 7965 7964 7962 ] final   52.03 input  175.53 | X-H torsion
[ 8008 7997 7996 7995 ] final -169.99 input   59.86 | X-H torsion
[ 10167 10162 10161 10158 ] final  -16.42 input  -65.29 | X-H torsion
[ 10718 10713 10712 10709 ] final -106.96 input   66.30 | X-H torsion
[ 10763 10752 10751 10750 ] final  -75.10 input  -60.55 | X-H torsion
[ 11005 11000 10999 10996 ] final   96.59 input  -57.11 | X-H torsion

> <Gold.Protein.ActiveResidues>
 VAL166  LYS551  ARG553  GLY616  TRP617  ASP618  TYR619  PRO620  LYS621  CYS622 
 ASP623  PHE694  ASN695  SER759  ASP760  ASP761  ALA762  ILE779  LEU786  VAL792 
 PHE793  MET794  SER795  GLU796  ALA797  LYS798  CYS799  TRP800  GLU811  SER814 

> <Gold.Protein.RotatedAtoms>
  152.5248  133.9606  159.7715 H   0  0  0  0  0  0  0  0  0  0  0  0  # atno 6907 bound_to 6896
  150.9897  133.6153  159.2717 H   0  0  0  0  0  0  0  0  0  0  0  0  # atno 6908 bound_to 6896
  151.3301  135.0845  159.9389 H   0  0  0  0  0  0  0  0  0  0  0  0  # atno 6909 bound_to 6896
  145.9854  139.4285  143.0106 H   0  0  0  0  0  0  0  0  0  0  0  0  # atno 7974 bound_to 7965
  155.9124  140.1059  157.1269 H   0  0  0  0  0  0  0  0  0  0  0  0  # atno 8008 bound_to 7997
  154.4041  140.1272  156.4638 H   0  0  0  0  0  0  0  0  0  0  0  0  # atno 8009 bound_to 7997
  155.7295  140.3468  155.5055 H   0  0  0  0  0  0  0  0  0  0  0  0  # atno 8010 bound_to 7997
  140.7233  143.5118  150.9740 H   0  0  0  0  0  0  0  0  0  0  0  0  # atno 10167 bound_to 10162
  156.0414  130.5638  150.7754 H   0  0  0  0  0  0  0  0  0  0  0  0  # atno 10718 bound_to 10713
  154.4820  135.5842  153.6397 H   0  0  0  0  0  0  0  0  0  0  0  0  # atno 10763 bound_to 10752
  152.9849  135.6092  154.3234 H   0  0  0  0  0  0  0  0  0  0  0  0  # atno 10764 bound_to 10752
  154.3125  135.2845  155.2538 H   0  0  0  0  0  0  0  0  0  0  0  0  # atno 10765 bound_to 10752
  139.8780  134.8958  156.4182 H   0  0  0  0  0  0  0  0  0  0  0  0  # atno 11005 bound_to 11000
  145.7708  140.9897  143.1151 LP  0  0  0  0  0  0  0  0  0  0  0  0  # atno 17320 bound_to 7965
  144.6873  139.9444  143.7476 LP  0  0  0  0  0  0  0  0  0  0  0  0  # atno 17321 bound_to 7965
  139.8832  143.7045  152.3154 LP  0  0  0  0  0  0  0  0  0  0  0  0  # atno 17342 bound_to 10162
  139.7335  144.7577  151.0764 LP  0  0  0  0  0  0  0  0  0  0  0  0  # atno 17343 bound_to 10162
  157.5236  131.0933  151.0046 LP  0  0  0  0  0  0  0  0  0  0  0  0  # atno 17370 bound_to 10713
  157.0371  130.5734  149.5351 LP  0  0  0  0  0  0  0  0  0  0  0  0  # atno 17371 bound_to 10713
  140.9153  133.7683  155.9840 LP  0  0  0  0  0  0  0  0  0  0  0  0  # atno 17394 bound_to 11000
  140.8501  134.2964  157.5279 LP  0  0  0  0  0  0  0  0  0  0  0  0  # atno 17395 bound_to 11000

$$$$
