#       Name:                AV-unprocessed.smi:1873
#       Creating user name   scv26
#       Creation time:       Fri Mar 27 09:32:59 2020


#       File generated by GOLD software.
#

@<TRIPOS>MOLECULE
AV-unprocessed.smi:1873
    41    43     1
SMALL
NO_CHARGES


@<TRIPOS>ATOM
      1 ****        -0.6629  -1.1981  -1.9832 O.3            1 S1                 0.0000
      2 ****        -0.1571  -0.5907  -0.8097 C.3            1 S1                 0.0000
      3 ****        -0.6152   0.8800  -0.7504 C.3            1 S1                 0.0000
      4 ****        -2.0768   1.0177  -0.7617 N.pl3          1 S1                 0.0000
      5 ****        -2.9232   1.2848  -1.7928 C.2            1 S1                 0.0000
      6 ****        -4.1897   1.2973  -1.2916 N.pl3          1 S1                 1.0000
      7 ****        -4.1513   1.0355   0.0800 C.ar           1 S1                 0.0000
      8 ****        -5.1724   0.9434   1.0208 C.ar           1 S1                 0.0000
      9 ****        -4.7866   0.6603   2.3479 C.ar           1 S1                 0.0000
     10 ****        -3.4322   0.4799   2.6971 C.ar           1 S1                 0.0000
     11 ****        -2.4052   0.5742   1.7349 C.ar           1 S1                 0.0000
     12 ****        -2.7956   0.8555   0.4264 C.ar           1 S1                 0.0000
     13 ****         1.3550  -0.7051  -0.7064 C.ar           1 S1                 0.0000
     14 ****         2.1781  -0.3992  -1.8110 C.ar           1 S1                 0.0000
     15 ****         3.5784  -0.5012  -1.7018 C.ar           1 S1                 0.0000
     16 ****         4.1768  -0.8992  -0.4894 C.ar           1 S1                 0.0000
     17 ****         5.5495  -0.9922  -0.4485 O.3            1 S1                 0.0000
     18 ****         6.1965  -0.7691   0.7263 C.3            1 S1                 0.0000
     19 ****         6.3657  -1.9320   1.4024 F              1 S1                 0.0000
     20 ****         7.4262  -0.2558   0.4817 F              1 S1                 0.0000
     21 ****         3.3487  -1.2136   0.6146 C.ar           1 S1                 0.0000
     22 ****         1.9485  -1.1119   0.5065 C.ar           1 S1                 0.0000
     23 ****        -0.4450  -2.1176  -1.9619 H              1 S1                 0.0000
     24 ****        -0.5953  -1.1309   0.0304 H              1 S1                 0.0000
     25 ****        -0.2302   1.3741   0.1427 H              1 S1                 0.0000
     26 ****        -0.2263   1.4370  -1.6041 H              1 S1                 0.0000
     27 ****        -2.6411   1.4499  -2.8229 H              1 S1                 0.0000
     28 ****        -6.2107   1.0804   0.7563 H              1 S1                 0.0000
     29 ****        -5.5451   0.5796   3.1131 H              1 S1                 0.0000
     30 ****        -3.1753   0.2648   3.7244 H              1 S1                 0.0000
     31 ****        -1.3706   0.4338   2.0109 H              1 S1                 0.0000
     32 ****         1.7387  -0.0840  -2.7462 H              1 S1                 0.0000
     33 ****         4.1988  -0.2673  -2.5546 H              1 S1                 0.0000
     34 ****         5.6586  -0.0587   1.3548 H              1 S1                 0.0000
     35 ****         3.7749  -1.5400   1.5516 H              1 S1                 0.0000
     36 ****         1.3321  -1.3507   1.3607 H              1 S1                 0.0000
     37 ****        -5.0171   1.4701  -1.8480 H              1 S1                 0.0000
     38 ****        -0.2505  -0.7721  -2.7884 LP             1 S1                 0.0000
     39 ****        -1.6561  -1.0874  -2.0194 LP             1 S1                 0.0000
     40 ****         5.9065  -0.3311  -1.1084 LP             1 S1                 0.0000
     41 ****         5.7881  -1.9180  -0.7418 LP             1 S1                 0.0000
@<TRIPOS>BOND
    1    1    2 1     
    2    1   23 1     
    3    2    3 1     
    4    2   13 1     
    5    2   24 1     
    6    3    4 1     
    7    3   25 1     
    8    3   26 1     
    9    4   12 1     
   10    4    5 1     
   11    5    6 2     
   12    5   27 1     
   13    6    7 1     
   14    6   37 1     
   15    7   12 ar    
   16    7    8 ar    
   17    8    9 ar    
   18    8   28 1     
   19    9   10 ar    
   20    9   29 1     
   21   10   11 ar    
   22   10   30 1     
   23   11   12 ar    
   24   11   31 1     
   25   13   22 ar    
   26   13   14 ar    
   27   14   15 ar    
   28   14   32 1     
   29   15   16 ar    
   30   15   33 1     
   31   16   17 1     
   32   16   21 ar    
   33   17   18 1     
   34   18   19 1     
   35   18   20 1     
   36   18   34 1     
   37   21   22 ar    
   38   21   35 1     
   39   22   36 1     
   40    1   38 1     
   41    1   39 1     
   42   17   40 1     
   43   17   41 1     
@<TRIPOS>SUBSTRUCTURE
      1 S1             1
@<TRIPOS>SET
LONE_PAIRS      STATIC     ATOMS    <user>   **** ""
4 38 39 40 41
DONOR_HYDROGENS      STATIC     ATOMS    <user>   **** ""
2 23 37
ATOM$BLUE        STATIC     ATOMS    COLORGROUP SYSTEM
4 38 39 40 41
ATOM$RED        STATIC     ATOMS    COLORGROUP SYSTEM
2 23 37
