AV-unprocessed.smi:951|AV-procd|sdf|4254|dock5
  -GOLD-   22720 2163D 1   1.00000     0.00000
 Structure written by MMmdl.
 52 54  0  0  0  0  0  0  0  0  2 V2000
  149.6441  143.7454  161.1367 O   0  0  0  0  0  0  0  0  0  0  0  0
  149.3103  144.3630  160.1245 C   0  0  0  0  0  0  0  0  0  0  0  0
  148.1058  144.9361  159.9733 N   0  0  0  0  0  0  0  0  0  0  0  0
  147.0310  144.9234  160.9626 C   0  0  0  0  0  0  0  0  0  0  0  0
  146.6209  143.4958  161.3751 C   0  0  0  0  0  0  0  0  0  0  0  0
  145.1363  143.2100  161.2210 C   0  0  0  0  0  0  0  0  0  0  0  0
  144.5232  142.0913  161.8250 C   0  0  0  0  0  0  0  0  0  0  0  0
  143.1345  141.8989  161.6694 C   0  0  0  0  0  0  0  0  0  0  0  0
  142.3889  142.8277  160.9141 C   0  0  0  0  0  0  0  0  0  0  0  0
  143.0516  143.9275  160.3328 C   0  0  0  0  0  0  0  0  0  0  0  0
  144.3831  144.0771  160.5048 N   0  3  0  0  0  0  0  0  0  0  0  0
  150.3078  144.5595  158.9670 C   0  0  1  0  0  0  0  0  0  0  0  0
  151.5859  145.2251  159.5034 C   0  0  0  0  0  0  0  0  0  0  0  0
  152.6931  144.7148  158.6038 C   0  0  0  0  0  0  0  0  0  0  0  0
  152.2230  143.3317  158.1579 C   0  0  0  0  0  0  0  0  0  0  0  0
  150.7647  143.3156  158.3135 N   0  0  0  0  0  0  0  0  0  0  0  0
  149.9527  142.3372  157.8336 C   0  0  0  0  0  0  0  0  0  0  0  0
  148.7262  142.4367  157.8791 O   0  0  0  0  0  0  0  0  0  0  0  0
  150.5774  141.0689  157.1997 C   0  0  0  0  0  0  0  0  0  0  0  0
  151.1678  141.3547  155.7989 C   0  0  0  0  0  0  0  0  0  0  0  0
  150.0947  141.4743  154.7028 C   0  0  0  0  0  0  0  0  0  0  0  0
  149.2224  140.2125  154.6493 C   0  0  0  0  0  0  0  0  0  0  0  0
  148.5630  139.9360  156.0083 C   0  0  0  0  0  0  0  0  0  0  0  0
  149.6046  139.8621  157.1441 C   0  0  0  0  0  0  0  0  0  0  0  0
  147.9193  145.4178  159.1055 H   0  0  0  0  0  0  0  0  0  0  0  0
  147.3742  145.4707  161.8409 H   0  0  0  0  0  0  0  0  0  0  0  0
  146.1603  145.4671  160.5920 H   0  0  0  0  0  0  0  0  0  0  0  0
  147.1816  142.7703  160.7837 H   0  0  0  0  0  0  0  0  0  0  0  0
  146.9057  143.3209  162.4130 H   0  0  0  0  0  0  0  0  0  0  0  0
  145.1066  141.3933  162.4079 H   0  0  0  0  0  0  0  0  0  0  0  0
  142.6466  141.0501  162.1256 H   0  0  0  0  0  0  0  0  0  0  0  0
  141.3242  142.6992  160.7848 H   0  0  0  0  0  0  0  0  0  0  0  0
  142.5609  144.6880  159.7431 H   0  0  0  0  0  0  0  0  0  0  0  0
  149.8629  145.1893  158.1941 H   0  0  0  0  0  0  0  0  0  0  0  0
  151.5209  146.3137  159.5043 H   0  0  0  0  0  0  0  0  0  0  0  0
  151.7987  144.9095  160.5268 H   0  0  0  0  0  0  0  0  0  0  0  0
  152.7746  145.3659  157.7323 H   0  0  0  0  0  0  0  0  0  0  0  0
  153.6666  144.6943  159.0946 H   0  0  0  0  0  0  0  0  0  0  0  0
  152.5365  143.1276  157.1335 H   0  0  0  0  0  0  0  0  0  0  0  0
  152.6573  142.5704  158.8074 H   0  0  0  0  0  0  0  0  0  0  0  0
  151.3942  140.7395  157.8394 H   0  0  0  0  0  0  0  0  0  0  0  0
  151.7698  142.2640  155.8168 H   0  0  0  0  0  0  0  0  0  0  0  0
  151.8552  140.5502  155.5346 H   0  0  0  0  0  0  0  0  0  0  0  0
  149.4691  142.3493  154.8820 H   0  0  0  0  0  0  0  0  0  0  0  0
  150.5730  141.6332  153.7359 H   0  0  0  0  0  0  0  0  0  0  0  0
  148.4571  140.3208  153.8803 H   0  0  0  0  0  0  0  0  0  0  0  0
  149.8343  139.3575  154.3587 H   0  0  0  0  0  0  0  0  0  0  0  0
  147.8228  140.7076  156.2169 H   0  0  0  0  0  0  0  0  0  0  0  0
  148.0079  138.9988  155.9614 H   0  0  0  0  0  0  0  0  0  0  0  0
  150.1916  138.9522  157.0133 H   0  0  0  0  0  0  0  0  0  0  0  0
  149.0937  139.7459  158.1010 H   0  0  0  0  0  0  0  0  0  0  0  0
  144.8408  144.8841  160.0806 H   0  0  0  0  0  0  0  0  0  0  0  0
  1  2  2  0  0  0  0
  2  3  1  0  0  0  0
  2 12  1  0  0  0  0
  3  4  1  0  0  0  0
  3 25  1  0  0  0  0
  4  5  1  0  0  0  0
  4 26  1  0  0  0  0
  4 27  1  0  0  0  0
  5  6  1  0  0  0  0
  5 28  1  0  0  0  0
  5 29  1  0  0  0  0
  6 11  1  0  0  0  0
  6  7  2  0  0  0  0
  7  8  1  0  0  0  0
  7 30  1  0  0  0  0
  8  9  2  0  0  0  0
  8 31  1  0  0  0  0
  9 10  1  0  0  0  0
  9 32  1  0  0  0  0
 10 11  2  0  0  0  0
 10 33  1  0  0  0  0
 11 52  1  0  0  0  0
 12 16  1  0  0  0  0
 12 13  1  0  0  0  0
 12 34  1  0  0  0  0
 13 14  1  0  0  0  0
 13 35  1  0  0  0  0
 13 36  1  0  0  0  0
 14 15  1  0  0  0  0
 14 37  1  0  0  0  0
 14 38  1  0  0  0  0
 15 16  1  0  0  0  0
 15 39  1  0  0  0  0
 15 40  1  0  0  0  0
 16 17  1  0  0  0  0
 17 18  2  0  0  0  0
 17 19  1  0  0  0  0
 19 24  1  0  0  0  0
 19 20  1  0  0  0  0
 19 41  1  0  0  0  0
 20 21  1  0  0  0  0
 20 42  1  0  0  0  0
 20 43  1  0  0  0  0
 21 22  1  0  0  0  0
 21 44  1  0  0  0  0
 21 45  1  0  0  0  0
 22 23  1  0  0  0  0
 22 46  1  0  0  0  0
 22 47  1  0  0  0  0
 23 24  1  0  0  0  0
 23 48  1  0  0  0  0
 23 49  1  0  0  0  0
 24 50  1  0  0  0  0
 24 51  1  0  0  0  0
M  CHG  1  11   1
M  END
> <s_m_source_file>
AV-unprocessed.smi

> <i_m_source_file_index>
951

> <i_lp_mmshare_version>
43012

> <i_f3d_flags>
0

> <s_epik_input>
bjFbY0hdW2NIXVtjSF1bY0hdYzFbQ0gyXVtDSDJdW05IXUMoPU8pW0NAQEhdMltDSDJdW0NIMl1bQ0gyXU4yQyg9TylbQ0hdM1tDSDJdW0NIMl1bQ0gyXVtDSDJdW0NIMl0z

> <s_epik_cmdline>
J2VwaWtfcHl0aG9uJywgJy1waCcsICc3LjAnLCAnLXRuJywgJzgnLCAnLW1hJywgJzIwMCcsICctbWV0YWxfYmluZGluZycsICctaW1hZScsICc8aW5maWxlLm1hZT4nLCAnLW9tYWUnLCAnPG91dGZpbGUubWFlPic=

> <r_epik_Ionization_Penalty>
1.85306

> <r_epik_Ionization_Penalty_Charging>
1.85306

> <r_epik_Ionization_Penalty_Neutral>
5.78903e-08

> <r_epik_State_Penalty>
1.97071

> <r_epik_Charging_Adjusted_Penalty>
3.82377

> <i_epik_Tot_Q>
1

> <i_epik_Tot_abs_Q>
1

> <r_epik_Metal_State_Penalty>
1.99634

> <b_epik_Metal_Only>
0

> <s_lp_Force_Field>
OPLS_2005

> <r_lp_Energy>
29.0494

> <b_lp_Chiralities_Consistent>
1

> <s_lp_Variant>
AV-unprocessed.smi:951-4

> <Gold.Version>
5.8.1

> <Gold.Id.Protein>
6NUR|6NUR_protein|mol2

> <Gold.PLP.Fitness>
51.1181

> <Gold.PLP.PLP>
-49.5121

> <Gold.PLP.part.hbond>
-3.0000

> <Gold.PLP.part.metal>
0.0000

> <Gold.PLP.part.buried>
-8.1520

> <Gold.PLP.part.nonpolar>
-40.1901

> <Gold.PLP.part.repulsive>
0.7630

> <Gold.PLP.ligand.clash>
0.0000

> <Gold.PLP.ligand.torsion>
1.0234

> <Gold.PLP.Chemscore.Hbond>
1.1901

> <Gold.PLP.Chemscore.CHOScore>
0.0000

> <Gold.PLP.Chemscore.Metal>
0.0000

> <Gold.Chemscore.Hbonds>
donor molecule, donor type, donor heavy atom, donor atom, acceptor molecule, acceptor atom, score
      L1  H     3    25       P1  8029  1.00
      P1  H  6933  6944       L1     1  0.16

> <Gold.PLP.Chemscore.Internal.Correction>
0.0825

> <Gold.Rescore>
     Score         DG    S(hbond)    S(metal)    S(lipo)     H(rot)  DE(clash)    DE(int)     intcor
     15.55     -18.35       1.06        0.00     116.05       1.65       0.11       2.69       ----

> <Gold.Chemscore.Fitness>
15.5513

> <Gold.Chemscore.DG>
-18.3483

> <Gold.Chemscore.ZeroCoef>
-5.4800

> <Gold.Chemscore.Hbond>
1.0558

> <Gold.Chemscore.Metal>
0.0000

> <Gold.Chemscore.Lipo>
116.0529

> <Gold.Chemscore.Internal_Hbond>
0.0000

> <Gold.Chemscore.DEClash>
0.1075

> <Gold.Chemscore.DEInternal>
2.6895

> <Gold.Chemscore.Rot>
1.6548

> <Gold.Chemscore.Internal.Correction>
   9.000000E+99

> <Gold.Chemscore.Hbonds>
donor molecule, donor type, donor heavy atom, donor atom, acceptor molecule, acceptor atom, score
      L1  H     3    25       P1  8029  1.00
      P1  H  6933  6944       L1     1  0.14

> <Gold.Chemscore.Hbond.Weighted>
-3.5263

> <Gold.Chemscore.Metal.Weighted>
-0.0000

> <Gold.Chemscore.Lipo.Weighted>
-13.5782

> <Gold.Chemscore.Internal_Hbond.Weighted>
0.0000

> <Gold.Chemscore.DEClash.Weighted>
0.1075

> <Gold.Chemscore.DEInternal.Weighted>
2.6895

> <Gold.Chemscore.Rot.Weighted>
4.2362

> <Gold.Chemscore.Internal.Correction.Weighted>
   9.000000E+99

> <Gold.Protein.RotatedTorsions>
[ 6907 6896 6895 6894 ] final   39.75 input  -60.11 | X-H torsion
[ 7974 7965 7964 7962 ] final -127.22 input  175.53 | X-H torsion
[ 8008 7997 7996 7995 ] final -109.46 input   59.86 | X-H torsion
[ 10167 10162 10161 10158 ] final  -58.00 input  -65.29 | X-H torsion
[ 10718 10713 10712 10709 ] final   39.88 input   66.30 | X-H torsion
[ 10763 10752 10751 10750 ] final  158.06 input  -60.55 | X-H torsion
[ 11005 11000 10999 10996 ] final   95.80 input  -57.11 | X-H torsion

> <Gold.Protein.ActiveResidues>
 VAL166  LYS551  ARG553  GLY616  TRP617  ASP618  TYR619  PRO620  LYS621  CYS622 
 ASP623  PHE694  ASN695  SER759  ASP760  ASP761  ALA762  ILE779  LEU786  VAL792 
 PHE793  MET794  SER795  GLU796  ALA797  LYS798  CYS799  TRP800  GLU811  SER814 

> <Gold.Protein.RotatedAtoms>
  152.1736  134.8813  160.0532 H   0  0  0  0  0  0  0  0  0  0  0  0  # atno 6907 bound_to 6896
  151.9763  133.3738  159.4098 H   0  0  0  0  0  0  0  0  0  0  0  0  # atno 6908 bound_to 6896
  150.6906  134.4009  159.5162 H   0  0  0  0  0  0  0  0  0  0  0  0  # atno 6909 bound_to 6896
  144.9793  140.7624  143.4622 H   0  0  0  0  0  0  0  0  0  0  0  0  # atno 7974 bound_to 7965
  154.9597  140.0399  157.2184 H   0  0  0  0  0  0  0  0  0  0  0  0  # atno 8008 bound_to 7997
  154.7901  140.2834  155.5976 H   0  0  0  0  0  0  0  0  0  0  0  0  # atno 8009 bound_to 7997
  156.2948  140.2575  156.2746 H   0  0  0  0  0  0  0  0  0  0  0  0  # atno 8010 bound_to 7997
  140.6224  143.2425  151.5448 H   0  0  0  0  0  0  0  0  0  0  0  0  # atno 10167 bound_to 10162
  157.3757  130.7725  149.7153 H   0  0  0  0  0  0  0  0  0  0  0  0  # atno 10718 bound_to 10713
  154.2102  135.2786  155.2961 H   0  0  0  0  0  0  0  0  0  0  0  0  # atno 10763 bound_to 10752
  154.5785  135.5597  153.7166 H   0  0  0  0  0  0  0  0  0  0  0  0  # atno 10764 bound_to 10752
  153.0066  135.6339  154.2240 H   0  0  0  0  0  0  0  0  0  0  0  0  # atno 10765 bound_to 10752
  139.8786  134.8918  156.4065 H   0  0  0  0  0  0  0  0  0  0  0  0  # atno 11005 bound_to 11000
  145.2444  139.2058  143.4975 LP  0  0  0  0  0  0  0  0  0  0  0  0  # atno 17320 bound_to 7965
  146.3404  140.2345  142.8594 LP  0  0  0  0  0  0  0  0  0  0  0  0  # atno 17321 bound_to 7965
  139.5450  144.2545  152.1425 LP  0  0  0  0  0  0  0  0  0  0  0  0  # atno 17342 bound_to 10162
  140.1768  144.4882  150.6549 LP  0  0  0  0  0  0  0  0  0  0  0  0  # atno 17343 bound_to 10162
  155.9765  130.4075  150.3777 LP  0  0  0  0  0  0  0  0  0  0  0  0  # atno 17370 bound_to 10713
  157.1874  131.0407  151.2717 LP  0  0  0  0  0  0  0  0  0  0  0  0  # atno 17371 bound_to 10713
  140.9231  133.7631  155.9930 LP  0  0  0  0  0  0  0  0  0  0  0  0  # atno 17394 bound_to 11000
  140.8417  134.3058  157.5311 LP  0  0  0  0  0  0  0  0  0  0  0  0  # atno 17395 bound_to 11000

$$$$
