AV-unprocessed.smi:1535|AV-procd|sdf|6185|dock10
  -GOLD-   22720 6343D 1   1.00000     0.00000
 Structure written by MMmdl.
 47 48  0  0  0  0  0  0  0  0  2 V2000
  152.7562  141.1403  158.9702 C   0  0  0  0  0  0  0  0  0  0  0  0
  151.8178  140.9943  157.7851 C   0  0  0  0  0  0  0  0  0  0  0  0
  151.9509  139.8721  156.9364 C   0  0  0  0  0  0  0  0  0  0  0  0
  151.0987  139.7005  155.8236 C   0  0  0  0  0  0  0  0  0  0  0  0
  151.0494  138.6931  154.8752 N   0  0  0  0  0  0  0  0  0  0  0  0
  150.0473  139.1006  154.1019 C   0  0  0  0  0  0  0  0  0  0  0  0
  149.4376  140.2531  154.4395 N   0  0  0  0  0  0  0  0  0  0  0  0
  148.3319  140.8926  153.7484 C   0  0  0  0  0  0  0  0  0  0  0  0
  147.0078  140.7984  154.5304 C   0  0  1  0  0  0  0  0  0  0  0  0
  145.9953  141.4987  153.8327 O   0  0  0  0  0  0  0  0  0  0  0  0
  146.5555  139.3353  154.7055 C   0  0  0  0  0  0  0  0  0  0  0  0
  145.8627  138.8159  153.4989 N   0  3  1  0  0  0  0  0  0  0  0  0
  146.7630  138.7557  152.3244 C   0  0  0  0  0  0  0  0  0  0  0  0
  145.1540  137.5315  153.7396 C   0  0  0  0  0  0  0  0  0  0  0  0
  144.2002  137.1648  152.5878 C   0  0  1  0  0  0  0  0  0  0  0  0
  144.5116  135.7742  152.0202 C   0  0  0  0  0  0  0  0  0  0  0  0
  142.7944  137.2509  153.0159 C   0  0  0  0  0  0  0  0  0  0  0  0
  141.6889  137.3176  153.3483 N   0  0  0  0  0  0  0  0  0  0  0  0
  150.1024  140.6907  155.5804 C   0  0  0  0  0  0  0  0  0  0  0  0
  149.9584  141.8102  156.4190 C   0  0  0  0  0  0  0  0  0  0  0  0
  150.8176  141.9660  157.5269 C   0  0  0  0  0  0  0  0  0  0  0  0
  150.6522  143.1771  158.4276 C   0  0  0  0  0  0  0  0  0  0  0  0
  153.4774  140.3235  159.0106 H   0  0  0  0  0  0  0  0  0  0  0  0
  152.1941  141.1376  159.9043 H   0  0  0  0  0  0  0  0  0  0  0  0
  153.3142  142.0747  158.9043 H   0  0  0  0  0  0  0  0  0  0  0  0
  152.7114  139.1308  157.1335 H   0  0  0  0  0  0  0  0  0  0  0  0
  149.7369  138.5277  153.2403 H   0  0  0  0  0  0  0  0  0  0  0  0
  148.5936  141.9352  153.5632 H   0  0  0  0  0  0  0  0  0  0  0  0
  148.2245  140.4220  152.7702 H   0  0  0  0  0  0  0  0  0  0  0  0
  147.1406  141.2767  155.5010 H   0  0  0  0  0  0  0  0  0  0  0  0
  145.3606  140.8736  153.5149 H   0  0  0  0  0  0  0  0  0  0  0  0
  147.4355  138.7275  154.9234 H   0  0  0  0  0  0  0  0  0  0  0  0
  145.8980  139.2330  155.5705 H   0  0  0  0  0  0  0  0  0  0  0  0
  147.5838  138.0582  152.4965 H   0  0  0  0  0  0  0  0  0  0  0  0
  147.1883  139.7381  152.1157 H   0  0  0  0  0  0  0  0  0  0  0  0
  146.2290  138.4400  151.4289 H   0  0  0  0  0  0  0  0  0  0  0  0
  145.8848  136.7382  153.9048 H   0  0  0  0  0  0  0  0  0  0  0  0
  144.5683  137.5939  154.6570 H   0  0  0  0  0  0  0  0  0  0  0  0
  144.3146  137.8835  151.7768 H   0  0  0  0  0  0  0  0  0  0  0  0
  143.8456  135.5337  151.1911 H   0  0  0  0  0  0  0  0  0  0  0  0
  144.3899  135.0005  152.7789 H   0  0  0  0  0  0  0  0  0  0  0  0
  145.5349  135.7199  151.6476 H   0  0  0  0  0  0  0  0  0  0  0  0
  149.1924  142.5429  156.2127 H   0  0  0  0  0  0  0  0  0  0  0  0
  149.8497  143.8272  158.0775 H   0  0  0  0  0  0  0  0  0  0  0  0
  151.5702  143.7645  158.4526 H   0  0  0  0  0  0  0  0  0  0  0  0
  150.4114  142.8663  159.4443 H   0  0  0  0  0  0  0  0  0  0  0  0
  145.1573  139.5058  153.2799 H   0  0  0  0  0  0  0  0  0  0  0  0
  1  2  1  0  0  0  0
  1 23  1  0  0  0  0
  1 24  1  0  0  0  0
  1 25  1  0  0  0  0
  2 21  1  0  0  0  0
  2  3  2  0  0  0  0
  3  4  1  0  0  0  0
  3 26  1  0  0  0  0
  4 19  2  0  0  0  0
  4  5  1  0  0  0  0
  5  6  2  0  0  0  0
  6  7  1  0  0  0  0
  6 27  1  0  0  0  0
  7  8  1  0  0  0  0
  7 19  1  0  0  0  0
  8  9  1  0  0  0  0
  8 28  1  0  0  0  0
  8 29  1  0  0  0  0
  9 10  1  0  0  0  0
  9 11  1  0  0  0  0
  9 30  1  0  0  0  0
 10 31  1  0  0  0  0
 11 12  1  0  0  0  0
 11 32  1  0  0  0  0
 11 33  1  0  0  0  0
 12 13  1  0  0  0  0
 12 14  1  0  0  0  0
 12 47  1  0  0  0  0
 13 34  1  0  0  0  0
 13 35  1  0  0  0  0
 13 36  1  0  0  0  0
 14 15  1  0  0  0  0
 14 37  1  0  0  0  0
 14 38  1  0  0  0  0
 15 16  1  0  0  0  0
 15 17  1  0  0  0  0
 15 39  1  0  0  0  0
 16 40  1  0  0  0  0
 16 41  1  0  0  0  0
 16 42  1  0  0  0  0
 17 18  3  0  0  0  0
 19 20  1  0  0  0  0
 20 21  2  0  0  0  0
 20 43  1  0  0  0  0
 21 22  1  0  0  0  0
 22 44  1  0  0  0  0
 22 45  1  0  0  0  0
 22 46  1  0  0  0  0
M  CHG  1  12   1
M  END
> <s_m_source_file>
AV-unprocessed.smi

> <i_m_source_file_index>
1535

> <i_lp_mmshare_version>
43012

> <i_f3d_flags>
0

> <s_epik_input>
W0NIM11jKFtjSF0xKWMoW0NIM10pW2NIXWMoYzEyKW4oW2NIXW4yKVtDSDJdW0NASF0oW09IXSlbQ0gyXU4oW0NIM10pW0NIMl1bQ0BIXShbQ0gzXSlDI04=

> <s_epik_cmdline>
J2VwaWtfcHl0aG9uJywgJy1waCcsICc3LjAnLCAnLXRuJywgJzgnLCAnLW1hJywgJzIwMCcsICctbWV0YWxfYmluZGluZycsICctaW1hZScsICc8aW5maWxlLm1hZT4nLCAnLW9tYWUnLCAnPG91dGZpbGUubWFlPic=

> <r_epik_Ionization_Penalty>
2.21058

> <r_epik_Ionization_Penalty_Charging>
2.12381

> <r_epik_Ionization_Penalty_Neutral>
0.0867699

> <r_epik_State_Penalty>
2.36208

> <r_epik_Charging_Adjusted_Penalty>
4.48589

> <i_epik_Tot_Q>
1

> <i_epik_Tot_abs_Q>
1

> <r_epik_Metal_State_Penalty>
2.2818

> <b_epik_Metal_Only>
0

> <s_lp_Force_Field>
OPLS_2005

> <r_lp_Energy>
14.5736

> <b_lp_Chiralities_Consistent>
1

> <s_lp_Variant>
AV-unprocessed.smi:1535-16

> <Gold.Version>
5.8.1

> <Gold.Id.Protein>
6NUR|6NUR_protein|mol2

> <Gold.PLP.Fitness>
47.8934

> <Gold.PLP.PLP>
-37.2170

> <Gold.PLP.part.hbond>
-2.0000

> <Gold.PLP.part.metal>
0.0000

> <Gold.PLP.part.buried>
-1.2194

> <Gold.PLP.part.nonpolar>
-34.8654

> <Gold.PLP.part.repulsive>
0.3088

> <Gold.PLP.ligand.clash>
0.0000

> <Gold.PLP.ligand.torsion>
1.1535

> <Gold.PLP.Chemscore.Hbond>
2.9833

> <Gold.PLP.Chemscore.CHOScore>
1.2554

> <Gold.PLP.Chemscore.Metal>
0.0000

> <Gold.Chemscore.Hbonds>
donor molecule, donor type, donor heavy atom, donor atom, acceptor molecule, acceptor atom, score
      L1  H    10    31       P1 10175  0.98
      L1  H    12    47       P1 10175  2.00
      L1  C     6    27       P1  7948  0.45
      L1  C     6    27       P1  7957  0.57

> <Gold.PLP.Chemscore.Internal.Correction>
0.2674

> <Gold.Rescore>
     Score         DG    S(hbond)    S(metal)    S(lipo)     H(rot)  DE(clash)    DE(int)     intcor
     13.76     -15.19       1.75        0.00      90.08       2.60       0.27       1.16       ----

> <Gold.Chemscore.Fitness>
13.7573

> <Gold.Chemscore.DG>
-15.1911

> <Gold.Chemscore.ZeroCoef>
-5.4800

> <Gold.Chemscore.Hbond>
1.7471

> <Gold.Chemscore.Metal>
0.0000

> <Gold.Chemscore.Lipo>
90.0836

> <Gold.Chemscore.Internal_Hbond>
0.0000

> <Gold.Chemscore.DEClash>
0.2732

> <Gold.Chemscore.DEInternal>
1.1606

> <Gold.Chemscore.Rot>
2.6031

> <Gold.Chemscore.Internal.Correction>
   9.000000E+99

> <Gold.Chemscore.Hbonds>
donor molecule, donor type, donor heavy atom, donor atom, acceptor molecule, acceptor atom, score
      L1  H    10    31       P1 10175  0.70
      L1  H    12    47       P1 10175  0.99

> <Gold.Chemscore.Hbond.Weighted>
-5.8353

> <Gold.Chemscore.Metal.Weighted>
-0.0000

> <Gold.Chemscore.Lipo.Weighted>
-10.5398

> <Gold.Chemscore.Internal_Hbond.Weighted>
0.0000

> <Gold.Chemscore.DEClash.Weighted>
0.2732

> <Gold.Chemscore.DEInternal.Weighted>
1.1606

> <Gold.Chemscore.Rot.Weighted>
6.6640

> <Gold.Chemscore.Internal.Correction.Weighted>
   9.000000E+99

> <Gold.Protein.RotatedTorsions>
[ 6907 6896 6895 6894 ] final  131.91 input  -60.11 | X-H torsion
[ 7974 7965 7964 7962 ] final -168.88 input  175.53 | X-H torsion
[ 8008 7997 7996 7995 ] final   66.12 input   59.86 | X-H torsion
[ 10167 10162 10161 10158 ] final  100.68 input  -65.29 | X-H torsion
[ 10718 10713 10712 10709 ] final    3.93 input   66.30 | X-H torsion
[ 10763 10752 10751 10750 ] final  -55.31 input  -60.55 | X-H torsion
[ 11005 11000 10999 10996 ] final -148.70 input  -57.11 | X-H torsion

> <Gold.Protein.ActiveResidues>
 VAL166  LYS551  ARG553  GLY616  TRP617  ASP618  TYR619  PRO620  LYS621  CYS622 
 ASP623  PHE694  ASN695  SER759  ASP760  ASP761  ALA762  ILE779  LEU786  VAL792 
 PHE793  MET794  SER795  GLU796  ALA797  LYS798  CYS799  TRP800  GLU811  SER814 

> <Gold.Protein.RotatedAtoms>
  152.3378  133.6031  159.5854 H   0  0  0  0  0  0  0  0  0  0  0  0  # atno 6907 bound_to 6896
  150.7460  133.9769  159.3572 H   0  0  0  0  0  0  0  0  0  0  0  0  # atno 6908 bound_to 6896
  151.7637  135.0804  160.0400 H   0  0  0  0  0  0  0  0  0  0  0  0  # atno 6909 bound_to 6896
  144.7195  140.2304  143.6305 H   0  0  0  0  0  0  0  0  0  0  0  0  # atno 7974 bound_to 7965
  155.6724  140.3497  155.4823 H   0  0  0  0  0  0  0  0  0  0  0  0  # atno 8008 bound_to 7997
  155.9677  140.1149  157.0863 H   0  0  0  0  0  0  0  0  0  0  0  0  # atno 8009 bound_to 7997
  154.4158  140.1163  156.5250 H   0  0  0  0  0  0  0  0  0  0  0  0  # atno 8010 bound_to 7997
  139.7505  144.6985  151.0439 H   0  0  0  0  0  0  0  0  0  0  0  0  # atno 10167 bound_to 10162
  156.8850  130.5667  149.5651 H   0  0  0  0  0  0  0  0  0  0  0  0  # atno 10718 bound_to 10713
  154.1887  135.6431  153.5054 H   0  0  0  0  0  0  0  0  0  0  0  0  # atno 10763 bound_to 10752
  153.0040  135.5423  154.6438 H   0  0  0  0  0  0  0  0  0  0  0  0  # atno 10764 bound_to 10752
  154.5821  135.2926  155.0695 H   0  0  0  0  0  0  0  0  0  0  0  0  # atno 10765 bound_to 10752
  140.7585  134.3325  157.5108 H   0  0  0  0  0  0  0  0  0  0  0  0  # atno 11005 bound_to 11000
  145.8416  139.2132  143.1824 LP  0  0  0  0  0  0  0  0  0  0  0  0  # atno 17320 bound_to 7965
  146.0341  140.8229  142.9861 LP  0  0  0  0  0  0  0  0  0  0  0  0  # atno 17321 bound_to 7965
  140.7797  143.4815  151.0012 LP  0  0  0  0  0  0  0  0  0  0  0  0  # atno 17342 bound_to 10162
  139.8502  143.7448  152.3178 LP  0  0  0  0  0  0  0  0  0  0  0  0  # atno 17343 bound_to 10162
  156.0658  130.5701  150.9285 LP  0  0  0  0  0  0  0  0  0  0  0  0  # atno 17370 bound_to 10713
  157.6117  131.0936  150.8782 LP  0  0  0  0  0  0  0  0  0  0  0  0  # atno 17371 bound_to 10713
  139.8775  134.9187  156.3209 LP  0  0  0  0  0  0  0  0  0  0  0  0  # atno 17394 bound_to 11000
  140.9685  133.7342  156.0501 LP  0  0  0  0  0  0  0  0  0  0  0  0  # atno 17395 bound_to 11000

$$$$
