#       Name:                AV-unprocessed.smi:1672
#       Creating user name   scv26
#       Creation time:       Fri Mar 27 07:43:50 2020


#       File generated by GOLD software.
#

@<TRIPOS>MOLECULE
AV-unprocessed.smi:1672
    53    55     1
SMALL
NO_CHARGES


@<TRIPOS>ATOM
      1 ****        -5.5543  -0.2144  -1.3441 C.3            1 S1                 0.0000
      2 ****        -4.0760  -0.4667  -1.0162 C.3            1 S1                 0.0000
      3 ****        -3.4799   0.6692  -0.1682 C.3            1 S1                 0.0000
      4 ****        -1.9929   0.4195   0.1308 C.3            1 S1                 0.0000
      5 ****        -1.2139   0.2515  -1.1250 N.4            1 S1                 1.0000
      6 ****         0.2483   0.1376  -0.8919 C.3            1 S1                 0.0000
      7 ****         0.9111   1.5151  -0.6680 C.3            1 S1                 0.0000
      8 ****         0.8426   2.2535  -1.8708 O.3            1 S1                 0.0000
      9 ****         2.3928   1.4393  -0.2461 C.3            1 S1                 0.0000
     10 ****         2.6176   0.5933   0.9193 N.pl3          1 S1                 0.0000
     11 ****         2.3524   0.8628   2.2239 C.2            1 S1                 0.0000
     12 ****         1.7386   2.1515   2.6798 C.3            1 S1                 0.0000
     13 ****         0.3306   2.0837   2.7545 O.3            1 S1                 0.0000
     14 ****         2.6602  -0.1037   3.0890 N.2            1 S1                 0.0000
     15 ****         3.1777  -1.0906   2.2745 C.ar           1 S1                 0.0000
     16 ****         3.6841  -2.3708   2.5927 C.ar           1 S1                 0.0000
     17 ****         4.1638  -3.2216   1.5757 C.ar           1 S1                 0.0000
     18 ****         4.1429  -2.8058   0.2288 C.ar           1 S1                 0.0000
     19 ****         3.6421  -1.5340  -0.1100 C.ar           1 S1                 0.0000
     20 ****         3.1662  -0.6869   0.9094 C.ar           1 S1                 0.0000
     21 ****        -1.7461  -0.8633  -1.9495 C.3            1 S1                 0.0000
     22 ****        -3.2306  -0.6445  -2.2889 C.3            1 S1                 0.0000
     23 ****        -5.6814   0.6942  -1.9335 H              1 S1                 0.0000
     24 ****        -6.1455  -0.1063  -0.4341 H              1 S1                 0.0000
     25 ****        -5.9767  -1.0426  -1.9139 H              1 S1                 0.0000
     26 ****        -4.0177  -1.3897  -0.4371 H              1 S1                 0.0000
     27 ****        -3.5921   1.6212  -0.6896 H              1 S1                 0.0000
     28 ****        -4.0302   0.7641   0.7686 H              1 S1                 0.0000
     29 ****        -1.6048   1.2550   0.7120 H              1 S1                 0.0000
     30 ****        -1.8817  -0.4713   0.7513 H              1 S1                 0.0000
     31 ****         0.4088  -0.5258  -0.0414 H              1 S1                 0.0000
     32 ****         0.7317  -0.3445  -1.7432 H              1 S1                 0.0000
     33 ****         0.3654   2.0764   0.0872 H              1 S1                 0.0000
     34 ****         1.3824   1.8273  -2.5195 H              1 S1                 0.0000
     35 ****         2.9915   1.0505  -1.0704 H              1 S1                 0.0000
     36 ****         2.7867   2.4351  -0.0409 H              1 S1                 0.0000
     37 ****         2.1256   2.3965   3.6695 H              1 S1                 0.0000
     38 ****         2.0282   2.9711   2.0236 H              1 S1                 0.0000
     39 ****         0.0108   2.9010   3.1054 H              1 S1                 0.0000
     40 ****         3.7040  -2.6989   3.6215 H              1 S1                 0.0000
     41 ****         4.5499  -4.1978   1.8307 H              1 S1                 0.0000
     42 ****         4.5129  -3.4640  -0.5439 H              1 S1                 0.0000
     43 ****         3.6269  -1.2171  -1.1421 H              1 S1                 0.0000
     44 ****        -1.1767  -0.9393  -2.8768 H              1 S1                 0.0000
     45 ****        -1.6147  -1.8066  -1.4172 H              1 S1                 0.0000
     46 ****        -3.6023  -1.4897  -2.8695 H              1 S1                 0.0000
     47 ****        -3.3321   0.2353  -2.9261 H              1 S1                 0.0000
     48 ****        -1.3460   1.0917  -1.6704 H              1 S1                 0.0000
     49 ****         1.1756   3.1833  -1.7142 LP             1 S1                 0.0000
     50 ****        -0.1041   2.2880  -2.1909 LP             1 S1                 0.0000
     51 ****         0.0601   1.3300   3.3535 LP             1 S1                 0.0000
     52 ****        -0.0494   1.9365   1.8413 LP             1 S1                 0.0000
     53 ****         2.5447  -0.1117   4.0823 LP             1 S1                 0.0000
@<TRIPOS>BOND
    1    1    2 1     
    2    1   23 1     
    3    1   24 1     
    4    1   25 1     
    5    2   22 1     
    6    2    3 1     
    7    2   26 1     
    8    3    4 1     
    9    3   27 1     
   10    3   28 1     
   11    4    5 1     
   12    4   29 1     
   13    4   30 1     
   14    5    6 1     
   15    5   21 1     
   16    5   48 1     
   17    6    7 1     
   18    6   31 1     
   19    6   32 1     
   20    7    8 1     
   21    7    9 1     
   22    7   33 1     
   23    8   34 1     
   24    9   10 1     
   25    9   35 1     
   26    9   36 1     
   27   10   20 1     
   28   10   11 1     
   29   11   12 1     
   30   11   14 2     
   31   12   13 1     
   32   12   37 1     
   33   12   38 1     
   34   13   39 1     
   35   14   15 1     
   36   15   20 ar    
   37   15   16 ar    
   38   16   17 ar    
   39   16   40 1     
   40   17   18 ar    
   41   17   41 1     
   42   18   19 ar    
   43   18   42 1     
   44   19   20 ar    
   45   19   43 1     
   46   21   22 1     
   47   21   44 1     
   48   21   45 1     
   49   22   46 1     
   50   22   47 1     
   51    8   49 1     
   52    8   50 1     
   53   13   51 1     
   54   13   52 1     
   55   14   53 1     
@<TRIPOS>SUBSTRUCTURE
      1 S1             1
@<TRIPOS>SET
LONE_PAIRS      STATIC     ATOMS    <user>   **** ""
5 49 50 51 52 53
DONOR_HYDROGENS      STATIC     ATOMS    <user>   **** ""
3 48 34 39
ATOM$BLUE        STATIC     ATOMS    COLORGROUP SYSTEM
5 49 50 51 52 53
ATOM$RED        STATIC     ATOMS    COLORGROUP SYSTEM
3 48 34 39
