AV-unprocessed.smi:229|AV-procd|sdf|1755|dock3
  -GOLD-   2262020283D 1   1.00000     0.00000
 Structure written by MMmdl.
 58 62  0  0  0  0  0  0  0  0  1 V2000
  146.3137  134.2725  162.5885 C   0  0  0  0  0  0  0  0  0  0  0  0
  147.5100  133.6535  161.8533 C   0  0  0  0  0  0  0  0  0  0  0  0
  147.5987  134.0519  160.3710 C   0  0  2  0  0  0  0  0  0  0  0  0
  147.7590  135.5689  160.1649 C   0  0  0  0  0  0  0  0  0  0  0  0
  147.7192  135.8843  158.7429 N   0  0  0  0  0  0  0  0  0  0  0  0
  148.1796  137.1172  158.4105 C   0  0  0  0  0  0  0  0  0  0  0  0
  147.3581  138.0034  157.7857 N   0  0  0  0  0  0  0  0  0  0  0  0
  147.7997  139.2221  157.4606 C   0  0  0  0  0  0  0  0  0  0  0  0
  149.0075  139.7528  157.6600 N   0  0  0  0  0  0  0  0  0  0  0  0
  149.8390  138.8660  158.2775 C   0  0  0  0  0  0  0  0  0  0  0  0
  149.5111  137.5417  158.6839 C   0  0  0  0  0  0  0  0  0  0  0  0
  150.6207  136.9399  159.2676 N   0  0  0  0  0  0  0  0  0  0  0  0
  151.5469  137.8583  159.2173 C   0  0  0  0  0  0  0  0  0  0  0  0
  151.1624  139.0450  158.6362 N   0  0  0  0  0  0  0  0  0  0  0  0
  151.9806  140.2287  158.4414 C   0  0  0  0  0  0  0  0  0  0  0  0
  151.1389  141.4709  158.0788 C   0  0  2  0  0  0  0  0  0  0  0  0
  150.8618  141.4229  156.6924 O   0  0  0  0  0  0  0  0  0  0  0  0
  151.8659  142.7991  158.3670 C   0  0  2  0  0  0  0  0  0  0  0  0
  152.1759  143.0510  159.8444 C   0  0  0  0  0  0  0  0  0  0  0  0
  152.2743  144.5645  159.9389 C   0  0  0  0  0  0  0  0  0  0  0  0
  151.5714  145.0572  158.6720 C   0  0  0  0  0  0  0  0  0  0  0  0
  151.0060  143.8935  158.0847 O   0  0  0  0  0  0  0  0  0  0  0  0
  146.5109  135.3971  158.0843 C   0  0  0  0  0  0  0  0  0  0  0  0
  146.3168  133.8848  158.3353 C   0  0  2  0  0  0  0  0  0  0  0  0
  147.2918  133.0005  157.5485 C   0  0  0  0  0  0  0  0  0  0  0  0
  146.4436  132.4368  156.4170 C   0  0  0  0  0  0  0  0  0  0  0  0
  145.1896  132.2512  157.0455 O   0  0  0  0  0  0  0  0  0  0  0  0
  144.9417  133.4105  157.8276 C   0  0  0  0  0  0  0  0  0  0  0  0
  146.3905  133.6234  159.7404 O   0  0  0  0  0  0  0  0  0  0  0  0
  146.3341  134.0097  163.6462 H   0  0  0  0  0  0  0  0  0  0  0  0
  145.3660  133.9196  162.1821 H   0  0  0  0  0  0  0  0  0  0  0  0
  146.3271  135.3603  162.5167 H   0  0  0  0  0  0  0  0  0  0  0  0
  148.4236  133.9708  162.3571 H   0  0  0  0  0  0  0  0  0  0  0  0
  147.4757  132.5674  161.9441 H   0  0  0  0  0  0  0  0  0  0  0  0
  148.4470  133.5324  159.9233 H   0  0  0  0  0  0  0  0  0  0  0  0
  146.9526  136.1047  160.6676 H   0  0  0  0  0  0  0  0  0  0  0  0
  148.6902  135.9058  160.6170 H   0  0  0  0  0  0  0  0  0  0  0  0
  147.0828  139.8630  156.9691 H   0  0  0  0  0  0  0  0  0  0  0  0
  152.5440  137.6921  159.5985 H   0  0  0  0  0  0  0  0  0  0  0  0
  152.5419  140.3966  159.3608 H   0  0  0  0  0  0  0  0  0  0  0  0
  152.7150  140.0230  157.6612 H   0  0  0  0  0  0  0  0  0  0  0  0
  150.1963  141.4431  158.6274 H   0  0  0  0  0  0  0  0  0  0  0  0
  151.6393  141.1244  156.2451 H   0  0  0  0  0  0  0  0  0  0  0  0
  152.7812  142.8842  157.7775 H   0  0  0  0  0  0  0  0  0  0  0  0
  151.3497  142.7015  160.4657 H   0  0  0  0  0  0  0  0  0  0  0  0
  153.0843  142.5486  160.1785 H   0  0  0  0  0  0  0  0  0  0  0  0
  151.7922  144.9346  160.8443 H   0  0  0  0  0  0  0  0  0  0  0  0
  153.3139  144.8939  159.9510 H   0  0  0  0  0  0  0  0  0  0  0  0
  150.8016  145.8002  158.8823 H   0  0  0  0  0  0  0  0  0  0  0  0
  152.2907  145.4976  157.9802 H   0  0  0  0  0  0  0  0  0  0  0  0
  145.6540  135.9485  158.4748 H   0  0  0  0  0  0  0  0  0  0  0  0
  146.5583  135.5926  157.0119 H   0  0  0  0  0  0  0  0  0  0  0  0
  148.1730  133.5318  157.1876 H   0  0  0  0  0  0  0  0  0  0  0  0
  147.6352  132.1722  158.1695 H   0  0  0  0  0  0  0  0  0  0  0  0
  146.3483  133.1538  155.6000 H   0  0  0  0  0  0  0  0  0  0  0  0
  146.8389  131.5028  156.0174 H   0  0  0  0  0  0  0  0  0  0  0  0
  144.2427  133.1923  158.6355 H   0  0  0  0  0  0  0  0  0  0  0  0
  144.4775  134.1610  157.1859 H   0  0  0  0  0  0  0  0  0  0  0  0
  1  2  1  0  0  0  0
  1 30  1  0  0  0  0
  1 31  1  0  0  0  0
  1 32  1  0  0  0  0
  2  3  1  0  0  0  0
  2 33  1  0  0  0  0
  2 34  1  0  0  0  0
  3 29  1  0  0  0  0
  3  4  1  0  0  0  0
  3 35  1  0  0  0  0
  4  5  1  0  0  0  0
  4 36  1  0  0  0  0
  4 37  1  0  0  0  0
  5  6  1  0  0  0  0
  5 23  1  0  0  0  0
  6 11  1  0  0  0  0
  6  7  2  0  0  0  0
  7  8  1  0  0  0  0
  8  9  2  0  0  0  0
  8 38  1  0  0  0  0
  9 10  1  0  0  0  0
 10 14  1  0  0  0  0
 10 11  2  0  0  0  0
 11 12  1  0  0  0  0
 12 13  2  0  0  0  0
 13 14  1  0  0  0  0
 13 39  1  0  0  0  0
 14 15  1  0  0  0  0
 15 16  1  0  0  0  0
 15 40  1  0  0  0  0
 15 41  1  0  0  0  0
 16 17  1  0  0  0  0
 16 18  1  0  0  0  0
 16 42  1  0  0  0  0
 17 43  1  0  0  0  0
 18 22  1  0  0  0  0
 18 19  1  0  0  0  0
 18 44  1  0  0  0  0
 19 20  1  0  0  0  0
 19 45  1  0  0  0  0
 19 46  1  0  0  0  0
 20 21  1  0  0  0  0
 20 47  1  0  0  0  0
 20 48  1  0  0  0  0
 21 22  1  0  0  0  0
 21 49  1  0  0  0  0
 21 50  1  0  0  0  0
 23 24  1  0  0  0  0
 23 51  1  0  0  0  0
 23 52  1  0  0  0  0
 24 28  1  0  0  0  0
 24 25  1  0  0  0  0
 24 29  1  0  0  0  0
 25 26  1  0  0  0  0
 25 53  1  0  0  0  0
 25 54  1  0  0  0  0
 26 27  1  0  0  0  0
 26 55  1  0  0  0  0
 26 56  1  0  0  0  0
 27 28  1  0  0  0  0
 28 57  1  0  0  0  0
 28 58  1  0  0  0  0
M  END
> <s_m_source_file>
AV-unprocessed.smi

> <i_m_source_file_index>
229

> <i_lp_mmshare_version>
43012

> <i_f3d_flags>
0

> <s_epik_input>
W0NIMl0xT1tDSDJdW0NIMl1bQ0BdMTJbQ0gyXU4oW0NIMl1bQ0BIXShPMilbQ0gyXVtDSDNdKWMobltjSF1uMyljKGMzNCluW2NIXW40W0NIMl1bQ0BIXShbT0hdKVtDQEBIXTVbQ0gyXVtDSDJdW0NIMl1PNQ==

> <s_epik_cmdline>
J2VwaWtfcHl0aG9uJywgJy1waCcsICc3LjAnLCAnLXRuJywgJzgnLCAnLW1hJywgJzIwMCcsICctbWV0YWxfYmluZGluZycsICctaW1hZScsICc8aW5maWxlLm1hZT4nLCAnLW9tYWUnLCAnPG91dGZpbGUubWFlPic=

> <r_lp_tautomer_probability>
1

> <r_epik_Ionization_Penalty>
0.00318402

> <r_epik_Ionization_Penalty_Charging>
0

> <r_epik_Ionization_Penalty_Neutral>
0.00318402

> <r_epik_State_Penalty>
0.00215642

> <r_epik_Charging_Adjusted_Penalty>
0.00215642

> <i_epik_Tot_Q>
0

> <i_epik_Tot_abs_Q>
0

> <r_epik_Metal_State_Penalty>
-0

> <b_epik_Metal_Only>
0

> <s_lp_Force_Field>
OPLS_2005

> <r_lp_Energy>
54.5162

> <b_lp_Chiralities_Consistent>
1

> <s_lp_Variant>
AV-unprocessed.smi:229-9

> <Gold.Version>
5.8.1

> <Gold.Id.Protein>
6NUR|6NUR_protein|mol2

> <Gold.PLP.Fitness>
42.1572

> <Gold.PLP.PLP>
-40.0168

> <Gold.PLP.part.hbond>
-1.0000

> <Gold.PLP.part.metal>
0.0000

> <Gold.PLP.part.buried>
-7.6251

> <Gold.PLP.part.nonpolar>
-31.2252

> <Gold.PLP.part.repulsive>
0.2401

> <Gold.PLP.ligand.clash>
0.0000

> <Gold.PLP.ligand.torsion>
0.6420

> <Gold.PLP.Chemscore.Hbond>
1.0000

> <Gold.PLP.Chemscore.CHOScore>
0.0000

> <Gold.PLP.Chemscore.Metal>
0.0000

> <Gold.Chemscore.Hbonds>
donor molecule, donor type, donor heavy atom, donor atom, acceptor molecule, acceptor atom, score
      P1  H  6896  6909       L1    12  0.98

> <Gold.PLP.Chemscore.Internal.Correction>
0.4243

> <Gold.Rescore>
     Score         DG    S(hbond)    S(metal)    S(lipo)     H(rot)  DE(clash)    DE(int)     intcor
     12.36     -14.48       0.99        0.00     102.40       2.46       0.01       2.12       ----

> <Gold.Chemscore.Fitness>
12.3555

> <Gold.Chemscore.DG>
-14.4828

> <Gold.Chemscore.ZeroCoef>
-5.4800

> <Gold.Chemscore.Hbond>
0.9933

> <Gold.Chemscore.Metal>
0.0000

> <Gold.Chemscore.Lipo>
102.3974

> <Gold.Chemscore.Internal_Hbond>
0.0000

> <Gold.Chemscore.DEClash>
0.0112

> <Gold.Chemscore.DEInternal>
2.1160

> <Gold.Chemscore.Rot>
2.4591

> <Gold.Chemscore.Internal.Correction>
   9.000000E+99

> <Gold.Chemscore.Hbonds>
donor molecule, donor type, donor heavy atom, donor atom, acceptor molecule, acceptor atom, score
      P1  H  6896  6909       L1    12  0.75

> <Gold.Chemscore.Hbond.Weighted>
-3.3176

> <Gold.Chemscore.Metal.Weighted>
-0.0000

> <Gold.Chemscore.Lipo.Weighted>
-11.9805

> <Gold.Chemscore.Internal_Hbond.Weighted>
0.0000

> <Gold.Chemscore.DEClash.Weighted>
0.0112

> <Gold.Chemscore.DEInternal.Weighted>
2.1160

> <Gold.Chemscore.Rot.Weighted>
6.2953

> <Gold.Chemscore.Internal.Correction.Weighted>
   9.000000E+99

> <Gold.Protein.RotatedTorsions>
[ 6907 6896 6895 6894 ] final  107.82 input  -60.11 | X-H torsion
[ 7974 7965 7964 7962 ] final  126.30 input  175.53 | X-H torsion
[ 8008 7997 7996 7995 ] final  160.78 input   59.86 | X-H torsion
[ 10167 10162 10161 10158 ] final  107.39 input  -65.29 | X-H torsion
[ 10718 10713 10712 10709 ] final -124.75 input   66.30 | X-H torsion
[ 10763 10752 10751 10750 ] final -120.92 input  -60.55 | X-H torsion
[ 11005 11000 10999 10996 ] final   51.53 input  -57.11 | X-H torsion

> <Gold.Protein.ActiveResidues>
 VAL166  LYS551  ARG553  GLY616  TRP617  ASP618  TYR619  PRO620  LYS621  CYS622 
 ASP623  PHE694  ASN695  SER759  ASP760  ASP761  ALA762  ILE779  LEU786  VAL792 
 PHE793  MET794  SER795  GLU796  ALA797  LYS798  CYS799  TRP800  GLU811  SER814 

> <Gold.Protein.RotatedAtoms>
  152.5138  133.9178  159.7519 H   0  0  0  0  0  0  0  0  0  0  0  0  # atno 6907 bound_to 6896
  150.9557  133.6492  159.2770 H   0  0  0  0  0  0  0  0  0  0  0  0  # atno 6908 bound_to 6896
  151.3754  135.0935  159.9532 H   0  0  0  0  0  0  0  0  0  0  0  0  # atno 6909 bound_to 6896
  145.0632  139.3788  143.4995 H   0  0  0  0  0  0  0  0  0  0  0  0  # atno 7974 bound_to 7965
  156.2149  140.1795  156.7612 H   0  0  0  0  0  0  0  0  0  0  0  0  # atno 8008 bound_to 7997
  154.5776  140.0671  156.9087 H   0  0  0  0  0  0  0  0  0  0  0  0  # atno 8009 bound_to 7997
  155.2559  140.3332  155.4280 H   0  0  0  0  0  0  0  0  0  0  0  0  # atno 8010 bound_to 7997
  139.6931  144.7105  151.1315 H   0  0  0  0  0  0  0  0  0  0  0  0  # atno 10167 bound_to 10162
  156.1615  130.6605  151.0056 H   0  0  0  0  0  0  0  0  0  0  0  0  # atno 10718 bound_to 10713
  154.8656  135.4186  154.2537 H   0  0  0  0  0  0  0  0  0  0  0  0  # atno 10763 bound_to 10752
  153.3478  135.6997  153.6819 H   0  0  0  0  0  0  0  0  0  0  0  0  # atno 10764 bound_to 10752
  153.5771  135.3580  155.2833 H   0  0  0  0  0  0  0  0  0  0  0  0  # atno 10765 bound_to 10752
  140.0924  134.5191  155.8839 H   0  0  0  0  0  0  0  0  0  0  0  0  # atno 11005 bound_to 11000
  146.3525  140.0341  142.8648 LP  0  0  0  0  0  0  0  0  0  0  0  0  # atno 17320 bound_to 7965
  145.1382  140.9557  143.4504 LP  0  0  0  0  0  0  0  0  0  0  0  0  # atno 17321 bound_to 7965
  140.7688  143.5531  150.9182 LP  0  0  0  0  0  0  0  0  0  0  0  0  # atno 17342 bound_to 10162
  139.9209  143.6607  152.3097 LP  0  0  0  0  0  0  0  0  0  0  0  0  # atno 17343 bound_to 10162
  157.6736  131.0855  150.7551 LP  0  0  0  0  0  0  0  0  0  0  0  0  # atno 17370 bound_to 10713
  156.7613  130.4799  149.5436 LP  0  0  0  0  0  0  0  0  0  0  0  0  # atno 17371 bound_to 10713
  141.2082  133.6671  156.6355 LP  0  0  0  0  0  0  0  0  0  0  0  0  # atno 17394 bound_to 11000
  140.3333  134.7910  157.4343 LP  0  0  0  0  0  0  0  0  0  0  0  0  # atno 17395 bound_to 11000

$$$$
