AV-unprocessed.smi:2908|AV-procd|sdf|11169|dock9
  -GOLD-   2272016 63D 1   1.00000     0.00000
 Structure written by MMmdl.
 44 45  0  0  0  0  0  0  0  0  2 V2000
  148.2259  139.3179  156.4251 O   0  0  0  0  0  0  0  0  0  0  0  0
  149.0279  138.6412  157.0710 C   0  0  0  0  0  0  0  0  0  0  0  0
  150.2639  139.0834  157.3625 N   0  0  0  0  0  0  0  0  0  0  0  0
  150.8168  140.3851  156.9948 C   0  0  0  0  0  0  0  0  0  0  0  0
  150.0672  141.5564  157.6598 C   0  0  0  0  0  0  0  0  0  0  0  0
  150.9838  142.5970  158.2785 C   0  0  0  0  0  0  0  0  0  0  0  0
  151.9186  142.2736  159.2864 C   0  0  0  0  0  0  0  0  0  0  0  0
  152.7583  143.2851  159.7968 C   0  0  0  0  0  0  0  0  0  0  0  0
  152.6445  144.5970  159.2919 C   0  0  0  0  0  0  0  0  0  0  0  0
  151.6915  144.8647  158.2882 C   0  0  0  0  0  0  0  0  0  0  0  0
  150.9049  143.8690  157.8251 N   0  3  0  0  0  0  0  0  0  0  0  0
  148.7656  137.3775  157.4887 N   0  0  0  0  0  0  0  0  0  0  0  0
  149.5071  136.6298  158.5152 C   0  0  0  0  0  0  0  0  0  0  0  0
  148.6740  136.6126  159.8084 C   0  0  0  0  0  0  0  0  0  0  0  0
  147.2675  135.9981  159.5854 C   0  0  0  0  0  0  0  0  0  0  0  0
  146.4064  136.0736  160.8758 C   0  0  2  0  0  0  0  0  0  0  0  0
  146.3914  137.4156  161.3272 O   0  0  0  0  0  0  0  0  0  0  0  0
  146.8847  135.1951  162.0556 C   0  0  0  0  0  0  0  0  0  0  0  0
  145.8317  134.7713  162.7564 F   0  0  0  0  0  0  0  0  0  0  0  0
  147.5177  134.1108  161.6093 F   0  0  0  0  0  0  0  0  0  0  0  0
  147.7032  135.8754  162.8587 F   0  0  0  0  0  0  0  0  0  0  0  0
  146.5925  136.6569  158.3567 C   0  0  0  0  0  0  0  0  0  0  0  0
  147.5252  136.6826  157.1319 C   0  0  0  0  0  0  0  0  0  0  0  0
  150.8693  138.4656  157.8836 H   0  0  0  0  0  0  0  0  0  0  0  0
  151.8803  140.4319  157.2350 H   0  0  0  0  0  0  0  0  0  0  0  0
  150.7490  140.4819  155.9111 H   0  0  0  0  0  0  0  0  0  0  0  0
  149.4300  142.0466  156.9229 H   0  0  0  0  0  0  0  0  0  0  0  0
  149.3967  141.1719  158.4294 H   0  0  0  0  0  0  0  0  0  0  0  0
  151.9998  141.2623  159.6573 H   0  0  0  0  0  0  0  0  0  0  0  0
  153.4833  143.0569  160.5643 H   0  0  0  0  0  0  0  0  0  0  0  0
  153.2802  145.3854  159.6675 H   0  0  0  0  0  0  0  0  0  0  0  0
  151.5386  145.8366  157.8426 H   0  0  0  0  0  0  0  0  0  0  0  0
  149.6745  135.6095  158.1675 H   0  0  0  0  0  0  0  0  0  0  0  0
  150.4996  137.0289  158.7232 H   0  0  0  0  0  0  0  0  0  0  0  0
  149.2160  136.0540  160.5716 H   0  0  0  0  0  0  0  0  0  0  0  0
  148.5757  137.6313  160.1860 H   0  0  0  0  0  0  0  0  0  0  0  0
  147.4108  134.9443  159.3411 H   0  0  0  0  0  0  0  0  0  0  0  0
  145.3771  135.8023  160.6373 H   0  0  0  0  0  0  0  0  0  0  0  0
  145.6349  137.5355  161.8810 H   0  0  0  0  0  0  0  0  0  0  0  0
  145.6883  136.1138  158.0847 H   0  0  0  0  0  0  0  0  0  0  0  0
  146.2866  137.6749  158.6026 H   0  0  0  0  0  0  0  0  0  0  0  0
  147.0160  137.1421  156.2835 H   0  0  0  0  0  0  0  0  0  0  0  0
  147.7576  135.6643  156.8168 H   0  0  0  0  0  0  0  0  0  0  0  0
  150.2282  144.0842  157.0924 H   0  0  0  0  0  0  0  0  0  0  0  0
  1  2  2  0  0  0  0
  2  3  1  0  0  0  0
  2 12  1  0  0  0  0
  3  4  1  0  0  0  0
  3 24  1  0  0  0  0
  4  5  1  0  0  0  0
  4 25  1  0  0  0  0
  4 26  1  0  0  0  0
  5  6  1  0  0  0  0
  5 27  1  0  0  0  0
  5 28  1  0  0  0  0
  6 11  1  0  0  0  0
  6  7  2  0  0  0  0
  7  8  1  0  0  0  0
  7 29  1  0  0  0  0
  8  9  2  0  0  0  0
  8 30  1  0  0  0  0
  9 10  1  0  0  0  0
  9 31  1  0  0  0  0
 10 11  2  0  0  0  0
 10 32  1  0  0  0  0
 11 44  1  0  0  0  0
 12 23  1  0  0  0  0
 12 13  1  0  0  0  0
 13 14  1  0  0  0  0
 13 33  1  0  0  0  0
 13 34  1  0  0  0  0
 14 15  1  0  0  0  0
 14 35  1  0  0  0  0
 14 36  1  0  0  0  0
 15 16  1  0  0  0  0
 15 22  1  0  0  0  0
 15 37  1  0  0  0  0
 16 17  1  0  0  0  0
 16 18  1  0  0  0  0
 16 38  1  0  0  0  0
 17 39  1  0  0  0  0
 18 19  1  0  0  0  0
 18 20  1  0  0  0  0
 18 21  1  0  0  0  0
 22 23  1  0  0  0  0
 22 40  1  0  0  0  0
 22 41  1  0  0  0  0
 23 42  1  0  0  0  0
 23 43  1  0  0  0  0
M  CHG  1  11   1
M  END
> <s_m_source_file>
AV-unprocessed.smi

> <i_m_source_file_index>
2908

> <i_lp_mmshare_version>
43012

> <i_f3d_flags>
0

> <s_epik_input>
RkMoRikoRilbQ0BASF0oW09IXSlbQ0hdKFtDSDJdW0NIMl0xKVtDSDJdW0NIMl1OMUMoPU8pW05IXVtDSDJdW0NIMl1jMltjSF1bY0hdW2NIXVtjSF1uMg==

> <s_epik_cmdline>
J2VwaWtfcHl0aG9uJywgJy1waCcsICc3LjAnLCAnLXRuJywgJzgnLCAnLW1hJywgJzIwMCcsICctbWV0YWxfYmluZGluZycsICctaW1hZScsICc8aW5maWxlLm1hZT4nLCAnLW9tYWUnLCAnPG91dGZpbGUubWFlPic=

> <r_epik_Ionization_Penalty>
1.55054

> <r_epik_Ionization_Penalty_Charging>
1.55036

> <r_epik_Ionization_Penalty_Neutral>
0.00017404

> <r_epik_State_Penalty>
1.64453

> <r_epik_Charging_Adjusted_Penalty>
3.19489

> <i_epik_Tot_Q>
1

> <i_epik_Tot_abs_Q>
1

> <r_epik_Metal_State_Penalty>
1.68672

> <b_epik_Metal_Only>
0

> <s_lp_Force_Field>
OPLS_2005

> <r_lp_Energy>
42.7125

> <b_lp_Chiralities_Consistent>
1

> <s_lp_Variant>
AV-unprocessed.smi:2908-3

> <Gold.Version>
5.8.1

> <Gold.Id.Protein>
6NUR|6NUR_protein|mol2

> <Gold.PLP.Fitness>
48.5999

> <Gold.PLP.PLP>
-42.4663

> <Gold.PLP.part.hbond>
-2.0000

> <Gold.PLP.part.metal>
0.0000

> <Gold.PLP.part.buried>
-6.6497

> <Gold.PLP.part.nonpolar>
-33.9917

> <Gold.PLP.part.repulsive>
0.0429

> <Gold.PLP.ligand.clash>
0.0000

> <Gold.PLP.ligand.torsion>
1.6987

> <Gold.PLP.Chemscore.Hbond>
3.0000

> <Gold.PLP.Chemscore.CHOScore>
0.0000

> <Gold.PLP.Chemscore.Metal>
0.0000

> <Gold.Chemscore.Hbonds>
donor molecule, donor type, donor heavy atom, donor atom, acceptor molecule, acceptor atom, score
      L1  H    11    44       P1  8028  1.95
      P1  H  6934  6947       L1    17  1.00

> <Gold.PLP.Chemscore.Internal.Correction>
0.5309

> <Gold.Rescore>
     Score         DG    S(hbond)    S(metal)    S(lipo)     H(rot)  DE(clash)    DE(int)     intcor
     15.40     -16.74       1.90        0.00      94.56       2.40       0.04       1.29       ----

> <Gold.Chemscore.Fitness>
15.4039

> <Gold.Chemscore.DG>
-16.7384

> <Gold.Chemscore.ZeroCoef>
-5.4800

> <Gold.Chemscore.Hbond>
1.8999

> <Gold.Chemscore.Metal>
0.0000

> <Gold.Chemscore.Lipo>
94.5602

> <Gold.Chemscore.Internal_Hbond>
0.0000

> <Gold.Chemscore.DEClash>
0.0441

> <Gold.Chemscore.DEInternal>
1.2905

> <Gold.Chemscore.Rot>
2.4026

> <Gold.Chemscore.Internal.Correction>
   9.000000E+99

> <Gold.Chemscore.Hbonds>
donor molecule, donor type, donor heavy atom, donor atom, acceptor molecule, acceptor atom, score
      L1  H    11    44       P1  8028  0.85
      P1  H  6934  6947       L1    17  0.74

> <Gold.Chemscore.Hbond.Weighted>
-6.3456

> <Gold.Chemscore.Metal.Weighted>
-0.0000

> <Gold.Chemscore.Lipo.Weighted>
-11.0635

> <Gold.Chemscore.Internal_Hbond.Weighted>
0.0000

> <Gold.Chemscore.DEClash.Weighted>
0.0441

> <Gold.Chemscore.DEInternal.Weighted>
1.2905

> <Gold.Chemscore.Rot.Weighted>
6.1508

> <Gold.Chemscore.Internal.Correction.Weighted>
   9.000000E+99

> <Gold.Protein.RotatedTorsions>
[ 6907 6896 6895 6894 ] final   21.56 input  -60.11 | X-H torsion
[ 7974 7965 7964 7962 ] final   72.49 input  175.53 | X-H torsion
[ 8008 7997 7996 7995 ] final   34.29 input   59.86 | X-H torsion
[ 10167 10162 10161 10158 ] final  149.91 input  -65.29 | X-H torsion
[ 10718 10713 10712 10709 ] final  -37.39 input   66.30 | X-H torsion
[ 10763 10752 10751 10750 ] final  171.34 input  -60.55 | X-H torsion
[ 11005 11000 10999 10996 ] final   41.09 input  -57.11 | X-H torsion

> <Gold.Protein.ActiveResidues>
 VAL166  LYS551  ARG553  GLY616  TRP617  ASP618  TYR619  PRO620  LYS621  CYS622 
 ASP623  PHE694  ASN695  SER759  ASP760  ASP761  ALA762  ILE779  LEU786  VAL792 
 PHE793  MET794  SER795  GLU796  ALA797  LYS798  CYS799  TRP800  GLU811  SER814 

> <Gold.Protein.RotatedAtoms>
  151.9137  135.0328  160.0516 H   0  0  0  0  0  0  0  0  0  0  0  0  # atno 6907 bound_to 6896
  152.2258  133.5014  159.5196 H   0  0  0  0  0  0  0  0  0  0  0  0  # atno 6908 bound_to 6896
  150.7012  134.1199  159.4074 H   0  0  0  0  0  0  0  0  0  0  0  0  # atno 6909 bound_to 6896
  145.7528  139.2767  143.1421 H   0  0  0  0  0  0  0  0  0  0  0  0  # atno 7974 bound_to 7965
  155.1524  140.3276  155.4428 H   0  0  0  0  0  0  0  0  0  0  0  0  # atno 8008 bound_to 7997
  156.2570  140.1974  156.6585 H   0  0  0  0  0  0  0  0  0  0  0  0  # atno 8009 bound_to 7997
  154.6463  140.0564  156.9891 H   0  0  0  0  0  0  0  0  0  0  0  0  # atno 8010 bound_to 7997
  139.4856  144.5564  151.7309 H   0  0  0  0  0  0  0  0  0  0  0  0  # atno 10167 bound_to 10162
  156.3158  130.4259  149.8007 H   0  0  0  0  0  0  0  0  0  0  0  0  # atno 10718 bound_to 10713
  154.4105  135.2756  155.2039 H   0  0  0  0  0  0  0  0  0  0  0  0  # atno 10763 bound_to 10752
  154.4027  135.6041  153.5910 H   0  0  0  0  0  0  0  0  0  0  0  0  # atno 10764 bound_to 10752
  152.9831  135.5930  154.4386 H   0  0  0  0  0  0  0  0  0  0  0  0  # atno 10765 bound_to 10752
  140.1868  134.4036  155.8169 H   0  0  0  0  0  0  0  0  0  0  0  0  # atno 11005 bound_to 11000
  146.0340  140.8230  142.9861 LP  0  0  0  0  0  0  0  0  0  0  0  0  # atno 17320 bound_to 7965
  144.6846  140.2811  143.7292 LP  0  0  0  0  0  0  0  0  0  0  0  0  # atno 17321 bound_to 7965
  140.5126  144.1001  150.5999 LP  0  0  0  0  0  0  0  0  0  0  0  0  # atno 17342 bound_to 10162
  140.3932  143.2741  152.0035 LP  0  0  0  0  0  0  0  0  0  0  0  0  # atno 17343 bound_to 10162
  156.5333  130.8267  151.3244 LP  0  0  0  0  0  0  0  0  0  0  0  0  # atno 17370 bound_to 10713
  157.7401  130.9844  150.2357 LP  0  0  0  0  0  0  0  0  0  0  0  0  # atno 17371 bound_to 10713
  141.2225  133.7027  156.8026 LP  0  0  0  0  0  0  0  0  0  0  0  0  # atno 17394 bound_to 11000
  140.2205  134.8761  157.3372 LP  0  0  0  0  0  0  0  0  0  0  0  0  # atno 17395 bound_to 11000

$$$$
