#       Name:                AV-unprocessed.smi:199
#       Creating user name   scv26
#       Creation time:       Thu Mar 26 19:45:20 2020


#       File generated by GOLD software.
#

@<TRIPOS>MOLECULE
AV-unprocessed.smi:199
    61    65     1
SMALL
NO_CHARGES


@<TRIPOS>ATOM
      1 ****        -5.6590   2.2925   0.6430 C.3            1 S1                 0.0000
      2 ****        -5.1158   1.5065  -0.5614 C.3            1 S1                 0.0000
      3 ****        -5.5797   2.0723  -1.7868 O.3            1 S1                 0.0000
      4 ****        -4.4790   2.4022  -2.6223 C.3            1 S1                 0.0000
      5 ****        -3.3694   1.4569  -2.1803 C.3            1 S1                 0.0000
      6 ****        -3.5781   1.3857  -0.6741 C.3            1 S1                 0.0000
      7 ****        -2.9382   2.5051  -0.0817 O.3            1 S1                 0.0000
      8 ****        -3.0225   0.0981  -0.0203 C.3            1 S1                 0.0000
      9 ****        -1.5999  -0.1008  -0.2508 N.pl3          1 S1                 0.0000
     10 ****        -1.0229  -0.7849  -1.2958 C.2            1 S1                 0.0000
     11 ****         0.2811  -0.8195  -1.2837 N.2            1 S1                 0.0000
     12 ****         0.6344  -0.1184  -0.1363 C.ar           1 S1                 0.0000
     13 ****         1.8715   0.2222   0.4845 C.ar           1 S1                 0.0000
     14 ****         3.0875  -0.1372  -0.0078 N.3            1 S1                 0.0000
     15 ****         4.2846  -0.0918   0.8171 C.3            1 S1                 0.0000
     16 ****         5.3980  -0.3378  -0.2158 C.3            1 S1                 0.0000
     17 ****         4.7041  -1.3150  -1.1800 C.3            1 S1                 0.0000
     18 ****         3.3310  -1.4840  -0.5042 C.3            1 S1                 0.0000
     19 ****         3.5144  -2.3552   0.7641 C.3            1 S1                 0.0000
     20 ****         2.2104  -2.9858   1.2893 C.3            1 S1                 0.0000
     21 ****         2.4920  -3.8637   2.3580 O.3            1 S1                 0.0000
     22 ****         4.1539  -1.3321   1.7251 C.3            1 S1                 0.0000
     23 ****         1.8120   0.9669   1.6207 N.ar           1 S1                 0.0000
     24 ****         0.6337   1.3299   2.1339 C.ar           1 S1                 0.0000
     25 ****        -0.5908   1.0702   1.6742 N.ar           1 S1                 0.0000
     26 ****        -0.5415   0.3417   0.5231 C.ar           1 S1                 0.0000
     27 ****        -5.3004   1.8688   1.5814 H              1 S1                 0.0000
     28 ****        -6.7485   2.2649   0.6614 H              1 S1                 0.0000
     29 ****        -5.3602   3.3404   0.6087 H              1 S1                 0.0000
     30 ****        -5.5437   0.5038  -0.5291 H              1 S1                 0.0000
     31 ****        -4.7305   2.2939  -3.6774 H              1 S1                 0.0000
     32 ****        -4.1948   3.4401  -2.4440 H              1 S1                 0.0000
     33 ****        -3.5346   0.4769  -2.6304 H              1 S1                 0.0000
     34 ****        -2.3749   1.7969  -2.4728 H              1 S1                 0.0000
     35 ****        -2.0038   2.4061  -0.1836 H              1 S1                 0.0000
     36 ****        -3.2026   0.1101   1.0556 H              1 S1                 0.0000
     37 ****        -3.5477  -0.7763  -0.4066 H              1 S1                 0.0000
     38 ****        -1.6029  -1.2555  -2.0766 H              1 S1                 0.0000
     39 ****         4.4264   0.8377   1.3697 H              1 S1                 0.0000
     40 ****         5.6641   0.5857  -0.7318 H              1 S1                 0.0000
     41 ****         6.3027  -0.7514   0.2315 H              1 S1                 0.0000
     42 ****         4.5955  -0.8642  -2.1673 H              1 S1                 0.0000
     43 ****         5.2440  -2.2554  -1.2968 H              1 S1                 0.0000
     44 ****         2.5881  -1.8770  -1.1961 H              1 S1                 0.0000
     45 ****         4.2146  -3.1645   0.5506 H              1 S1                 0.0000
     46 ****         1.5032  -2.2312   1.6316 H              1 S1                 0.0000
     47 ****         1.7193  -3.5520   0.4974 H              1 S1                 0.0000
     48 ****         1.6796  -4.2414   2.6589 H              1 S1                 0.0000
     49 ****         5.1138  -1.6680   2.1189 H              1 S1                 0.0000
     50 ****         3.5031  -1.1222   2.5748 H              1 S1                 0.0000
     51 ****         0.6785   1.9122   3.0426 H              1 S1                 0.0000
     52 ****        -6.1052   2.9001  -1.5905 LP             1 S1                 0.0000
     53 ****        -6.1639   1.4101  -2.2562 LP             1 S1                 0.0000
     54 ****        -3.1685   2.5495   0.8904 LP             1 S1                 0.0000
     55 ****        -3.2396   3.3442  -0.5344 LP             1 S1                 0.0000
     56 ****         0.8891  -1.2525  -1.9493 LP             1 S1                 0.0000
     57 ****         2.9764   0.5890  -0.6862 LP             1 S1                 0.0000
     58 ****         2.9256  -3.3584   3.1040 LP             1 S1                 0.0000
     59 ****         3.1057  -4.5889   2.0458 LP             1 S1                 0.0000
     60 ****         2.6578   1.2451   2.0758 LP             1 S1                 0.0000
     61 ****        -1.4357   1.3708   2.1165 LP             1 S1                 0.0000
@<TRIPOS>BOND
    1    1    2 1     
    2    1   27 1     
    3    1   28 1     
    4    1   29 1     
    5    2    6 1     
    6    2    3 1     
    7    2   30 1     
    8    3    4 1     
    9    4    5 1     
   10    4   31 1     
   11    4   32 1     
   12    5    6 1     
   13    5   33 1     
   14    5   34 1     
   15    6    7 1     
   16    6    8 1     
   17    7   35 1     
   18    8    9 1     
   19    8   36 1     
   20    8   37 1     
   21    9   26 1     
   22    9   10 1     
   23   10   11 2     
   24   10   38 1     
   25   11   12 1     
   26   12   26 ar    
   27   12   13 ar    
   28   13   14 1     
   29   13   23 ar    
   30   14   18 1     
   31   14   15 1     
   32   15   22 1     
   33   15   16 1     
   34   15   39 1     
   35   16   17 1     
   36   16   40 1     
   37   16   41 1     
   38   17   18 1     
   39   17   42 1     
   40   17   43 1     
   41   18   19 1     
   42   18   44 1     
   43   19   20 1     
   44   19   22 1     
   45   19   45 1     
   46   20   21 1     
   47   20   46 1     
   48   20   47 1     
   49   21   48 1     
   50   22   49 1     
   51   22   50 1     
   52   23   24 ar    
   53   24   25 ar    
   54   24   51 1     
   55   25   26 ar    
   56    3   52 1     
   57    3   53 1     
   58    7   54 1     
   59    7   55 1     
   60   11   56 1     
   61   14   57 1     
   62   21   58 1     
   63   21   59 1     
   64   23   60 1     
   65   25   61 1     
@<TRIPOS>SUBSTRUCTURE
      1 S1             1
@<TRIPOS>SET
LONE_PAIRS      STATIC     ATOMS    <user>   **** ""
10 52 53 54 55 56 57 58 59 60 61
DONOR_HYDROGENS      STATIC     ATOMS    <user>   **** ""
2 35 48
ATOM$BLUE        STATIC     ATOMS    COLORGROUP SYSTEM
10 52 53 54 55 56 57 58 59 60 61
ATOM$RED        STATIC     ATOMS    COLORGROUP SYSTEM
2 35 48
