AV-unprocessed.smi:1145|AV-procd|sdf|4885|dock4
  -GOLD-   22720 3453D 1   1.00000     0.00000
 Structure written by MMmdl.
 36 37  0  0  0  0  0  0  0  0  1 V2000
  144.2562  139.7476  157.3045 C   0  0  0  0  0  0  0  0  0  0  0  0
  143.7364  139.2195  155.9545 C   0  0  1  0  0  0  0  0  0  0  0  0
  142.2731  139.6158  155.6729 C   0  0  0  0  0  0  0  0  0  0  0  0
  141.5531  138.6189  154.9015 N   0  0  0  0  0  0  0  0  0  0  0  0
  141.1731  138.6682  153.5765 C   0  0  0  0  0  0  0  0  0  0  0  0
  140.5284  137.4978  153.2954 C   0  0  0  0  0  0  0  0  0  0  0  0
  140.5683  136.7856  154.5266 C   0  0  0  0  0  0  0  0  0  0  0  0
  141.1845  137.4582  155.4852 N   0  0  0  0  0  0  0  0  0  0  0  0
  144.5781  139.7069  154.8651 N   0  0  0  0  0  0  0  0  0  0  0  0
  145.9177  139.6324  154.8200 C   0  0  0  0  0  0  0  0  0  0  0  0
  146.5926  139.1345  155.7215 O   0  0  0  0  0  0  0  0  0  0  0  0
  146.5883  140.1970  153.5528 C   0  0  1  0  0  0  0  0  0  0  0  0
  147.5386  141.3675  153.8657 C   0  0  0  0  0  0  0  0  0  0  0  0
  148.8233  140.9285  154.5935 C   0  0  0  0  0  0  0  0  0  0  0  0
  149.4466  139.6428  154.0294 C   0  0  0  0  0  0  0  0  0  0  0  0
  150.6044  139.3548  154.3230 O   0  0  0  0  0  0  0  0  0  0  0  0
  148.6963  138.8353  153.2592 N   0  0  0  0  0  0  0  0  0  0  0  0
  147.3536  139.1211  152.7498 C   0  0  0  0  0  0  0  0  0  0  0  0
  143.6814  139.3449  158.1387 H   0  0  0  0  0  0  0  0  0  0  0  0
  144.1968  140.8352  157.3532 H   0  0  0  0  0  0  0  0  0  0  0  0
  145.2966  139.4641  157.4656 H   0  0  0  0  0  0  0  0  0  0  0  0
  143.7882  138.1292  155.9728 H   0  0  0  0  0  0  0  0  0  0  0  0
  141.7384  139.7759  156.6103 H   0  0  0  0  0  0  0  0  0  0  0  0
  142.2352  140.5604  155.1283 H   0  0  0  0  0  0  0  0  0  0  0  0
  141.3889  139.5226  152.9523 H   0  0  0  0  0  0  0  0  0  0  0  0
  140.0953  137.1950  152.3536 H   0  0  0  0  0  0  0  0  0  0  0  0
  140.1727  135.8058  154.7504 H   0  0  0  0  0  0  0  0  0  0  0  0
  144.1036  140.1301  154.0809 H   0  0  0  0  0  0  0  0  0  0  0  0
  145.7896  140.5740  152.9114 H   0  0  0  0  0  0  0  0  0  0  0  0
  147.8114  141.8609  152.9318 H   0  0  0  0  0  0  0  0  0  0  0  0
  147.0225  142.1232  154.4592 H   0  0  0  0  0  0  0  0  0  0  0  0
  149.5600  141.7318  154.5601 H   0  0  0  0  0  0  0  0  0  0  0  0
  148.6077  140.7552  155.6482 H   0  0  0  0  0  0  0  0  0  0  0  0
  149.1206  137.9753  152.9433 H   0  0  0  0  0  0  0  0  0  0  0  0
  146.7874  138.1896  152.7139 H   0  0  0  0  0  0  0  0  0  0  0  0
  147.4587  139.4503  151.7155 H   0  0  0  0  0  0  0  0  0  0  0  0
  1  2  1  0  0  0  0
  1 19  1  0  0  0  0
  1 20  1  0  0  0  0
  1 21  1  0  0  0  0
  2  3  1  0  0  0  0
  2  9  1  0  0  0  0
  2 22  1  0  0  0  0
  3  4  1  0  0  0  0
  3 23  1  0  0  0  0
  3 24  1  0  0  0  0
  4  8  1  0  0  0  0
  4  5  1  0  0  0  0
  5  6  2  0  0  0  0
  5 25  1  0  0  0  0
  6  7  1  0  0  0  0
  6 26  1  0  0  0  0
  7  8  2  0  0  0  0
  7 27  1  0  0  0  0
  9 10  1  0  0  0  0
  9 28  1  0  0  0  0
 10 11  2  0  0  0  0
 10 12  1  0  0  0  0
 12 18  1  0  0  0  0
 12 13  1  0  0  0  0
 12 29  1  0  0  0  0
 13 14  1  0  0  0  0
 13 30  1  0  0  0  0
 13 31  1  0  0  0  0
 14 15  1  0  0  0  0
 14 32  1  0  0  0  0
 14 33  1  0  0  0  0
 15 16  2  0  0  0  0
 15 17  1  0  0  0  0
 17 18  1  0  0  0  0
 17 34  1  0  0  0  0
 18 35  1  0  0  0  0
 18 36  1  0  0  0  0
M  END
> <s_m_source_file>
AV-unprocessed.smi

> <i_m_source_file_index>
1145

> <i_lp_mmshare_version>
43012

> <i_f3d_flags>
0

> <s_epik_input>
bjFbY0hdW2NIXVtjSF1uMVtDSDJdW0NAQEhdKFtDSDNdKVtOSF1DKD1PKVtDQEBIXTJbQ0gyXVtDSDJdQyg9TylbTkhdW0NIMl0y

> <s_epik_cmdline>
J2VwaWtfcHl0aG9uJywgJy1waCcsICc3LjAnLCAnLXRuJywgJzgnLCAnLW1hJywgJzIwMCcsICctbWV0YWxfYmluZGluZycsICctaW1hZScsICc8aW5maWxlLm1hZT4nLCAnLW9tYWUnLCAnPG91dGZpbGUubWFlPic=

> <r_lp_tautomer_probability>
1

> <r_epik_Ionization_Penalty>
0.000314064

> <r_epik_Ionization_Penalty_Charging>
0

> <r_epik_Ionization_Penalty_Neutral>
0.000314064

> <r_epik_State_Penalty>
-0

> <r_epik_Charging_Adjusted_Penalty>
0

> <i_epik_Tot_Q>
0

> <i_epik_Tot_abs_Q>
0

> <r_epik_Metal_State_Penalty>
-0

> <b_epik_Metal_Only>
0

> <s_lp_Force_Field>
OPLS_2005

> <r_lp_Energy>
8.22521

> <b_lp_Chiralities_Consistent>
1

> <s_lp_Variant>
AV-unprocessed.smi:1145-4

> <Gold.Version>
5.8.1

> <Gold.Id.Protein>
6NUR|6NUR_protein|mol2

> <Gold.PLP.Fitness>
37.9147

> <Gold.PLP.PLP>
-21.2769

> <Gold.PLP.part.hbond>
-4.0000

> <Gold.PLP.part.metal>
0.0000

> <Gold.PLP.part.buried>
1.3289

> <Gold.PLP.part.nonpolar>
-20.1085

> <Gold.PLP.part.repulsive>
0.2553

> <Gold.PLP.ligand.clash>
0.0000

> <Gold.PLP.ligand.torsion>
0.6114

> <Gold.PLP.Chemscore.Hbond>
2.9920

> <Gold.PLP.Chemscore.CHOScore>
2.9483

> <Gold.PLP.Chemscore.Metal>
0.0000

> <Gold.Chemscore.Hbonds>
donor molecule, donor type, donor heavy atom, donor atom, acceptor molecule, acceptor atom, score
      L1  H     9    28       P1 10175  1.00
      L1  H    17    34       P1  7948  0.98
      P1  H  7989  7998       L1    16  1.00
      L1  C     5    25       P1 10160  1.00
      L1  C     5    25       P1 10175  0.95
      L1  C     7    27       P1 11000  1.00

> <Gold.PLP.Chemscore.Internal.Correction>
0.0397

> <Gold.Rescore>
     Score         DG    S(hbond)    S(metal)    S(lipo)     H(rot)  DE(clash)    DE(int)     intcor
     10.70     -14.58       2.45        0.00      47.31       1.80       1.40       2.48       ----

> <Gold.Chemscore.Fitness>
10.6953

> <Gold.Chemscore.DG>
-14.5806

> <Gold.Chemscore.ZeroCoef>
-5.4800

> <Gold.Chemscore.Hbond>
2.4456

> <Gold.Chemscore.Metal>
0.0000

> <Gold.Chemscore.Lipo>
47.3136

> <Gold.Chemscore.Internal_Hbond>
0.0000

> <Gold.Chemscore.DEClash>
1.4045

> <Gold.Chemscore.DEInternal>
2.4807

> <Gold.Chemscore.Rot>
1.7982

> <Gold.Chemscore.Internal.Correction>
   9.000000E+99

> <Gold.Chemscore.Hbonds>
donor molecule, donor type, donor heavy atom, donor atom, acceptor molecule, acceptor atom, score
      L1  H     9    28       P1 10175  1.00
      L1  H    17    34       P1  7948  0.87
      P1  H  7989  7998       L1    16  0.33

> <Gold.Chemscore.Hbond.Weighted>
-8.1683

> <Gold.Chemscore.Metal.Weighted>
-0.0000

> <Gold.Chemscore.Lipo.Weighted>
-5.5357

> <Gold.Chemscore.Internal_Hbond.Weighted>
0.0000

> <Gold.Chemscore.DEClash.Weighted>
1.4045

> <Gold.Chemscore.DEInternal.Weighted>
2.4807

> <Gold.Chemscore.Rot.Weighted>
4.6035

> <Gold.Chemscore.Internal.Correction.Weighted>
   9.000000E+99

> <Gold.Protein.RotatedTorsions>
[ 6907 6896 6895 6894 ] final -176.41 input  -60.11 | X-H torsion
[ 7974 7965 7964 7962 ] final  147.00 input  175.53 | X-H torsion
[ 8008 7997 7996 7995 ] final -135.73 input   59.86 | X-H torsion
[ 10167 10162 10161 10158 ] final  -88.48 input  -65.29 | X-H torsion
[ 10718 10713 10712 10709 ] final  -77.46 input   66.30 | X-H torsion
[ 10763 10752 10751 10750 ] final  -53.95 input  -60.55 | X-H torsion
[ 11005 11000 10999 10996 ] final -140.57 input  -57.11 | X-H torsion

> <Gold.Protein.ActiveResidues>
 VAL166  LYS551  ARG553  GLY616  TRP617  ASP618  TYR619  PRO620  LYS621  CYS622 
 ASP623  PHE694  ASN695  SER759  ASP760  ASP761  ALA762  ILE779  LEU786  VAL792 
 PHE793  MET794  SER795  GLU796  ALA797  LYS798  CYS799  TRP800  GLU811  SER814 

> <Gold.Protein.RotatedAtoms>
  151.6043  133.3353  159.3053 H   0  0  0  0  0  0  0  0  0  0  0  0  # atno 6907 bound_to 6896
  150.8191  134.7392  159.6767 H   0  0  0  0  0  0  0  0  0  0  0  0  # atno 6908 bound_to 6896
  152.4285  134.5828  160.0004 H   0  0  0  0  0  0  0  0  0  0  0  0  # atno 6909 bound_to 6896
  144.8626  139.5974  143.5923 H   0  0  0  0  0  0  0  0  0  0  0  0  # atno 7974 bound_to 7965
  155.3835  140.0495  157.3043 H   0  0  0  0  0  0  0  0  0  0  0  0  # atno 8008 bound_to 7997
  154.5071  140.2178  155.9192 H   0  0  0  0  0  0  0  0  0  0  0  0  # atno 8009 bound_to 7997
  156.1538  140.3130  155.8698 H   0  0  0  0  0  0  0  0  0  0  0  0  # atno 8010 bound_to 7997
  140.3743  143.2779  151.9462 H   0  0  0  0  0  0  0  0  0  0  0  0  # atno 10167 bound_to 10162
  156.0144  130.4492  150.3348 H   0  0  0  0  0  0  0  0  0  0  0  0  # atno 10718 bound_to 10713
  154.1671  135.6465  153.5000 H   0  0  0  0  0  0  0  0  0  0  0  0  # atno 10763 bound_to 10752
  153.0094  135.5374  154.6651 H   0  0  0  0  0  0  0  0  0  0  0  0  # atno 10764 bound_to 10752
  154.5980  135.2941  155.0537 H   0  0  0  0  0  0  0  0  0  0  0  0  # atno 10765 bound_to 10752
  140.8409  134.2403  157.4810 H   0  0  0  0  0  0  0  0  0  0  0  0  # atno 11005 bound_to 11000
  146.2872  139.7037  142.9187 LP  0  0  0  0  0  0  0  0  0  0  0  0  # atno 17320 bound_to 7965
  145.4283  141.0413  143.2925 LP  0  0  0  0  0  0  0  0  0  0  0  0  # atno 17321 bound_to 7965
  139.4801  144.5878  151.7823 LP  0  0  0  0  0  0  0  0  0  0  0  0  # atno 17342 bound_to 10162
  140.5002  144.1180  150.5969 LP  0  0  0  0  0  0  0  0  0  0  0  0  # atno 17343 bound_to 10162
  157.1445  131.0305  151.2913 LP  0  0  0  0  0  0  0  0  0  0  0  0  # atno 17370 bound_to 10713
  157.4444  130.7562  149.7096 LP  0  0  0  0  0  0  0  0  0  0  0  0  # atno 17371 bound_to 10713
  139.8703  134.9635  156.4463 LP  0  0  0  0  0  0  0  0  0  0  0  0  # atno 17394 bound_to 11000
  140.8896  133.7858  155.9557 LP  0  0  0  0  0  0  0  0  0  0  0  0  # atno 17395 bound_to 11000

$$$$
