AV-unprocessed.smi:1395|AV-procd|sdf|5670|dock4
  -GOLD-   22720 5293D 1   1.00000     0.00000
 Structure written by MMmdl.
 43 44  0  0  0  0  0  0  0  0  2 V2000
  152.4965  140.0859  159.3029 C   0  0  0  0  0  0  0  0  0  0  0  0
  152.2810  141.5082  158.8115 C   0  0  0  0  0  0  0  0  0  0  0  0
  152.9898  142.5641  159.4232 C   0  0  0  0  0  0  0  0  0  0  0  0
  152.7894  143.8789  158.9692 C   0  0  0  0  0  0  0  0  0  0  0  0
  151.8826  144.0833  157.9153 C   0  0  0  0  0  0  0  0  0  0  0  0
  151.2017  143.0803  157.3246 N   0  0  0  0  0  0  0  0  0  0  0  0
  151.3830  141.8052  157.7511 C   0  0  0  0  0  0  0  0  0  0  0  0
  150.6996  140.6980  157.1724 N   0  0  0  0  0  0  0  0  0  0  0  0
  149.5649  140.7019  156.4501 C   0  0  0  0  0  0  0  0  0  0  0  0
  148.8943  141.6985  156.1794 O   0  0  0  0  0  0  0  0  0  0  0  0
  149.2397  139.4647  156.0464 N   0  0  0  0  0  0  0  0  0  0  0  0
  148.0692  139.1289  155.2407 C   0  0  2  0  0  0  0  0  0  0  0  0
  147.8675  137.6050  155.2157 C   0  0  0  0  0  0  0  0  0  0  0  0
  146.6925  137.2133  154.3030 C   0  0  0  0  0  0  0  0  0  0  0  0
  146.8848  137.7376  152.9266 N   0  3  1  0  0  0  0  0  0  0  0  0
  145.8423  137.2582  151.9831 C   0  0  0  0  0  0  0  0  0  0  0  0
  145.6025  135.7473  152.0740 C   0  0  0  0  0  0  0  0  0  0  0  0
  146.6477  134.9556  151.8251 N   0  0  0  0  0  0  0  0  0  0  0  0
  144.4911  135.2980  152.3487 O   0  0  0  0  0  0  0  0  0  0  0  0
  147.0385  139.2169  152.9233 C   0  0  0  0  0  0  0  0  0  0  0  0
  148.2238  139.6509  153.7998 C   0  0  0  0  0  0  0  0  0  0  0  0
  153.2224  140.0526  160.1161 H   0  0  0  0  0  0  0  0  0  0  0  0
  152.8692  139.4550  158.4954 H   0  0  0  0  0  0  0  0  0  0  0  0
  151.5612  139.6633  159.6713 H   0  0  0  0  0  0  0  0  0  0  0  0
  153.6802  142.3722  160.2314 H   0  0  0  0  0  0  0  0  0  0  0  0
  153.3167  144.7085  159.4166 H   0  0  0  0  0  0  0  0  0  0  0  0
  151.6989  145.0774  157.5356 H   0  0  0  0  0  0  0  0  0  0  0  0
  151.1342  139.7994  157.3198 H   0  0  0  0  0  0  0  0  0  0  0  0
  149.8444  138.7022  156.3150 H   0  0  0  0  0  0  0  0  0  0  0  0
  147.1850  139.5834  155.6927 H   0  0  0  0  0  0  0  0  0  0  0  0
  148.7768  137.1147  154.8642 H   0  0  0  0  0  0  0  0  0  0  0  0
  147.6876  137.2346  156.2258 H   0  0  0  0  0  0  0  0  0  0  0  0
  146.6104  136.1261  154.2752 H   0  0  0  0  0  0  0  0  0  0  0  0
  145.7540  137.5928  154.7104 H   0  0  0  0  0  0  0  0  0  0  0  0
  144.8899  137.7383  152.2121 H   0  0  0  0  0  0  0  0  0  0  0  0
  146.1001  137.5450  150.9621 H   0  0  0  0  0  0  0  0  0  0  0  0
  146.5500  133.9516  151.8747 H   0  0  0  0  0  0  0  0  0  0  0  0
  147.5408  135.3656  151.5907 H   0  0  0  0  0  0  0  0  0  0  0  0
  147.1965  139.5775  151.9067 H   0  0  0  0  0  0  0  0  0  0  0  0
  146.1184  139.6810  153.2821 H   0  0  0  0  0  0  0  0  0  0  0  0
  148.2987  140.7391  153.7965 H   0  0  0  0  0  0  0  0  0  0  0  0
  149.1518  139.2764  153.3653 H   0  0  0  0  0  0  0  0  0  0  0  0
  147.7579  137.3513  152.5957 H   0  0  0  0  0  0  0  0  0  0  0  0
  1  2  1  0  0  0  0
  1 22  1  0  0  0  0
  1 23  1  0  0  0  0
  1 24  1  0  0  0  0
  2  7  1  0  0  0  0
  2  3  2  0  0  0  0
  3  4  1  0  0  0  0
  3 25  1  0  0  0  0
  4  5  2  0  0  0  0
  4 26  1  0  0  0  0
  5  6  1  0  0  0  0
  5 27  1  0  0  0  0
  6  7  2  0  0  0  0
  7  8  1  0  0  0  0
  8  9  1  0  0  0  0
  8 28  1  0  0  0  0
  9 10  2  0  0  0  0
  9 11  1  0  0  0  0
 11 12  1  0  0  0  0
 11 29  1  0  0  0  0
 12 21  1  0  0  0  0
 12 13  1  0  0  0  0
 12 30  1  0  0  0  0
 13 14  1  0  0  0  0
 13 31  1  0  0  0  0
 13 32  1  0  0  0  0
 14 15  1  0  0  0  0
 14 33  1  0  0  0  0
 14 34  1  0  0  0  0
 15 16  1  0  0  0  0
 15 20  1  0  0  0  0
 15 43  1  0  0  0  0
 16 17  1  0  0  0  0
 16 35  1  0  0  0  0
 16 36  1  0  0  0  0
 17 18  1  0  0  0  0
 17 19  2  0  0  0  0
 18 37  1  0  0  0  0
 18 38  1  0  0  0  0
 20 21  1  0  0  0  0
 20 39  1  0  0  0  0
 20 40  1  0  0  0  0
 21 41  1  0  0  0  0
 21 42  1  0  0  0  0
M  CHG  1  15   1
M  END
> <s_m_source_file>
AV-unprocessed.smi

> <i_m_source_file_index>
1395

> <i_lp_mmshare_version>
43012

> <i_f3d_flags>
0

> <s_epik_input>
W0NIM11jMVtjSF1bY0hdW2NIXW5jMVtOSF1DKD1PKVtOSF1bQ0hdMltDSDJdW0NIMl1OKFtDSDJdW0NIMl0yKVtDSDJdQyg9TylbTkgyXQ==

> <s_epik_cmdline>
J2VwaWtfcHl0aG9uJywgJy1waCcsICc3LjAnLCAnLXRuJywgJzgnLCAnLW1hJywgJzIwMCcsICctbWV0YWxfYmluZGluZycsICctaW1hZScsICc8aW5maWxlLm1hZT4nLCAnLW9tYWUnLCAnPG91dGZpbGUubWFlPic=

> <r_epik_Ionization_Penalty>
0.83893

> <r_epik_Ionization_Penalty_Charging>
0.838844

> <r_epik_Ionization_Penalty_Neutral>
8.62421e-05

> <r_epik_State_Penalty>
0.8734

> <r_epik_Charging_Adjusted_Penalty>
1.71224

> <i_epik_Tot_Q>
1

> <i_epik_Tot_abs_Q>
1

> <r_epik_Metal_State_Penalty>
0.890705

> <b_epik_Metal_Only>
0

> <s_lp_Force_Field>
OPLS_2005

> <r_lp_Energy>
13.5717

> <b_lp_Chiralities_Consistent>
1

> <s_lp_Variant>
AV-unprocessed.smi:1395-2

> <Gold.Version>
5.8.1

> <Gold.Id.Protein>
6NUR|6NUR_protein|mol2

> <Gold.PLP.Fitness>
39.6137

> <Gold.PLP.PLP>
-31.0664

> <Gold.PLP.part.hbond>
-2.0000

> <Gold.PLP.part.metal>
0.0000

> <Gold.PLP.part.buried>
-2.6249

> <Gold.PLP.part.nonpolar>
-27.2539

> <Gold.PLP.part.repulsive>
0.9434

> <Gold.PLP.ligand.clash>
0.0000

> <Gold.PLP.ligand.torsion>
0.2430

> <Gold.PLP.Chemscore.Hbond>
3.0000

> <Gold.PLP.Chemscore.CHOScore>
0.0000

> <Gold.PLP.Chemscore.Metal>
0.0000

> <Gold.Chemscore.Hbonds>
donor molecule, donor type, donor heavy atom, donor atom, acceptor molecule, acceptor atom, score
      L1  H    15    43       P1  7948  2.00
      L1  H    18    38       P1  7948  1.00

> <Gold.PLP.Chemscore.Internal.Correction>
0.0333

> <Gold.Rescore>
     Score         DG    S(hbond)    S(metal)    S(lipo)     H(rot)  DE(clash)    DE(int)     intcor
     14.68     -16.20       1.98        0.00      77.98       1.96       0.03       1.49       ----

> <Gold.Chemscore.Fitness>
14.6796

> <Gold.Chemscore.DG>
-16.2027

> <Gold.Chemscore.ZeroCoef>
-5.4800

> <Gold.Chemscore.Hbond>
1.9826

> <Gold.Chemscore.Metal>
0.0000

> <Gold.Chemscore.Lipo>
77.9821

> <Gold.Chemscore.Internal_Hbond>
0.0000

> <Gold.Chemscore.DEClash>
0.0294

> <Gold.Chemscore.DEInternal>
1.4936

> <Gold.Chemscore.Rot>
1.9622

> <Gold.Chemscore.Internal.Correction>
   9.000000E+99

> <Gold.Chemscore.Hbonds>
donor molecule, donor type, donor heavy atom, donor atom, acceptor molecule, acceptor atom, score
      L1  H    15    43       P1  7948  1.00
      L1  H    18    38       P1  7948  0.87

> <Gold.Chemscore.Hbond.Weighted>
-6.6220

> <Gold.Chemscore.Metal.Weighted>
-0.0000

> <Gold.Chemscore.Lipo.Weighted>
-9.1239

> <Gold.Chemscore.Internal_Hbond.Weighted>
0.0000

> <Gold.Chemscore.DEClash.Weighted>
0.0294

> <Gold.Chemscore.DEInternal.Weighted>
1.4936

> <Gold.Chemscore.Rot.Weighted>
5.0232

> <Gold.Chemscore.Internal.Correction.Weighted>
   9.000000E+99

> <Gold.Protein.RotatedTorsions>
[ 6907 6896 6895 6894 ] final -145.68 input  -60.11 | X-H torsion
[ 7974 7965 7964 7962 ] final  -32.94 input  175.53 | X-H torsion
[ 8008 7997 7996 7995 ] final   97.48 input   59.86 | X-H torsion
[ 10167 10162 10161 10158 ] final -158.33 input  -65.29 | X-H torsion
[ 10718 10713 10712 10709 ] final  149.96 input   66.30 | X-H torsion
[ 10763 10752 10751 10750 ] final   34.61 input  -60.55 | X-H torsion
[ 11005 11000 10999 10996 ] final  -14.25 input  -57.11 | X-H torsion

> <Gold.Protein.ActiveResidues>
 VAL166  LYS551  ARG553  GLY616  TRP617  ASP618  TYR619  PRO620  LYS621  CYS622 
 ASP623  PHE694  ASN695  SER759  ASP760  ASP761  ALA762  ILE779  LEU786  VAL792 
 PHE793  MET794  SER795  GLU796  ALA797  LYS798  CYS799  TRP800  GLU811  SER814 

> <Gold.Protein.RotatedAtoms>
  151.1311  133.5036  159.2598 H   0  0  0  0  0  0  0  0  0  0  0  0  # atno 6907 bound_to 6896
  151.1756  135.0337  159.8780 H   0  0  0  0  0  0  0  0  0  0  0  0  # atno 6908 bound_to 6896
  152.5460  134.1170  159.8436 H   0  0  0  0  0  0  0  0  0  0  0  0  # atno 6909 bound_to 6896
  146.0951  140.5854  142.8847 H   0  0  0  0  0  0  0  0  0  0  0  0  # atno 7974 bound_to 7965
  156.0905  140.3258  155.7810 H   0  0  0  0  0  0  0  0  0  0  0  0  # atno 8008 bound_to 7997
  155.5004  140.0568  157.2957 H   0  0  0  0  0  0  0  0  0  0  0  0  # atno 8009 bound_to 7997
  154.4635  140.1978  156.0197 H   0  0  0  0  0  0  0  0  0  0  0  0  # atno 8010 bound_to 7997
  139.6700  143.9761  152.2278 H   0  0  0  0  0  0  0  0  0  0  0  0  # atno 10167 bound_to 10162
  157.2895  131.0850  151.1472 H   0  0  0  0  0  0  0  0  0  0  0  0  # atno 10718 bound_to 10713
  153.0156  135.6356  154.1695 H   0  0  0  0  0  0  0  0  0  0  0  0  # atno 10763 bound_to 10752
  154.1434  135.2833  155.3156 H   0  0  0  0  0  0  0  0  0  0  0  0  # atno 10764 bound_to 10752
  154.6107  135.5557  153.7531 H   0  0  0  0  0  0  0  0  0  0  0  0  # atno 10765 bound_to 10752
  140.7845  133.8336  155.9322 H   0  0  0  0  0  0  0  0  0  0  0  0  # atno 11005 bound_to 11000
  144.7389  140.4886  143.6884 LP  0  0  0  0  0  0  0  0  0  0  0  0  # atno 17320 bound_to 7965
  145.5965  139.1500  143.3153 LP  0  0  0  0  0  0  0  0  0  0  0  0  # atno 17321 bound_to 7965
  139.9523  144.6612  150.8159 LP  0  0  0  0  0  0  0  0  0  0  0  0  # atno 17342 bound_to 10162
  140.7614  143.3174  151.2701 LP  0  0  0  0  0  0  0  0  0  0  0  0  # atno 17343 bound_to 10162
  157.2874  130.6779  149.6097 LP  0  0  0  0  0  0  0  0  0  0  0  0  # atno 17370 bound_to 10713
  155.9666  130.4431  150.5408 LP  0  0  0  0  0  0  0  0  0  0  0  0  # atno 17371 bound_to 10713
  140.9450  134.1852  157.4770 LP  0  0  0  0  0  0  0  0  0  0  0  0  # atno 17394 bound_to 11000
  139.8738  134.9887  156.5423 LP  0  0  0  0  0  0  0  0  0  0  0  0  # atno 17395 bound_to 11000

$$$$
