AV-unprocessed.smi:2165|AV-procd|sdf|8813|dock1
  -GOLD-   2272012 03D 1   1.00000     0.00000
 Structure written by MMmdl.
 36 37  0  0  0  0  0  0  0  0  1 V2000
  154.3159  141.7103  160.4274 C   0  0  0  0  0  0  0  0  0  0  0  0
  153.1179  141.7080  159.6141 N   0  0  0  0  0  0  0  0  0  0  0  0
  152.2233  142.8023  159.6990 C   0  0  0  0  0  0  0  0  0  0  0  0
  152.4214  143.7676  160.4374 O   0  0  0  0  0  0  0  0  0  0  0  0
  151.0476  142.6872  158.8442 C   0  0  0  0  0  0  0  0  0  0  0  0
  150.8646  141.6048  158.0568 C   0  0  0  0  0  0  0  0  0  0  0  0
  151.7521  140.5458  157.9979 N   0  0  0  0  0  0  0  0  0  0  0  0
  151.4644  139.4011  157.1243 C   0  0  0  0  0  0  0  0  0  0  0  0
  150.9214  139.8172  155.7506 C   0  0  0  0  0  0  0  0  0  0  0  0
  151.6878  140.0458  154.8134 O   0  0  0  0  0  0  0  0  0  0  0  0
  149.5866  139.8955  155.6441 N   0  0  0  0  0  0  0  0  0  0  0  0
  148.8639  140.2925  154.4416 C   0  0  0  0  0  0  0  0  0  0  0  0
  148.1173  141.6214  154.6455 C   0  0  1  0  0  0  0  0  0  0  0  0
  147.1082  141.9347  153.5426 C   0  0  0  0  0  0  0  0  0  0  0  0
  146.1535  142.8610  154.2595 C   0  0  0  0  0  0  0  0  0  0  0  0
  146.0894  142.2278  155.6463 C   0  0  0  0  0  0  0  0  0  0  0  0
  147.3472  141.5865  155.8451 O   0  0  0  0  0  0  0  0  0  0  0  0
  152.9174  140.5765  158.7934 C   0  0  0  0  0  0  0  0  0  0  0  0
  153.7228  139.6421  158.7678 O   0  0  0  0  0  0  0  0  0  0  0  0
  154.4498  142.6658  160.9335 H   0  0  0  0  0  0  0  0  0  0  0  0
  155.1645  141.5348  159.7638 H   0  0  0  0  0  0  0  0  0  0  0  0
  154.2073  140.9058  161.1566 H   0  0  0  0  0  0  0  0  0  0  0  0
  150.3121  143.4782  158.8443 H   0  0  0  0  0  0  0  0  0  0  0  0
  149.9746  141.5653  157.4456 H   0  0  0  0  0  0  0  0  0  0  0  0
  152.3703  138.8143  156.9676 H   0  0  0  0  0  0  0  0  0  0  0  0
  150.7575  138.7282  157.6136 H   0  0  0  0  0  0  0  0  0  0  0  0
  149.0317  139.6906  156.4624 H   0  0  0  0  0  0  0  0  0  0  0  0
  149.5568  140.3720  153.6023 H   0  0  0  0  0  0  0  0  0  0  0  0
  148.1579  139.5017  154.1865 H   0  0  0  0  0  0  0  0  0  0  0  0
  148.8222  142.4511  154.7223 H   0  0  0  0  0  0  0  0  0  0  0  0
  147.5664  142.3883  152.6634 H   0  0  0  0  0  0  0  0  0  0  0  0
  146.5844  141.0305  153.2290 H   0  0  0  0  0  0  0  0  0  0  0  0
  146.5806  143.8630  154.3221 H   0  0  0  0  0  0  0  0  0  0  0  0
  145.1785  142.9331  153.7768 H   0  0  0  0  0  0  0  0  0  0  0  0
  145.8877  142.9605  156.4277 H   0  0  0  0  0  0  0  0  0  0  0  0
  145.3067  141.4693  155.6831 H   0  0  0  0  0  0  0  0  0  0  0  0
  1  2  1  0  0  0  0
  1 20  1  0  0  0  0
  1 21  1  0  0  0  0
  1 22  1  0  0  0  0
  2 18  1  0  0  0  0
  2  3  1  0  0  0  0
  3  4  2  0  0  0  0
  3  5  1  0  0  0  0
  5  6  2  0  0  0  0
  5 23  1  0  0  0  0
  6  7  1  0  0  0  0
  6 24  1  0  0  0  0
  7  8  1  0  0  0  0
  7 18  1  0  0  0  0
  8  9  1  0  0  0  0
  8 25  1  0  0  0  0
  8 26  1  0  0  0  0
  9 10  2  0  0  0  0
  9 11  1  0  0  0  0
 11 12  1  0  0  0  0
 11 27  1  0  0  0  0
 12 13  1  0  0  0  0
 12 28  1  0  0  0  0
 12 29  1  0  0  0  0
 13 17  1  0  0  0  0
 13 14  1  0  0  0  0
 13 30  1  0  0  0  0
 14 15  1  0  0  0  0
 14 31  1  0  0  0  0
 14 32  1  0  0  0  0
 15 16  1  0  0  0  0
 15 33  1  0  0  0  0
 15 34  1  0  0  0  0
 16 17  1  0  0  0  0
 16 35  1  0  0  0  0
 16 36  1  0  0  0  0
 18 19  2  0  0  0  0
M  END
> <s_m_source_file>
AV-unprocessed.smi

> <i_m_source_file_index>
2165

> <i_lp_mmshare_version>
43012

> <i_f3d_flags>
0

> <s_epik_input>
W0NIM11uMWMoPU8pW2NIXVtjSF1uKGMxPU8pW0NIMl1DKD1PKVtOSF1bQ0gyXVtDQEBIXTJbQ0gyXVtDSDJdW0NIMl1PMg==

> <s_epik_cmdline>
J2VwaWtfcHl0aG9uJywgJy1waCcsICc3LjAnLCAnLXRuJywgJzgnLCAnLW1hJywgJzIwMCcsICctbWV0YWxfYmluZGluZycsICctaW1hZScsICc8aW5maWxlLm1hZT4nLCAnLW9tYWUnLCAnPG91dGZpbGUubWFlPic=

> <r_lp_tautomer_probability>
1

> <r_epik_Ionization_Penalty>
3.89869e-08

> <r_epik_Ionization_Penalty_Charging>
1.21279e-08

> <r_epik_Ionization_Penalty_Neutral>
2.6859e-08

> <r_epik_State_Penalty>
-0

> <r_epik_Charging_Adjusted_Penalty>
1.21279e-08

> <i_epik_Tot_Q>
0

> <i_epik_Tot_abs_Q>
0

> <r_epik_Metal_State_Penalty>
-0

> <b_epik_Metal_Only>
0

> <s_lp_Force_Field>
OPLS_2005

> <r_lp_Energy>
24.234

> <b_lp_Chiralities_Consistent>
1

> <s_lp_Variant>
AV-unprocessed.smi:2165-2

> <Gold.Version>
5.8.1

> <Gold.Id.Protein>
6NUR|6NUR_protein|mol2

> <Gold.PLP.Fitness>
41.3150

> <Gold.PLP.PLP>
-36.6776

> <Gold.PLP.part.hbond>
-1.9042

> <Gold.PLP.part.metal>
0.0000

> <Gold.PLP.part.buried>
-6.4430

> <Gold.PLP.part.nonpolar>
-28.9494

> <Gold.PLP.part.repulsive>
0.2652

> <Gold.PLP.ligand.clash>
0.0000

> <Gold.PLP.ligand.torsion>
0.6985

> <Gold.PLP.Chemscore.Hbond>
2.0000

> <Gold.PLP.Chemscore.CHOScore>
0.0000

> <Gold.PLP.Chemscore.Metal>
0.0000

> <Gold.Chemscore.Hbonds>
donor molecule, donor type, donor heavy atom, donor atom, acceptor molecule, acceptor atom, score
      P1  H  7989  7998       L1    10  1.00
      P1  H  7997  8008       L1    19  1.00

> <Gold.PLP.Chemscore.Internal.Correction>
0.0344

> <Gold.Rescore>
     Score         DG    S(hbond)    S(metal)    S(lipo)     H(rot)  DE(clash)    DE(int)     intcor
     12.89     -13.46       1.89        0.00      55.04       1.87       0.00       0.57       ----

> <Gold.Chemscore.Fitness>
12.8913

> <Gold.Chemscore.DG>
-13.4586

> <Gold.Chemscore.ZeroCoef>
-5.4800

> <Gold.Chemscore.Hbond>
1.8927

> <Gold.Chemscore.Metal>
0.0000

> <Gold.Chemscore.Lipo>
55.0352

> <Gold.Chemscore.Internal_Hbond>
0.0000

> <Gold.Chemscore.DEClash>
0.0004

> <Gold.Chemscore.DEInternal>
0.5668

> <Gold.Chemscore.Rot>
1.8681

> <Gold.Chemscore.Internal.Correction>
   9.000000E+99

> <Gold.Chemscore.Hbonds>
donor molecule, donor type, donor heavy atom, donor atom, acceptor molecule, acceptor atom, score
      P1  H  7989  7998       L1    10  0.91
      P1  H  7997  8008       L1    19  0.49

> <Gold.Chemscore.Hbond.Weighted>
-6.3217

> <Gold.Chemscore.Metal.Weighted>
-0.0000

> <Gold.Chemscore.Lipo.Weighted>
-6.4391

> <Gold.Chemscore.Internal_Hbond.Weighted>
0.0000

> <Gold.Chemscore.DEClash.Weighted>
0.0004

> <Gold.Chemscore.DEInternal.Weighted>
0.5668

> <Gold.Chemscore.Rot.Weighted>
4.7822

> <Gold.Chemscore.Internal.Correction.Weighted>
   9.000000E+99

> <Gold.Protein.RotatedTorsions>
[ 6907 6896 6895 6894 ] final  134.94 input  -60.11 | X-H torsion
[ 7974 7965 7964 7962 ] final  -52.90 input  175.53 | X-H torsion
[ 8008 7997 7996 7995 ] final -107.55 input   59.86 | X-H torsion
[ 10167 10162 10161 10158 ] final   11.52 input  -65.29 | X-H torsion
[ 10718 10713 10712 10709 ] final  -78.47 input   66.30 | X-H torsion
[ 10763 10752 10751 10750 ] final  -89.00 input  -60.55 | X-H torsion
[ 11005 11000 10999 10996 ] final   83.58 input  -57.11 | X-H torsion

> <Gold.Protein.ActiveResidues>
 VAL166  LYS551  ARG553  GLY616  TRP617  ASP618  TYR619  PRO620  LYS621  CYS622 
 ASP623  PHE694  ASN695  SER759  ASP760  ASP761  ALA762  ILE779  LEU786  VAL792 
 PHE793  MET794  SER795  GLU796  ALA797  LYS798  CYS799  TRP800  GLU811  SER814 

> <Gold.Protein.RotatedAtoms>
  152.3059  133.5702  159.5648 H   0  0  0  0  0  0  0  0  0  0  0  0  # atno 6907 bound_to 6896
  150.7299  134.0224  159.3714 H   0  0  0  0  0  0  0  0  0  0  0  0  # atno 6908 bound_to 6896
  151.8120  135.0678  160.0465 H   0  0  0  0  0  0  0  0  0  0  0  0  # atno 6909 bound_to 6896
  145.9028  140.7980  142.9734 H   0  0  0  0  0  0  0  0  0  0  0  0  # atno 7974 bound_to 7965
  154.9311  140.0405  157.2048 H   0  0  0  0  0  0  0  0  0  0  0  0  # atno 8008 bound_to 7997
  154.8160  140.2876  155.5798 H   0  0  0  0  0  0  0  0  0  0  0  0  # atno 8009 bound_to 7997
  156.2976  140.2528  156.3058 H   0  0  0  0  0  0  0  0  0  0  0  0  # atno 8010 bound_to 7997
  140.6127  143.8374  150.7083 H   0  0  0  0  0  0  0  0  0  0  0  0  # atno 10167 bound_to 10162
  156.0117  130.4519  150.3502 H   0  0  0  0  0  0  0  0  0  0  0  0  # atno 10718 bound_to 10713
  154.6506  135.5356  153.7897 H   0  0  0  0  0  0  0  0  0  0  0  0  # atno 10763 bound_to 10752
  153.0384  135.6481  154.1022 H   0  0  0  0  0  0  0  0  0  0  0  0  # atno 10764 bound_to 10752
  154.0939  135.2938  155.3245 H   0  0  0  0  0  0  0  0  0  0  0  0  # atno 10765 bound_to 10752
  139.9027  134.8155  156.2328 H   0  0  0  0  0  0  0  0  0  0  0  0  # atno 11005 bound_to 11000
  144.6737  140.1704  143.7415 LP  0  0  0  0  0  0  0  0  0  0  0  0  # atno 17320 bound_to 7965
  145.8769  139.2302  143.1628 LP  0  0  0  0  0  0  0  0  0  0  0  0  # atno 17321 bound_to 7965
  140.1946  143.4008  152.1837 LP  0  0  0  0  0  0  0  0  0  0  0  0  # atno 17342 bound_to 10162
  139.5374  144.7223  151.4849 LP  0  0  0  0  0  0  0  0  0  0  0  0  # atno 17343 bound_to 10162
  157.1594  131.0341  151.2848 LP  0  0  0  0  0  0  0  0  0  0  0  0  # atno 17370 bound_to 10713
  157.4324  130.7498  149.7001 LP  0  0  0  0  0  0  0  0  0  0  0  0  # atno 17371 bound_to 10713
  141.0334  133.6976  156.1470 LP  0  0  0  0  0  0  0  0  0  0  0  0  # atno 17394 bound_to 11000
  140.7062  134.4511  157.5584 LP  0  0  0  0  0  0  0  0  0  0  0  0  # atno 17395 bound_to 11000

$$$$
