AV-unprocessed.smi:275|AV-procd|sdf|2067|dock5
  -GOLD-   2262021323D 1   1.00000     0.00000
 Structure written by MMmdl.
 65 69  0  0  0  0  0  0  0  0  1 V2000
  146.5831  141.8917  154.1003 C   0  0  0  0  0  0  0  0  0  0  0  0
  147.7047  141.2960  154.9634 C   0  0  0  0  0  0  0  0  0  0  0  0
  149.0732  141.8181  154.4713 C   0  0  0  0  0  0  0  0  0  0  0  0
  147.5593  139.7559  155.0911 C   0  0  1  0  0  0  0  0  0  0  0  0
  147.4170  139.1215  153.7782 N   0  0  0  0  0  0  0  0  0  0  0  0
  146.3391  138.1888  153.6187 C   0  0  0  0  0  0  0  0  0  0  0  0
  145.5404  137.9240  154.6887 N   0  0  0  0  0  0  0  0  0  0  0  0
  144.5244  137.0617  154.6101 C   0  0  0  0  0  0  0  0  0  0  0  0
  144.1297  136.3365  153.5657 N   0  0  0  0  0  0  0  0  0  0  0  0
  144.9337  136.5585  152.4893 C   0  0  0  0  0  0  0  0  0  0  0  0
  146.0476  137.4476  152.4321 C   0  0  0  0  0  0  0  0  0  0  0  0
  146.6226  137.3800  151.1675 N   0  0  0  0  0  0  0  0  0  0  0  0
  145.8896  136.5203  150.5164 C   0  0  0  0  0  0  0  0  0  0  0  0
  144.8463  135.9850  151.2331 N   0  0  0  0  0  0  0  0  0  0  0  0
  143.8761  135.0149  150.7559 C   0  0  0  0  0  0  0  0  0  0  0  0
  144.5280  133.7818  150.0818 C   0  0  2  0  0  0  0  0  0  0  0  0
  143.6819  133.2209  148.9124 C   0  0  0  0  0  0  0  0  0  0  0  0
  143.4660  134.1976  147.9146 O   0  0  0  0  0  0  0  0  0  0  0  0
  144.8908  132.6918  151.1219 C   0  0  1  0  0  0  0  0  0  0  0  0
  145.6360  131.4935  150.5606 C   0  0  0  0  0  0  0  0  0  0  0  0
  146.2453  130.8773  151.8152 C   0  0  0  0  0  0  0  0  0  0  0  0
  146.5133  131.9686  152.6881 O   0  0  0  0  0  0  0  0  0  0  0  0
  145.8730  133.1461  152.2069 C   0  0  0  0  0  0  0  0  0  0  0  0
  148.7625  138.5528  153.8407 C   0  0  0  0  0  0  0  0  0  0  0  0
  148.7524  138.7980  155.3557 C   0  0  0  0  0  0  0  0  0  0  0  0
  148.4251  137.5448  156.1985 C   0  0  0  0  0  0  0  0  0  0  0  0
  148.2508  137.8474  157.6962 C   0  0  0  0  0  0  0  0  0  0  0  0
  149.5122  138.4967  158.2758 C   0  0  0  0  0  0  0  0  0  0  0  0
  149.9219  139.7248  157.4558 C   0  0  0  0  0  0  0  0  0  0  0  0
  150.0460  139.3827  155.9597 C   0  0  0  0  0  0  0  0  0  0  0  0
  146.6524  141.5453  153.0688 H   0  0  0  0  0  0  0  0  0  0  0  0
  146.6318  142.9808  154.0871 H   0  0  0  0  0  0  0  0  0  0  0  0
  145.6006  141.6145  154.4830 H   0  0  0  0  0  0  0  0  0  0  0  0
  147.5593  141.7208  155.9557 H   0  0  0  0  0  0  0  0  0  0  0  0
  149.2768  141.5093  153.4456 H   0  0  0  0  0  0  0  0  0  0  0  0
  149.9017  141.4798  155.0889 H   0  0  0  0  0  0  0  0  0  0  0  0
  149.0957  142.9079  154.4870 H   0  0  0  0  0  0  0  0  0  0  0  0
  146.7581  139.4942  155.7803 H   0  0  0  0  0  0  0  0  0  0  0  0
  143.9463  136.9349  155.5135 H   0  0  0  0  0  0  0  0  0  0  0  0
  146.0878  136.2545  149.4882 H   0  0  0  0  0  0  0  0  0  0  0  0
  143.2708  134.7107  151.6099 H   0  0  0  0  0  0  0  0  0  0  0  0
  143.1970  135.5101  150.0610 H   0  0  0  0  0  0  0  0  0  0  0  0
  145.4645  134.1259  149.6404 H   0  0  0  0  0  0  0  0  0  0  0  0
  144.1659  132.3572  148.4565 H   0  0  0  0  0  0  0  0  0  0  0  0
  142.7148  132.8661  149.2679 H   0  0  0  0  0  0  0  0  0  0  0  0
  144.2532  134.7122  147.8216 H   0  0  0  0  0  0  0  0  0  0  0  0
  143.9820  132.3345  151.6097 H   0  0  0  0  0  0  0  0  0  0  0  0
  144.9909  130.7949  150.0269 H   0  0  0  0  0  0  0  0  0  0  0  0
  146.4260  131.8181  149.8817 H   0  0  0  0  0  0  0  0  0  0  0  0
  145.5281  130.2133  152.2993 H   0  0  0  0  0  0  0  0  0  0  0  0
  147.1484  130.3046  151.6030 H   0  0  0  0  0  0  0  0  0  0  0  0
  146.6376  133.8019  151.7878 H   0  0  0  0  0  0  0  0  0  0  0  0
  145.3793  133.6810  153.0186 H   0  0  0  0  0  0  0  0  0  0  0  0
  148.8772  137.5044  153.5655 H   0  0  0  0  0  0  0  0  0  0  0  0
  149.4840  139.1720  153.3083 H   0  0  0  0  0  0  0  0  0  0  0  0
  147.5160  137.0629  155.8384 H   0  0  0  0  0  0  0  0  0  0  0  0
  149.2117  136.7990  156.0754 H   0  0  0  0  0  0  0  0  0  0  0  0
  147.3962  138.5089  157.8428 H   0  0  0  0  0  0  0  0  0  0  0  0
  148.0255  136.9285  158.2381 H   0  0  0  0  0  0  0  0  0  0  0  0
  149.3484  138.7761  159.3170 H   0  0  0  0  0  0  0  0  0  0  0  0
  150.3268  137.7714  158.2733 H   0  0  0  0  0  0  0  0  0  0  0  0
  149.1861  140.5157  157.5986 H   0  0  0  0  0  0  0  0  0  0  0  0
  150.8692  140.1168  157.8270 H   0  0  0  0  0  0  0  0  0  0  0  0
  150.8637  138.6726  155.8292 H   0  0  0  0  0  0  0  0  0  0  0  0
  150.3637  140.2747  155.4257 H   0  0  0  0  0  0  0  0  0  0  0  0
  1  2  1  0  0  0  0
  1 31  1  0  0  0  0
  1 32  1  0  0  0  0
  1 33  1  0  0  0  0
  2  3  1  0  0  0  0
  2  4  1  0  0  0  0
  2 34  1  0  0  0  0
  3 35  1  0  0  0  0
  3 36  1  0  0  0  0
  3 37  1  0  0  0  0
  4 25  1  0  0  0  0
  4  5  1  0  0  0  0
  4 38  1  0  0  0  0
  5  6  1  0  0  0  0
  5 24  1  0  0  0  0
  6 11  1  0  0  0  0
  6  7  2  0  0  0  0
  7  8  1  0  0  0  0
  8  9  2  0  0  0  0
  8 39  1  0  0  0  0
  9 10  1  0  0  0  0
 10 14  1  0  0  0  0
 10 11  2  0  0  0  0
 11 12  1  0  0  0  0
 12 13  2  0  0  0  0
 13 14  1  0  0  0  0
 13 40  1  0  0  0  0
 14 15  1  0  0  0  0
 15 16  1  0  0  0  0
 15 41  1  0  0  0  0
 15 42  1  0  0  0  0
 16 17  1  0  0  0  0
 16 19  1  0  0  0  0
 16 43  1  0  0  0  0
 17 18  1  0  0  0  0
 17 44  1  0  0  0  0
 17 45  1  0  0  0  0
 18 46  1  0  0  0  0
 19 23  1  0  0  0  0
 19 20  1  0  0  0  0
 19 47  1  0  0  0  0
 20 21  1  0  0  0  0
 20 48  1  0  0  0  0
 20 49  1  0  0  0  0
 21 22  1  0  0  0  0
 21 50  1  0  0  0  0
 21 51  1  0  0  0  0
 22 23  1  0  0  0  0
 23 52  1  0  0  0  0
 23 53  1  0  0  0  0
 24 25  1  0  0  0  0
 24 54  1  0  0  0  0
 24 55  1  0  0  0  0
 25 30  1  0  0  0  0
 25 26  1  0  0  0  0
 26 27  1  0  0  0  0
 26 56  1  0  0  0  0
 26 57  1  0  0  0  0
 27 28  1  0  0  0  0
 27 58  1  0  0  0  0
 27 59  1  0  0  0  0
 28 29  1  0  0  0  0
 28 60  1  0  0  0  0
 28 61  1  0  0  0  0
 29 30  1  0  0  0  0
 29 62  1  0  0  0  0
 29 63  1  0  0  0  0
 30 64  1  0  0  0  0
 30 65  1  0  0  0  0
M  END
> <s_m_source_file>
AV-unprocessed.smi

> <i_m_source_file_index>
275

> <i_lp_mmshare_version>
43012

> <i_f3d_flags>
0

> <s_epik_input>
W0NIMl0xW0NIMl1bQ0gyXVtDSDJdW0NIMl1DMTJbQ0BIXShbQ0hdKFtDSDNdKVtDSDNdKU4oW0NIMl0yKWMobltjSF1uMyljKGMzNCluW2NIXW40W0NIMl1bQ0BIXShbQ0gyXVtPSF0pW0NAQEhdNVtDSDJdW0NIMl1PW0NIMl01

> <s_epik_cmdline>
J2VwaWtfcHl0aG9uJywgJy1waCcsICc3LjAnLCAnLXRuJywgJzgnLCAnLW1hJywgJzIwMCcsICctbWV0YWxfYmluZGluZycsICctaW1hZScsICc8aW5maWxlLm1hZT4nLCAnLW9tYWUnLCAnPG91dGZpbGUubWFlPic=

> <r_lp_tautomer_probability>
1

> <r_epik_Ionization_Penalty>
0.00375122

> <r_epik_Ionization_Penalty_Charging>
0

> <r_epik_Ionization_Penalty_Neutral>
0.00375122

> <r_epik_State_Penalty>
0.00260593

> <r_epik_Charging_Adjusted_Penalty>
0.00260593

> <i_epik_Tot_Q>
0

> <i_epik_Tot_abs_Q>
0

> <r_epik_Metal_State_Penalty>
-0

> <b_epik_Metal_Only>
0

> <s_lp_Force_Field>
OPLS_2005

> <r_lp_Energy>
69.8585

> <b_lp_Chiralities_Consistent>
1

> <s_lp_Variant>
AV-unprocessed.smi:275-6

> <Gold.Version>
5.8.1

> <Gold.Id.Protein>
6NUR|6NUR_protein|mol2

> <Gold.PLP.Fitness>
44.9466

> <Gold.PLP.PLP>
-34.6903

> <Gold.PLP.part.hbond>
-4.9181

> <Gold.PLP.part.metal>
0.0000

> <Gold.PLP.part.buried>
4.1683

> <Gold.PLP.part.nonpolar>
-37.3647

> <Gold.PLP.part.repulsive>
3.8680

> <Gold.PLP.ligand.clash>
0.0000

> <Gold.PLP.ligand.torsion>
1.0737

> <Gold.PLP.Chemscore.Hbond>
2.9750

> <Gold.PLP.Chemscore.CHOScore>
1.0000

> <Gold.PLP.Chemscore.Metal>
0.0000

> <Gold.Chemscore.Hbonds>
donor molecule, donor type, donor heavy atom, donor atom, acceptor molecule, acceptor atom, score
      L1  H    18    46       P1  7921  1.00
      P1  H  7954  7966       L1    12  0.94
      P1  H 10192 10197       L1    18  1.00
      L1  C    13    40       P1  7921  1.00

> <Gold.PLP.Chemscore.Internal.Correction>
0.4786

> <Gold.Rescore>
     Score         DG    S(hbond)    S(metal)    S(lipo)     H(rot)  DE(clash)    DE(int)     intcor
     13.59     -19.46       2.45        0.00     105.23       2.54       3.74       2.13       ----

> <Gold.Chemscore.Fitness>
13.5897

> <Gold.Chemscore.DG>
-19.4639

> <Gold.Chemscore.ZeroCoef>
-5.4800

> <Gold.Chemscore.Hbond>
2.4458

> <Gold.Chemscore.Metal>
0.0000

> <Gold.Chemscore.Lipo>
105.2274

> <Gold.Chemscore.Internal_Hbond>
0.0000

> <Gold.Chemscore.DEClash>
3.7442

> <Gold.Chemscore.DEInternal>
2.1301

> <Gold.Chemscore.Rot>
2.5377

> <Gold.Chemscore.Internal.Correction>
   9.000000E+99

> <Gold.Chemscore.Hbonds>
donor molecule, donor type, donor heavy atom, donor atom, acceptor molecule, acceptor atom, score
      L1  H    18    46       P1  7921  0.94
      P1  H  7954  7966       L1    12  0.45
      P1  H 10192 10197       L1    18  0.65

> <Gold.Chemscore.Hbond.Weighted>
-8.1689

> <Gold.Chemscore.Metal.Weighted>
-0.0000

> <Gold.Chemscore.Lipo.Weighted>
-12.3116

> <Gold.Chemscore.Internal_Hbond.Weighted>
0.0000

> <Gold.Chemscore.DEClash.Weighted>
3.7442

> <Gold.Chemscore.DEInternal.Weighted>
2.1301

> <Gold.Chemscore.Rot.Weighted>
6.4966

> <Gold.Chemscore.Internal.Correction.Weighted>
   9.000000E+99

> <Gold.Protein.RotatedTorsions>
[ 6907 6896 6895 6894 ] final  -25.14 input  -60.11 | X-H torsion
[ 7974 7965 7964 7962 ] final   -5.92 input  175.53 | X-H torsion
[ 8008 7997 7996 7995 ] final  161.43 input   59.86 | X-H torsion
[ 10167 10162 10161 10158 ] final    4.24 input  -65.29 | X-H torsion
[ 10718 10713 10712 10709 ] final  -24.78 input   66.30 | X-H torsion
[ 10763 10752 10751 10750 ] final  -60.02 input  -60.55 | X-H torsion
[ 11005 11000 10999 10996 ] final  -62.63 input  -57.11 | X-H torsion

> <Gold.Protein.ActiveResidues>
 VAL166  LYS551  ARG553  GLY616  TRP617  ASP618  TYR619  PRO620  LYS621  CYS622 
 ASP623  PHE694  ASN695  SER759  ASP760  ASP761  ALA762  ILE779  LEU786  VAL792 
 PHE793  MET794  SER795  GLU796  ALA797  LYS798  CYS799  TRP800  GLU811  SER814 

> <Gold.Protein.RotatedAtoms>
  151.1794  135.0354  159.8785 H   0  0  0  0  0  0  0  0  0  0  0  0  # atno 6907 bound_to 6896
  152.5445  134.1080  159.8356 H   0  0  0  0  0  0  0  0  0  0  0  0  # atno 6908 bound_to 6896
  151.1195  133.5067  159.2635 H   0  0  0  0  0  0  0  0  0  0  0  0  # atno 6909 bound_to 6896
  146.2342  140.2094  142.8335 H   0  0  0  0  0  0  0  0  0  0  0  0  # atno 7974 bound_to 7965
  156.2104  140.1777  156.7708 H   0  0  0  0  0  0  0  0  0  0  0  0  # atno 8008 bound_to 7997
  154.5714  140.0682  156.8999 H   0  0  0  0  0  0  0  0  0  0  0  0  # atno 8009 bound_to 7997
  155.2667  140.3339  155.4271 H   0  0  0  0  0  0  0  0  0  0  0  0  # atno 8010 bound_to 7997
  140.6545  143.7462  150.7630 H   0  0  0  0  0  0  0  0  0  0  0  0  # atno 10167 bound_to 10162
  156.4731  130.4528  149.6857 H   0  0  0  0  0  0  0  0  0  0  0  0  # atno 10718 bound_to 10713
  154.2628  135.6305  153.5281 H   0  0  0  0  0  0  0  0  0  0  0  0  # atno 10763 bound_to 10752
  152.9893  135.5591  154.5686 H   0  0  0  0  0  0  0  0  0  0  0  0  # atno 10764 bound_to 10752
  154.5238  135.2884  155.1214 H   0  0  0  0  0  0  0  0  0  0  0  0  # atno 10765 bound_to 10752
  141.1366  133.6642  156.5556 H   0  0  0  0  0  0  0  0  0  0  0  0  # atno 11005 bound_to 11000
  144.9719  140.8376  143.5450 LP  0  0  0  0  0  0  0  0  0  0  0  0  # atno 17320 bound_to 7965
  145.2076  139.2220  143.5160 LP  0  0  0  0  0  0  0  0  0  0  0  0  # atno 17321 bound_to 7965
  140.1119  143.4691  152.2365 LP  0  0  0  0  0  0  0  0  0  0  0  0  # atno 17342 bound_to 10162
  139.5765  144.7490  151.3751 LP  0  0  0  0  0  0  0  0  0  0  0  0  # atno 17343 bound_to 10162
  156.3598  130.7475  151.2446 LP  0  0  0  0  0  0  0  0  0  0  0  0  # atno 17370 bound_to 10713
  157.7489  131.0353  150.4358 LP  0  0  0  0  0  0  0  0  0  0  0  0  # atno 17371 bound_to 10713
  140.4029  134.7341  157.4790 LP  0  0  0  0  0  0  0  0  0  0  0  0  # atno 17394 bound_to 11000
  140.0483  134.6167  155.8893 LP  0  0  0  0  0  0  0  0  0  0  0  0  # atno 17395 bound_to 11000

$$$$
