AV-unprocessed.smi:662|AV-procd|sdf|3244|dock7
  -GOLD-   22720 0193D 1   1.00000     0.00000
 Structure written by MMmdl.
 34 35  0  0  0  0  0  0  0  0  2 V2000
  145.0721  134.9202  153.2043 O   0  0  0  0  0  0  0  0  0  0  0  0
  145.1976  135.3183  152.0455 C   0  0  0  0  0  0  0  0  0  0  0  0
  145.6720  136.5341  151.7327 N   0  0  0  0  0  0  0  0  0  0  0  0
  146.0962  137.5375  152.7024 C   0  0  0  0  0  0  0  0  0  0  0  0
  146.7024  138.7694  152.0113 C   0  0  0  0  0  0  0  0  0  0  0  0
  147.4827  139.6228  152.9534 C   0  0  0  0  0  0  0  0  0  0  0  0
  148.4952  139.1633  153.6928 N   0  0  0  0  0  0  0  0  0  0  0  0
  149.0493  140.1439  154.5228 C   0  0  0  0  0  0  0  0  0  0  0  0
  150.2079  139.7989  155.4135 C   0  0  0  0  0  0  0  0  0  0  0  0
  151.2102  139.2516  154.7254 F   0  0  0  0  0  0  0  0  0  0  0  0
  150.6852  140.8838  156.0229 F   0  0  0  0  0  0  0  0  0  0  0  0
  149.8468  138.9289  156.3561 F   0  0  0  0  0  0  0  0  0  0  0  0
  148.4217  141.3609  154.4078 C   0  0  0  0  0  0  0  0  0  0  0  0
  147.1161  141.3165  153.2550 S   0  0  0  0  0  0  0  0  0  0  0  0
  144.8227  134.4103  150.8688 C   0  0  1  0  0  0  0  0  0  0  0  0
  145.7749  133.2110  150.7688 C   0  0  0  0  0  0  0  0  0  0  0  0
  144.9290  132.1499  150.0812 C   0  0  0  0  0  0  0  0  0  0  0  0
  143.5168  132.4151  150.6060 C   0  0  0  0  0  0  0  0  0  0  0  0
  143.4719  133.8296  151.0323 N   0  3  0  0  0  0  0  0  0  0  0  0
  145.7490  136.7826  150.7567 H   0  0  0  0  0  0  0  0  0  0  0  0
  145.2269  137.8323  153.2910 H   0  0  0  0  0  0  0  0  0  0  0  0
  146.8106  137.1016  153.4032 H   0  0  0  0  0  0  0  0  0  0  0  0
  147.3603  138.4638  151.1964 H   0  0  0  0  0  0  0  0  0  0  0  0
  145.9144  139.3761  151.5640 H   0  0  0  0  0  0  0  0  0  0  0  0
  148.6472  142.2774  154.9324 H   0  0  0  0  0  0  0  0  0  0  0  0
  144.8334  134.9759  149.9356 H   0  0  0  0  0  0  0  0  0  0  0  0
  146.6854  133.4412  150.2143 H   0  0  0  0  0  0  0  0  0  0  0  0
  146.0674  132.8553  151.7588 H   0  0  0  0  0  0  0  0  0  0  0  0
  144.9552  132.3062  149.0018 H   0  0  0  0  0  0  0  0  0  0  0  0
  145.2730  131.1345  150.2805 H   0  0  0  0  0  0  0  0  0  0  0  0
  142.7563  132.2060  149.8532 H   0  0  0  0  0  0  0  0  0  0  0  0
  143.3093  131.7893  151.4747 H   0  0  0  0  0  0  0  0  0  0  0  0
  143.2220  133.8666  152.0109 H   0  0  0  0  0  0  0  0  0  0  0  0
  142.8025  134.3530  150.4867 H   0  0  0  0  0  0  0  0  0  0  0  0
  1  2  2  0  0  0  0
  2  3  1  0  0  0  0
  2 15  1  0  0  0  0
  3  4  1  0  0  0  0
  3 20  1  0  0  0  0
  4  5  1  0  0  0  0
  4 21  1  0  0  0  0
  4 22  1  0  0  0  0
  5  6  1  0  0  0  0
  5 23  1  0  0  0  0
  5 24  1  0  0  0  0
  6 14  1  0  0  0  0
  6  7  2  0  0  0  0
  7  8  1  0  0  0  0
  8  9  1  0  0  0  0
  8 13  2  0  0  0  0
  9 10  1  0  0  0  0
  9 11  1  0  0  0  0
  9 12  1  0  0  0  0
 13 14  1  0  0  0  0
 13 25  1  0  0  0  0
 15 19  1  0  0  0  0
 15 16  1  0  0  0  0
 15 26  1  0  0  0  0
 16 17  1  0  0  0  0
 16 27  1  0  0  0  0
 16 28  1  0  0  0  0
 17 18  1  0  0  0  0
 17 29  1  0  0  0  0
 17 30  1  0  0  0  0
 18 19  1  0  0  0  0
 18 31  1  0  0  0  0
 18 32  1  0  0  0  0
 19 33  1  0  0  0  0
 19 34  1  0  0  0  0
M  CHG  1  19   1
M  END
> <s_m_source_file>
AV-unprocessed.smi

> <i_m_source_file_index>
662

> <i_lp_mmshare_version>
43012

> <i_f3d_flags>
0

> <s_epik_input>
W05IXTFbQ0gyXVtDSDJdW0NIMl1bQ0BIXTFDKD1PKVtOSF1bQ0gyXVtDSDJdYzJuYyhDKEYpKEYpRilbY0hdczI=

> <s_epik_cmdline>
J2VwaWtfcHl0aG9uJywgJy1waCcsICc3LjAnLCAnLXRuJywgJzgnLCAnLW1hJywgJzIwMCcsICctbWV0YWxfYmluZGluZycsICctaW1hZScsICc8aW5maWxlLm1hZT4nLCAnLW9tYWUnLCAnPG91dGZpbGUubWFlPic=

> <r_epik_Ionization_Penalty>
0.0382401

> <r_epik_Ionization_Penalty_Charging>
0.0382382

> <r_epik_Ionization_Penalty_Neutral>
1.85239e-06

> <r_epik_State_Penalty>
0.0320549

> <r_epik_Charging_Adjusted_Penalty>
0.0702931

> <i_epik_Tot_Q>
1

> <i_epik_Tot_abs_Q>
1

> <r_epik_Metal_State_Penalty>
0.0320549

> <b_epik_Metal_Only>
0

> <s_lp_Force_Field>
OPLS_2005

> <r_lp_Energy>
5.09297

> <b_lp_Chiralities_Consistent>
1

> <s_lp_Variant>
AV-unprocessed.smi:662-2

> <Gold.Version>
5.8.1

> <Gold.Id.Protein>
6NUR|6NUR_protein|mol2

> <Gold.PLP.Fitness>
44.4075

> <Gold.PLP.PLP>
-36.1359

> <Gold.PLP.part.hbond>
-1.1753

> <Gold.PLP.part.metal>
0.0000

> <Gold.PLP.part.buried>
-2.6274

> <Gold.PLP.part.nonpolar>
-33.8167

> <Gold.PLP.part.repulsive>
1.8023

> <Gold.PLP.ligand.clash>
0.0000

> <Gold.PLP.ligand.torsion>
0.3640

> <Gold.PLP.Chemscore.Hbond>
2.0000

> <Gold.PLP.Chemscore.CHOScore>
0.9910

> <Gold.PLP.Chemscore.Metal>
0.0000

> <Gold.Chemscore.Hbonds>
donor molecule, donor type, donor heavy atom, donor atom, acceptor molecule, acceptor atom, score
      L1  H    19    34       P1 10186  1.98
      L1  C    13    25       P1  8028  0.96

> <Gold.PLP.Chemscore.Internal.Correction>
0.0266

> <Gold.Rescore>
     Score         DG    S(hbond)    S(metal)    S(lipo)     H(rot)  DE(clash)    DE(int)     intcor
     12.71     -13.21       0.88        0.00      84.03       1.97       0.27       0.23       ----

> <Gold.Chemscore.Fitness>
12.7105

> <Gold.Chemscore.DG>
-13.2055

> <Gold.Chemscore.ZeroCoef>
-5.4800

> <Gold.Chemscore.Hbond>
0.8794

> <Gold.Chemscore.Metal>
0.0000

> <Gold.Chemscore.Lipo>
84.0252

> <Gold.Chemscore.Internal_Hbond>
0.0000

> <Gold.Chemscore.DEClash>
0.2675

> <Gold.Chemscore.DEInternal>
0.2275

> <Gold.Chemscore.Rot>
1.9697

> <Gold.Chemscore.Internal.Correction>
   9.000000E+99

> <Gold.Chemscore.Hbonds>
donor molecule, donor type, donor heavy atom, donor atom, acceptor molecule, acceptor atom, score
      L1  H    19    34       P1 10186  0.58

> <Gold.Chemscore.Hbond.Weighted>
-2.9370

> <Gold.Chemscore.Metal.Weighted>
-0.0000

> <Gold.Chemscore.Lipo.Weighted>
-9.8309

> <Gold.Chemscore.Internal_Hbond.Weighted>
0.0000

> <Gold.Chemscore.DEClash.Weighted>
0.2675

> <Gold.Chemscore.DEInternal.Weighted>
0.2275

> <Gold.Chemscore.Rot.Weighted>
5.0424

> <Gold.Chemscore.Internal.Correction.Weighted>
   9.000000E+99

> <Gold.Protein.RotatedTorsions>
[ 6907 6896 6895 6894 ] final  129.41 input  -60.11 | X-H torsion
[ 7974 7965 7964 7962 ] final   95.47 input  175.53 | X-H torsion
[ 8008 7997 7996 7995 ] final  115.46 input   59.86 | X-H torsion
[ 10167 10162 10161 10158 ] final   36.93 input  -65.29 | X-H torsion
[ 10718 10713 10712 10709 ] final  152.36 input   66.30 | X-H torsion
[ 10763 10752 10751 10750 ] final -157.25 input  -60.55 | X-H torsion
[ 11005 11000 10999 10996 ] final  102.26 input  -57.11 | X-H torsion

> <Gold.Protein.ActiveResidues>
 VAL166  LYS551  ARG553  GLY616  TRP617  ASP618  TYR619  PRO620  LYS621  CYS622 
 ASP623  PHE694  ASN695  SER759  ASP760  ASP761  ALA762  ILE779  LEU786  VAL792 
 PHE793  MET794  SER795  GLU796  ALA797  LYS798  CYS799  TRP800  GLU811  SER814 

> <Gold.Protein.RotatedAtoms>
  152.3626  133.6316  159.6026 H   0  0  0  0  0  0  0  0  0  0  0  0  # atno 6907 bound_to 6896
  150.7612  133.9399  159.3462 H   0  0  0  0  0  0  0  0  0  0  0  0  # atno 6908 bound_to 6896
  151.7235  135.0890  160.0339 H   0  0  0  0  0  0  0  0  0  0  0  0  # atno 6909 bound_to 6896
  145.4518  139.2293  143.3036 H   0  0  0  0  0  0  0  0  0  0  0  0  # atno 7974 bound_to 7965
  156.2383  140.2938  156.0373 H   0  0  0  0  0  0  0  0  0  0  0  0  # atno 8008 bound_to 7997
  155.2027  140.0410  157.2937 H   0  0  0  0  0  0  0  0  0  0  0  0  # atno 8009 bound_to 7997
  154.6119  140.2454  155.7665 H   0  0  0  0  0  0  0  0  0  0  0  0  # atno 8010 bound_to 7997
  140.4080  144.1631  150.6137 H   0  0  0  0  0  0  0  0  0  0  0  0  # atno 10167 bound_to 10162
  157.2588  131.0794  151.1680 H   0  0  0  0  0  0  0  0  0  0  0  0  # atno 10718 bound_to 10713
  154.7651  135.3128  154.8303 H   0  0  0  0  0  0  0  0  0  0  0  0  # atno 10763 bound_to 10752
  153.9053  135.6811  153.4757 H   0  0  0  0  0  0  0  0  0  0  0  0  # atno 10764 bound_to 10752
  153.1256  135.4803  154.9199 H   0  0  0  0  0  0  0  0  0  0  0  0  # atno 10765 bound_to 10752
  139.8777  134.9216  156.5031 H   0  0  0  0  0  0  0  0  0  0  0  0  # atno 11005 bound_to 11000
  146.2500  140.5277  142.8897 LP  0  0  0  0  0  0  0  0  0  0  0  0  # atno 17320 bound_to 7965
  144.8057  140.6295  143.6448 LP  0  0  0  0  0  0  0  0  0  0  0  0  # atno 17321 bound_to 7965
  140.4668  143.2428  151.9144 LP  0  0  0  0  0  0  0  0  0  0  0  0  # atno 17342 bound_to 10162
  139.4783  144.5411  151.8527 LP  0  0  0  0  0  0  0  0  0  0  0  0  # atno 17343 bound_to 10162
  157.3198  130.6931  149.6262 LP  0  0  0  0  0  0  0  0  0  0  0  0  # atno 17370 bound_to 10713
  155.9664  130.4339  150.5025 LP  0  0  0  0  0  0  0  0  0  0  0  0  # atno 17371 bound_to 10713
  140.8575  133.8085  155.9231 LP  0  0  0  0  0  0  0  0  0  0  0  0  # atno 17394 bound_to 11000
  140.9082  134.2293  157.5001 LP  0  0  0  0  0  0  0  0  0  0  0  0  # atno 17395 bound_to 11000

$$$$
