#       Name:                AV-unprocessed.smi:1021
#       Creating user name   scv26
#       Creation time:       Fri Mar 27 02:42:49 2020


#       File generated by GOLD software.
#

@<TRIPOS>MOLECULE
AV-unprocessed.smi:1021
    47    49     1
SMALL
NO_CHARGES


@<TRIPOS>ATOM
      1 ****        -3.8764   2.7881   1.2027 O.3            1 S1                 0.0000
      2 ****        -3.1621   2.8524  -0.0132 C.3            1 S1                 0.0000
      3 ****        -1.6684   2.5925   0.2268 C.3            1 S1                 0.0000
      4 ****        -1.3708   1.1504   0.6660 C.3            1 S1                 0.0000
      5 ****         0.0959   0.9158   0.8255 C.2            1 S1                 0.0000
      6 ****         0.7932   1.0126   1.9924 N.pl3          1 S1                 1.0000
      7 ****         2.1413   0.7361   1.7623 C.ar           1 S1                 0.0000
      8 ****         3.2274   0.7053   2.6315 C.ar           1 S1                 0.0000
      9 ****         4.4801   0.3857   2.0679 C.ar           1 S1                 0.0000
     10 ****         4.6182   0.1131   0.6912 C.ar           1 S1                 0.0000
     11 ****         3.5097   0.1482  -0.1804 C.ar           1 S1                 0.0000
     12 ****         2.2748   0.4633   0.3858 C.ar           1 S1                 0.0000
     13 ****         0.9891   0.5840  -0.1522 N.pl3          1 S1                 0.0000
     14 ****         0.7916   0.3493  -1.5914 C.3            1 S1                 0.0000
     15 ****         0.7532  -1.1498  -1.9525 C.3            1 S1                 0.0000
     16 ****         0.7334  -1.2626  -3.3602 O.3            1 S1                 0.0000
     17 ****        -0.4149  -1.8714  -1.2945 C.ar           1 S1                 0.0000
     18 ****        -0.2076  -2.5990  -0.1027 C.ar           1 S1                 0.0000
     19 ****        -1.2855  -3.2473   0.5305 C.ar           1 S1                 0.0000
     20 ****        -2.5772  -3.1729  -0.0247 C.ar           1 S1                 0.0000
     21 ****        -3.6136  -3.7945   0.5856 F              1 S1                 0.0000
     22 ****        -2.7904  -2.4500  -1.2140 C.ar           1 S1                 0.0000
     23 ****        -1.7131  -1.8005  -1.8473 C.ar           1 S1                 0.0000
     24 ****        -4.7874   2.9681   1.0257 H              1 S1                 0.0000
     25 ****        -3.5746   2.1297  -0.7178 H              1 S1                 0.0000
     26 ****        -3.3054   3.8426  -0.4459 H              1 S1                 0.0000
     27 ****        -1.1297   2.8001  -0.6983 H              1 S1                 0.0000
     28 ****        -1.2847   3.2962   0.9666 H              1 S1                 0.0000
     29 ****        -1.8672   0.9307   1.6117 H              1 S1                 0.0000
     30 ****        -1.7693   0.4454  -0.0624 H              1 S1                 0.0000
     31 ****         3.1241   0.9148   3.6862 H              1 S1                 0.0000
     32 ****         5.3525   0.3492   2.7042 H              1 S1                 0.0000
     33 ****         5.5941  -0.1276   0.2951 H              1 S1                 0.0000
     34 ****         3.6249  -0.0618  -1.2335 H              1 S1                 0.0000
     35 ****        -0.1341   0.8405  -1.8933 H              1 S1                 0.0000
     36 ****         1.5948   0.8577  -2.1266 H              1 S1                 0.0000
     37 ****         1.6784  -1.6244  -1.6239 H              1 S1                 0.0000
     38 ****         0.7966  -2.1775  -3.5889 H              1 S1                 0.0000
     39 ****         0.7784  -2.6542   0.3349 H              1 S1                 0.0000
     40 ****        -1.1220  -3.8003   1.4437 H              1 S1                 0.0000
     41 ****        -3.7814  -2.3909  -1.6394 H              1 S1                 0.0000
     42 ****        -1.8904  -1.2403  -2.7537 H              1 S1                 0.0000
     43 ****         0.3731   1.2514   2.8816 H              1 S1                 0.0000
     44 ****        -3.5163   3.4679   1.8417 LP             1 S1                 0.0000
     45 ****        -3.7840   1.8752   1.6002 LP             1 S1                 0.0000
     46 ****         1.5076  -0.7634  -3.7495 LP             1 S1                 0.0000
     47 ****        -0.1206  -0.8840  -3.7169 LP             1 S1                 0.0000
@<TRIPOS>BOND
    1    1    2 1     
    2    1   24 1     
    3    2    3 1     
    4    2   25 1     
    5    2   26 1     
    6    3    4 1     
    7    3   27 1     
    8    3   28 1     
    9    4    5 1     
   10    4   29 1     
   11    4   30 1     
   12    5   13 1     
   13    5    6 2     
   14    6    7 1     
   15    6   43 1     
   16    7   12 ar    
   17    7    8 ar    
   18    8    9 ar    
   19    8   31 1     
   20    9   10 ar    
   21    9   32 1     
   22   10   11 ar    
   23   10   33 1     
   24   11   12 ar    
   25   11   34 1     
   26   12   13 1     
   27   13   14 1     
   28   14   15 1     
   29   14   35 1     
   30   14   36 1     
   31   15   16 1     
   32   15   17 1     
   33   15   37 1     
   34   16   38 1     
   35   17   23 ar    
   36   17   18 ar    
   37   18   19 ar    
   38   18   39 1     
   39   19   20 ar    
   40   19   40 1     
   41   20   21 1     
   42   20   22 ar    
   43   22   23 ar    
   44   22   41 1     
   45   23   42 1     
   46    1   44 1     
   47    1   45 1     
   48   16   46 1     
   49   16   47 1     
@<TRIPOS>SUBSTRUCTURE
      1 S1             1
@<TRIPOS>SET
LONE_PAIRS      STATIC     ATOMS    <user>   **** ""
4 44 45 46 47
DONOR_HYDROGENS      STATIC     ATOMS    <user>   **** ""
3 24 43 38
ATOM$BLUE        STATIC     ATOMS    COLORGROUP SYSTEM
4 44 45 46 47
ATOM$RED        STATIC     ATOMS    COLORGROUP SYSTEM
3 24 43 38
