AV-unprocessed.smi:415|AV-procd|sdf|2518|dock9
  -GOLD-   2262022473D 1   1.00000     0.00000
 Structure written by MMmdl.
 53 54  0  0  0  0  0  0  0  0  1 V2000
  152.0961  138.6266  154.6797 C   0  0  0  0  0  0  0  0  0  0  0  0
  150.7674  138.7536  155.1535 O   0  0  0  0  0  0  0  0  0  0  0  0
  149.9237  137.7096  154.6970 C   0  0  0  0  0  0  0  0  0  0  0  0
  148.4853  137.9435  155.1867 C   0  0  0  0  0  0  0  0  0  0  0  0
  147.9914  139.2745  154.8864 N   0  0  0  0  0  0  0  0  0  0  0  0
  147.7962  139.7340  153.5870 C   0  0  0  0  0  0  0  0  0  0  0  0
  148.0562  138.8941  152.5188 N   0  0  0  0  0  0  0  0  0  0  0  0
  147.3457  140.9842  153.3414 C   0  0  0  0  0  0  0  0  0  0  0  0
  147.0384  141.9159  154.4172 C   0  0  0  0  0  0  0  0  0  0  0  0
  146.6598  143.0697  154.2136 O   0  0  0  0  0  0  0  0  0  0  0  0
  147.2139  141.4188  155.7289 N   0  0  0  0  0  0  0  0  0  0  0  0
  146.9353  142.3193  156.8728 C   0  0  0  0  0  0  0  0  0  0  0  0
  148.0363  142.3552  157.9484 C   0  0  0  0  0  0  0  0  0  0  0  0
  147.9599  141.5874  158.9065 O   0  0  0  0  0  0  0  0  0  0  0  0
  149.0486  143.2246  157.7840 N   0  0  0  0  0  0  0  0  0  0  0  0
  150.2113  143.3832  158.6533 C   0  0  2  0  0  0  0  0  0  0  0  0
  150.7674  144.8083  158.4700 C   0  0  0  0  0  0  0  0  0  0  0  0
  152.0548  145.0299  159.2757 C   0  0  0  0  0  0  0  0  0  0  0  0
  153.1145  143.9724  158.9288 C   0  0  0  0  0  0  0  0  0  0  0  0
  152.5917  142.5352  159.1292 C   0  0  1  0  0  0  0  0  0  0  0  0
  152.4744  142.1769  160.6247 C   0  0  0  0  0  0  0  0  0  0  0  0
  151.2865  142.3152  158.3188 C   0  0  1  0  0  0  0  0  0  0  0  0
  150.7612  140.8700  158.4314 C   0  0  0  0  0  0  0  0  0  0  0  0
  147.6807  140.1097  155.9904 C   0  0  0  0  0  0  0  0  0  0  0  0
  147.8222  139.7234  157.1538 O   0  0  0  0  0  0  0  0  0  0  0  0
  152.6983  139.4552  155.0523 H   0  0  0  0  0  0  0  0  0  0  0  0
  152.1308  138.6489  153.5897 H   0  0  0  0  0  0  0  0  0  0  0  0
  152.5505  137.6976  155.0267 H   0  0  0  0  0  0  0  0  0  0  0  0
  149.9347  137.6890  153.6063 H   0  0  0  0  0  0  0  0  0  0  0  0
  150.2908  136.7420  155.0425 H   0  0  0  0  0  0  0  0  0  0  0  0
  147.7862  137.2038  154.7939 H   0  0  0  0  0  0  0  0  0  0  0  0
  148.4240  137.8357  156.2693 H   0  0  0  0  0  0  0  0  0  0  0  0
  148.3865  137.9489  152.6521 H   0  0  0  0  0  0  0  0  0  0  0  0
  147.9478  139.1989  151.5622 H   0  0  0  0  0  0  0  0  0  0  0  0
  147.2093  141.3124  152.3208 H   0  0  0  0  0  0  0  0  0  0  0  0
  146.7588  143.3421  156.5366 H   0  0  0  0  0  0  0  0  0  0  0  0
  145.9979  142.0428  157.3582 H   0  0  0  0  0  0  0  0  0  0  0  0
  149.0211  143.8146  156.9653 H   0  0  0  0  0  0  0  0  0  0  0  0
  149.9141  143.2679  159.6966 H   0  0  0  0  0  0  0  0  0  0  0  0
  150.9729  144.9902  157.4138 H   0  0  0  0  0  0  0  0  0  0  0  0
  150.0179  145.5426  158.7679 H   0  0  0  0  0  0  0  0  0  0  0  0
  152.4485  146.0265  159.0743 H   0  0  0  0  0  0  0  0  0  0  0  0
  151.8312  145.0007  160.3425 H   0  0  0  0  0  0  0  0  0  0  0  0
  153.4169  144.1022  157.8887 H   0  0  0  0  0  0  0  0  0  0  0  0
  154.0131  144.1348  159.5251 H   0  0  0  0  0  0  0  0  0  0  0  0
  153.3474  141.8661  158.7155 H   0  0  0  0  0  0  0  0  0  0  0  0
  151.7051  142.7603  161.1297 H   0  0  0  0  0  0  0  0  0  0  0  0
  153.4165  142.3603  161.1418 H   0  0  0  0  0  0  0  0  0  0  0  0
  152.2360  141.1232  160.7667 H   0  0  0  0  0  0  0  0  0  0  0  0
  151.5540  142.4544  157.2697 H   0  0  0  0  0  0  0  0  0  0  0  0
  150.3358  140.6734  159.4156 H   0  0  0  0  0  0  0  0  0  0  0  0
  151.5588  140.1468  158.2592 H   0  0  0  0  0  0  0  0  0  0  0  0
  149.9834  140.6695  157.6941 H   0  0  0  0  0  0  0  0  0  0  0  0
  1  2  1  0  0  0  0
  1 26  1  0  0  0  0
  1 27  1  0  0  0  0
  1 28  1  0  0  0  0
  2  3  1  0  0  0  0
  3  4  1  0  0  0  0
  3 29  1  0  0  0  0
  3 30  1  0  0  0  0
  4  5  1  0  0  0  0
  4 31  1  0  0  0  0
  4 32  1  0  0  0  0
  5 24  1  0  0  0  0
  5  6  1  0  0  0  0
  6  7  1  0  0  0  0
  6  8  2  0  0  0  0
  7 33  1  0  0  0  0
  7 34  1  0  0  0  0
  8  9  1  0  0  0  0
  8 35  1  0  0  0  0
  9 10  2  0  0  0  0
  9 11  1  0  0  0  0
 11 12  1  0  0  0  0
 11 24  1  0  0  0  0
 12 13  1  0  0  0  0
 12 36  1  0  0  0  0
 12 37  1  0  0  0  0
 13 14  2  0  0  0  0
 13 15  1  0  0  0  0
 15 16  1  0  0  0  0
 15 38  1  0  0  0  0
 16 22  1  0  0  0  0
 16 17  1  0  0  0  0
 16 39  1  0  0  0  0
 17 18  1  0  0  0  0
 17 40  1  0  0  0  0
 17 41  1  0  0  0  0
 18 19  1  0  0  0  0
 18 42  1  0  0  0  0
 18 43  1  0  0  0  0
 19 20  1  0  0  0  0
 19 44  1  0  0  0  0
 19 45  1  0  0  0  0
 20 21  1  0  0  0  0
 20 22  1  0  0  0  0
 20 46  1  0  0  0  0
 21 47  1  0  0  0  0
 21 48  1  0  0  0  0
 21 49  1  0  0  0  0
 22 23  1  0  0  0  0
 22 50  1  0  0  0  0
 23 51  1  0  0  0  0
 23 52  1  0  0  0  0
 23 53  1  0  0  0  0
 24 25  2  0  0  0  0
M  END
> <s_m_source_file>
AV-unprocessed.smi

> <i_m_source_file_index>
415

> <i_lp_mmshare_version>
43012

> <i_f3d_flags>
0

> <s_epik_input>
W0NIM11PW0NIMl1bQ0gyXW4xYyhbTkgyXSlbY0hdYyg9TyluKGMxPU8pW0NIMl1DKD1PKVtOSF1bQ0BASF0yW0NIMl1bQ0gyXVtDSDJdW0NAQEhdKFtDSDNdKVtDQEhdMltDSDNd

> <s_epik_cmdline>
J2VwaWtfcHl0aG9uJywgJy1waCcsICc3LjAnLCAnLXRuJywgJzgnLCAnLW1hJywgJzIwMCcsICctbWV0YWxfYmluZGluZycsICctaW1hZScsICc8aW5maWxlLm1hZT4nLCAnLW9tYWUnLCAnPG91dGZpbGUubWFlPic=

> <r_lp_tautomer_probability>
1

> <r_epik_Ionization_Penalty>
8.6647e-06

> <r_epik_Ionization_Penalty_Charging>
1.81162e-08

> <r_epik_Ionization_Penalty_Neutral>
8.64658e-06

> <r_epik_State_Penalty>
-0

> <r_epik_Charging_Adjusted_Penalty>
1.81162e-08

> <i_epik_Tot_Q>
0

> <i_epik_Tot_abs_Q>
0

> <r_epik_Metal_State_Penalty>
-0

> <b_epik_Metal_Only>
0

> <s_lp_Force_Field>
OPLS_2005

> <r_lp_Energy>
23.489

> <b_lp_Chiralities_Consistent>
1

> <s_lp_Variant>
AV-unprocessed.smi:415-1

> <Gold.Version>
5.8.1

> <Gold.Id.Protein>
6NUR|6NUR_protein|mol2

> <Gold.PLP.Fitness>
47.1812

> <Gold.PLP.PLP>
-42.5153

> <Gold.PLP.part.hbond>
-5.8604

> <Gold.PLP.part.metal>
0.0000

> <Gold.PLP.part.buried>
-3.3380

> <Gold.PLP.part.nonpolar>
-35.7146

> <Gold.PLP.part.repulsive>
0.8107

> <Gold.PLP.ligand.clash>
0.0000

> <Gold.PLP.ligand.torsion>
0.8687

> <Gold.PLP.Chemscore.Hbond>
2.1149

> <Gold.PLP.Chemscore.CHOScore>
0.0000

> <Gold.PLP.Chemscore.Metal>
0.0000

> <Gold.Chemscore.Hbonds>
donor molecule, donor type, donor heavy atom, donor atom, acceptor molecule, acceptor atom, score
      L1  H     7    33       P1  7948  0.96
      L1  H     7    34       P1  7957  0.11
      L1  H    15    38       P1  8028  1.00
      P1  H  6934  6946       L1    14  0.07

> <Gold.PLP.Chemscore.Internal.Correction>
0.0587

> <Gold.Rescore>
     Score         DG    S(hbond)    S(metal)    S(lipo)     H(rot)  DE(clash)    DE(int)     intcor
     14.82     -18.61       2.14        0.00     100.82       2.26       0.19       3.59       ----

> <Gold.Chemscore.Fitness>
14.8218

> <Gold.Chemscore.DG>
-18.6108

> <Gold.Chemscore.ZeroCoef>
-5.4800

> <Gold.Chemscore.Hbond>
2.1354

> <Gold.Chemscore.Metal>
0.0000

> <Gold.Chemscore.Lipo>
100.8176

> <Gold.Chemscore.Internal_Hbond>
0.0000

> <Gold.Chemscore.DEClash>
0.1941

> <Gold.Chemscore.DEInternal>
3.5949

> <Gold.Chemscore.Rot>
2.2645

> <Gold.Chemscore.Internal.Correction>
   9.000000E+99

> <Gold.Chemscore.Hbonds>
donor molecule, donor type, donor heavy atom, donor atom, acceptor molecule, acceptor atom, score
      L1  H     7    33       P1  7948  0.91
      L1  H     7    34       P1  7957  0.13
      L1  H    15    38       P1  8028  0.39
      P1  H  6934  6946       L1    14  0.09

> <Gold.Chemscore.Hbond.Weighted>
-7.1323

> <Gold.Chemscore.Metal.Weighted>
-0.0000

> <Gold.Chemscore.Lipo.Weighted>
-11.7957

> <Gold.Chemscore.Internal_Hbond.Weighted>
0.0000

> <Gold.Chemscore.DEClash.Weighted>
0.1941

> <Gold.Chemscore.DEInternal.Weighted>
3.5949

> <Gold.Chemscore.Rot.Weighted>
5.7972

> <Gold.Chemscore.Internal.Correction.Weighted>
   9.000000E+99

> <Gold.Protein.RotatedTorsions>
[ 6907 6896 6895 6894 ] final -127.74 input  -60.11 | X-H torsion
[ 7974 7965 7964 7962 ] final  -24.80 input  175.53 | X-H torsion
[ 8008 7997 7996 7995 ] final   69.33 input   59.86 | X-H torsion
[ 10167 10162 10161 10158 ] final  133.84 input  -65.29 | X-H torsion
[ 10718 10713 10712 10709 ] final -145.28 input   66.30 | X-H torsion
[ 10763 10752 10751 10750 ] final  -42.96 input  -60.55 | X-H torsion
[ 11005 11000 10999 10996 ] final  -16.90 input  -57.11 | X-H torsion

> <Gold.Protein.ActiveResidues>
 VAL166  LYS551  ARG553  GLY616  TRP617  ASP618  TYR619  PRO620  LYS621  CYS622 
 ASP623  PHE694  ASN695  SER759  ASP760  ASP761  ALA762  ILE779  LEU786  VAL792 
 PHE793  MET794  SER795  GLU796  ALA797  LYS798  CYS799  TRP800  GLU811  SER814 

> <Gold.Protein.RotatedAtoms>
  150.9105  133.7003  159.2855 H   0  0  0  0  0  0  0  0  0  0  0  0  # atno 6907 bound_to 6896
  151.4492  135.1027  159.9702 H   0  0  0  0  0  0  0  0  0  0  0  0  # atno 6908 bound_to 6896
  152.4927  133.8495  159.7249 H   0  0  0  0  0  0  0  0  0  0  0  0  # atno 6909 bound_to 6896
  146.1532  140.4800  142.8602 H   0  0  0  0  0  0  0  0  0  0  0  0  # atno 7974 bound_to 7965
  155.7220  140.3493  155.5020 H   0  0  0  0  0  0  0  0  0  0  0  0  # atno 8008 bound_to 7997
  155.9261  140.1076  157.1190 H   0  0  0  0  0  0  0  0  0  0  0  0  # atno 8009 bound_to 7997
  154.4077  140.1240  156.4729 H   0  0  0  0  0  0  0  0  0  0  0  0  # atno 8010 bound_to 7997
  139.5280  144.6596  151.5054 H   0  0  0  0  0  0  0  0  0  0  0  0  # atno 10167 bound_to 10162
  156.3805  130.7835  151.2026 H   0  0  0  0  0  0  0  0  0  0  0  0  # atno 10718 bound_to 10713
  153.9876  135.6709  153.4752 H   0  0  0  0  0  0  0  0  0  0  0  0  # atno 10763 bound_to 10752
  153.0719  135.4969  154.8320 H   0  0  0  0  0  0  0  0  0  0  0  0  # atno 10764 bound_to 10752
  154.7128  135.3101  154.9133 H   0  0  0  0  0  0  0  0  0  0  0  0  # atno 10765 bound_to 10752
  140.8115  133.8137  155.9568 H   0  0  0  0  0  0  0  0  0  0  0  0  # atno 11005 bound_to 11000
  144.7930  140.6068  143.6529 LP  0  0  0  0  0  0  0  0  0  0  0  0  # atno 17320 bound_to 7965
  145.4773  139.1498  143.3781 LP  0  0  0  0  0  0  0  0  0  0  0  0  # atno 17321 bound_to 7965
  140.6438  143.8835  150.6717 LP  0  0  0  0  0  0  0  0  0  0  0  0  # atno 17342 bound_to 10162
  140.2178  143.3832  152.1667 LP  0  0  0  0  0  0  0  0  0  0  0  0  # atno 17343 bound_to 10162
  157.7492  131.0345  150.4321 LP  0  0  0  0  0  0  0  0  0  0  0  0  # atno 17370 bound_to 10713
  156.4564  130.4022  149.6603 LP  0  0  0  0  0  0  0  0  0  0  0  0  # atno 17371 bound_to 10713
  140.9193  134.2162  157.4937 LP  0  0  0  0  0  0  0  0  0  0  0  0  # atno 17394 bound_to 11000
  139.8714  134.9785  156.5000 LP  0  0  0  0  0  0  0  0  0  0  0  0  # atno 17395 bound_to 11000

$$$$
