#       Name:                AV-unprocessed.smi:928
#       Creating user name   scv26
#       Creation time:       Fri Mar 27 02:10:00 2020


#       File generated by GOLD software.
#

@<TRIPOS>MOLECULE
AV-unprocessed.smi:928
    48    49     1
SMALL
NO_CHARGES


@<TRIPOS>ATOM
      1 ****        -2.0622   7.3217   2.2907 C.3            1 S1                 0.0000
      2 ****        -3.2096   6.4777   1.7252 C.3            1 S1                 0.0000
      3 ****        -2.7479   5.2013   1.1033 C.2            1 S1                 0.0000
      4 ****        -2.6299   4.9162  -0.2346 C.2            1 S1                 0.0000
      5 ****        -2.1556   3.6294  -0.4984 N.2            1 S1                 0.0000
      6 ****        -1.9285   2.9314   0.6164 C.2            1 S1                 0.0000
      7 ****        -1.3808   1.5442   0.6221 C.3            1 S1                 0.0000
      8 ****         0.1557   1.5262   0.6556 C.3            1 S1                 0.0000
      9 ****         0.6788   0.1660   0.6970 N.am           1 S1                 0.0000
     10 ****         0.8126  -0.6373  -0.3670 C.2            1 S1                 0.0000
     11 ****         0.5015  -0.3200  -1.5152 O.2            1 S1                 0.0000
     12 ****         1.3242  -1.8283  -0.0275 N.am           1 S1                 0.0000
     13 ****         1.5916  -2.9280  -0.9524 C.3            1 S1                 0.0000
     14 ****         0.3121  -3.7308  -1.2684 C.3            1 S1                 0.0000
     15 ****         0.6091  -4.8822  -2.2426 C.3            1 S1                 0.0000
     16 ****         1.7205  -5.7997  -1.7074 C.3            1 S1                 0.0000
     17 ****         2.9973  -5.0056  -1.3744 C.3            1 S1                 0.0000
     18 ****         2.7188  -3.8361  -0.4100 C.3            1 S1                 0.0000
     19 ****         2.3824  -4.3607   0.8617 O.3            1 S1                 0.0000
     20 ****        -2.2641   3.8414   2.0842 S.3            1 S1                 0.0000
     21 ****        -2.4390   8.2459   2.7291 H              1 S1                 0.0000
     22 ****        -1.3502   7.5897   1.5095 H              1 S1                 0.0000
     23 ****        -1.5200   6.7817   3.0675 H              1 S1                 0.0000
     24 ****        -3.9200   6.2542   2.5218 H              1 S1                 0.0000
     25 ****        -3.7586   7.0642   0.9880 H              1 S1                 0.0000
     26 ****        -2.8547   5.5702  -1.0642 H              1 S1                 0.0000
     27 ****        -1.7834   1.0159   1.4872 H              1 S1                 0.0000
     28 ****        -1.7485   1.0212  -0.2618 H              1 S1                 0.0000
     29 ****         0.5631   2.0581  -0.2059 H              1 S1                 0.0000
     30 ****         0.5133   2.0512   1.5418 H              1 S1                 0.0000
     31 ****         0.9619  -0.1863   1.5996 H              1 S1                 0.0000
     32 ****         1.5440  -1.9897   0.9440 H              1 S1                 0.0000
     33 ****         1.9536  -2.4964  -1.8880 H              1 S1                 0.0000
     34 ****        -0.1176  -4.1299  -0.3487 H              1 S1                 0.0000
     35 ****        -0.4452  -3.0771  -1.7029 H              1 S1                 0.0000
     36 ****        -0.2975  -5.4615  -2.4199 H              1 S1                 0.0000
     37 ****         0.9085  -4.4735  -3.2084 H              1 S1                 0.0000
     38 ****         1.3668  -6.3192  -0.8161 H              1 S1                 0.0000
     39 ****         1.9476  -6.5730  -2.4416 H              1 S1                 0.0000
     40 ****         3.7534  -5.6707  -0.9553 H              1 S1                 0.0000
     41 ****         3.4200  -4.6112  -2.2993 H              1 S1                 0.0000
     42 ****         3.6308  -3.2501  -0.2897 H              1 S1                 0.0000
     43 ****         2.2453  -3.6404   1.4570 H              1 S1                 0.0000
     44 ****        -2.0032   3.2710  -1.4195 LP             1 S1                 0.0000
     45 ****         0.1225   0.5872  -1.6980 LP             1 S1                 0.0000
     46 ****         0.6279  -0.9694  -2.2651 LP             1 S1                 0.0000
     47 ****         3.1276  -4.9375   1.1963 LP             1 S1                 0.0000
     48 ****         1.5459  -4.9042   0.7917 LP             1 S1                 0.0000
@<TRIPOS>BOND
    1    1    2 1     
    2    1   21 1     
    3    1   22 1     
    4    1   23 1     
    5    2    3 1     
    6    2   24 1     
    7    2   25 1     
    8    3   20 1     
    9    3    4 2     
   10    4    5 1     
   11    4   26 1     
   12    5    6 2     
   13    6    7 1     
   14    6   20 1     
   15    7    8 1     
   16    7   27 1     
   17    7   28 1     
   18    8    9 1     
   19    8   29 1     
   20    8   30 1     
   21    9   10 am    
   22    9   31 1     
   23   10   11 2     
   24   10   12 am    
   25   12   13 1     
   26   12   32 1     
   27   13   18 1     
   28   13   14 1     
   29   13   33 1     
   30   14   15 1     
   31   14   34 1     
   32   14   35 1     
   33   15   16 1     
   34   15   36 1     
   35   15   37 1     
   36   16   17 1     
   37   16   38 1     
   38   16   39 1     
   39   17   18 1     
   40   17   40 1     
   41   17   41 1     
   42   18   19 1     
   43   18   42 1     
   44   19   43 1     
   45    5   44 1     
   46   11   45 1     
   47   11   46 1     
   48   19   47 1     
   49   19   48 1     
@<TRIPOS>SUBSTRUCTURE
      1 S1             1
@<TRIPOS>SET
LONE_PAIRS      STATIC     ATOMS    <user>   **** ""
5 44 45 46 47 48
DONOR_HYDROGENS      STATIC     ATOMS    <user>   **** ""
3 31 32 43
ATOM$BLUE        STATIC     ATOMS    COLORGROUP SYSTEM
5 44 45 46 47 48
ATOM$RED        STATIC     ATOMS    COLORGROUP SYSTEM
3 31 32 43
