AV-unprocessed.smi:1824|AV-procd|sdf|7398|dock10
  -GOLD-   22720 9 73D 1   1.00000     0.00000
 Structure written by MMmdl.
 44 46  0  0  0  0  0  0  0  0  1 V2000
  144.8627  139.5063  157.8606 C   0  0  0  0  0  0  0  0  0  0  0  0
  145.3793  140.8045  157.2320 C   0  0  1  0  0  0  0  0  0  0  0  0
  146.3211  140.5383  156.0441 C   0  0  0  0  0  0  0  0  0  0  0  0
  146.7488  141.7728  155.3981 N   0  0  0  0  0  0  0  0  0  0  0  0
  147.6808  141.4945  154.3041 C   0  0  0  0  0  0  0  0  0  0  0  0
  149.0799  141.0037  154.7286 C   0  0  1  0  0  0  0  0  0  0  0  0
  149.8559  140.7797  153.5670 O   0  0  0  0  0  0  0  0  0  0  0  0
  149.7937  142.0367  155.6210 C   0  0  0  0  0  0  0  0  0  0  0  0
  150.7972  141.4297  156.4774 N   0  0  0  0  0  0  0  0  0  0  0  0
  151.4656  140.2804  156.2617 C   0  0  0  0  0  0  0  0  0  0  0  0
  152.3469  139.9057  157.1847 N   0  0  0  0  0  0  0  0  0  0  0  0
  152.2385  140.9318  158.1077 C   0  0  0  0  0  0  0  0  0  0  0  0
  152.9105  141.1382  159.3338 C   0  0  0  0  0  0  0  0  0  0  0  0
  152.6321  142.2764  160.1187 C   0  0  0  0  0  0  0  0  0  0  0  0
  153.2850  142.4587  161.2910 F   0  0  0  0  0  0  0  0  0  0  0  0
  151.6793  143.2245  159.6902 C   0  0  0  0  0  0  0  0  0  0  0  0
  151.4184  144.3144  160.4500 F   0  0  0  0  0  0  0  0  0  0  0  0
  150.9972  143.0402  158.4722 C   0  0  0  0  0  0  0  0  0  0  0  0
  151.2780  141.9030  157.6930 C   0  0  0  0  0  0  0  0  0  0  0  0
  145.5655  142.5118  154.9602 C   0  0  0  0  0  0  0  0  0  0  0  0
  144.5690  142.7760  156.1070 C   0  0  2  0  0  0  0  0  0  0  0  0
  145.0421  143.8653  157.0843 C   0  0  0  0  0  0  0  0  0  0  0  0
  144.2544  141.5575  156.7829 O   0  0  0  0  0  0  0  0  0  0  0  0
  145.6857  138.8969  158.2346 H   0  0  0  0  0  0  0  0  0  0  0  0
  144.3067  138.9109  157.1360 H   0  0  0  0  0  0  0  0  0  0  0  0
  144.1981  139.7173  158.6988 H   0  0  0  0  0  0  0  0  0  0  0  0
  145.9105  141.3690  157.9988 H   0  0  0  0  0  0  0  0  0  0  0  0
  147.1931  139.9867  156.3981 H   0  0  0  0  0  0  0  0  0  0  0  0
  145.8207  139.8959  155.3173 H   0  0  0  0  0  0  0  0  0  0  0  0
  147.2469  140.7413  153.6443 H   0  0  0  0  0  0  0  0  0  0  0  0
  147.7865  142.3925  153.6935 H   0  0  0  0  0  0  0  0  0  0  0  0
  149.0111  140.0671  155.2800 H   0  0  0  0  0  0  0  0  0  0  0  0
  149.3882  140.1829  153.0033 H   0  0  0  0  0  0  0  0  0  0  0  0
  150.2704  142.8062  155.0119 H   0  0  0  0  0  0  0  0  0  0  0  0
  149.0704  142.5469  156.2581 H   0  0  0  0  0  0  0  0  0  0  0  0
  151.2930  139.6833  155.3780 H   0  0  0  0  0  0  0  0  0  0  0  0
  153.6416  140.4193  159.6720 H   0  0  0  0  0  0  0  0  0  0  0  0
  150.2665  143.7630  158.1416 H   0  0  0  0  0  0  0  0  0  0  0  0
  145.8465  143.4664  154.5179 H   0  0  0  0  0  0  0  0  0  0  0  0
  145.0573  141.9478  154.1765 H   0  0  0  0  0  0  0  0  0  0  0  0
  143.6368  143.1293  155.6653 H   0  0  0  0  0  0  0  0  0  0  0  0
  145.1643  144.8194  156.5711 H   0  0  0  0  0  0  0  0  0  0  0  0
  145.9998  143.6182  157.5420 H   0  0  0  0  0  0  0  0  0  0  0  0
  144.3165  144.0116  157.8846 H   0  0  0  0  0  0  0  0  0  0  0  0
  1  2  1  0  0  0  0
  1 24  1  0  0  0  0
  1 25  1  0  0  0  0
  1 26  1  0  0  0  0
  2 23  1  0  0  0  0
  2  3  1  0  0  0  0
  2 27  1  0  0  0  0
  3  4  1  0  0  0  0
  3 28  1  0  0  0  0
  3 29  1  0  0  0  0
  4  5  1  0  0  0  0
  4 20  1  0  0  0  0
  5  6  1  0  0  0  0
  5 30  1  0  0  0  0
  5 31  1  0  0  0  0
  6  7  1  0  0  0  0
  6  8  1  0  0  0  0
  6 32  1  0  0  0  0
  7 33  1  0  0  0  0
  8  9  1  0  0  0  0
  8 34  1  0  0  0  0
  8 35  1  0  0  0  0
  9 19  1  0  0  0  0
  9 10  1  0  0  0  0
 10 11  2  0  0  0  0
 10 36  1  0  0  0  0
 11 12  1  0  0  0  0
 12 19  2  0  0  0  0
 12 13  1  0  0  0  0
 13 14  2  0  0  0  0
 13 37  1  0  0  0  0
 14 15  1  0  0  0  0
 14 16  1  0  0  0  0
 16 17  1  0  0  0  0
 16 18  2  0  0  0  0
 18 19  1  0  0  0  0
 18 38  1  0  0  0  0
 20 21  1  0  0  0  0
 20 39  1  0  0  0  0
 20 40  1  0  0  0  0
 21 22  1  0  0  0  0
 21 23  1  0  0  0  0
 21 41  1  0  0  0  0
 22 42  1  0  0  0  0
 22 43  1  0  0  0  0
 22 44  1  0  0  0  0
M  END
> <s_m_source_file>
AV-unprocessed.smi

> <i_m_source_file_index>
1824

> <i_lp_mmshare_version>
43012

> <i_f3d_flags>
0

> <s_epik_input>
W0NIM11bQ0BASF0xW0NIMl1OKFtDSDJdW0NASF0oTzEpW0NIM10pW0NIMl1bQ0BIXShbT0hdKVtDSDJdbihbY0hdbjIpYyhjMjMpW2NIXWMoRiljKEYpW2NIXTM=

> <s_epik_cmdline>
J2VwaWtfcHl0aG9uJywgJy1waCcsICc3LjAnLCAnLXRuJywgJzgnLCAnLW1hJywgJzIwMCcsICctbWV0YWxfYmluZGluZycsICctaW1hZScsICc8aW5maWxlLm1hZT4nLCAnLW9tYWUnLCAnPG91dGZpbGUubWFlPic=

> <r_epik_Ionization_Penalty>
0.273778

> <r_epik_Ionization_Penalty_Charging>
0

> <r_epik_Ionization_Penalty_Neutral>
0.273778

> <r_epik_State_Penalty>
0.246794

> <r_epik_Charging_Adjusted_Penalty>
0.246794

> <i_epik_Tot_Q>
0

> <i_epik_Tot_abs_Q>
0

> <r_epik_Metal_State_Penalty>
0.238234

> <b_epik_Metal_Only>
0

> <s_lp_Force_Field>
OPLS_2005

> <r_lp_Energy>
30.0542

> <b_lp_Chiralities_Consistent>
1

> <s_lp_Variant>
AV-unprocessed.smi:1824-6

> <Gold.Version>
5.8.1

> <Gold.Id.Protein>
6NUR|6NUR_protein|mol2

> <Gold.PLP.Fitness>
49.1000

> <Gold.PLP.PLP>
-42.1052

> <Gold.PLP.part.hbond>
-3.4321

> <Gold.PLP.part.metal>
0.0000

> <Gold.PLP.part.buried>
-2.8672

> <Gold.PLP.part.nonpolar>
-35.5324

> <Gold.PLP.part.repulsive>
0.1420

> <Gold.PLP.ligand.clash>
0.0000

> <Gold.PLP.ligand.torsion>
0.6901

> <Gold.PLP.Chemscore.Hbond>
2.7910

> <Gold.PLP.Chemscore.CHOScore>
0.0000

> <Gold.PLP.Chemscore.Metal>
0.0000

> <Gold.Chemscore.Hbonds>
donor molecule, donor type, donor heavy atom, donor atom, acceptor molecule, acceptor atom, score
      L1  H     7    33       P1  7957  0.51
      P1  H  7989  7998       L1     7  0.38
      P1  H  7997  8009       L1    11  0.81
      P1  H  8011  8017       L1     7  0.86

> <Gold.PLP.Chemscore.Internal.Correction>
0.0019

> <Gold.Rescore>
     Score         DG    S(hbond)    S(metal)    S(lipo)     H(rot)  DE(clash)    DE(int)     intcor
     14.16     -16.33       2.04        0.00      84.06       2.26       1.35       0.83       ----

> <Gold.Chemscore.Fitness>
14.1560

> <Gold.Chemscore.DG>
-16.3341

> <Gold.Chemscore.ZeroCoef>
-5.4800

> <Gold.Chemscore.Hbond>
2.0386

> <Gold.Chemscore.Metal>
0.0000

> <Gold.Chemscore.Lipo>
84.0641

> <Gold.Chemscore.Internal_Hbond>
0.0000

> <Gold.Chemscore.DEClash>
1.3455

> <Gold.Chemscore.DEInternal>
0.8326

> <Gold.Chemscore.Rot>
2.2619

> <Gold.Chemscore.Internal.Correction>
   9.000000E+99

> <Gold.Chemscore.Hbonds>
donor molecule, donor type, donor heavy atom, donor atom, acceptor molecule, acceptor atom, score
      L1  H     7    33       P1  7957  0.50
      P1  H  7989  7998       L1     7  0.39
      P1  H  7997  8009       L1    11  0.21
      P1  H  8011  8017       L1     7  0.12

> <Gold.Chemscore.Hbond.Weighted>
-6.8090

> <Gold.Chemscore.Metal.Weighted>
-0.0000

> <Gold.Chemscore.Lipo.Weighted>
-9.8355

> <Gold.Chemscore.Internal_Hbond.Weighted>
0.0000

> <Gold.Chemscore.DEClash.Weighted>
1.3455

> <Gold.Chemscore.DEInternal.Weighted>
0.8326

> <Gold.Chemscore.Rot.Weighted>
5.7904

> <Gold.Chemscore.Internal.Correction.Weighted>
   9.000000E+99

> <Gold.Protein.RotatedTorsions>
[ 6907 6896 6895 6894 ] final   49.85 input  -60.11 | X-H torsion
[ 7974 7965 7964 7962 ] final -179.27 input  175.53 | X-H torsion
[ 8008 7997 7996 7995 ] final -176.84 input   59.86 | X-H torsion
[ 10167 10162 10161 10158 ] final   98.93 input  -65.29 | X-H torsion
[ 10718 10713 10712 10709 ] final   13.22 input   66.30 | X-H torsion
[ 10763 10752 10751 10750 ] final  179.20 input  -60.55 | X-H torsion
[ 11005 11000 10999 10996 ] final  115.96 input  -57.11 | X-H torsion

> <Gold.Protein.ActiveResidues>
 VAL166  LYS551  ARG553  GLY616  TRP617  ASP618  TYR619  PRO620  LYS621  CYS622 
 ASP623  PHE694  ASN695  SER759  ASP760  ASP761  ALA762  ILE779  LEU786  VAL792 
 PHE793  MET794  SER795  GLU796  ALA797  LYS798  CYS799  TRP800  GLU811  SER814 

> <Gold.Protein.RotatedAtoms>
  152.2953  134.7674  160.0369 H   0  0  0  0  0  0  0  0  0  0  0  0  # atno 6907 bound_to 6896
  151.8206  133.3389  159.3591 H   0  0  0  0  0  0  0  0  0  0  0  0  # atno 6908 bound_to 6896
  150.7249  134.5507  159.5837 H   0  0  0  0  0  0  0  0  0  0  0  0  # atno 6909 bound_to 6896
  144.7135  140.0743  143.6428 H   0  0  0  0  0  0  0  0  0  0  0  0  # atno 7974 bound_to 7965
  155.9997  140.1218  157.0559 H   0  0  0  0  0  0  0  0  0  0  0  0  # atno 8008 bound_to 7997
  154.4238  140.1109  156.5749 H   0  0  0  0  0  0  0  0  0  0  0  0  # atno 8009 bound_to 7997
  155.6229  140.3472  155.4660 H   0  0  0  0  0  0  0  0  0  0  0  0  # atno 8010 bound_to 7997
  139.7664  144.6937  151.0219 H   0  0  0  0  0  0  0  0  0  0  0  0  # atno 10167 bound_to 10162
  157.0215  130.6156  149.5722 H   0  0  0  0  0  0  0  0  0  0  0  0  # atno 10718 bound_to 10713
  154.5176  135.2792  155.1290 H   0  0  0  0  0  0  0  0  0  0  0  0  # atno 10763 bound_to 10752
  154.2860  135.6276  153.5370 H   0  0  0  0  0  0  0  0  0  0  0  0  # atno 10764 bound_to 10752
  152.9930  135.5662  154.5657 H   0  0  0  0  0  0  0  0  0  0  0  0  # atno 10765 bound_to 10752
  139.9026  134.9591  156.7125 H   0  0  0  0  0  0  0  0  0  0  0  0  # atno 11005 bound_to 11000
  145.9757  139.2903  143.1072 LP  0  0  0  0  0  0  0  0  0  0  0  0  # atno 17320 bound_to 7965
  145.9067  140.9207  143.0475 LP  0  0  0  0  0  0  0  0  0  0  0  0  # atno 17321 bound_to 7965
  140.7811  143.4638  151.0240 LP  0  0  0  0  0  0  0  0  0  0  0  0  # atno 17342 bound_to 10162
  139.8323  143.7674  152.3180 LP  0  0  0  0  0  0  0  0  0  0  0  0  # atno 17343 bound_to 10162
  156.0101  130.5191  150.7959 LP  0  0  0  0  0  0  0  0  0  0  0  0  # atno 17370 bound_to 10713
  157.5246  131.0933  151.0034 LP  0  0  0  0  0  0  0  0  0  0  0  0  # atno 17371 bound_to 10713
  140.7064  133.9261  155.8056 LP  0  0  0  0  0  0  0  0  0  0  0  0  # atno 17394 bound_to 11000
  141.0333  134.0725  157.3989 LP  0  0  0  0  0  0  0  0  0  0  0  0  # atno 17395 bound_to 11000

$$$$
