AV-unprocessed.smi:686|AV-procd|sdf|3352|dock6
  -GOLD-   22720 0323D 1   1.00000     0.00000
 Structure written by MMmdl.
 40 41  0  0  0  0  0  0  0  0  3 V2000
  149.6029  132.5908  155.3468 C   0  0  0  0  0  0  0  0  0  0  0  0
  149.7347  134.0772  155.7328 C   0  0  1  0  0  0  0  0  0  0  0  0
  150.5966  134.8881  154.7491 C   0  0  0  0  0  0  0  0  0  0  0  0
  149.9680  136.2269  154.6104 N   0  3  2  0  0  0  0  0  0  0  0  0
  150.9135  137.3790  154.5881 C   0  0  0  0  0  0  0  0  0  0  0  0
  151.7141  137.4837  155.9004 C   0  0  0  0  0  0  0  0  0  0  0  0
  150.1691  138.7032  154.3332 C   0  0  0  0  0  0  0  0  0  0  0  0
  148.8927  136.3030  155.6223 C   0  0  0  0  0  0  0  0  0  0  0  0
  148.4162  134.8614  155.8039 C   0  0  2  0  0  0  0  0  0  0  0  0
  147.7485  134.6609  157.0813 N   0  5  0  0  0  0  0  0  0  0  0  0
  148.6252  134.4439  158.4298 S   0  0  0  0  0  0  0  0  0  0  0  0
  149.3715  133.1746  158.4196 O   0  0  0  0  0  0  0  0  0  0  0  0
  149.3696  135.6567  158.8050 O   0  0  0  0  0  0  0  0  0  0  0  0
  147.2877  134.2601  159.6895 C   0  0  0  0  0  0  0  0  0  0  0  0
  147.4724  135.2530  160.8050 C   0  0  0  0  0  0  0  0  0  0  0  0
  147.5431  135.0066  162.2046 C   0  0  0  0  0  0  0  0  0  0  0  0
  147.7130  136.2502  162.7403 C   0  0  0  0  0  0  0  0  0  0  0  0
  147.7380  137.1894  161.7616 O   0  0  0  0  0  0  0  0  0  0  0  0
  147.5796  136.5439  160.5299 N   0  0  0  0  0  0  0  0  0  0  0  0
  149.1499  132.4579  154.3626 H   0  0  0  0  0  0  0  0  0  0  0  0
  149.0020  132.0353  156.0690 H   0  0  0  0  0  0  0  0  0  0  0  0
  150.5843  132.1169  155.3172 H   0  0  0  0  0  0  0  0  0  0  0  0
  150.2228  134.1326  156.7082 H   0  0  0  0  0  0  0  0  0  0  0  0
  151.6182  134.9531  155.1271 H   0  0  0  0  0  0  0  0  0  0  0  0
  150.6434  134.4221  153.7632 H   0  0  0  0  0  0  0  0  0  0  0  0
  151.6213  137.2199  153.7730 H   0  0  0  0  0  0  0  0  0  0  0  0
  152.3646  138.3588  155.8923 H   0  0  0  0  0  0  0  0  0  0  0  0
  152.3562  136.6171  156.0588 H   0  0  0  0  0  0  0  0  0  0  0  0
  151.0523  137.5727  156.7629 H   0  0  0  0  0  0  0  0  0  0  0  0
  150.8599  139.5469  154.3428 H   0  0  0  0  0  0  0  0  0  0  0  0
  149.4145  138.8862  155.0991 H   0  0  0  0  0  0  0  0  0  0  0  0
  149.6696  138.7156  153.3647 H   0  0  0  0  0  0  0  0  0  0  0  0
  149.2991  136.6933  156.5578 H   0  0  0  0  0  0  0  0  0  0  0  0
  148.0875  136.9624  155.2970 H   0  0  0  0  0  0  0  0  0  0  0  0
  147.7897  134.5846  154.9546 H   0  0  0  0  0  0  0  0  0  0  0  0
  146.3353  134.4205  159.1839 H   0  0  0  0  0  0  0  0  0  0  0  0
  147.2915  133.2347  160.0582 H   0  0  0  0  0  0  0  0  0  0  0  0
  147.4849  134.0643  162.7290 H   0  0  0  0  0  0  0  0  0  0  0  0
  147.8249  136.6142  163.7510 H   0  0  0  0  0  0  0  0  0  0  0  0
  149.4941  136.2155  153.7186 H   0  0  0  0  0  0  0  0  0  0  0  0
  1  2  1  0  0  0  0
  1 20  1  0  0  0  0
  1 21  1  0  0  0  0
  1 22  1  0  0  0  0
  2  9  1  0  0  0  0
  2  3  1  0  0  0  0
  2 23  1  0  0  0  0
  3  4  1  0  0  0  0
  3 24  1  0  0  0  0
  3 25  1  0  0  0  0
  4  5  1  0  0  0  0
  4  8  1  0  0  0  0
  4 40  1  0  0  0  0
  5  6  1  0  0  0  0
  5  7  1  0  0  0  0
  5 26  1  0  0  0  0
  6 27  1  0  0  0  0
  6 28  1  0  0  0  0
  6 29  1  0  0  0  0
  7 30  1  0  0  0  0
  7 31  1  0  0  0  0
  7 32  1  0  0  0  0
  8  9  1  0  0  0  0
  8 33  1  0  0  0  0
  8 34  1  0  0  0  0
  9 10  1  0  0  0  0
  9 35  1  0  0  0  0
 10 11  1  0  0  0  0
 11 12  2  0  0  0  0
 11 13  2  0  0  0  0
 11 14  1  0  0  0  0
 14 15  1  0  0  0  0
 14 36  1  0  0  0  0
 14 37  1  0  0  0  0
 15 19  2  0  0  0  0
 15 16  1  0  0  0  0
 16 17  2  0  0  0  0
 16 38  1  0  0  0  0
 17 18  1  0  0  0  0
 17 39  1  0  0  0  0
 18 19  1  0  0  0  0
M  CHG  1   4   1
M  CHG  1  10  -1
M  END
> <s_m_source_file>
AV-unprocessed.smi

> <i_m_source_file_index>
686

> <i_lp_mmshare_version>
43012

> <i_f3d_flags>
0

> <s_epik_input>
W0NIM11bQ0BASF0xW0NIMl1OKFtDSF0oW0NIM10pW0NIM10pW0NIMl1bQ0BIXTFbTkhdUyg9TykoPU8pW0NIMl1jMltjSF1bY0hdb24y

> <s_epik_cmdline>
J2VwaWtfcHl0aG9uJywgJy1waCcsICc3LjAnLCAnLXRuJywgJzgnLCAnLW1hJywgJzIwMCcsICctbWV0YWxfYmluZGluZycsICctaW1hZScsICc8aW5maWxlLm1hZT4nLCAnLW9tYWUnLCAnPG91dGZpbGUubWFlPic=

> <r_epik_Ionization_Penalty>
3.62478

> <r_epik_Ionization_Penalty_Charging>
3.62478

> <r_epik_Ionization_Penalty_Neutral>
2.03645e-10

> <r_epik_State_Penalty>
3.6247

> <r_epik_Charging_Adjusted_Penalty>
7.24949

> <i_epik_Tot_Q>
0

> <i_epik_Tot_abs_Q>
2

> <r_epik_Metal_State_Penalty>
0.530836

> <b_epik_Metal_Only>
1

> <s_lp_Force_Field>
OPLS_2005

> <r_lp_Energy>
17.1192

> <b_lp_Chiralities_Consistent>
1

> <s_lp_Variant>
AV-unprocessed.smi:686-16

> <Gold.Version>
5.8.1

> <Gold.Id.Protein>
6NUR|6NUR_protein|mol2

> <Gold.PLP.Fitness>
42.6344

> <Gold.PLP.PLP>
-30.6215

> <Gold.PLP.part.hbond>
-5.0000

> <Gold.PLP.part.metal>
0.0000

> <Gold.PLP.part.buried>
-4.3256

> <Gold.PLP.part.nonpolar>
-21.6137

> <Gold.PLP.part.repulsive>
0.0415

> <Gold.PLP.ligand.clash>
0.0000

> <Gold.PLP.ligand.torsion>
1.0604

> <Gold.PLP.Chemscore.Hbond>
4.3645

> <Gold.PLP.Chemscore.CHOScore>
0.0000

> <Gold.PLP.Chemscore.Metal>
0.0000

> <Gold.Chemscore.Hbonds>
donor molecule, donor type, donor heavy atom, donor atom, acceptor molecule, acceptor atom, score
      L1  H     4    40       P1  7948  2.00
      P1  H  6896  6907       L1    13  0.15
      P1  H  6896  6909       L1    12  1.00
      P1  H  6931  6943       L1    18  1.00
      P1  H  6934  6947       L1    18  0.35

> <Gold.PLP.Chemscore.Internal.Correction>
1.0402

> <Gold.Rescore>
     Score         DG    S(hbond)    S(metal)    S(lipo)     H(rot)  DE(clash)    DE(int)     intcor
     14.45     -18.79       2.74        0.00      70.89       1.61       0.07       4.28       ----

> <Gold.Chemscore.Fitness>
14.4515

> <Gold.Chemscore.DG>
-18.7945

> <Gold.Chemscore.ZeroCoef>
-5.4800

> <Gold.Chemscore.Hbond>
2.7408

> <Gold.Chemscore.Metal>
0.0000

> <Gold.Chemscore.Lipo>
70.8930

> <Gold.Chemscore.Internal_Hbond>
0.0000

> <Gold.Chemscore.DEClash>
0.0672

> <Gold.Chemscore.DEInternal>
4.2759

> <Gold.Chemscore.Rot>
1.6149

> <Gold.Chemscore.Internal.Correction>
   9.000000E+99

> <Gold.Chemscore.Hbonds>
donor molecule, donor type, donor heavy atom, donor atom, acceptor molecule, acceptor atom, score
      L1  H     4    40       P1  7948  0.65
      P1  H  6896  6907       L1    13  0.12
      P1  H  6896  6909       L1    12  0.43
      P1  H  6931  6943       L1    18  0.79
      P1  H  6934  6947       L1    18  0.02

> <Gold.Chemscore.Hbond.Weighted>
-9.1542

> <Gold.Chemscore.Metal.Weighted>
-0.0000

> <Gold.Chemscore.Lipo.Weighted>
-8.2945

> <Gold.Chemscore.Internal_Hbond.Weighted>
0.0000

> <Gold.Chemscore.DEClash.Weighted>
0.0672

> <Gold.Chemscore.DEInternal.Weighted>
4.2759

> <Gold.Chemscore.Rot.Weighted>
4.1341

> <Gold.Chemscore.Internal.Correction.Weighted>
   9.000000E+99

> <Gold.Protein.RotatedTorsions>
[ 6907 6896 6895 6894 ] final  -15.86 input  -60.11 | X-H torsion
[ 7974 7965 7964 7962 ] final  -57.38 input  175.53 | X-H torsion
[ 8008 7997 7996 7995 ] final -100.55 input   59.86 | X-H torsion
[ 10167 10162 10161 10158 ] final  -33.22 input  -65.29 | X-H torsion
[ 10718 10713 10712 10709 ] final -178.04 input   66.30 | X-H torsion
[ 10763 10752 10751 10750 ] final  -18.15 input  -60.55 | X-H torsion
[ 11005 11000 10999 10996 ] final    5.35 input  -57.11 | X-H torsion

> <Gold.Protein.ActiveResidues>
 VAL166  LYS551  ARG553  GLY616  TRP617  ASP618  TYR619  PRO620  LYS621  CYS622 
 ASP623  PHE694  ASN695  SER759  ASP760  ASP761  ALA762  ILE779  LEU786  VAL792 
 PHE793  MET794  SER795  GLU796  ALA797  LYS798  CYS799  TRP800  GLU811  SER814 

> <Gold.Protein.RotatedAtoms>
  151.3175  135.0810  159.9293 H   0  0  0  0  0  0  0  0  0  0  0  0  # atno 6907 bound_to 6896
  152.5264  133.9673  159.7755 H   0  0  0  0  0  0  0  0  0  0  0  0  # atno 6908 bound_to 6896
  150.9988  133.6025  159.2728 H   0  0  0  0  0  0  0  0  0  0  0  0  # atno 6909 bound_to 6896
  145.8517  140.8347  142.9982 H   0  0  0  0  0  0  0  0  0  0  0  0  # atno 7974 bound_to 7965
  154.8302  140.0440  157.1471 H   0  0  0  0  0  0  0  0  0  0  0  0  # atno 8008 bound_to 7997
  154.9161  140.3020  155.5220 H   0  0  0  0  0  0  0  0  0  0  0  0  # atno 8009 bound_to 7997
  156.2986  140.2349  156.4206 H   0  0  0  0  0  0  0  0  0  0  0  0  # atno 8010 bound_to 7997
  140.7208  143.3636  151.1913 H   0  0  0  0  0  0  0  0  0  0  0  0  # atno 10167 bound_to 10162
  156.8383  130.9677  151.3102 H   0  0  0  0  0  0  0  0  0  0  0  0  # atno 10718 bound_to 10713
  153.5848  135.7004  153.5448 H   0  0  0  0  0  0  0  0  0  0  0  0  # atno 10763 bound_to 10752
  153.3229  135.4069  155.1431 H   0  0  0  0  0  0  0  0  0  0  0  0  # atno 10764 bound_to 10752
  154.8611  135.3700  154.5378 H   0  0  0  0  0  0  0  0  0  0  0  0  # atno 10765 bound_to 10752
  140.5717  134.0096  155.8011 H   0  0  0  0  0  0  0  0  0  0  0  0  # atno 11005 bound_to 11000
  144.6729  140.0963  143.7462 LP  0  0  0  0  0  0  0  0  0  0  0  0  # atno 17320 bound_to 7965
  145.9349  139.2631  143.1303 LP  0  0  0  0  0  0  0  0  0  0  0  0  # atno 17321 bound_to 7965
  139.7194  143.9248  152.2979 LP  0  0  0  0  0  0  0  0  0  0  0  0  # atno 17342 bound_to 10162
  139.9000  144.6917  150.8676 LP  0  0  0  0  0  0  0  0  0  0  0  0  # atno 17343 bound_to 10162
  157.6369  130.8774  149.9376 LP  0  0  0  0  0  0  0  0  0  0  0  0  # atno 17370 bound_to 10713
  156.0895  130.3665  150.0423 LP  0  0  0  0  0  0  0  0  0  0  0  0  # atno 17371 bound_to 10713
  141.1052  133.9705  157.3010 LP  0  0  0  0  0  0  0  0  0  0  0  0  # atno 17394 bound_to 11000
  139.9358  135.0196  156.8552 LP  0  0  0  0  0  0  0  0  0  0  0  0  # atno 17395 bound_to 11000

$$$$
