AV-unprocessed.smi:960|AV-procd|sdf|4273|dock5
  -GOLD-   22720 2183D 1   1.00000     0.00000
 Structure written by MMmdl.
 45 46  0  0  0  0  0  0  0  0  1 V2000
  149.6113  141.8847  157.2061 C   0  0  0  0  0  0  0  0  0  0  0  0
  150.9364  141.9627  157.4112 C   0  0  0  0  0  0  0  0  0  0  0  0
  151.5849  143.1923  158.0193 C   0  0  0  0  0  0  0  0  0  0  0  0
  151.8718  140.8120  157.0689 C   0  0  0  0  0  0  0  0  0  0  0  0
  151.2203  139.7306  156.3294 N   0  0  0  0  0  0  0  0  0  0  0  0
  150.8440  138.6234  157.2155 C   0  0  0  0  0  0  0  0  0  0  0  0
  150.0991  137.5335  156.4251 C   0  0  0  0  0  0  0  0  0  0  0  0
  150.9541  137.0027  155.2648 C   0  0  0  0  0  0  0  0  0  0  0  0
  150.1691  136.0751  154.4559 N   0  0  0  0  0  0  0  0  0  0  0  0
  149.8796  134.8104  154.7923 C   0  0  0  0  0  0  0  0  0  0  0  0
  150.2288  134.2881  155.8505 O   0  0  0  0  0  0  0  0  0  0  0  0
  149.1506  134.2065  153.8416 N   0  0  0  0  0  0  0  0  0  0  0  0
  148.6951  132.8643  153.8397 C   0  0  0  0  0  0  0  0  0  0  0  0
  149.2239  131.7242  154.5141 C   0  0  0  0  0  0  0  0  0  0  0  0
  150.4103  131.5758  155.4254 C   0  0  0  0  0  0  0  0  0  0  0  0
  148.5144  130.6490  154.2042 N   0  0  0  0  0  0  0  0  0  0  0  0
  147.5299  131.0632  153.2942 O   0  0  0  0  0  0  0  0  0  0  0  0
  147.6680  132.3966  153.0742 C   0  0  0  0  0  0  0  0  0  0  0  0
  146.7202  133.0259  152.1100 C   0  0  0  0  0  0  0  0  0  0  0  0
  151.4448  138.1891  154.4173 C   0  0  0  0  0  0  0  0  0  0  0  0
  152.1352  139.2482  155.2935 C   0  0  0  0  0  0  0  0  0  0  0  0
  148.9550  142.7040  157.4606 H   0  0  0  0  0  0  0  0  0  0  0  0
  149.1624  140.9997  156.7796 H   0  0  0  0  0  0  0  0  0  0  0  0
  152.1168  142.9259  158.9324 H   0  0  0  0  0  0  0  0  0  0  0  0
  150.8429  143.9513  158.2685 H   0  0  0  0  0  0  0  0  0  0  0  0
  152.2982  143.6344  157.3232 H   0  0  0  0  0  0  0  0  0  0  0  0
  152.6893  141.2166  156.4707 H   0  0  0  0  0  0  0  0  0  0  0  0
  152.3161  140.4158  157.9836 H   0  0  0  0  0  0  0  0  0  0  0  0
  151.7331  138.2070  157.6918 H   0  0  0  0  0  0  0  0  0  0  0  0
  150.1925  138.9793  158.0136 H   0  0  0  0  0  0  0  0  0  0  0  0
  149.8285  136.7154  157.0937 H   0  0  0  0  0  0  0  0  0  0  0  0
  149.1628  137.9435  156.0430 H   0  0  0  0  0  0  0  0  0  0  0  0
  151.8163  136.4793  155.6832 H   0  0  0  0  0  0  0  0  0  0  0  0
  149.8331  136.4198  153.5685 H   0  0  0  0  0  0  0  0  0  0  0  0
  148.8234  134.7863  153.0826 H   0  0  0  0  0  0  0  0  0  0  0  0
  151.2139  132.2553  155.1418 H   0  0  0  0  0  0  0  0  0  0  0  0
  150.8156  130.5639  155.3923 H   0  0  0  0  0  0  0  0  0  0  0  0
  150.1386  131.7877  156.4594 H   0  0  0  0  0  0  0  0  0  0  0  0
  146.9809  134.0682  151.9260 H   0  0  0  0  0  0  0  0  0  0  0  0
  145.7015  132.9960  152.4964 H   0  0  0  0  0  0  0  0  0  0  0  0
  146.7357  132.5009  151.1549 H   0  0  0  0  0  0  0  0  0  0  0  0
  152.1374  137.8428  153.6496 H   0  0  0  0  0  0  0  0  0  0  0  0
  150.6048  138.6467  153.8924 H   0  0  0  0  0  0  0  0  0  0  0  0
  152.4485  140.0828  154.6649 H   0  0  0  0  0  0  0  0  0  0  0  0
  153.0365  138.8346  155.7491 H   0  0  0  0  0  0  0  0  0  0  0  0
  1  2  2  0  0  0  0
  1 22  1  0  0  0  0
  1 23  1  0  0  0  0
  2  3  1  0  0  0  0
  2  4  1  0  0  0  0
  3 24  1  0  0  0  0
  3 25  1  0  0  0  0
  3 26  1  0  0  0  0
  4  5  1  0  0  0  0
  4 27  1  0  0  0  0
  4 28  1  0  0  0  0
  5 21  1  0  0  0  0
  5  6  1  0  0  0  0
  6  7  1  0  0  0  0
  6 29  1  0  0  0  0
  6 30  1  0  0  0  0
  7  8  1  0  0  0  0
  7 31  1  0  0  0  0
  7 32  1  0  0  0  0
  8  9  1  0  0  0  0
  8 20  1  0  0  0  0
  8 33  1  0  0  0  0
  9 10  1  0  0  0  0
  9 34  1  0  0  0  0
 10 11  2  0  0  0  0
 10 12  1  0  0  0  0
 12 13  1  0  0  0  0
 12 35  1  0  0  0  0
 13 18  2  0  0  0  0
 13 14  1  0  0  0  0
 14 15  1  0  0  0  0
 14 16  2  0  0  0  0
 15 36  1  0  0  0  0
 15 37  1  0  0  0  0
 15 38  1  0  0  0  0
 16 17  1  0  0  0  0
 17 18  1  0  0  0  0
 18 19  1  0  0  0  0
 19 39  1  0  0  0  0
 19 40  1  0  0  0  0
 19 41  1  0  0  0  0
 20 21  1  0  0  0  0
 20 42  1  0  0  0  0
 20 43  1  0  0  0  0
 21 44  1  0  0  0  0
 21 45  1  0  0  0  0
M  END
> <s_m_source_file>
AV-unprocessed.smi

> <i_m_source_file_index>
960

> <i_lp_mmshare_version>
43012

> <i_f3d_flags>
0

> <s_epik_input>
W0NIMl09QyhbQ0gzXSlbQ0gyXU4xW0NIMl1bQ0gyXVtDSF0oW0NIMl1bQ0gyXTEpW05IXUMoPU8pW05IXWMyYyhbQ0gzXSlub2MyW0NIM10=

> <s_epik_cmdline>
J2VwaWtfcHl0aG9uJywgJy1waCcsICc3LjAnLCAnLXRuJywgJzgnLCAnLW1hJywgJzIwMCcsICctbWV0YWxfYmluZGluZycsICctaW1hZScsICc8aW5maWxlLm1hZT4nLCAnLW9tYWUnLCAnPG91dGZpbGUubWFlPic=

> <r_epik_Ionization_Penalty>
2.03694

> <r_epik_Ionization_Penalty_Charging>
0

> <r_epik_Ionization_Penalty_Neutral>
2.03694

> <r_epik_State_Penalty>
2.16834

> <r_epik_Charging_Adjusted_Penalty>
2.16834

> <i_epik_Tot_Q>
0

> <i_epik_Tot_abs_Q>
0

> <r_epik_Metal_State_Penalty>
2.16834

> <b_epik_Metal_Only>
0

> <s_lp_Force_Field>
OPLS_2005

> <r_lp_Energy>
16.835

> <b_lp_Chiralities_Consistent>
1

> <s_lp_Variant>
AV-unprocessed.smi:960-3

> <Gold.Version>
5.8.1

> <Gold.Id.Protein>
6NUR|6NUR_protein|mol2

> <Gold.PLP.Fitness>
38.8165

> <Gold.PLP.PLP>
-34.7639

> <Gold.PLP.part.hbond>
-2.8252

> <Gold.PLP.part.metal>
0.0000

> <Gold.PLP.part.buried>
-4.2933

> <Gold.PLP.part.nonpolar>
-27.5634

> <Gold.PLP.part.repulsive>
0.2729

> <Gold.PLP.ligand.clash>
0.0000

> <Gold.PLP.ligand.torsion>
0.9465

> <Gold.PLP.Chemscore.Hbond>
1.9000

> <Gold.PLP.Chemscore.CHOScore>
0.0000

> <Gold.PLP.Chemscore.Metal>
0.0000

> <Gold.Chemscore.Hbonds>
donor molecule, donor type, donor heavy atom, donor atom, acceptor molecule, acceptor atom, score
      L1  H     9    34       P1  7948  1.00
      L1  H    12    35       P1  7948  0.90

> <Gold.PLP.Chemscore.Internal.Correction>
0.2456

> <Gold.Rescore>
     Score         DG    S(hbond)    S(metal)    S(lipo)     H(rot)  DE(clash)    DE(int)     intcor
     13.25     -16.09       1.32        0.00      81.96       1.32       0.05       2.80       ----

> <Gold.Chemscore.Fitness>
13.2452

> <Gold.Chemscore.DG>
-16.0924

> <Gold.Chemscore.ZeroCoef>
-5.4800

> <Gold.Chemscore.Hbond>
1.3199

> <Gold.Chemscore.Metal>
0.0000

> <Gold.Chemscore.Lipo>
81.9608

> <Gold.Chemscore.Internal_Hbond>
0.0000

> <Gold.Chemscore.DEClash>
0.0506

> <Gold.Chemscore.DEInternal>
2.7966

> <Gold.Chemscore.Rot>
1.3225

> <Gold.Chemscore.Internal.Correction>
   9.000000E+99

> <Gold.Chemscore.Hbonds>
donor molecule, donor type, donor heavy atom, donor atom, acceptor molecule, acceptor atom, score
      L1  H     9    34       P1  7948  0.25
      L1  H    12    35       P1  7948  0.17

> <Gold.Chemscore.Hbond.Weighted>
-4.4086

> <Gold.Chemscore.Metal.Weighted>
-0.0000

> <Gold.Chemscore.Lipo.Weighted>
-9.5894

> <Gold.Chemscore.Internal_Hbond.Weighted>
0.0000

> <Gold.Chemscore.DEClash.Weighted>
0.0506

> <Gold.Chemscore.DEInternal.Weighted>
2.7966

> <Gold.Chemscore.Rot.Weighted>
3.3856

> <Gold.Chemscore.Internal.Correction.Weighted>
   9.000000E+99

> <Gold.Protein.RotatedTorsions>
[ 6907 6896 6895 6894 ] final  132.48 input  -60.11 | X-H torsion
[ 7974 7965 7964 7962 ] final  -11.69 input  175.53 | X-H torsion
[ 8008 7997 7996 7995 ] final -161.31 input   59.86 | X-H torsion
[ 10167 10162 10161 10158 ] final -163.55 input  -65.29 | X-H torsion
[ 10718 10713 10712 10709 ] final    6.15 input   66.30 | X-H torsion
[ 10763 10752 10751 10750 ] final -149.72 input  -60.55 | X-H torsion
[ 11005 11000 10999 10996 ] final -120.76 input  -57.11 | X-H torsion

> <Gold.Protein.ActiveResidues>
 VAL166  LYS551  ARG553  GLY616  TRP617  ASP618  TYR619  PRO620  LYS621  CYS622 
 ASP623  PHE694  ASN695  SER759  ASP760  ASP761  ALA762  ILE779  LEU786  VAL792 
 PHE793  MET794  SER795  GLU796  ALA797  LYS798  CYS799  TRP800  GLU811  SER814 

> <Gold.Protein.RotatedAtoms>
  152.3319  133.5968  159.5815 H   0  0  0  0  0  0  0  0  0  0  0  0  # atno 6907 bound_to 6896
  150.7428  133.9855  159.3599 H   0  0  0  0  0  0  0  0  0  0  0  0  # atno 6908 bound_to 6896
  151.7729  135.0782  160.0413 H   0  0  0  0  0  0  0  0  0  0  0  0  # atno 6909 bound_to 6896
  146.2178  140.2948  142.8371 H   0  0  0  0  0  0  0  0  0  0  0  0  # atno 7974 bound_to 7965
  155.7903  140.0877  157.2012 H   0  0  0  0  0  0  0  0  0  0  0  0  # atno 8008 bound_to 7997
  154.3986  140.1491  156.3214 H   0  0  0  0  0  0  0  0  0  0  0  0  # atno 8009 bound_to 7997
  155.8565  140.3432  155.5730 H   0  0  0  0  0  0  0  0  0  0  0  0  # atno 8010 bound_to 7997
  139.6313  144.0434  152.2018 H   0  0  0  0  0  0  0  0  0  0  0  0  # atno 10167 bound_to 10162
  156.9179  130.5780  149.5647 H   0  0  0  0  0  0  0  0  0  0  0  0  # atno 10718 bound_to 10713
  154.8161  135.3302  154.7172 H   0  0  0  0  0  0  0  0  0  0  0  0  # atno 10763 bound_to 10752
  153.7813  135.6918  153.4892 H   0  0  0  0  0  0  0  0  0  0  0  0  # atno 10764 bound_to 10752
  153.1978  135.4527  155.0177 H   0  0  0  0  0  0  0  0  0  0  0  0  # atno 10765 bound_to 10752
  141.0120  134.0250  157.3400 H   0  0  0  0  0  0  0  0  0  0  0  0  # atno 11005 bound_to 11000
  144.9100  140.7746  143.5813 LP  0  0  0  0  0  0  0  0  0  0  0  0  # atno 17320 bound_to 7965
  145.2879  139.1894  143.4756 LP  0  0  0  0  0  0  0  0  0  0  0  0  # atno 17321 bound_to 7965
  140.0100  144.6230  150.7655 LP  0  0  0  0  0  0  0  0  0  0  0  0  # atno 17342 bound_to 10162
  140.7440  143.2855  151.3476 LP  0  0  0  0  0  0  0  0  0  0  0  0  # atno 17343 bound_to 10162
  156.0505  130.5575  150.8978 LP  0  0  0  0  0  0  0  0  0  0  0  0  # atno 17370 bound_to 10713
  157.5926  131.0944  150.9093 LP  0  0  0  0  0  0  0  0  0  0  0  0  # atno 17371 bound_to 10713
  139.9095  135.0187  156.7632 LP  0  0  0  0  0  0  0  0  0  0  0  0  # atno 17394 bound_to 11000
  140.6717  133.9553  155.7860 LP  0  0  0  0  0  0  0  0  0  0  0  0  # atno 17395 bound_to 11000

$$$$
