AV-unprocessed.smi:2093|AV-procd|sdf|8545|dock2
  -GOLD-   2272011263D 1   1.00000     0.00000
 Structure written by MMmdl.
 31 32  0  0  0  0  0  0  0  0  1 V2000
  145.7108  145.1895  161.5050 C   0  0  0  0  0  0  0  0  0  0  0  0
  146.2367  146.3751  160.6829 C   0  0  1  0  0  0  0  0  0  0  0  0
  147.4092  145.9397  159.9252 N   0  0  0  0  0  0  0  0  0  0  0  0
  148.5207  145.3934  160.4407 C   0  0  0  0  0  0  0  0  0  0  0  0
  148.6877  145.1920  161.6439 O   0  0  0  0  0  0  0  0  0  0  0  0
  149.4126  145.1100  159.4756 N   0  0  0  0  0  0  0  0  0  0  0  0
  150.7002  144.5282  159.6129 C   0  0  0  0  0  0  0  0  0  0  0  0
  151.2538  144.1868  160.7824 N   0  0  0  0  0  0  0  0  0  0  0  0
  152.5261  143.6331  160.6187 C   0  0  0  0  0  0  0  0  0  0  0  0
  152.9285  143.5605  159.3083 C   0  0  0  0  0  0  0  0  0  0  0  0
  151.7181  144.1874  158.2215 S   0  0  0  0  0  0  0  0  0  0  0  0
  145.1608  146.9382  159.7316 C   0  0  2  0  0  0  0  0  0  0  0  0
  144.7039  145.9771  158.6314 C   0  0  0  0  0  0  0  0  0  0  0  0
  144.1866  146.9350  157.5840 C   0  0  0  0  0  0  0  0  0  0  0  0
  145.1998  148.0709  157.6795 C   0  0  0  0  0  0  0  0  0  0  0  0
  145.6565  148.0770  159.0299 O   0  0  0  0  0  0  0  0  0  0  0  0
  144.8602  145.4833  162.1206 H   0  0  0  0  0  0  0  0  0  0  0  0
  146.4805  144.8047  162.1748 H   0  0  0  0  0  0  0  0  0  0  0  0
  145.3881  144.3701  160.8614 H   0  0  0  0  0  0  0  0  0  0  0  0
  146.5187  147.1613  161.3854 H   0  0  0  0  0  0  0  0  0  0  0  0
  147.3692  146.0694  158.9249 H   0  0  0  0  0  0  0  0  0  0  0  0
  149.1397  145.3392  158.5314 H   0  0  0  0  0  0  0  0  0  0  0  0
  153.0771  143.3161  161.4919 H   0  0  0  0  0  0  0  0  0  0  0  0
  153.8597  143.1772  158.9183 H   0  0  0  0  0  0  0  0  0  0  0  0
  144.2874  147.2587  160.3025 H   0  0  0  0  0  0  0  0  0  0  0  0
  145.5507  145.4145  158.2350 H   0  0  0  0  0  0  0  0  0  0  0  0
  143.9496  145.2666  158.9706 H   0  0  0  0  0  0  0  0  0  0  0  0
  144.1301  146.4958  156.5878 H   0  0  0  0  0  0  0  0  0  0  0  0
  143.1929  147.2907  157.8599 H   0  0  0  0  0  0  0  0  0  0  0  0
  146.0527  147.8759  157.0283 H   0  0  0  0  0  0  0  0  0  0  0  0
  144.7720  149.0335  157.3985 H   0  0  0  0  0  0  0  0  0  0  0  0
  1  2  1  0  0  0  0
  1 17  1  0  0  0  0
  1 18  1  0  0  0  0
  1 19  1  0  0  0  0
  2  3  1  0  0  0  0
  2 12  1  0  0  0  0
  2 20  1  0  0  0  0
  3  4  1  0  0  0  0
  3 21  1  0  0  0  0
  4  5  2  0  0  0  0
  4  6  1  0  0  0  0
  6  7  1  0  0  0  0
  6 22  1  0  0  0  0
  7 11  1  0  0  0  0
  7  8  2  0  0  0  0
  8  9  1  0  0  0  0
  9 10  2  0  0  0  0
  9 23  1  0  0  0  0
 10 11  1  0  0  0  0
 10 24  1  0  0  0  0
 12 16  1  0  0  0  0
 12 13  1  0  0  0  0
 12 25  1  0  0  0  0
 13 14  1  0  0  0  0
 13 26  1  0  0  0  0
 13 27  1  0  0  0  0
 14 15  1  0  0  0  0
 14 28  1  0  0  0  0
 14 29  1  0  0  0  0
 15 16  1  0  0  0  0
 15 30  1  0  0  0  0
 15 31  1  0  0  0  0
M  END
> <s_m_source_file>
AV-unprocessed.smi

> <i_m_source_file_index>
2093

> <i_lp_mmshare_version>
43012

> <i_f3d_flags>
0

> <s_epik_input>
TzFbQ0gyXVtDSDJdW0NIMl1bQ0BIXTFbQ0BIXShbQ0gzXSlbTkhdQyg9TylbTkhdYzJuW2NIXVtjSF1zMg==

> <s_epik_cmdline>
J2VwaWtfcHl0aG9uJywgJy1waCcsICc3LjAnLCAnLXRuJywgJzgnLCAnLW1hJywgJzIwMCcsICctbWV0YWxfYmluZGluZycsICctaW1hZScsICc8aW5maWxlLm1hZT4nLCAnLW9tYWUnLCAnPG91dGZpbGUubWFlPic=

> <r_lp_tautomer_probability>
0.999

> <r_epik_Ionization_Penalty>
0.000334433

> <r_epik_Ionization_Penalty_Charging>
0

> <r_epik_Ionization_Penalty_Neutral>
0.000334433

> <r_epik_State_Penalty>
0.000177984

> <r_epik_Charging_Adjusted_Penalty>
0.000177984

> <i_epik_Tot_Q>
0

> <i_epik_Tot_abs_Q>
0

> <r_epik_Metal_State_Penalty>
0.00767616

> <b_epik_Metal_Only>
0

> <s_lp_Force_Field>
OPLS_2005

> <r_lp_Energy>
15.8348

> <b_lp_Chiralities_Consistent>
1

> <s_lp_Variant>
AV-unprocessed.smi:2093-2

> <Gold.Version>
5.8.1

> <Gold.Id.Protein>
6NUR|6NUR_protein|mol2

> <Gold.PLP.Fitness>
42.1725

> <Gold.PLP.PLP>
-33.5591

> <Gold.PLP.part.hbond>
-3.4776

> <Gold.PLP.part.metal>
0.0000

> <Gold.PLP.part.buried>
-6.6358

> <Gold.PLP.part.nonpolar>
-24.8281

> <Gold.PLP.part.repulsive>
0.7776

> <Gold.PLP.ligand.clash>
0.0000

> <Gold.PLP.ligand.torsion>
0.0187

> <Gold.PLP.Chemscore.Hbond>
2.8800

> <Gold.PLP.Chemscore.CHOScore>
0.0000

> <Gold.PLP.Chemscore.Metal>
0.0000

> <Gold.Chemscore.Hbonds>
donor molecule, donor type, donor heavy atom, donor atom, acceptor molecule, acceptor atom, score
      L1  H     3    21       P1  8029  1.00
      L1  H     6    22       P1  8029  1.00

> <Gold.PLP.Chemscore.Internal.Correction>
0.0108

> <Gold.Rescore>
     Score         DG    S(hbond)    S(metal)    S(lipo)     H(rot)  DE(clash)    DE(int)     intcor
     17.54     -19.52       2.87        0.00      66.29       1.29       0.00       1.98       ----

> <Gold.Chemscore.Fitness>
17.5426

> <Gold.Chemscore.DG>
-19.5207

> <Gold.Chemscore.ZeroCoef>
-5.4800

> <Gold.Chemscore.Hbond>
2.8735

> <Gold.Chemscore.Metal>
0.0000

> <Gold.Chemscore.Lipo>
66.2863

> <Gold.Chemscore.Internal_Hbond>
0.0000

> <Gold.Chemscore.DEClash>
0.0000

> <Gold.Chemscore.DEInternal>
1.9781

> <Gold.Chemscore.Rot>
1.2938

> <Gold.Chemscore.Internal.Correction>
   9.000000E+99

> <Gold.Chemscore.Hbonds>
donor molecule, donor type, donor heavy atom, donor atom, acceptor molecule, acceptor atom, score
      L1  H     3    21       P1  8029  0.99
      L1  H     6    22       P1  8029  0.91

> <Gold.Chemscore.Hbond.Weighted>
-9.5974

> <Gold.Chemscore.Metal.Weighted>
-0.0000

> <Gold.Chemscore.Lipo.Weighted>
-7.7555

> <Gold.Chemscore.Internal_Hbond.Weighted>
0.0000

> <Gold.Chemscore.DEClash.Weighted>
0.0000

> <Gold.Chemscore.DEInternal.Weighted>
1.9781

> <Gold.Chemscore.Rot.Weighted>
3.3122

> <Gold.Chemscore.Internal.Correction.Weighted>
   9.000000E+99

> <Gold.Protein.RotatedTorsions>
[ 6907 6896 6895 6894 ] final  165.05 input  -60.11 | X-H torsion
[ 7974 7965 7964 7962 ] final -144.02 input  175.53 | X-H torsion
[ 8008 7997 7996 7995 ] final  167.89 input   59.86 | X-H torsion
[ 10167 10162 10161 10158 ] final   92.79 input  -65.29 | X-H torsion
[ 10718 10713 10712 10709 ] final  -62.46 input   66.30 | X-H torsion
[ 10763 10752 10751 10750 ] final -141.24 input  -60.55 | X-H torsion
[ 11005 11000 10999 10996 ] final   64.81 input  -57.11 | X-H torsion

> <Gold.Protein.ActiveResidues>
 VAL166  LYS551  ARG553  GLY616  TRP617  ASP618  TYR619  PRO620  LYS621  CYS622 
 ASP623  PHE694  ASN695  SER759  ASP760  ASP761  ALA762  ILE779  LEU786  VAL792 
 PHE793  MET794  SER795  GLU796  ALA797  LYS798  CYS799  TRP800  GLU811  SER814 

> <Gold.Protein.RotatedAtoms>
  151.9004  133.3537  159.3828 H   0  0  0  0  0  0  0  0  0  0  0  0  # atno 6907 bound_to 6896
  150.7081  134.4833  159.5490 H   0  0  0  0  0  0  0  0  0  0  0  0  # atno 6908 bound_to 6896
  152.2421  134.8218  160.0509 H   0  0  0  0  0  0  0  0  0  0  0  0  # atno 6909 bound_to 6896
  144.8327  140.5762  143.5504 H   0  0  0  0  0  0  0  0  0  0  0  0  # atno 7974 bound_to 7965
  156.1595  140.1605  156.8636 H   0  0  0  0  0  0  0  0  0  0  0  0  # atno 8008 bound_to 7997
  154.5147  140.0792  156.8093 H   0  0  0  0  0  0  0  0  0  0  0  0  # atno 8009 bound_to 7997
  155.3736  140.3401  155.4246 H   0  0  0  0  0  0  0  0  0  0  0  0  # atno 8010 bound_to 7997
  139.8243  144.6717  150.9479 H   0  0  0  0  0  0  0  0  0  0  0  0  # atno 10167 bound_to 10162
  156.0853  130.4209  150.1139 H   0  0  0  0  0  0  0  0  0  0  0  0  # atno 10718 bound_to 10713
  154.8552  135.3530  154.5837 H   0  0  0  0  0  0  0  0  0  0  0  0  # atno 10763 bound_to 10752
  153.6447  135.6997  153.5234 H   0  0  0  0  0  0  0  0  0  0  0  0  # atno 10764 bound_to 10752
  153.2942  135.4225  155.1153 H   0  0  0  0  0  0  0  0  0  0  0  0  # atno 10765 bound_to 10752
  139.9935  134.6555  156.0051 H   0  0  0  0  0  0  0  0  0  0  0  0  # atno 11005 bound_to 11000
  145.4860  139.1492  143.3736 LP  0  0  0  0  0  0  0  0  0  0  0  0  # atno 17320 bound_to 7965
  146.2629  140.4997  142.8846 LP  0  0  0  0  0  0  0  0  0  0  0  0  # atno 17321 bound_to 7965
  140.7811  143.4061  151.1068 LP  0  0  0  0  0  0  0  0  0  0  0  0  # atno 17342 bound_to 10162
  139.7720  143.8481  152.3122 LP  0  0  0  0  0  0  0  0  0  0  0  0  # atno 17343 bound_to 10162
  156.9161  130.9667  151.3556 LP  0  0  0  0  0  0  0  0  0  0  0  0  # atno 17370 bound_to 10713
  157.5986  130.8496  149.8767 LP  0  0  0  0  0  0  0  0  0  0  0  0  # atno 17371 bound_to 10713
  141.1585  133.6540  156.4240 LP  0  0  0  0  0  0  0  0  0  0  0  0  # atno 17394 bound_to 11000
  140.4864  134.6617  157.5192 LP  0  0  0  0  0  0  0  0  0  0  0  0  # atno 17395 bound_to 11000

$$$$
