#       Name:                AV-unprocessed.smi:224
#       Creating user name   scv26
#       Creation time:       Thu Mar 26 20:17:37 2020


#       File generated by GOLD software.
#

@<TRIPOS>MOLECULE
AV-unprocessed.smi:224
    65    68     1
SMALL
NO_CHARGES


@<TRIPOS>ATOM
      1 ****        -3.3630   1.9463   5.5544 C.3            1 S1                 0.0000
      2 ****        -2.0115   1.9306   4.8286 C.3            1 S1                 0.0000
      3 ****        -1.0388   2.4763   5.6966 O.3            1 S1                 0.0000
      4 ****        -1.5913   0.5029   4.4236 C.3            1 S1                 0.0000
      5 ****        -0.2909   0.4408   3.7000 N.4            1 S1                 1.0000
      6 ****         0.2295  -0.9491   3.6076 C.3            1 S1                 0.0000
      7 ****         1.6446  -0.9788   3.0038 C.3            1 S1                 0.0000
      8 ****         1.6885  -0.2691   1.7278 N.pl3          1 S1                 0.0000
      9 ****         1.4694  -0.9526   0.5716 C.ar           1 S1                 0.0000
     10 ****         0.8597  -2.1677   0.6148 N.ar           1 S1                 0.0000
     11 ****         0.6160  -2.8461  -0.5097 C.ar           1 S1                 0.0000
     12 ****         0.8964  -2.5022  -1.7669 N.ar           1 S1                 0.0000
     13 ****         1.5201  -1.2912  -1.8213 C.ar           1 S1                 0.0000
     14 ****         1.8465  -0.4601  -0.7116 C.ar           1 S1                 0.0000
     15 ****         2.4982   0.6836  -1.1587 N.2            1 S1                 0.0000
     16 ****         2.5407   0.5437  -2.4553 C.2            1 S1                 0.0000
     17 ****         1.9658  -0.6089  -2.9400 N.pl3          1 S1                 0.0000
     18 ****         1.8737  -1.0152  -4.3345 C.3            1 S1                 0.0000
     19 ****         0.6989  -0.3549  -5.0942 C.3            1 S1                 0.0000
     20 ****         0.8992   1.0483  -5.1212 O.3            1 S1                 0.0000
     21 ****         0.5674  -0.8473  -6.5293 C.3            1 S1                 0.0000
     22 ****        -0.9184  -0.6669  -6.8096 C.3            1 S1                 0.0000
     23 ****        -1.5241  -1.0551  -5.5880 O.3            1 S1                 0.0000
     24 ****        -0.6981  -0.6382  -4.5040 C.3            1 S1                 0.0000
     25 ****         1.1958   1.1050   1.7972 C.3            1 S1                 0.0000
     26 ****        -0.2255   1.1813   2.4002 C.3            1 S1                 0.0000
     27 ****        -1.3102   0.7520   1.3891 C.3            1 S1                 0.0000
     28 ****        -4.1534   1.5504   4.9161 H              1 S1                 0.0000
     29 ****        -3.6470   2.9607   5.8367 H              1 S1                 0.0000
     30 ****        -3.3364   1.3430   6.4626 H              1 S1                 0.0000
     31 ****        -2.0960   2.5722   3.9523 H              1 S1                 0.0000
     32 ****        -1.0440   1.9872   6.5053 H              1 S1                 0.0000
     33 ****        -1.5146  -0.1008   5.3294 H              1 S1                 0.0000
     34 ****        -2.3711   0.0334   3.8234 H              1 S1                 0.0000
     35 ****         0.2596  -1.3981   4.6008 H              1 S1                 0.0000
     36 ****        -0.4526  -1.5576   3.0130 H              1 S1                 0.0000
     37 ****         2.3405  -0.4875   3.6847 H              1 S1                 0.0000
     38 ****         2.0014  -2.0044   2.9006 H              1 S1                 0.0000
     39 ****         0.1241  -3.7993  -0.3846 H              1 S1                 0.0000
     40 ****         2.9927   1.2842  -3.0994 H              1 S1                 0.0000
     41 ****         2.8196  -0.7766  -4.8226 H              1 S1                 0.0000
     42 ****         1.7798  -2.1014  -4.3685 H              1 S1                 0.0000
     43 ****         0.1727   1.4449  -5.5774 H              1 S1                 0.0000
     44 ****         1.2065  -0.3176  -7.2372 H              1 S1                 0.0000
     45 ****         0.8136  -1.9084  -6.5892 H              1 S1                 0.0000
     46 ****        -1.1544   0.3775  -7.0193 H              1 S1                 0.0000
     47 ****        -1.2689  -1.2749  -7.6437 H              1 S1                 0.0000
     48 ****        -0.6806  -1.4459  -3.7735 H              1 S1                 0.0000
     49 ****        -1.1269   0.2362  -4.0122 H              1 S1                 0.0000
     50 ****         1.8848   1.6661   2.4296 H              1 S1                 0.0000
     51 ****         1.2115   1.6037   0.8297 H              1 S1                 0.0000
     52 ****        -0.3923   2.2370   2.6094 H              1 S1                 0.0000
     53 ****        -1.1797   1.2728   0.4400 H              1 S1                 0.0000
     54 ****        -2.3117   0.9935   1.7439 H              1 S1                 0.0000
     55 ****        -1.2805  -0.3165   1.1792 H              1 S1                 0.0000
     56 ****         0.3633   0.9200   4.3025 H              1 S1                 0.0000
     57 ****        -1.2539   3.4351   5.8822 LP             1 S1                 0.0000
     58 ****        -0.1358   2.4135   5.2715 LP             1 S1                 0.0000
     59 ****         0.5916  -2.5566   1.4962 LP             1 S1                 0.0000
     60 ****         0.6774  -3.0607  -2.5670 LP             1 S1                 0.0000
     61 ****         2.8536   1.4411  -0.6112 LP             1 S1                 0.0000
     62 ****         1.7527   1.2584  -5.5982 LP             1 S1                 0.0000
     63 ****         0.9441   1.4010  -4.1866 LP             1 S1                 0.0000
     64 ****        -1.6275  -2.0495  -5.5669 LP             1 S1                 0.0000
     65 ****        -2.4232  -0.6247  -5.5086 LP             1 S1                 0.0000
@<TRIPOS>BOND
    1    1    2 1     
    2    1   28 1     
    3    1   29 1     
    4    1   30 1     
    5    2    3 1     
    6    2    4 1     
    7    2   31 1     
    8    3   32 1     
    9    4    5 1     
   10    4   33 1     
   11    4   34 1     
   12    5   26 1     
   13    5    6 1     
   14    5   56 1     
   15    6    7 1     
   16    6   35 1     
   17    6   36 1     
   18    7    8 1     
   19    7   37 1     
   20    7   38 1     
   21    8    9 1     
   22    8   25 1     
   23    9   14 ar    
   24    9   10 ar    
   25   10   11 ar    
   26   11   12 ar    
   27   11   39 1     
   28   12   13 ar    
   29   13   17 1     
   30   13   14 ar    
   31   14   15 1     
   32   15   16 2     
   33   16   17 1     
   34   16   40 1     
   35   17   18 1     
   36   18   19 1     
   37   18   41 1     
   38   18   42 1     
   39   19   24 1     
   40   19   20 1     
   41   19   21 1     
   42   20   43 1     
   43   21   22 1     
   44   21   44 1     
   45   21   45 1     
   46   22   23 1     
   47   22   46 1     
   48   22   47 1     
   49   23   24 1     
   50   24   48 1     
   51   24   49 1     
   52   25   26 1     
   53   25   50 1     
   54   25   51 1     
   55   26   27 1     
   56   26   52 1     
   57   27   53 1     
   58   27   54 1     
   59   27   55 1     
   60    3   57 1     
   61    3   58 1     
   62   10   59 1     
   63   12   60 1     
   64   15   61 1     
   65   20   62 1     
   66   20   63 1     
   67   23   64 1     
   68   23   65 1     
@<TRIPOS>SUBSTRUCTURE
      1 S1             1
@<TRIPOS>SET
LONE_PAIRS      STATIC     ATOMS    <user>   **** ""
9 57 58 59 60 61 62 63 64 65
DONOR_HYDROGENS      STATIC     ATOMS    <user>   **** ""
3 32 56 43
ATOM$BLUE        STATIC     ATOMS    COLORGROUP SYSTEM
9 57 58 59 60 61 62 63 64 65
ATOM$RED        STATIC     ATOMS    COLORGROUP SYSTEM
3 32 56 43
