AV-unprocessed.smi:697|AV-procd|sdf|3393|dock4
  -GOLD-   22720 0373D 1   1.00000     0.00000
 Structure written by MMmdl.
 43 44  0  0  0  0  0  0  0  0  2 V2000
  144.4731  133.9951  157.9159 C   0  0  0  0  0  0  0  0  0  0  0  0
  145.0873  134.7023  158.9855 O   0  0  0  0  0  0  0  0  0  0  0  0
  146.5058  134.5753  159.0963 C   0  0  1  0  0  0  0  0  0  0  0  0
  146.8706  133.1546  159.5549 C   0  0  0  0  0  0  0  0  0  0  0  0
  147.2412  135.1484  157.8707 C   0  0  0  0  0  0  0  0  0  0  0  0
  148.2135  135.7827  158.8623 C   0  0  1  0  0  0  0  0  0  0  0  0
  148.6723  137.1000  158.4361 N   0  0  0  0  0  0  0  0  0  0  0  0
  149.7935  137.6889  158.8722 C   0  0  0  0  0  0  0  0  0  0  0  0
  150.5588  137.1622  159.6796 O   0  0  0  0  0  0  0  0  0  0  0  0
  149.9515  138.8959  158.2998 N   0  0  0  0  0  0  0  0  0  0  0  0
  150.9671  139.8495  158.4858 C   0  0  0  0  0  0  0  0  0  0  0  0
  150.7644  141.1906  158.6113 C   0  0  0  0  0  0  0  0  0  0  0  0
  151.8620  142.1322  158.7925 C   0  0  0  0  0  0  0  0  0  0  0  0
  151.6675  143.6185  159.0343 C   0  0  0  0  0  0  0  0  0  0  0  0
  152.1925  143.9866  160.2031 F   0  0  0  0  0  0  0  0  0  0  0  0
  152.2672  144.3171  158.0715 F   0  0  0  0  0  0  0  0  0  0  0  0
  150.3733  143.9381  159.0353 F   0  0  0  0  0  0  0  0  0  0  0  0
  153.0913  141.5036  158.8287 C   0  0  0  0  0  0  0  0  0  0  0  0
  153.3807  140.1917  158.6853 N   0  5  0  0  0  0  0  0  0  0  0  0
  152.3467  139.3204  158.5133 C   0  0  0  0  0  0  0  0  0  0  0  0
  152.5393  138.1111  158.3800 O   0  0  0  0  0  0  0  0  0  0  0  0
  147.0618  135.7957  159.9002 C   0  0  0  0  0  0  0  0  0  0  0  0
  146.1684  137.0526  159.9320 C   0  0  0  0  0  0  0  0  0  0  0  0
  147.4717  135.5385  161.3536 C   0  0  0  0  0  0  0  0  0  0  0  0
  143.4121  134.2426  157.8883 H   0  0  0  0  0  0  0  0  0  0  0  0
  144.5493  132.9160  158.0442 H   0  0  0  0  0  0  0  0  0  0  0  0
  144.8988  134.2655  156.9495 H   0  0  0  0  0  0  0  0  0  0  0  0
  147.9324  133.0605  159.7812 H   0  0  0  0  0  0  0  0  0  0  0  0
  146.6554  132.4115  158.7878 H   0  0  0  0  0  0  0  0  0  0  0  0
  146.3197  132.8745  160.4530 H   0  0  0  0  0  0  0  0  0  0  0  0
  147.6902  134.4021  157.2149 H   0  0  0  0  0  0  0  0  0  0  0  0
  146.6542  135.8751  157.3056 H   0  0  0  0  0  0  0  0  0  0  0  0
  149.0226  135.0988  159.1289 H   0  0  0  0  0  0  0  0  0  0  0  0
  148.0983  137.5950  157.7693 H   0  0  0  0  0  0  0  0  0  0  0  0
  149.2628  139.1570  157.6091 H   0  0  0  0  0  0  0  0  0  0  0  0
  149.7728  141.6086  158.5619 H   0  0  0  0  0  0  0  0  0  0  0  0
  153.9758  142.1530  159.0028 H   0  0  0  0  0  0  0  0  0  0  0  0
  146.6990  137.9140  160.3391 H   0  0  0  0  0  0  0  0  0  0  0  0
  145.2851  136.8977  160.5525 H   0  0  0  0  0  0  0  0  0  0  0  0
  145.8149  137.3359  158.9406 H   0  0  0  0  0  0  0  0  0  0  0  0
  147.9287  136.4209  161.8025 H   0  0  0  0  0  0  0  0  0  0  0  0
  148.2025  134.7344  161.4360 H   0  0  0  0  0  0  0  0  0  0  0  0
  146.6134  135.2636  161.9674 H   0  0  0  0  0  0  0  0  0  0  0  0
  1  2  1  0  0  0  0
  1 25  1  0  0  0  0
  1 26  1  0  0  0  0
  1 27  1  0  0  0  0
  2  3  1  0  0  0  0
  3 22  1  0  0  0  0
  3  4  1  0  0  0  0
  3  5  1  0  0  0  0
  4 28  1  0  0  0  0
  4 29  1  0  0  0  0
  4 30  1  0  0  0  0
  5  6  1  0  0  0  0
  5 31  1  0  0  0  0
  5 32  1  0  0  0  0
  6  7  1  0  0  0  0
  6 22  1  0  0  0  0
  6 33  1  0  0  0  0
  7  8  1  0  0  0  0
  7 34  1  0  0  0  0
  8  9  2  0  0  0  0
  8 10  1  0  0  0  0
 10 11  1  0  0  0  0
 10 35  1  0  0  0  0
 11 20  1  0  0  0  0
 11 12  2  0  0  0  0
 12 13  1  0  0  0  0
 12 36  1  0  0  0  0
 13 14  1  0  0  0  0
 13 18  2  0  0  0  0
 14 15  1  0  0  0  0
 14 16  1  0  0  0  0
 14 17  1  0  0  0  0
 18 19  1  0  0  0  0
 18 37  1  0  0  0  0
 19 20  1  0  0  0  0
 20 21  2  0  0  0  0
 22 23  1  0  0  0  0
 22 24  1  0  0  0  0
 23 38  1  0  0  0  0
 23 39  1  0  0  0  0
 23 40  1  0  0  0  0
 24 41  1  0  0  0  0
 24 42  1  0  0  0  0
 24 43  1  0  0  0  0
M  CHG  1  19  -1
M  END
> <s_m_source_file>
AV-unprocessed.smi

> <i_m_source_file_index>
697

> <i_lp_mmshare_version>
43012

> <i_f3d_flags>
0

> <s_epik_input>
W0NIM11PW0NAQF0xKFtDSDNdKVtDSDJdW0NASF0oQzEoW0NIM10pW0NIM10pW05IXUMoPU8pW05IXWMyW2NIXWMoQyhGKShGKUYpW2NIXVtuSF1jMj1P

> <s_epik_cmdline>
J2VwaWtfcHl0aG9uJywgJy1waCcsICc3LjAnLCAnLXRuJywgJzgnLCAnLW1hJywgJzIwMCcsICctbWV0YWxfYmluZGluZycsICctaW1hZScsICc8aW5maWxlLm1hZT4nLCAnLW9tYWUnLCAnPG91dGZpbGUubWFlPic=

> <r_lp_tautomer_probability>
1

> <r_epik_Ionization_Penalty>
3.20094

> <r_epik_Ionization_Penalty_Charging>
0.180017

> <r_epik_Ionization_Penalty_Neutral>
3.02092

> <r_epik_State_Penalty>
3.01726

> <r_epik_Charging_Adjusted_Penalty>
3.19727

> <i_epik_Tot_Q>
-1

> <i_epik_Tot_abs_Q>
1

> <r_epik_Metal_State_Penalty>
0.455096

> <b_epik_Metal_Only>
1

> <s_lp_Force_Field>
OPLS_2005

> <r_lp_Energy>
36.1164

> <b_lp_Chiralities_Consistent>
1

> <s_lp_Variant>
AV-unprocessed.smi:697-5

> <Gold.Version>
5.8.1

> <Gold.Id.Protein>
6NUR|6NUR_protein|mol2

> <Gold.PLP.Fitness>
39.5161

> <Gold.PLP.PLP>
-32.3482

> <Gold.PLP.part.hbond>
-1.9789

> <Gold.PLP.part.metal>
0.0000

> <Gold.PLP.part.buried>
-5.2617

> <Gold.PLP.part.nonpolar>
-25.2321

> <Gold.PLP.part.repulsive>
0.2739

> <Gold.PLP.ligand.clash>
0.0000

> <Gold.PLP.ligand.torsion>
0.8036

> <Gold.PLP.Chemscore.Hbond>
2.7818

> <Gold.PLP.Chemscore.CHOScore>
0.0000

> <Gold.PLP.Chemscore.Metal>
0.0000

> <Gold.Chemscore.Hbonds>
donor molecule, donor type, donor heavy atom, donor atom, acceptor molecule, acceptor atom, score
      P1  H  6896  6907       L1     9  0.70
      P1  H  7997  8009       L1    19  1.84

> <Gold.PLP.Chemscore.Internal.Correction>
0.4298

> <Gold.Rescore>
     Score         DG    S(hbond)    S(metal)    S(lipo)     H(rot)  DE(clash)    DE(int)     intcor
     11.22     -14.99       1.66        0.00      62.35       1.30       0.15       3.61       ----

> <Gold.Chemscore.Fitness>
11.2246

> <Gold.Chemscore.DG>
-14.9878

> <Gold.Chemscore.ZeroCoef>
-5.4800

> <Gold.Chemscore.Hbond>
1.6567

> <Gold.Chemscore.Metal>
0.0000

> <Gold.Chemscore.Lipo>
62.3540

> <Gold.Chemscore.Internal_Hbond>
0.0000

> <Gold.Chemscore.DEClash>
0.1539

> <Gold.Chemscore.DEInternal>
3.6093

> <Gold.Chemscore.Rot>
1.2973

> <Gold.Chemscore.Internal.Correction>
   9.000000E+99

> <Gold.Chemscore.Hbonds>
donor molecule, donor type, donor heavy atom, donor atom, acceptor molecule, acceptor atom, score
      P1  H  6896  6907       L1     9  0.69
      P1  H  7997  8009       L1    19  0.41

> <Gold.Chemscore.Hbond.Weighted>
-5.5333

> <Gold.Chemscore.Metal.Weighted>
-0.0000

> <Gold.Chemscore.Lipo.Weighted>
-7.2954

> <Gold.Chemscore.Internal_Hbond.Weighted>
0.0000

> <Gold.Chemscore.DEClash.Weighted>
0.1539

> <Gold.Chemscore.DEInternal.Weighted>
3.6093

> <Gold.Chemscore.Rot.Weighted>
3.3210

> <Gold.Chemscore.Internal.Correction.Weighted>
   9.000000E+99

> <Gold.Protein.RotatedTorsions>
[ 6907 6896 6895 6894 ] final  -19.52 input  -60.11 | X-H torsion
[ 7974 7965 7964 7962 ] final  -82.30 input  175.53 | X-H torsion
[ 8008 7997 7996 7995 ] final  142.25 input   59.86 | X-H torsion
[ 10167 10162 10161 10158 ] final -142.41 input  -65.29 | X-H torsion
[ 10718 10713 10712 10709 ] final  -85.65 input   66.30 | X-H torsion
[ 10763 10752 10751 10750 ] final    2.35 input  -60.55 | X-H torsion
[ 11005 11000 10999 10996 ] final  -80.84 input  -57.11 | X-H torsion

> <Gold.Protein.ActiveResidues>
 VAL166  LYS551  ARG553  GLY616  TRP617  ASP618  TYR619  PRO620  LYS621  CYS622 
 ASP623  PHE694  ASN695  SER759  ASP760  ASP761  ALA762  ILE779  LEU786  VAL792 
 PHE793  MET794  SER795  GLU796  ALA797  LYS798  CYS799  TRP800  GLU811  SER814 

> <Gold.Protein.RotatedAtoms>
  151.2618  135.0656  159.9100 H   0  0  0  0  0  0  0  0  0  0  0  0  # atno 6907 bound_to 6896
  152.5364  134.0222  159.7997 H   0  0  0  0  0  0  0  0  0  0  0  0  # atno 6908 bound_to 6896
  151.0447  133.5626  159.2679 H   0  0  0  0  0  0  0  0  0  0  0  0  # atno 6909 bound_to 6896
  145.5352  140.9516  143.1581 H   0  0  0  0  0  0  0  0  0  0  0  0  # atno 7974 bound_to 7965
  156.2952  140.2294  156.4697 H   0  0  0  0  0  0  0  0  0  0  0  0  # atno 8008 bound_to 7997
  154.7946  140.0452  157.1248 H   0  0  0  0  0  0  0  0  0  0  0  0  # atno 8009 bound_to 7997
  154.9605  140.3053  155.5036 H   0  0  0  0  0  0  0  0  0  0  0  0  # atno 8010 bound_to 7997
  139.8091  143.7727  152.2662 H   0  0  0  0  0  0  0  0  0  0  0  0  # atno 10167 bound_to 10162
  155.9995  130.4738  150.4594 H   0  0  0  0  0  0  0  0  0  0  0  0  # atno 10718 bound_to 10713
  153.2967  135.6953  153.7241 H   0  0  0  0  0  0  0  0  0  0  0  0  # atno 10763 bound_to 10752
  153.6171  135.3434  155.2999 H   0  0  0  0  0  0  0  0  0  0  0  0  # atno 10764 bound_to 10752
  154.8539  135.4377  154.2066 H   0  0  0  0  0  0  0  0  0  0  0  0  # atno 10765 bound_to 10752
  141.1667  133.7169  156.8333 H   0  0  0  0  0  0  0  0  0  0  0  0  # atno 11005 bound_to 11000
  144.7605  139.6968  143.7236 LP  0  0  0  0  0  0  0  0  0  0  0  0  # atno 17320 bound_to 7965
  146.2018  139.5317  142.9738 LP  0  0  0  0  0  0  0  0  0  0  0  0  # atno 17321 bound_to 7965
  139.7870  144.7424  151.0007 LP  0  0  0  0  0  0  0  0  0  0  0  0  # atno 17342 bound_to 10162
  140.7818  143.4481  151.0452 LP  0  0  0  0  0  0  0  0  0  0  0  0  # atno 17343 bound_to 10162
  157.2620  131.0569  151.2314 LP  0  0  0  0  0  0  0  0  0  0  0  0  # atno 17370 bound_to 10713
  157.3426  130.7041  149.6391 LP  0  0  0  0  0  0  0  0  0  0  0  0  # atno 17371 bound_to 10713
  140.2035  134.8879  157.3196 LP  0  0  0  0  0  0  0  0  0  0  0  0  # atno 17394 bound_to 11000
  140.2162  134.4079  155.7588 LP  0  0  0  0  0  0  0  0  0  0  0  0  # atno 17395 bound_to 11000

$$$$
