AV-unprocessed.smi:189|AV-procd|sdf|1483|dock5
  -GOLD-   2262019303D 1   1.00000     0.00000
 Structure written by MMmdl.
 53 57  0  0  0  0  0  0  0  0  1 V2000
  148.3695  141.7284  156.8961 C   0  0  0  0  0  0  0  0  0  0  0  0
  149.3915  141.7058  158.0459 C   0  0  2  0  0  0  0  0  0  0  0  0
  149.8590  143.1213  158.4368 C   0  0  0  0  0  0  0  0  0  0  0  0
  151.3040  143.1888  157.9366 C   0  0  1  0  0  0  0  0  0  0  0  0
  152.2176  144.2347  158.6072 C   0  0  0  0  0  0  0  0  0  0  0  0
  152.6507  143.8368  160.0264 C   0  0  0  0  0  0  0  0  0  0  0  0
  153.2564  142.4270  160.0403 C   0  0  0  0  0  0  0  0  0  0  0  0
  152.2452  141.4024  159.5110 C   0  0  0  0  0  0  0  0  0  0  0  0
  151.7840  141.7369  158.0710 C   0  0  1  0  0  0  0  0  0  0  0  0
  150.6067  140.9684  157.6805 N   0  0  0  0  0  0  0  0  0  0  0  0
  150.6403  139.6063  157.6493 C   0  0  0  0  0  0  0  0  0  0  0  0
  150.8560  138.9259  158.8069 N   0  0  0  0  0  0  0  0  0  0  0  0
  150.8975  137.5914  158.8189 C   0  0  0  0  0  0  0  0  0  0  0  0
  150.7501  136.7450  157.8001 N   0  0  0  0  0  0  0  0  0  0  0  0
  150.5313  137.4130  156.6321 C   0  0  0  0  0  0  0  0  0  0  0  0
  150.4576  138.8271  156.4672 C   0  0  0  0  0  0  0  0  0  0  0  0
  150.2036  139.1238  155.1323 N   0  0  0  0  0  0  0  0  0  0  0  0
  150.1419  137.9607  154.5453 C   0  0  0  0  0  0  0  0  0  0  0  0
  150.3341  136.8775  155.3711 N   0  0  0  0  0  0  0  0  0  0  0  0
  150.3089  135.4738  154.9869 C   0  0  0  0  0  0  0  0  0  0  0  0
  148.8847  134.8713  154.9157 C   0  0  2  0  0  0  0  0  0  0  0  0
  148.0440  135.7668  154.2104 O   0  0  0  0  0  0  0  0  0  0  0  0
  148.2910  134.6177  156.3033 C   0  0  0  0  0  0  0  0  0  0  0  0
  148.2997  133.0987  156.4252 C   0  0  0  0  0  0  0  0  0  0  0  0
  148.0315  132.6813  155.0989 O   0  0  0  0  0  0  0  0  0  0  0  0
  148.8279  133.4855  154.2410 C   0  0  0  0  0  0  0  0  0  0  0  0
  147.4843  142.3006  157.1743 H   0  0  0  0  0  0  0  0  0  0  0  0
  148.0373  140.7257  156.6289 H   0  0  0  0  0  0  0  0  0  0  0  0
  148.7937  142.1860  156.0017 H   0  0  0  0  0  0  0  0  0  0  0  0
  148.9293  141.2456  158.9202 H   0  0  0  0  0  0  0  0  0  0  0  0
  149.2383  143.9130  158.0158 H   0  0  0  0  0  0  0  0  0  0  0  0
  149.8248  143.2260  159.5214 H   0  0  0  0  0  0  0  0  0  0  0  0
  151.2571  143.4265  156.8722 H   0  0  0  0  0  0  0  0  0  0  0  0
  153.1121  144.3572  157.9952 H   0  0  0  0  0  0  0  0  0  0  0  0
  151.7260  145.2078  158.6220 H   0  0  0  0  0  0  0  0  0  0  0  0
  153.3762  144.5568  160.4060 H   0  0  0  0  0  0  0  0  0  0  0  0
  151.7964  143.8770  160.7027 H   0  0  0  0  0  0  0  0  0  0  0  0
  154.1614  142.4038  159.4318 H   0  0  0  0  0  0  0  0  0  0  0  0
  153.5555  142.1624  161.0548 H   0  0  0  0  0  0  0  0  0  0  0  0
  152.6878  140.4066  159.5403 H   0  0  0  0  0  0  0  0  0  0  0  0
  151.3882  141.3717  160.1854 H   0  0  0  0  0  0  0  0  0  0  0  0
  152.6048  141.5840  157.3719 H   0  0  0  0  0  0  0  0  0  0  0  0
  151.0752  137.1376  159.7826 H   0  0  0  0  0  0  0  0  0  0  0  0
  149.9531  137.8601  153.4863 H   0  0  0  0  0  0  0  0  0  0  0  0
  150.8039  135.3740  154.0200 H   0  0  0  0  0  0  0  0  0  0  0  0
  150.9195  134.9164  155.6987 H   0  0  0  0  0  0  0  0  0  0  0  0
  148.2938  135.7546  153.2989 H   0  0  0  0  0  0  0  0  0  0  0  0
  148.8459  135.0995  157.1092 H   0  0  0  0  0  0  0  0  0  0  0  0
  147.2604  134.9719  156.3605 H   0  0  0  0  0  0  0  0  0  0  0  0
  149.2806  132.7353  156.7358 H   0  0  0  0  0  0  0  0  0  0  0  0
  147.5527  132.7264  157.1266 H   0  0  0  0  0  0  0  0  0  0  0  0
  148.4259  133.5069  153.2272 H   0  0  0  0  0  0  0  0  0  0  0  0
  149.8166  133.0292  154.1927 H   0  0  0  0  0  0  0  0  0  0  0  0
  1  2  1  0  0  0  0
  1 27  1  0  0  0  0
  1 28  1  0  0  0  0
  1 29  1  0  0  0  0
  2 10  1  0  0  0  0
  2  3  1  0  0  0  0
  2 30  1  0  0  0  0
  3  4  1  0  0  0  0
  3 31  1  0  0  0  0
  3 32  1  0  0  0  0
  4  9  1  0  0  0  0
  4  5  1  0  0  0  0
  4 33  1  0  0  0  0
  5  6  1  0  0  0  0
  5 34  1  0  0  0  0
  5 35  1  0  0  0  0
  6  7  1  0  0  0  0
  6 36  1  0  0  0  0
  6 37  1  0  0  0  0
  7  8  1  0  0  0  0
  7 38  1  0  0  0  0
  7 39  1  0  0  0  0
  8  9  1  0  0  0  0
  8 40  1  0  0  0  0
  8 41  1  0  0  0  0
  9 10  1  0  0  0  0
  9 42  1  0  0  0  0
 10 11  1  0  0  0  0
 11 16  1  0  0  0  0
 11 12  2  0  0  0  0
 12 13  1  0  0  0  0
 13 14  2  0  0  0  0
 13 43  1  0  0  0  0
 14 15  1  0  0  0  0
 15 19  1  0  0  0  0
 15 16  2  0  0  0  0
 16 17  1  0  0  0  0
 17 18  2  0  0  0  0
 18 19  1  0  0  0  0
 18 44  1  0  0  0  0
 19 20  1  0  0  0  0
 20 21  1  0  0  0  0
 20 45  1  0  0  0  0
 20 46  1  0  0  0  0
 21 26  1  0  0  0  0
 21 22  1  0  0  0  0
 21 23  1  0  0  0  0
 22 47  1  0  0  0  0
 23 24  1  0  0  0  0
 23 48  1  0  0  0  0
 23 49  1  0  0  0  0
 24 25  1  0  0  0  0
 24 50  1  0  0  0  0
 24 51  1  0  0  0  0
 25 26  1  0  0  0  0
 26 52  1  0  0  0  0
 26 53  1  0  0  0  0
M  END
> <s_m_source_file>
AV-unprocessed.smi

> <i_m_source_file_index>
189

> <i_lp_mmshare_version>
43012

> <i_f3d_flags>
0

> <s_epik_input>
W0NIMl0xW0NIMl1bQ0gyXVtDSDJdW0NASF0oW0NASF0xMilOKFtDQEhdKFtDSDNdKVtDSDJdMiljKG5bY0hdbjMpYyhjMzQpbltjSF1uNFtDSDJdW0NAQF01KFtPSF0pW0NIMl1bQ0gyXU9bQ0gyXTU=

> <s_epik_cmdline>
J2VwaWtfcHl0aG9uJywgJy1waCcsICc3LjAnLCAnLXRuJywgJzgnLCAnLW1hJywgJzIwMCcsICctbWV0YWxfYmluZGluZycsICctaW1hZScsICc8aW5maWxlLm1hZT4nLCAnLW9tYWUnLCAnPG91dGZpbGUubWFlPic=

> <r_lp_tautomer_probability>
1

> <r_epik_Ionization_Penalty>
0.00594261

> <r_epik_Ionization_Penalty_Charging>
0

> <r_epik_Ionization_Penalty_Neutral>
0.00594261

> <r_epik_State_Penalty>
0.00429776

> <r_epik_Charging_Adjusted_Penalty>
0.00429776

> <i_epik_Tot_Q>
0

> <i_epik_Tot_abs_Q>
0

> <r_epik_Metal_State_Penalty>
-0

> <b_epik_Metal_Only>
0

> <s_lp_Force_Field>
OPLS_2005

> <r_lp_Energy>
57.6623

> <b_lp_Chiralities_Consistent>
1

> <s_lp_Variant>
AV-unprocessed.smi:189-9

> <Gold.Version>
5.8.1

> <Gold.Id.Protein>
6NUR|6NUR_protein|mol2

> <Gold.PLP.Fitness>
43.8994

> <Gold.PLP.PLP>
-40.9062

> <Gold.PLP.part.hbond>
-0.8601

> <Gold.PLP.part.metal>
0.0000

> <Gold.PLP.part.buried>
-6.2450

> <Gold.PLP.part.nonpolar>
-33.6283

> <Gold.PLP.part.repulsive>
0.0824

> <Gold.PLP.ligand.clash>
0.0000

> <Gold.PLP.ligand.torsion>
1.8001

> <Gold.PLP.Chemscore.Hbond>
1.0000

> <Gold.PLP.Chemscore.CHOScore>
1.1106

> <Gold.PLP.Chemscore.Metal>
0.0000

> <Gold.Chemscore.Hbonds>
donor molecule, donor type, donor heavy atom, donor atom, acceptor molecule, acceptor atom, score
      L1  H    22    47       P1  7948  1.00
      L1  C    18    44       P1  7948  1.00

> <Gold.PLP.Chemscore.Internal.Correction>
0.2614

> <Gold.Rescore>
     Score         DG    S(hbond)    S(metal)    S(lipo)     H(rot)  DE(clash)    DE(int)     intcor
     13.88     -16.93       1.00        0.00     107.45       1.74       0.01       3.03       ----

> <Gold.Chemscore.Fitness>
13.8847

> <Gold.Chemscore.DG>
-16.9309

> <Gold.Chemscore.ZeroCoef>
-5.4800

> <Gold.Chemscore.Hbond>
0.9995

> <Gold.Chemscore.Metal>
0.0000

> <Gold.Chemscore.Lipo>
107.4515

> <Gold.Chemscore.Internal_Hbond>
0.0000

> <Gold.Chemscore.DEClash>
0.0141

> <Gold.Chemscore.DEInternal>
3.0321

> <Gold.Chemscore.Rot>
1.7420

> <Gold.Chemscore.Internal.Correction>
   9.000000E+99

> <Gold.Chemscore.Hbonds>
donor molecule, donor type, donor heavy atom, donor atom, acceptor molecule, acceptor atom, score
      L1  H    22    47       P1  7948  0.99

> <Gold.Chemscore.Hbond.Weighted>
-3.3385

> <Gold.Chemscore.Metal.Weighted>
-0.0000

> <Gold.Chemscore.Lipo.Weighted>
-12.5718

> <Gold.Chemscore.Internal_Hbond.Weighted>
0.0000

> <Gold.Chemscore.DEClash.Weighted>
0.0141

> <Gold.Chemscore.DEInternal.Weighted>
3.0321

> <Gold.Chemscore.Rot.Weighted>
4.4594

> <Gold.Chemscore.Internal.Correction.Weighted>
   9.000000E+99

> <Gold.Protein.RotatedTorsions>
[ 6907 6896 6895 6894 ] final -176.71 input  -60.11 | X-H torsion
[ 7974 7965 7964 7962 ] final -167.25 input  175.53 | X-H torsion
[ 8008 7997 7996 7995 ] final  160.31 input   59.86 | X-H torsion
[ 10167 10162 10161 10158 ] final -110.00 input  -65.29 | X-H torsion
[ 10718 10713 10712 10709 ] final -173.56 input   66.30 | X-H torsion
[ 10763 10752 10751 10750 ] final   -8.84 input  -60.55 | X-H torsion
[ 11005 11000 10999 10996 ] final -165.70 input  -57.11 | X-H torsion

> <Gold.Protein.ActiveResidues>
 VAL166  LYS551  ARG553  GLY616  TRP617  ASP618  TYR619  PRO620  LYS621  CYS622 
 ASP623  PHE694  ASN695  SER759  ASP760  ASP761  ALA762  ILE779  LEU786  VAL792 
 PHE793  MET794  SER795  GLU796  ALA797  LYS798  CYS799  TRP800  GLU811  SER814 

> <Gold.Protein.RotatedAtoms>
  151.6092  133.3349  159.3063 H   0  0  0  0  0  0  0  0  0  0  0  0  # atno 6907 bound_to 6896
  150.8166  134.7354  159.6746 H   0  0  0  0  0  0  0  0  0  0  0  0  # atno 6908 bound_to 6896
  152.4261  134.5871  160.0015 H   0  0  0  0  0  0  0  0  0  0  0  0  # atno 6909 bound_to 6896
  144.7227  140.2547  143.6273 H   0  0  0  0  0  0  0  0  0  0  0  0  # atno 7974 bound_to 7965
  156.2181  140.1808  156.7541 H   0  0  0  0  0  0  0  0  0  0  0  0  # atno 8008 bound_to 7997
  154.5823  140.0664  156.9150 H   0  0  0  0  0  0  0  0  0  0  0  0  # atno 8009 bound_to 7997
  155.2481  140.3327  155.4287 H   0  0  0  0  0  0  0  0  0  0  0  0  # atno 8010 bound_to 7997
  140.1492  143.4213  152.1507 H   0  0  0  0  0  0  0  0  0  0  0  0  # atno 10167 bound_to 10162
  156.7722  130.9452  151.3120 H   0  0  0  0  0  0  0  0  0  0  0  0  # atno 10718 bound_to 10713
  153.4462  135.7014  153.6138 H   0  0  0  0  0  0  0  0  0  0  0  0  # atno 10763 bound_to 10752
  153.4492  135.3762  155.2274 H   0  0  0  0  0  0  0  0  0  0  0  0  # atno 10764 bound_to 10752
  154.8728  135.3992  154.3867 H   0  0  0  0  0  0  0  0  0  0  0  0  # atno 10765 bound_to 10752
  140.5728  134.5220  157.5165 H   0  0  0  0  0  0  0  0  0  0  0  0  # atno 11005 bound_to 11000
  145.8194  139.2037  143.1946 LP  0  0  0  0  0  0  0  0  0  0  0  0  # atno 17320 bound_to 7965
  146.0527  140.8053  142.9774 LP  0  0  0  0  0  0  0  0  0  0  0  0  # atno 17321 bound_to 7965
  139.5434  144.7277  151.4661 LP  0  0  0  0  0  0  0  0  0  0  0  0  # atno 17342 bound_to 10162
  140.6713  143.8288  150.7003 LP  0  0  0  0  0  0  0  0  0  0  0  0  # atno 17343 bound_to 10162
  157.6686  130.9030  149.9988 LP  0  0  0  0  0  0  0  0  0  0  0  0  # atno 17370 bound_to 10713
  156.1271  130.3644  149.9792 LP  0  0  0  0  0  0  0  0  0  0  0  0  # atno 17371 bound_to 10713
  139.9354  134.7886  156.0818 LP  0  0  0  0  0  0  0  0  0  0  0  0  # atno 17394 bound_to 11000
  141.1045  133.6665  156.2832 LP  0  0  0  0  0  0  0  0  0  0  0  0  # atno 17395 bound_to 11000

$$$$
