AV-unprocessed.smi:290|AV-procd|sdf|2218|dock4
  -GOLD-   2262022 63D 1   1.00000     0.00000
 Structure written by MMmdl.
 59 62  0  0  0  0  0  0  0  0  2 V2000
  152.2091  139.8372  158.9617 C   0  0  0  0  0  0  0  0  0  0  0  0
  151.7896  141.0817  159.7595 C   0  0  1  0  0  0  0  0  0  0  0  0
  152.7195  141.2539  160.8245 O   0  0  0  0  0  0  0  0  0  0  0  0
  152.7703  142.6289  161.1579 C   0  0  0  0  0  0  0  0  0  0  0  0
  152.7570  143.2925  159.7895 C   0  0  0  0  0  0  0  0  0  0  0  0
  151.7713  142.4370  158.9957 C   0  0  2  0  0  0  0  0  0  0  0  0
  150.4822  143.0064  159.1529 O   0  0  0  0  0  0  0  0  0  0  0  0
  152.0948  142.3746  157.4797 C   0  0  0  0  0  0  0  0  0  0  0  0
  151.0985  141.6517  156.7038 N   0  0  0  0  0  0  0  0  0  0  0  0
  149.8380  142.0879  156.3618 C   0  0  0  0  0  0  0  0  0  0  0  0
  149.1294  141.2470  155.6584 N   0  0  0  0  0  0  0  0  0  0  0  0
  149.9705  140.1530  155.4924 C   0  0  0  0  0  0  0  0  0  0  0  0
  149.8519  138.8962  154.8343 C   0  0  0  0  0  0  0  0  0  0  0  0
  148.7558  138.4703  154.1701 N   0  0  0  0  0  0  0  0  0  0  0  0
  148.0837  139.4796  153.3600 C   0  0  0  0  0  0  0  0  0  0  0  0
  146.5908  139.1172  153.3337 C   0  0  0  0  0  0  0  0  0  0  0  0
  146.4622  137.8121  154.1390 C   0  0  1  0  0  0  0  0  0  0  0  0
  146.2103  136.5887  153.3130 N   0  3  1  0  0  0  0  0  0  0  0  0
  145.6648  135.4802  154.1351 C   0  0  0  0  0  0  0  0  0  0  0  0
  145.4435  136.8077  152.0521 C   0  0  0  0  0  0  0  0  0  0  0  0
  145.3505  135.5485  151.1714 C   0  0  0  0  0  0  0  0  0  0  0  0
  144.9727  135.8940  149.8561 O   0  0  0  0  0  0  0  0  0  0  0  0
  147.7545  137.7822  154.9739 C   0  0  1  0  0  0  0  0  0  0  0  0
  148.2063  136.4057  155.4954 C   0  0  0  0  0  0  0  0  0  0  0  0
  150.9085  138.0492  154.8819 N   0  0  0  0  0  0  0  0  0  0  0  0
  152.0206  138.4058  155.5322 C   0  0  0  0  0  0  0  0  0  0  0  0
  152.2772  139.5397  156.1885 N   0  0  0  0  0  0  0  0  0  0  0  0
  151.2131  140.3921  156.1427 C   0  0  0  0  0  0  0  0  0  0  0  0
  145.6323  137.9006  154.8416 H   0  0  0  0  0  0  0  0  0  0  0  0
  147.5670  138.4042  155.8505 H   0  0  0  0  0  0  0  0  0  0  0  0
  151.5214  139.6386  158.1396 H   0  0  0  0  0  0  0  0  0  0  0  0
  152.2118  138.9556  159.6031 H   0  0  0  0  0  0  0  0  0  0  0  0
  153.2134  139.9437  158.5511 H   0  0  0  0  0  0  0  0  0  0  0  0
  150.8141  140.8875  160.2099 H   0  0  0  0  0  0  0  0  0  0  0  0
  151.8889  142.9032  161.7397 H   0  0  0  0  0  0  0  0  0  0  0  0
  153.6613  142.8708  161.7374 H   0  0  0  0  0  0  0  0  0  0  0  0
  152.4950  144.3508  159.8277 H   0  0  0  0  0  0  0  0  0  0  0  0
  153.7554  143.2143  159.3574 H   0  0  0  0  0  0  0  0  0  0  0  0
  150.4449  143.8087  158.6549 H   0  0  0  0  0  0  0  0  0  0  0  0
  152.1725  143.3798  157.0642 H   0  0  0  0  0  0  0  0  0  0  0  0
  153.0615  141.8972  157.3158 H   0  0  0  0  0  0  0  0  0  0  0  0
  149.4562  143.0548  156.6558 H   0  0  0  0  0  0  0  0  0  0  0  0
  148.2298  140.4907  153.7412 H   0  0  0  0  0  0  0  0  0  0  0  0
  148.4992  139.4508  152.3524 H   0  0  0  0  0  0  0  0  0  0  0  0
  146.0294  139.9068  153.8345 H   0  0  0  0  0  0  0  0  0  0  0  0
  146.1964  139.0504  152.3200 H   0  0  0  0  0  0  0  0  0  0  0  0
  144.6495  135.7001  154.4669 H   0  0  0  0  0  0  0  0  0  0  0  0
  146.2797  135.3104  155.0195 H   0  0  0  0  0  0  0  0  0  0  0  0
  145.6474  134.5404  153.5858 H   0  0  0  0  0  0  0  0  0  0  0  0
  144.4388  137.1592  152.2884 H   0  0  0  0  0  0  0  0  0  0  0  0
  145.9066  137.5897  151.4536 H   0  0  0  0  0  0  0  0  0  0  0  0
  146.2809  134.9826  151.1527 H   0  0  0  0  0  0  0  0  0  0  0  0
  144.5914  134.8785  151.5756 H   0  0  0  0  0  0  0  0  0  0  0  0
  145.5623  135.4687  149.2512 H   0  0  0  0  0  0  0  0  0  0  0  0
  147.4007  135.9103  156.0372 H   0  0  0  0  0  0  0  0  0  0  0  0
  149.0479  136.5039  156.1816 H   0  0  0  0  0  0  0  0  0  0  0  0
  148.5232  135.7482  154.6866 H   0  0  0  0  0  0  0  0  0  0  0  0
  152.8191  137.6786  155.5262 H   0  0  0  0  0  0  0  0  0  0  0  0
  147.1268  136.2815  153.0187 H   0  0  0  0  0  0  0  0  0  0  0  0
  1  2  1  0  0  0  0
  1 31  1  0  0  0  0
  1 32  1  0  0  0  0
  1 33  1  0  0  0  0
  2  6  1  0  0  0  0
  2  3  1  0  0  0  0
  2 34  1  0  0  0  0
  3  4  1  0  0  0  0
  4  5  1  0  0  0  0
  4 35  1  0  0  0  0
  4 36  1  0  0  0  0
  5  6  1  0  0  0  0
  5 37  1  0  0  0  0
  5 38  1  0  0  0  0
  6  7  1  0  0  0  0
  6  8  1  0  0  0  0
  7 39  1  0  0  0  0
  8  9  1  0  0  0  0
  8 40  1  0  0  0  0
  8 41  1  0  0  0  0
  9 28  1  0  0  0  0
  9 10  1  0  0  0  0
 10 11  2  0  0  0  0
 10 42  1  0  0  0  0
 11 12  1  0  0  0  0
 12 28  2  0  0  0  0
 12 13  1  0  0  0  0
 13 14  1  0  0  0  0
 13 25  2  0  0  0  0
 14 23  1  0  0  0  0
 14 15  1  0  0  0  0
 15 16  1  0  0  0  0
 15 43  1  0  0  0  0
 15 44  1  0  0  0  0
 16 17  1  0  0  0  0
 16 45  1  0  0  0  0
 16 46  1  0  0  0  0
 17 29  1  0  0  0  0
 17 18  1  0  0  0  0
 17 23  1  0  0  0  0
 18 19  1  0  0  0  0
 18 20  1  0  0  0  0
 18 59  1  0  0  0  0
 19 47  1  0  0  0  0
 19 48  1  0  0  0  0
 19 49  1  0  0  0  0
 20 21  1  0  0  0  0
 20 50  1  0  0  0  0
 20 51  1  0  0  0  0
 21 22  1  0  0  0  0
 21 52  1  0  0  0  0
 21 53  1  0  0  0  0
 22 54  1  0  0  0  0
 23 30  1  0  0  0  0
 23 24  1  0  0  0  0
 24 55  1  0  0  0  0
 24 56  1  0  0  0  0
 24 57  1  0  0  0  0
 25 26  1  0  0  0  0
 26 27  2  0  0  0  0
 26 58  1  0  0  0  0
 27 28  1  0  0  0  0
M  CHG  1  18   1
M  END
> <s_m_source_file>
AV-unprocessed.smi

> <i_m_source_file_index>
290

> <i_lp_mmshare_version>
43012

> <i_f3d_flags>
0

> <s_epik_input>
W0NIMl0xW0NIMl1PW0NAQEhdKFtDSDNdKVtDQEBdMShbT0hdKVtDSDJdbihbY0hdbjIpYyhjMjMpbltjSF1uYzNONFtDSDJdW0NIMl1bQ0BIXShbQ0BIXTRbQ0gzXSlOKFtDSDNdKVtDSDJdW0NIMl1bT0hd

> <s_epik_cmdline>
J2VwaWtfcHl0aG9uJywgJy1waCcsICc3LjAnLCAnLXRuJywgJzgnLCAnLW1hJywgJzIwMCcsICctbWV0YWxfYmluZGluZycsICctaW1hZScsICc8aW5maWxlLm1hZT4nLCAnLW9tYWUnLCAnPG91dGZpbGUubWFlPic=

> <r_lp_tautomer_probability>
1

> <r_epik_Ionization_Penalty>
0.0036983

> <r_epik_Ionization_Penalty_Charging>
0.0032725

> <r_epik_Ionization_Penalty_Neutral>
0.000425798

> <r_epik_State_Penalty>
-0

> <r_epik_Charging_Adjusted_Penalty>
0.0032725

> <i_epik_Tot_Q>
1

> <i_epik_Tot_abs_Q>
1

> <r_epik_Metal_State_Penalty>
-0

> <b_epik_Metal_Only>
0

> <s_lp_Force_Field>
OPLS_2005

> <r_lp_Energy>
69.1694

> <b_lp_Chiralities_Consistent>
1

> <s_lp_Variant>
AV-unprocessed.smi:290-4

> <Gold.Version>
5.8.1

> <Gold.Id.Protein>
6NUR|6NUR_protein|mol2

> <Gold.PLP.Fitness>
54.6157

> <Gold.PLP.PLP>
-43.0952

> <Gold.PLP.part.hbond>
-5.1701

> <Gold.PLP.part.metal>
0.0000

> <Gold.PLP.part.buried>
-2.5021

> <Gold.PLP.part.nonpolar>
-35.7058

> <Gold.PLP.part.repulsive>
0.4864

> <Gold.PLP.ligand.clash>
0.0000

> <Gold.PLP.ligand.torsion>
1.4443

> <Gold.PLP.Chemscore.Hbond>
4.0000

> <Gold.PLP.Chemscore.CHOScore>
0.6923

> <Gold.PLP.Chemscore.Metal>
0.0000

> <Gold.Chemscore.Hbonds>
donor molecule, donor type, donor heavy atom, donor atom, acceptor molecule, acceptor atom, score
      L1  H    18    59       P1  7948  1.37
      L1  H    22    54       P1  7921  1.00
      P1  H  7997  8008       L1    27  0.44
      L1  C    10    42       P1  8028  0.97

> <Gold.PLP.Chemscore.Internal.Correction>
0.3320

> <Gold.Rescore>
     Score         DG    S(hbond)    S(metal)    S(lipo)     H(rot)  DE(clash)    DE(int)     intcor
     10.28     -16.59       2.84        0.00      94.13       3.67       2.27       4.04       ----

> <Gold.Chemscore.Fitness>
10.2788

> <Gold.Chemscore.DG>
-16.5884

> <Gold.Chemscore.ZeroCoef>
-5.4800

> <Gold.Chemscore.Hbond>
2.8381

> <Gold.Chemscore.Metal>
0.0000

> <Gold.Chemscore.Lipo>
94.1324

> <Gold.Chemscore.Internal_Hbond>
0.0000

> <Gold.Chemscore.DEClash>
2.2671

> <Gold.Chemscore.DEInternal>
4.0425

> <Gold.Chemscore.Rot>
3.6658

> <Gold.Chemscore.Internal.Correction>
   9.000000E+99

> <Gold.Chemscore.Hbonds>
donor molecule, donor type, donor heavy atom, donor atom, acceptor molecule, acceptor atom, score
      L1  H    18    59       P1  7948  0.68
      L1  H    22    54       P1  7921  0.99
      P1  H  7997  8008       L1    27  0.34

> <Gold.Chemscore.Hbond.Weighted>
-9.4793

> <Gold.Chemscore.Metal.Weighted>
-0.0000

> <Gold.Chemscore.Lipo.Weighted>
-11.0135

> <Gold.Chemscore.Internal_Hbond.Weighted>
0.0000

> <Gold.Chemscore.DEClash.Weighted>
2.2671

> <Gold.Chemscore.DEInternal.Weighted>
4.0425

> <Gold.Chemscore.Rot.Weighted>
9.3844

> <Gold.Chemscore.Internal.Correction.Weighted>
   9.000000E+99

> <Gold.Protein.RotatedTorsions>
[ 6907 6896 6895 6894 ] final  -56.48 input  -60.11 | X-H torsion
[ 7974 7965 7964 7962 ] final  148.75 input  175.53 | X-H torsion
[ 8008 7997 7996 7995 ] final  -19.07 input   59.86 | X-H torsion
[ 10167 10162 10161 10158 ] final  -43.83 input  -65.29 | X-H torsion
[ 10718 10713 10712 10709 ] final  134.46 input   66.30 | X-H torsion
[ 10763 10752 10751 10750 ] final  177.51 input  -60.55 | X-H torsion
[ 11005 11000 10999 10996 ] final   39.60 input  -57.11 | X-H torsion

> <Gold.Protein.ActiveResidues>
 VAL166  LYS551  ARG553  GLY616  TRP617  ASP618  TYR619  PRO620  LYS621  CYS622 
 ASP623  PHE694  ASN695  SER759  ASP760  ASP761  ALA762  ILE779  LEU786  VAL792 
 PHE793  MET794  SER795  GLU796  ALA797  LYS798  CYS799  TRP800  GLU811  SER814 

> <Gold.Protein.RotatedAtoms>
  150.8164  134.7348  159.6733 H   0  0  0  0  0  0  0  0  0  0  0  0  # atno 6907 bound_to 6896
  152.4282  134.5825  159.9961 H   0  0  0  0  0  0  0  0  0  0  0  0  # atno 6908 bound_to 6896
  151.6020  133.3318  159.3085 H   0  0  0  0  0  0  0  0  0  0  0  0  # atno 6909 bound_to 6896
  144.8490  139.6194  143.5982 H   0  0  0  0  0  0  0  0  0  0  0  0  # atno 7974 bound_to 7965
  154.4862  140.2099  155.9651 H   0  0  0  0  0  0  0  0  0  0  0  0  # atno 8008 bound_to 7997
  156.1239  140.3208  155.8217 H   0  0  0  0  0  0  0  0  0  0  0  0  # atno 8009 bound_to 7997
  155.4418  140.0510  157.3000 H   0  0  0  0  0  0  0  0  0  0  0  0  # atno 8010 bound_to 7997
  140.6920  143.2962  151.3407 H   0  0  0  0  0  0  0  0  0  0  0  0  # atno 10167 bound_to 10162
  157.4670  131.1077  150.9849 H   0  0  0  0  0  0  0  0  0  0  0  0  # atno 10718 bound_to 10713
  154.4954  135.2781  155.1463 H   0  0  0  0  0  0  0  0  0  0  0  0  # atno 10763 bound_to 10752
  154.3118  135.6227  153.5472 H   0  0  0  0  0  0  0  0  0  0  0  0  # atno 10764 bound_to 10752
  152.9894  135.5721  154.5385 H   0  0  0  0  0  0  0  0  0  0  0  0  # atno 10765 bound_to 10752
  140.2012  134.3868  155.8095 H   0  0  0  0  0  0  0  0  0  0  0  0  # atno 11005 bound_to 11000
  146.2768  139.6775  142.9257 LP  0  0  0  0  0  0  0  0  0  0  0  0  # atno 17320 bound_to 7965
  145.4539  141.0429  143.2789 LP  0  0  0  0  0  0  0  0  0  0  0  0  # atno 17321 bound_to 7965
  139.6332  144.0681  152.2494 LP  0  0  0  0  0  0  0  0  0  0  0  0  # atno 17342 bound_to 10162
  140.0162  144.6187  150.7605 LP  0  0  0  0  0  0  0  0  0  0  0  0  # atno 17343 bound_to 10162
  157.0627  130.5832  149.5388 LP  0  0  0  0  0  0  0  0  0  0  0  0  # atno 17370 bound_to 10713
  156.0055  130.5141  150.7815 LP  0  0  0  0  0  0  0  0  0  0  0  0  # atno 17371 bound_to 10713
  141.2227  133.7095  156.8261 LP  0  0  0  0  0  0  0  0  0  0  0  0  # atno 17394 bound_to 11000
  140.2052  134.8868  157.3213 LP  0  0  0  0  0  0  0  0  0  0  0  0  # atno 17395 bound_to 11000

$$$$
