AV-unprocessed.smi:1535|AV-procd|sdf|6172|dock4
  -GOLD-   22720 6323D 1   1.00000     0.00000
 Structure written by MMmdl.
 46 47  0  0  0  0  0  0  0  0  1 V2000
  152.9832  142.9017  161.2524 C   0  0  0  0  0  0  0  0  0  0  0  0
  152.3940  142.5489  159.8980 C   0  0  0  0  0  0  0  0  0  0  0  0
  152.7801  141.3408  159.2748 C   0  0  0  0  0  0  0  0  0  0  0  0
  152.2547  140.9749  158.0161 C   0  0  0  0  0  0  0  0  0  0  0  0
  152.4887  139.8558  157.2363 N   0  0  0  0  0  0  0  0  0  0  0  0
  151.7099  140.0945  156.1852 C   0  0  0  0  0  0  0  0  0  0  0  0
  151.0001  141.2395  156.1899 N   0  0  0  0  0  0  0  0  0  0  0  0
  150.0919  141.7121  155.1570 C   0  0  0  0  0  0  0  0  0  0  0  0
  149.1575  140.6143  154.6043 C   0  0  2  0  0  0  0  0  0  0  0  0
  149.8555  139.8691  153.6261 O   0  0  0  0  0  0  0  0  0  0  0  0
  147.8722  141.1770  153.9562 C   0  0  0  0  0  0  0  0  0  0  0  0
  147.2073  142.2538  154.6951 N   0  0  0  0  0  0  0  0  0  0  0  0
  146.1856  142.9116  153.8819 C   0  0  0  0  0  0  0  0  0  0  0  0
  146.6345  141.7358  155.9396 C   0  0  0  0  0  0  0  0  0  0  0  0
  146.3128  142.7948  157.0115 C   0  0  1  0  0  0  0  0  0  0  0  0
  145.1248  143.6676  156.5887 C   0  0  0  0  0  0  0  0  0  0  0  0
  146.0597  142.1743  158.3228 C   0  0  0  0  0  0  0  0  0  0  0  0
  145.8608  141.6865  159.3530 N   0  0  0  0  0  0  0  0  0  0  0  0
  151.3261  141.8585  157.3922 C   0  0  0  0  0  0  0  0  0  0  0  0
  150.9349  143.0636  158.0025 C   0  0  0  0  0  0  0  0  0  0  0  0
  151.4693  143.4139  159.2600 C   0  0  0  0  0  0  0  0  0  0  0  0
  151.0387  144.7163  159.9108 C   0  0  0  0  0  0  0  0  0  0  0  0
  153.6224  142.1025  161.6282 H   0  0  0  0  0  0  0  0  0  0  0  0
  152.1923  143.0676  161.9839 H   0  0  0  0  0  0  0  0  0  0  0  0
  153.5854  143.8077  161.1807 H   0  0  0  0  0  0  0  0  0  0  0  0
  153.4849  140.6821  159.7601 H   0  0  0  0  0  0  0  0  0  0  0  0
  151.6545  139.3997  155.3597 H   0  0  0  0  0  0  0  0  0  0  0  0
  149.5067  142.5388  155.5624 H   0  0  0  0  0  0  0  0  0  0  0  0
  150.6868  142.1313  154.3450 H   0  0  0  0  0  0  0  0  0  0  0  0
  148.9193  139.9434  155.4279 H   0  0  0  0  0  0  0  0  0  0  0  0
  149.4772  140.0610  152.7813 H   0  0  0  0  0  0  0  0  0  0  0  0
  148.1018  141.5284  152.9493 H   0  0  0  0  0  0  0  0  0  0  0  0
  147.1755  140.3476  153.8252 H   0  0  0  0  0  0  0  0  0  0  0  0
  145.7273  143.7417  154.4171 H   0  0  0  0  0  0  0  0  0  0  0  0
  145.3966  142.2133  153.5993 H   0  0  0  0  0  0  0  0  0  0  0  0
  146.6061  143.3333  152.9708 H   0  0  0  0  0  0  0  0  0  0  0  0
  145.7355  141.1599  155.7139 H   0  0  0  0  0  0  0  0  0  0  0  0
  147.3349  141.0287  156.3868 H   0  0  0  0  0  0  0  0  0  0  0  0
  147.1675  143.4563  157.1466 H   0  0  0  0  0  0  0  0  0  0  0  0
  144.9076  144.4233  157.3440 H   0  0  0  0  0  0  0  0  0  0  0  0
  144.2244  143.0690  156.4480 H   0  0  0  0  0  0  0  0  0  0  0  0
  145.3326  144.1861  155.6525 H   0  0  0  0  0  0  0  0  0  0  0  0
  150.2295  143.7136  157.5065 H   0  0  0  0  0  0  0  0  0  0  0  0
  150.3774  145.2874  159.2585 H   0  0  0  0  0  0  0  0  0  0  0  0
  151.9052  145.3387  160.1348 H   0  0  0  0  0  0  0  0  0  0  0  0
  150.5042  144.5179  160.8400 H   0  0  0  0  0  0  0  0  0  0  0  0
  1  2  1  0  0  0  0
  1 23  1  0  0  0  0
  1 24  1  0  0  0  0
  1 25  1  0  0  0  0
  2 21  1  0  0  0  0
  2  3  2  0  0  0  0
  3  4  1  0  0  0  0
  3 26  1  0  0  0  0
  4 19  2  0  0  0  0
  4  5  1  0  0  0  0
  5  6  2  0  0  0  0
  6  7  1  0  0  0  0
  6 27  1  0  0  0  0
  7  8  1  0  0  0  0
  7 19  1  0  0  0  0
  8  9  1  0  0  0  0
  8 28  1  0  0  0  0
  8 29  1  0  0  0  0
  9 10  1  0  0  0  0
  9 11  1  0  0  0  0
  9 30  1  0  0  0  0
 10 31  1  0  0  0  0
 11 12  1  0  0  0  0
 11 32  1  0  0  0  0
 11 33  1  0  0  0  0
 12 13  1  0  0  0  0
 12 14  1  0  0  0  0
 13 34  1  0  0  0  0
 13 35  1  0  0  0  0
 13 36  1  0  0  0  0
 14 15  1  0  0  0  0
 14 37  1  0  0  0  0
 14 38  1  0  0  0  0
 15 16  1  0  0  0  0
 15 17  1  0  0  0  0
 15 39  1  0  0  0  0
 16 40  1  0  0  0  0
 16 41  1  0  0  0  0
 16 42  1  0  0  0  0
 17 18  3  0  0  0  0
 19 20  1  0  0  0  0
 20 21  2  0  0  0  0
 20 43  1  0  0  0  0
 21 22  1  0  0  0  0
 22 44  1  0  0  0  0
 22 45  1  0  0  0  0
 22 46  1  0  0  0  0
M  END
> <s_m_source_file>
AV-unprocessed.smi

> <i_m_source_file_index>
1535

> <i_lp_mmshare_version>
43012

> <i_f3d_flags>
0

> <s_epik_input>
W0NIM11jKFtjSF0xKWMoW0NIM10pW2NIXWMoYzEyKW4oW2NIXW4yKVtDSDJdW0NASF0oW09IXSlbQ0gyXU4oW0NIM10pW0NIMl1bQ0BIXShbQ0gzXSlDI04=

> <s_epik_cmdline>
J2VwaWtfcHl0aG9uJywgJy1waCcsICc3LjAnLCAnLXRuJywgJzgnLCAnLW1hJywgJzIwMCcsICctbWV0YWxfYmluZGluZycsICctaW1hZScsICc8aW5maWxlLm1hZT4nLCAnLW9tYWUnLCAnPG91dGZpbGUubWFlPic=

> <r_epik_Ionization_Penalty>
0.098511

> <r_epik_Ionization_Penalty_Charging>
0

> <r_epik_Ionization_Penalty_Neutral>
0.098511

> <r_epik_State_Penalty>
0.0881608

> <r_epik_Charging_Adjusted_Penalty>
0.0881608

> <i_epik_Tot_Q>
0

> <i_epik_Tot_abs_Q>
0

> <r_epik_Metal_State_Penalty>
0.0128087

> <b_epik_Metal_Only>
0

> <s_lp_Force_Field>
OPLS_2005

> <r_lp_Energy>
20.9194

> <b_lp_Chiralities_Consistent>
1

> <s_lp_Variant>
AV-unprocessed.smi:1535-3

> <Gold.Version>
5.8.1

> <Gold.Id.Protein>
6NUR|6NUR_protein|mol2

> <Gold.PLP.Fitness>
56.5112

> <Gold.PLP.PLP>
-46.5306

> <Gold.PLP.part.hbond>
-3.8769

> <Gold.PLP.part.metal>
0.0000

> <Gold.PLP.part.buried>
-6.1237

> <Gold.PLP.part.nonpolar>
-36.0940

> <Gold.PLP.part.repulsive>
0.4776

> <Gold.PLP.ligand.clash>
0.0000

> <Gold.PLP.ligand.torsion>
0.8281

> <Gold.PLP.Chemscore.Hbond>
3.7214

> <Gold.PLP.Chemscore.CHOScore>
0.0000

> <Gold.PLP.Chemscore.Metal>
0.0000

> <Gold.Chemscore.Hbonds>
donor molecule, donor type, donor heavy atom, donor atom, acceptor molecule, acceptor atom, score
      L1  H    10    31       P1  7957  0.98
      P1  H  6934  6946       L1    18  1.00
      P1  H  7989  7998       L1    10  0.74
      P1  H  7997  8009       L1     5  1.00

> <Gold.PLP.Chemscore.Internal.Correction>
0.4725

> <Gold.Rescore>
     Score         DG    S(hbond)    S(metal)    S(lipo)     H(rot)  DE(clash)    DE(int)     intcor
     20.20     -21.85       2.76        0.00     116.10       2.51       0.72       0.93       ----

> <Gold.Chemscore.Fitness>
20.1979

> <Gold.Chemscore.DG>
-21.8522

> <Gold.Chemscore.ZeroCoef>
-5.4800

> <Gold.Chemscore.Hbond>
2.7597

> <Gold.Chemscore.Metal>
0.0000

> <Gold.Chemscore.Lipo>
116.0989

> <Gold.Chemscore.Internal_Hbond>
0.0000

> <Gold.Chemscore.DEClash>
0.7220

> <Gold.Chemscore.DEInternal>
0.9323

> <Gold.Chemscore.Rot>
2.5113

> <Gold.Chemscore.Internal.Correction>
   9.000000E+99

> <Gold.Chemscore.Hbonds>
donor molecule, donor type, donor heavy atom, donor atom, acceptor molecule, acceptor atom, score
      L1  H    10    31       P1  7957  0.93
      P1  H  6934  6946       L1    18  0.95
      P1  H  7989  7998       L1    10  0.07
      P1  H  7997  8009       L1     5  0.21

> <Gold.Chemscore.Hbond.Weighted>
-9.2175

> <Gold.Chemscore.Metal.Weighted>
-0.0000

> <Gold.Chemscore.Lipo.Weighted>
-13.5836

> <Gold.Chemscore.Internal_Hbond.Weighted>
0.0000

> <Gold.Chemscore.DEClash.Weighted>
0.7220

> <Gold.Chemscore.DEInternal.Weighted>
0.9323

> <Gold.Chemscore.Rot.Weighted>
6.4289

> <Gold.Chemscore.Internal.Correction.Weighted>
   9.000000E+99

> <Gold.Protein.RotatedTorsions>
[ 6907 6896 6895 6894 ] final  -28.75 input  -60.11 | X-H torsion
[ 7974 7965 7964 7962 ] final   31.91 input  175.53 | X-H torsion
[ 8008 7997 7996 7995 ] final -172.64 input   59.86 | X-H torsion
[ 10167 10162 10161 10158 ] final -137.51 input  -65.29 | X-H torsion
[ 10718 10713 10712 10709 ] final -179.43 input   66.30 | X-H torsion
[ 10763 10752 10751 10750 ] final   26.57 input  -60.55 | X-H torsion
[ 11005 11000 10999 10996 ] final   25.16 input  -57.11 | X-H torsion

> <Gold.Protein.ActiveResidues>
 VAL166  LYS551  ARG553  GLY616  TRP617  ASP618  TYR619  PRO620  LYS621  CYS622 
 ASP623  PHE694  ASN695  SER759  ASP760  ASP761  ALA762  ILE779  LEU786  VAL792 
 PHE793  MET794  SER795  GLU796  ALA797  LYS798  CYS799  TRP800  GLU811  SER814 

> <Gold.Protein.RotatedAtoms>
  151.1286  135.0118  159.8571 H   0  0  0  0  0  0  0  0  0  0  0  0  # atno 6907 bound_to 6896
  152.5450  134.1637  159.8578 H   0  0  0  0  0  0  0  0  0  0  0  0  # atno 6908 bound_to 6896
  151.1702  133.4744  159.2627 H   0  0  0  0  0  0  0  0  0  0  0  0  # atno 6909 bound_to 6896
  146.1520  139.6595  142.9092 H   0  0  0  0  0  0  0  0  0  0  0  0  # atno 7974 bound_to 7965
  155.9472  140.1119  157.1007 H   0  0  0  0  0  0  0  0  0  0  0  0  # atno 8008 bound_to 7997
  154.4101  140.1207  156.5070 H   0  0  0  0  0  0  0  0  0  0  0  0  # atno 8009 bound_to 7997
  155.6888  140.3472  155.4887 H   0  0  0  0  0  0  0  0  0  0  0  0  # atno 8010 bound_to 7997
  139.8571  143.7125  152.2653 H   0  0  0  0  0  0  0  0  0  0  0  0  # atno 10167 bound_to 10162
  156.8591  130.9745  151.3085 H   0  0  0  0  0  0  0  0  0  0  0  0  # atno 10718 bound_to 10713
  153.0613  135.6557  154.0455 H   0  0  0  0  0  0  0  0  0  0  0  0  # atno 10763 bound_to 10752
  154.0122  135.2927  155.3392 H   0  0  0  0  0  0  0  0  0  0  0  0  # atno 10764 bound_to 10752
  154.6953  135.5266  153.8517 H   0  0  0  0  0  0  0  0  0  0  0  0  # atno 10765 bound_to 10752
  140.3509  134.2230  155.7680 H   0  0  0  0  0  0  0  0  0  0  0  0  # atno 11005 bound_to 11000
  145.4799  141.0438  143.2651 LP  0  0  0  0  0  0  0  0  0  0  0  0  # atno 17320 bound_to 7965
  144.7916  139.6316  143.7111 LP  0  0  0  0  0  0  0  0  0  0  0  0  # atno 17321 bound_to 7965
  139.7409  144.7559  151.0653 LP  0  0  0  0  0  0  0  0  0  0  0  0  # atno 17342 bound_to 10162
  140.7780  143.4973  150.9816 LP  0  0  0  0  0  0  0  0  0  0  0  0  # atno 17343 bound_to 10162
  157.6260  130.8692  149.9191 LP  0  0  0  0  0  0  0  0  0  0  0  0  # atno 17370 bound_to 10713
  156.0787  130.3676  150.0625 LP  0  0  0  0  0  0  0  0  0  0  0  0  # atno 17371 bound_to 10713
  141.2012  133.7967  157.0450 LP  0  0  0  0  0  0  0  0  0  0  0  0  # atno 17394 bound_to 11000
  140.0704  134.9705  157.1458 LP  0  0  0  0  0  0  0  0  0  0  0  0  # atno 17395 bound_to 11000

$$$$
