#       Name:                AV-unprocessed.smi:2784
#       Creating user name   scv26
#       Creation time:       Fri Mar 27 15:17:15 2020


#       File generated by GOLD software.
#

@<TRIPOS>MOLECULE
AV-unprocessed.smi:2784
    38    39     1
SMALL
NO_CHARGES


@<TRIPOS>ATOM
      1 ****        -2.1667   0.9483  -2.1423 C.3            1 S1                 0.0000
      2 ****        -1.2178   0.2805  -2.9591 O.3            1 S1                 0.0000
      3 ****         0.1052   0.3198  -2.4419 C.3            1 S1                 0.0000
      4 ****         1.0867  -0.1622  -3.5136 C.3            1 S1                 0.0000
      5 ****         2.2564  -0.7383  -2.7240 C.3            1 S1                 0.0000
      6 ****         1.5906  -1.4333  -1.5368 C.3            1 S1                 0.0000
      7 ****         0.3114  -0.6265  -1.2366 C.3            1 S1                 0.0000
      8 ****         0.4521   0.1405  -0.0011 N.am           1 S1                 0.0000
      9 ****         0.2106  -0.3205   1.2348 C.2            1 S1                 0.0000
     10 ****        -0.1580  -1.4824   1.4332 O.2            1 S1                 0.0000
     11 ****         0.4043   0.6872   2.1676 N.2            1 S1                 0.0000
     12 ****        -0.1827   0.6110   3.3226 C.2            1 S1                 0.0000
     13 ****        -1.0545  -0.3191   3.8827 N.pl3          1 S1                 0.0000
     14 ****        -1.3765   0.1033   5.1420 C.2            1 S1                 0.0000
     15 ****        -0.7389   1.2480   5.3680 C.2            1 S1                 0.0000
     16 ****        -0.0010   1.5839   4.2728 O.3            1 S1                 0.0000
     17 ****        -3.1493   0.8984  -2.6111 H              1 S1                 0.0000
     18 ****        -1.9085   2.0005  -2.0174 H              1 S1                 0.0000
     19 ****        -2.2445   0.4889  -1.1566 H              1 S1                 0.0000
     20 ****         0.3763   1.3451  -2.1802 H              1 S1                 0.0000
     21 ****         0.6297  -0.9545  -4.1085 H              1 S1                 0.0000
     22 ****         1.3870   0.6337  -4.1956 H              1 S1                 0.0000
     23 ****         2.8717  -1.4158  -3.3166 H              1 S1                 0.0000
     24 ****         2.8953   0.0710  -2.3680 H              1 S1                 0.0000
     25 ****         1.3131  -2.4480  -1.8255 H              1 S1                 0.0000
     26 ****         2.2639  -1.5181  -0.6826 H              1 S1                 0.0000
     27 ****        -0.5326  -1.3143  -1.1560 H              1 S1                 0.0000
     28 ****         0.7431   1.1027  -0.0951 H              1 S1                 0.0000
     29 ****        -1.4118  -1.1685   3.4689 H              1 S1                 0.0000
     30 ****        -2.0467  -0.4769   5.7590 H              1 S1                 0.0000
     31 ****        -0.7077   1.9150   6.2169 H              1 S1                 0.0000
     32 ****        -1.2176   0.7122  -3.8611 LP             1 S1                 0.0000
     33 ****        -1.4945  -0.6764  -3.0475 LP             1 S1                 0.0000
     34 ****        -0.2835  -2.1058   0.6615 LP             1 S1                 0.0000
     35 ****        -0.3310  -1.7998   2.3656 LP             1 S1                 0.0000
     36 ****         0.9920   1.4670   1.9519 LP             1 S1                 0.0000
     37 ****        -0.3058   2.4671   3.9164 LP             1 S1                 0.0000
     38 ****         0.9664   1.6401   4.5199 LP             1 S1                 0.0000
@<TRIPOS>BOND
    1    1    2 1     
    2    1   17 1     
    3    1   18 1     
    4    1   19 1     
    5    2    3 1     
    6    3    7 1     
    7    3    4 1     
    8    3   20 1     
    9    4    5 1     
   10    4   21 1     
   11    4   22 1     
   12    5    6 1     
   13    5   23 1     
   14    5   24 1     
   15    6    7 1     
   16    6   25 1     
   17    6   26 1     
   18    7    8 1     
   19    7   27 1     
   20    8   28 1     
   21    8    9 am    
   22    9   11 1     
   23    9   10 2     
   24   11   12 2     
   25   12   16 1     
   26   12   13 1     
   27   13   29 1     
   28   13   14 1     
   29   14   30 1     
   30   14   15 2     
   31   15   31 1     
   32   15   16 1     
   33    2   32 1     
   34    2   33 1     
   35   10   34 1     
   36   10   35 1     
   37   11   36 1     
   38   16   37 1     
   39   16   38 1     
@<TRIPOS>SUBSTRUCTURE
      1 S1             1
@<TRIPOS>SET
LONE_PAIRS      STATIC     ATOMS    <user>   **** ""
7 32 33 34 35 36 37 38
DONOR_HYDROGENS      STATIC     ATOMS    <user>   **** ""
2 28 29
ATOM$BLUE        STATIC     ATOMS    COLORGROUP SYSTEM
7 32 33 34 35 36 37 38
ATOM$RED        STATIC     ATOMS    COLORGROUP SYSTEM
2 28 29
