AV-unprocessed.smi:1676|AV-procd|sdf|6719|dock7
  -GOLD-   22720 7463D 1   1.00000     0.00000
 Structure written by MMmdl.
 42 43  0  0  0  0  0  0  0  0  2 V2000
  148.1653  135.9645  161.2811 C   0  0  0  0  0  0  0  0  0  0  0  0
  147.5732  136.7903  160.1753 C   0  0  0  0  0  0  0  0  0  0  0  0
  146.3591  137.2930  160.3239 N   0  0  0  0  0  0  0  0  0  0  0  0
  146.0972  138.0144  159.1552 O   0  0  0  0  0  0  0  0  0  0  0  0
  147.1776  137.9173  158.3395 C   0  0  0  0  0  0  0  0  0  0  0  0
  147.0963  138.6350  157.0352 C   0  0  0  0  0  0  0  0  0  0  0  0
  148.1482  137.1494  158.9218 C   0  0  0  0  0  0  0  0  0  0  0  0
  149.5064  136.7794  158.3751 C   0  0  0  0  0  0  0  0  0  0  0  0
  150.5084  137.9354  158.4921 C   0  0  0  0  0  0  0  0  0  0  0  0
  151.2431  138.0296  159.4757 O   0  0  0  0  0  0  0  0  0  0  0  0
  150.4895  138.7960  157.4568 N   0  0  0  0  0  0  0  0  0  0  0  0
  151.2628  140.0140  157.1480 C   0  0  0  0  0  0  0  0  0  0  0  0
  151.7057  139.8272  155.6711 C   0  0  0  0  0  0  0  0  0  0  0  0
  150.8358  139.8492  154.7716 O   0  0  0  0  0  0  0  0  0  0  0  0
  152.9238  139.6252  155.4600 O   0  5  0  0  0  0  0  0  0  0  0  0
  150.4519  141.3419  157.3212 C   0  0  0  0  0  0  0  0  0  0  0  0
  151.2706  142.6449  157.2395 C   0  0  0  0  0  0  0  0  0  0  0  0
  151.7562  143.1178  158.6195 C   0  0  0  0  0  0  0  0  0  0  0  0
  152.8386  142.2334  159.2564 C   0  0  0  0  0  0  0  0  0  0  0  0
  152.4693  140.7435  159.3854 C   0  0  0  0  0  0  0  0  0  0  0  0
  152.5411  139.9860  158.0454 C   0  0  0  0  0  0  0  0  0  0  0  0
  149.0251  135.3914  160.9355 H   0  0  0  0  0  0  0  0  0  0  0  0
  147.4378  135.2568  161.6796 H   0  0  0  0  0  0  0  0  0  0  0  0
  148.5001  136.5979  162.1026 H   0  0  0  0  0  0  0  0  0  0  0  0
  148.0915  138.8662  156.6549 H   0  0  0  0  0  0  0  0  0  0  0  0
  146.5516  139.5735  157.1408 H   0  0  0  0  0  0  0  0  0  0  0  0
  146.5823  138.0261  156.2918 H   0  0  0  0  0  0  0  0  0  0  0  0
  149.9164  135.9137  158.8960 H   0  0  0  0  0  0  0  0  0  0  0  0
  149.4369  136.4911  157.3255 H   0  0  0  0  0  0  0  0  0  0  0  0
  149.8032  138.5796  156.7484 H   0  0  0  0  0  0  0  0  0  0  0  0
  149.6554  141.3889  156.5768 H   0  0  0  0  0  0  0  0  0  0  0  0
  149.9266  141.3440  158.2757 H   0  0  0  0  0  0  0  0  0  0  0  0
  152.1039  142.5537  156.5425 H   0  0  0  0  0  0  0  0  0  0  0  0
  150.6267  143.4242  156.8305 H   0  0  0  0  0  0  0  0  0  0  0  0
  152.1516  144.1295  158.5237 H   0  0  0  0  0  0  0  0  0  0  0  0
  150.9063  143.1981  159.2982 H   0  0  0  0  0  0  0  0  0  0  0  0
  153.7696  142.3343  158.6971 H   0  0  0  0  0  0  0  0  0  0  0  0
  153.0520  142.6256  160.2512 H   0  0  0  0  0  0  0  0  0  0  0  0
  153.1960  140.2884  160.0593 H   0  0  0  0  0  0  0  0  0  0  0  0
  151.5009  140.6095  159.8680 H   0  0  0  0  0  0  0  0  0  0  0  0
  152.8013  138.9481  158.2615 H   0  0  0  0  0  0  0  0  0  0  0  0
  153.4057  140.3685  157.4995 H   0  0  0  0  0  0  0  0  0  0  0  0
  1  2  1  0  0  0  0
  1 22  1  0  0  0  0
  1 23  1  0  0  0  0
  1 24  1  0  0  0  0
  2  7  1  0  0  0  0
  2  3  2  0  0  0  0
  3  4  1  0  0  0  0
  4  5  1  0  0  0  0
  5  6  1  0  0  0  0
  5  7  2  0  0  0  0
  6 25  1  0  0  0  0
  6 26  1  0  0  0  0
  6 27  1  0  0  0  0
  7  8  1  0  0  0  0
  8  9  1  0  0  0  0
  8 28  1  0  0  0  0
  8 29  1  0  0  0  0
  9 10  2  0  0  0  0
  9 11  1  0  0  0  0
 11 12  1  0  0  0  0
 11 30  1  0  0  0  0
 12 21  1  0  0  0  0
 12 13  1  0  0  0  0
 12 16  1  0  0  0  0
 13 14  2  0  0  0  0
 13 15  1  0  0  0  0
 16 17  1  0  0  0  0
 16 31  1  0  0  0  0
 16 32  1  0  0  0  0
 17 18  1  0  0  0  0
 17 33  1  0  0  0  0
 17 34  1  0  0  0  0
 18 19  1  0  0  0  0
 18 35  1  0  0  0  0
 18 36  1  0  0  0  0
 19 20  1  0  0  0  0
 19 37  1  0  0  0  0
 19 38  1  0  0  0  0
 20 21  1  0  0  0  0
 20 39  1  0  0  0  0
 20 40  1  0  0  0  0
 21 41  1  0  0  0  0
 21 42  1  0  0  0  0
M  CHG  1  15  -1
M  END
> <s_m_source_file>
AV-unprocessed.smi

> <i_m_source_file_index>
1676

> <i_lp_mmshare_version>
43012

> <i_f3d_flags>
0

> <s_epik_input>
W0NIM11jMW5vYyhbQ0gzXSljMVtDSDJdQyg9TylbTkhdQzIoQyg9TylbT0hdKVtDSDJdW0NIMl1bQ0gyXVtDSDJdW0NIMl1bQ0gyXTI=

> <s_epik_cmdline>
J2VwaWtfcHl0aG9uJywgJy1waCcsICc3LjAnLCAnLXRuJywgJzgnLCAnLW1hJywgJzIwMCcsICctbWV0YWxfYmluZGluZycsICctaW1hZScsICc8aW5maWxlLm1hZT4nLCAnLW9tYWUnLCAnPG91dGZpbGUubWFlPic=

> <r_epik_Ionization_Penalty>
0.000392727

> <r_epik_Ionization_Penalty_Charging>
0.000392708

> <r_epik_Ionization_Penalty_Neutral>
1.90763e-08

> <r_epik_State_Penalty>
0.000240388

> <r_epik_Charging_Adjusted_Penalty>
0.000633096

> <i_epik_Tot_Q>
-1

> <i_epik_Tot_abs_Q>
1

> <r_epik_Metal_State_Penalty>
-0

> <b_epik_Metal_Only>
0

> <s_lp_Force_Field>
OPLS_2005

> <r_lp_Energy>
9.66029

> <b_lp_Chiralities_Consistent>
1

> <s_lp_Variant>
AV-unprocessed.smi:1676-1

> <Gold.Version>
5.8.1

> <Gold.Id.Protein>
6NUR|6NUR_protein|mol2

> <Gold.PLP.Fitness>
39.3877

> <Gold.PLP.PLP>
-32.0191

> <Gold.PLP.part.hbond>
-4.3447

> <Gold.PLP.part.metal>
0.0000

> <Gold.PLP.part.buried>
-4.2061

> <Gold.PLP.part.nonpolar>
-23.0512

> <Gold.PLP.part.repulsive>
0.0923

> <Gold.PLP.ligand.clash>
0.0263

> <Gold.PLP.ligand.torsion>
0.9953

> <Gold.PLP.Chemscore.Hbond>
3.1050

> <Gold.PLP.Chemscore.CHOScore>
0.0000

> <Gold.PLP.Chemscore.Metal>
0.0000

> <Gold.Chemscore.Hbonds>
donor molecule, donor type, donor heavy atom, donor atom, acceptor molecule, acceptor atom, score
      P1  H  6934  6947       L1     3  0.08
      P1  H  7989  7998       L1    14  1.00
      P1  H  7997  8009       L1    15  2.00

> <Gold.PLP.Chemscore.Internal.Correction>
0.0705

> <Gold.Rescore>
     Score         DG    S(hbond)    S(metal)    S(lipo)     H(rot)  DE(clash)    DE(int)     intcor
     11.83     -15.60       1.93        0.00      72.84       1.89       0.03       3.74       ----

> <Gold.Chemscore.Fitness>
11.8269

> <Gold.Chemscore.DG>
-15.5972

> <Gold.Chemscore.ZeroCoef>
-5.4800

> <Gold.Chemscore.Hbond>
1.9279

> <Gold.Chemscore.Metal>
0.0000

> <Gold.Chemscore.Lipo>
72.8414

> <Gold.Chemscore.Internal_Hbond>
0.0000

> <Gold.Chemscore.DEClash>
0.0318

> <Gold.Chemscore.DEInternal>
3.7384

> <Gold.Chemscore.Rot>
1.8924

> <Gold.Chemscore.Internal.Correction>
   9.000000E+99

> <Gold.Chemscore.Hbonds>
donor molecule, donor type, donor heavy atom, donor atom, acceptor molecule, acceptor atom, score
      P1  H  7989  7998       L1    14  0.35
      P1  H  7997  8009       L1    15  1.00

> <Gold.Chemscore.Hbond.Weighted>
-6.4392

> <Gold.Chemscore.Metal.Weighted>
-0.0000

> <Gold.Chemscore.Lipo.Weighted>
-8.5224

> <Gold.Chemscore.Internal_Hbond.Weighted>
0.0000

> <Gold.Chemscore.DEClash.Weighted>
0.0318

> <Gold.Chemscore.DEInternal.Weighted>
3.7384

> <Gold.Chemscore.Rot.Weighted>
4.8445

> <Gold.Chemscore.Internal.Correction.Weighted>
   9.000000E+99

> <Gold.Protein.RotatedTorsions>
[ 6907 6896 6895 6894 ] final   68.04 input  -60.11 | X-H torsion
[ 7974 7965 7964 7962 ] final -139.03 input  175.53 | X-H torsion
[ 8008 7997 7996 7995 ] final -143.25 input   59.86 | X-H torsion
[ 10167 10162 10161 10158 ] final -139.11 input  -65.29 | X-H torsion
[ 10718 10713 10712 10709 ] final  116.22 input   66.30 | X-H torsion
[ 10763 10752 10751 10750 ] final  -29.54 input  -60.55 | X-H torsion
[ 11005 11000 10999 10996 ] final  148.46 input  -57.11 | X-H torsion

> <Gold.Protein.ActiveResidues>
 VAL166  LYS551  ARG553  GLY616  TRP617  ASP618  TYR619  PRO620  LYS621  CYS622 
 ASP623  PHE694  ASN695  SER759  ASP760  ASP761  ALA762  ILE779  LEU786  VAL792 
 PHE793  MET794  SER795  GLU796  ALA797  LYS798  CYS799  TRP800  GLU811  SER814 

> <Gold.Protein.RotatedAtoms>
  152.4593  134.5220  159.9785 H   0  0  0  0  0  0  0  0  0  0  0  0  # atno 6907 bound_to 6896
  151.5273  133.3449  159.2920 H   0  0  0  0  0  0  0  0  0  0  0  0  # atno 6908 bound_to 6896
  150.8550  134.7915  159.7100 H   0  0  0  0  0  0  0  0  0  0  0  0  # atno 6909 bound_to 6896
  144.8710  140.6366  143.5267 H   0  0  0  0  0  0  0  0  0  0  0  0  # atno 7974 bound_to 7965
  155.5075  140.0580  157.2929 H   0  0  0  0  0  0  0  0  0  0  0  0  # atno 8008 bound_to 7997
  154.4564  140.1975  156.0316 H   0  0  0  0  0  0  0  0  0  0  0  0  # atno 8009 bound_to 7997
  156.0807  140.3247  155.7694 H   0  0  0  0  0  0  0  0  0  0  0  0  # atno 8010 bound_to 7997
  139.8412  143.7320  152.2663 H   0  0  0  0  0  0  0  0  0  0  0  0  # atno 10167 bound_to 10162
  157.6174  131.1022  150.7442 H   0  0  0  0  0  0  0  0  0  0  0  0  # atno 10718 bound_to 10713
  153.7664  135.6915  153.4915 H   0  0  0  0  0  0  0  0  0  0  0  0  # atno 10763 bound_to 10752
  153.1904  135.4473  155.0141 H   0  0  0  0  0  0  0  0  0  0  0  0  # atno 10764 bound_to 10752
  154.8134  135.3388  154.7176 H   0  0  0  0  0  0  0  0  0  0  0  0  # atno 10765 bound_to 10752
  140.0961  134.9011  157.1725 H   0  0  0  0  0  0  0  0  0  0  0  0  # atno 11005 bound_to 11000
  145.4131  139.1577  143.4115 LP  0  0  0  0  0  0  0  0  0  0  0  0  # atno 17320 bound_to 7965
  146.2930  140.4236  142.8732 LP  0  0  0  0  0  0  0  0  0  0  0  0  # atno 17321 bound_to 7965
  139.7557  144.7521  151.0439 LP  0  0  0  0  0  0  0  0  0  0  0  0  # atno 17342 bound_to 10162
  140.7798  143.4808  151.0021 LP  0  0  0  0  0  0  0  0  0  0  0  0  # atno 17343 bound_to 10162
  156.7807  130.4858  149.5401 LP  0  0  0  0  0  0  0  0  0  0  0  0  # atno 17370 bound_to 10713
  156.1302  130.6172  151.0322 LP  0  0  0  0  0  0  0  0  0  0  0  0  # atno 17371 bound_to 10713
  140.3284  134.2837  155.7232 LP  0  0  0  0  0  0  0  0  0  0  0  0  # atno 17394 bound_to 11000
  141.2092  133.7755  157.0009 LP  0  0  0  0  0  0  0  0  0  0  0  0  # atno 17395 bound_to 11000

$$$$
