AV-unprocessed.smi:47|AV-procd|sdf|426|dock1
  -GOLD-   2262016303D 1   1.00000     0.00000
 Structure written by MMmdl.
 32 34  0  0  0  0  0  0  0  0  2 V2000
  145.1322  140.3812  155.0209 O   0  0  0  0  0  0  0  0  0  0  0  0
  146.3832  141.0219  155.1532 C   0  0  2  0  0  0  0  0  0  0  0  0
  146.3855  142.4183  154.5345 C   0  0  0  0  0  0  0  0  0  0  0  0
  147.7974  142.6971  154.2157 N   0  3  0  0  0  0  0  0  0  0  0  0
  148.5189  141.4101  154.0965 C   0  0  1  0  0  0  0  0  0  0  0  0
  149.6762  141.3535  155.0466 C   0  0  0  0  0  0  0  0  0  0  0  0
  150.5794  140.3826  154.9637 N   0  0  0  0  0  0  0  0  0  0  0  0
  151.3921  140.6703  156.0011 N   0  0  0  0  0  0  0  0  0  0  0  0
  150.9508  141.7542  156.6519 C   0  0  0  0  0  0  0  0  0  0  0  0
  151.5920  142.3395  157.8313 C   0  0  0  0  0  0  0  0  0  0  0  0
  152.2084  141.5106  158.7976 C   0  0  0  0  0  0  0  0  0  0  0  0
  152.8246  142.0727  159.9325 C   0  0  0  0  0  0  0  0  0  0  0  0
  152.8314  143.4684  160.1133 C   0  0  0  0  0  0  0  0  0  0  0  0
  152.2214  144.3021  159.1576 C   0  0  0  0  0  0  0  0  0  0  0  0
  151.6044  143.7411  158.0225 C   0  0  0  0  0  0  0  0  0  0  0  0
  149.8424  142.2300  156.0826 N   0  0  0  0  0  0  0  0  0  0  0  0
  147.4824  140.3083  154.3703 C   0  0  0  0  0  0  0  0  0  0  0  0
  146.6565  141.0810  156.2079 H   0  0  0  0  0  0  0  0  0  0  0  0
  148.8972  141.3158  153.0776 H   0  0  0  0  0  0  0  0  0  0  0  0
  152.2060  140.1167  156.2287 H   0  0  0  0  0  0  0  0  0  0  0  0
  144.7909  140.5564  154.1568 H   0  0  0  0  0  0  0  0  0  0  0  0
  145.8198  142.4240  153.6014 H   0  0  0  0  0  0  0  0  0  0  0  0
  145.9608  143.1760  155.1934 H   0  0  0  0  0  0  0  0  0  0  0  0
  147.8744  143.2386  153.3670 H   0  0  0  0  0  0  0  0  0  0  0  0
  152.2155  140.4371  158.6801 H   0  0  0  0  0  0  0  0  0  0  0  0
  153.2926  141.4317  160.6652 H   0  0  0  0  0  0  0  0  0  0  0  0
  153.3041  143.8993  160.9838 H   0  0  0  0  0  0  0  0  0  0  0  0
  152.2261  145.3734  159.2953 H   0  0  0  0  0  0  0  0  0  0  0  0
  151.1419  144.4001  157.3025 H   0  0  0  0  0  0  0  0  0  0  0  0
  147.8904  139.4385  154.8872 H   0  0  0  0  0  0  0  0  0  0  0  0
  147.0783  139.9610  153.4177 H   0  0  0  0  0  0  0  0  0  0  0  0
  148.2083  143.2086  154.9843 H   0  0  0  0  0  0  0  0  0  0  0  0
  1  2  1  0  0  0  0
  1 21  1  0  0  0  0
  2 18  1  0  0  0  0
  2 17  1  0  0  0  0
  2  3  1  0  0  0  0
  3  4  1  0  0  0  0
  3 22  1  0  0  0  0
  3 23  1  0  0  0  0
  4  5  1  0  0  0  0
  4 24  1  0  0  0  0
  4 32  1  0  0  0  0
  5 19  1  0  0  0  0
  5  6  1  0  0  0  0
  5 17  1  0  0  0  0
  6 16  1  0  0  0  0
  6  7  2  0  0  0  0
  7  8  1  0  0  0  0
  8 20  1  0  0  0  0
  8  9  1  0  0  0  0
  9 10  1  0  0  0  0
  9 16  2  0  0  0  0
 10 15  1  0  0  0  0
 10 11  2  0  0  0  0
 11 12  1  0  0  0  0
 11 25  1  0  0  0  0
 12 13  2  0  0  0  0
 12 26  1  0  0  0  0
 13 14  1  0  0  0  0
 13 27  1  0  0  0  0
 14 15  2  0  0  0  0
 14 28  1  0  0  0  0
 15 29  1  0  0  0  0
 17 30  1  0  0  0  0
 17 31  1  0  0  0  0
M  CHG  1   4   1
M  END
> <s_m_source_file>
AV-unprocessed.smi

> <i_m_source_file_index>
47

> <i_lp_mmshare_version>
43012

> <i_f3d_flags>
0

> <s_epik_input>
W09IXVtDQEhdMVtDSDJdW05IXVtDQEBIXShbQ0gyXTEpYzJuW25IXWMobjIpLWMzW2NIXVtjSF1bY0hdW2NIXVtjSF0z

> <s_epik_cmdline>
J2VwaWtfcHl0aG9uJywgJy1waCcsICc3LjAnLCAnLXRuJywgJzgnLCAnLW1hJywgJzIwMCcsICctbWV0YWxfYmluZGluZycsICctaW1hZScsICc8aW5maWxlLm1hZT4nLCAnLW9tYWUnLCAnPG91dGZpbGUubWFlPic=

> <r_lp_tautomer_probability>
0.948284

> <r_epik_Ionization_Penalty>
0.163822

> <r_epik_Ionization_Penalty_Charging>
0.0371552

> <r_epik_Ionization_Penalty_Neutral>
0.126667

> <r_epik_State_Penalty>
0.318338

> <r_epik_Charging_Adjusted_Penalty>
0.355493

> <i_epik_Tot_Q>
1

> <i_epik_Tot_abs_Q>
1

> <r_epik_Metal_State_Penalty>
0.81572

> <b_epik_Metal_Only>
0

> <s_lp_Force_Field>
OPLS_2005

> <r_lp_Energy>
24.5404

> <b_lp_Chiralities_Consistent>
1

> <s_lp_Variant>
AV-unprocessed.smi:47-4

> <Gold.Version>
5.8.1

> <Gold.Id.Protein>
6NUR|6NUR_protein|mol2

> <Gold.PLP.Fitness>
47.0057

> <Gold.PLP.PLP>
-36.6056

> <Gold.PLP.part.hbond>
-3.0000

> <Gold.PLP.part.metal>
0.0000

> <Gold.PLP.part.buried>
-4.8437

> <Gold.PLP.part.nonpolar>
-30.7425

> <Gold.PLP.part.repulsive>
3.2786

> <Gold.PLP.ligand.clash>
0.0000

> <Gold.PLP.ligand.torsion>
0.8075

> <Gold.PLP.Chemscore.Hbond>
4.0000

> <Gold.PLP.Chemscore.CHOScore>
0.0000

> <Gold.PLP.Chemscore.Metal>
0.0000

> <Gold.Chemscore.Hbonds>
donor molecule, donor type, donor heavy atom, donor atom, acceptor molecule, acceptor atom, score
      L1  H     1    21       P1 10175  1.00
      L1  H     4    32       P1  8028  1.95
      P1  H  7989  7998       L1     7  1.00

> <Gold.PLP.Chemscore.Internal.Correction>
0.0151

> <Gold.Rescore>
     Score         DG    S(hbond)    S(metal)    S(lipo)     H(rot)  DE(clash)    DE(int)     intcor
     16.90     -19.33       2.20        0.00      88.19       1.50       1.88       0.55       ----

> <Gold.Chemscore.Fitness>
16.8995

> <Gold.Chemscore.DG>
-19.3277

> <Gold.Chemscore.ZeroCoef>
-5.4800

> <Gold.Chemscore.Hbond>
2.2039

> <Gold.Chemscore.Metal>
0.0000

> <Gold.Chemscore.Lipo>
88.1880

> <Gold.Chemscore.Internal_Hbond>
0.0000

> <Gold.Chemscore.DEClash>
1.8775

> <Gold.Chemscore.DEInternal>
0.5506

> <Gold.Chemscore.Rot>
1.4966

> <Gold.Chemscore.Internal.Correction>
   9.000000E+99

> <Gold.Chemscore.Hbonds>
donor molecule, donor type, donor heavy atom, donor atom, acceptor molecule, acceptor atom, score
      L1  H     1    21       P1 10175  0.96
      L1  H     4    32       P1  8028  0.90
      P1  H  7989  7998       L1     7  0.13

> <Gold.Chemscore.Hbond.Weighted>
-7.3609

> <Gold.Chemscore.Metal.Weighted>
-0.0000

> <Gold.Chemscore.Lipo.Weighted>
-10.3180

> <Gold.Chemscore.Internal_Hbond.Weighted>
0.0000

> <Gold.Chemscore.DEClash.Weighted>
1.8775

> <Gold.Chemscore.DEInternal.Weighted>
0.5506

> <Gold.Chemscore.Rot.Weighted>
3.8312

> <Gold.Chemscore.Internal.Correction.Weighted>
   9.000000E+99

> <Gold.Protein.RotatedTorsions>
[ 6907 6896 6895 6894 ] final  -22.28 input  -60.11 | X-H torsion
[ 7974 7965 7964 7962 ] final  -22.05 input  175.53 | X-H torsion
[ 8008 7997 7996 7995 ] final  179.31 input   59.86 | X-H torsion
[ 10167 10162 10161 10158 ] final    1.98 input  -65.29 | X-H torsion
[ 10718 10713 10712 10709 ] final   23.44 input   66.30 | X-H torsion
[ 10763 10752 10751 10750 ] final   64.80 input  -60.55 | X-H torsion
[ 11005 11000 10999 10996 ] final  151.82 input  -57.11 | X-H torsion

> <Gold.Protein.ActiveResidues>
 VAL166  LYS551  ARG553  GLY616  TRP617  ASP618  TYR619  PRO620  LYS621  CYS622 
 ASP623  PHE694  ASN695  SER759  ASP760  ASP761  ALA762  ILE779  LEU786  VAL792 
 PHE793  MET794  SER795  GLU796  ALA797  LYS798  CYS799  TRP800  GLU811  SER814 

> <Gold.Protein.RotatedAtoms>
  151.2209  135.0518  159.8949 H   0  0  0  0  0  0  0  0  0  0  0  0  # atno 6907 bound_to 6896
  152.5415  134.0641  159.8175 H   0  0  0  0  0  0  0  0  0  0  0  0  # atno 6908 bound_to 6896
  151.0807  133.5344  159.2652 H   0  0  0  0  0  0  0  0  0  0  0  0  # atno 6909 bound_to 6896
  146.1698  140.4426  142.8537 H   0  0  0  0  0  0  0  0  0  0  0  0  # atno 7974 bound_to 7965
  156.0448  140.1311  157.0116 H   0  0  0  0  0  0  0  0  0  0  0  0  # atno 8008 bound_to 7997
  154.4407  140.1023  156.6360 H   0  0  0  0  0  0  0  0  0  0  0  0  # atno 8009 bound_to 7997
  155.5613  140.3465  155.4494 H   0  0  0  0  0  0  0  0  0  0  0  0  # atno 8010 bound_to 7997
  140.6657  143.7186  150.7822 H   0  0  0  0  0  0  0  0  0  0  0  0  # atno 10167 bound_to 10162
  157.1661  130.6738  149.6061 H   0  0  0  0  0  0  0  0  0  0  0  0  # atno 10718 bound_to 10713
  153.0070  135.5380  154.6567 H   0  0  0  0  0  0  0  0  0  0  0  0  # atno 10763 bound_to 10752
  154.5786  135.2848  155.0758 H   0  0  0  0  0  0  0  0  0  0  0  0  # atno 10764 bound_to 10752
  154.1896  135.6502  153.5109 H   0  0  0  0  0  0  0  0  0  0  0  0  # atno 10765 bound_to 10752
  140.1253  134.8837  157.2128 H   0  0  0  0  0  0  0  0  0  0  0  0  # atno 11005 bound_to 11000
  144.8146  140.6445  143.6393 LP  0  0  0  0  0  0  0  0  0  0  0  0  # atno 17320 bound_to 7965
  145.4371  139.1541  143.3990 LP  0  0  0  0  0  0  0  0  0  0  0  0  # atno 17321 bound_to 7965
  140.0863  143.4920  152.2503 LP  0  0  0  0  0  0  0  0  0  0  0  0  # atno 17342 bound_to 10162
  139.5905  144.7548  151.3413 LP  0  0  0  0  0  0  0  0  0  0  0  0  # atno 17343 bound_to 10162
  155.9746  130.4695  150.6397 LP  0  0  0  0  0  0  0  0  0  0  0  0  # atno 17370 bound_to 10713
  157.4087  131.0820  151.1241 LP  0  0  0  0  0  0  0  0  0  0  0  0  # atno 17371 bound_to 10713
  140.2912  134.3238  155.7314 LP  0  0  0  0  0  0  0  0  0  0  0  0  # atno 17394 bound_to 11000
  141.2160  133.7536  156.9506 LP  0  0  0  0  0  0  0  0  0  0  0  0  # atno 17395 bound_to 11000

$$$$
