#       Name:                AV-unprocessed.smi:3231
#       Creating user name   scv26
#       Creation time:       Fri Mar 27 18:19:46 2020


#       File generated by GOLD software.
#

@<TRIPOS>MOLECULE
AV-unprocessed.smi:3231
    47    48     1
SMALL
NO_CHARGES


@<TRIPOS>ATOM
      1 ****        -0.9732   0.4847  -1.9810 O.3            1 S1                 0.0000
      2 ****        -0.8626   0.4496  -0.5716 C.3            1 S1                 0.0000
      3 ****         0.6363   0.3319  -0.2405 C.3            1 S1                 0.0000
      4 ****         1.1165  -1.0346  -0.4288 N.3            1 S1                 0.0000
      5 ****         2.5253  -1.2042  -0.0891 C.3            1 S1                 0.0000
      6 ****         2.9667  -2.6618  -0.2797 C.3            1 S1                 0.0000
      7 ****         4.3685  -2.8410   0.0450 N.pl3          1 S1                 0.0000
      8 ****         5.4438  -2.9230  -0.8143 C.2            1 S1                 0.0000
      9 ****         6.5630  -3.0880  -0.0495 C.2            1 S1                 0.0000
     10 ****         6.0640  -3.0945   1.2831 C.2            1 S1                 0.0000
     11 ****         4.7500  -2.9465   1.3364 N.2            1 S1                 0.0000
     12 ****        -1.4780   1.7477  -0.0035 C.3            1 S1                 0.0000
     13 ****        -2.8928   1.6628   0.3627 N.3            1 S1                 0.0000
     14 ****        -3.7645   1.4732  -0.7948 C.3            1 S1                 0.0000
     15 ****        -5.2495   1.4184  -0.3947 C.3            1 S1                 0.0000
     16 ****        -5.5991   2.6001   0.3184 O.3            1 S1                 0.0000
     17 ****        -4.8027   2.7929   1.4826 C.3            1 S1                 0.0000
     18 ****        -3.3181   2.8577   1.0844 C.3            1 S1                 0.0000
     19 ****        -0.5732  -0.2979  -2.3288 H              1 S1                 0.0000
     20 ****        -1.3959  -0.4166  -0.1762 H              1 S1                 0.0000
     21 ****         1.2180   1.0349  -0.8384 H              1 S1                 0.0000
     22 ****         0.7935   0.6122   0.8017 H              1 S1                 0.0000
     23 ****         0.5529  -1.6731   0.1238 H              1 S1                 0.0000
     24 ****         3.1394  -0.5505  -0.7096 H              1 S1                 0.0000
     25 ****         2.6960  -0.9055   0.9461 H              1 S1                 0.0000
     26 ****         2.3748  -3.3287   0.3491 H              1 S1                 0.0000
     27 ****         2.8081  -2.9757  -1.3124 H              1 S1                 0.0000
     28 ****         5.3247  -2.8574  -1.8859 H              1 S1                 0.0000
     29 ****         7.5830  -3.1887  -0.3896 H              1 S1                 0.0000
     30 ****         6.6138  -3.2013   2.2066 H              1 S1                 0.0000
     31 ****        -0.9257   2.0022   0.9018 H              1 S1                 0.0000
     32 ****        -1.3081   2.5824  -0.6860 H              1 S1                 0.0000
     33 ****        -3.6121   2.2834  -1.5094 H              1 S1                 0.0000
     34 ****        -3.5100   0.5479  -1.3109 H              1 S1                 0.0000
     35 ****        -5.8783   1.3377  -1.2814 H              1 S1                 0.0000
     36 ****        -5.4508   0.5410   0.2219 H              1 S1                 0.0000
     37 ****        -5.1048   3.7188   1.9724 H              1 S1                 0.0000
     38 ****        -4.9784   1.9823   2.1913 H              1 S1                 0.0000
     39 ****        -2.7114   2.9842   1.9819 H              1 S1                 0.0000
     40 ****        -3.1502   3.7419   0.4673 H              1 S1                 0.0000
     41 ****        -0.5029   1.2921  -2.3373 LP             1 S1                 0.0000
     42 ****        -1.9374   0.5175  -2.2440 LP             1 S1                 0.0000
     43 ****         1.0287  -1.2394  -1.4037 LP             1 S1                 0.0000
     44 ****         4.1697  -2.9189   2.1503 LP             1 S1                 0.0000
     45 ****        -2.9772   0.8592   0.9518 LP             1 S1                 0.0000
     46 ****        -6.5583   2.5362   0.5936 LP             1 S1                 0.0000
     47 ****        -5.4776   3.3870  -0.2866 LP             1 S1                 0.0000
@<TRIPOS>BOND
    1    1    2 1     
    2    1   19 1     
    3    2    3 1     
    4    2   12 1     
    5    2   20 1     
    6    3    4 1     
    7    3   21 1     
    8    3   22 1     
    9    4    5 1     
   10    4   23 1     
   11    5    6 1     
   12    5   24 1     
   13    5   25 1     
   14    6    7 1     
   15    6   26 1     
   16    6   27 1     
   17    7   11 1     
   18    7    8 1     
   19    8    9 2     
   20    8   28 1     
   21    9   10 1     
   22    9   29 1     
   23   10   11 2     
   24   10   30 1     
   25   12   13 1     
   26   12   31 1     
   27   12   32 1     
   28   13   18 1     
   29   13   14 1     
   30   14   15 1     
   31   14   33 1     
   32   14   34 1     
   33   15   16 1     
   34   15   35 1     
   35   15   36 1     
   36   16   17 1     
   37   17   18 1     
   38   17   37 1     
   39   17   38 1     
   40   18   39 1     
   41   18   40 1     
   42    1   41 1     
   43    1   42 1     
   44    4   43 1     
   45   11   44 1     
   46   13   45 1     
   47   16   46 1     
   48   16   47 1     
@<TRIPOS>SUBSTRUCTURE
      1 S1             1
@<TRIPOS>SET
LONE_PAIRS      STATIC     ATOMS    <user>   **** ""
7 41 42 43 44 45 46 47
DONOR_HYDROGENS      STATIC     ATOMS    <user>   **** ""
2 19 23
ATOM$BLUE        STATIC     ATOMS    COLORGROUP SYSTEM
7 41 42 43 44 45 46 47
ATOM$RED        STATIC     ATOMS    COLORGROUP SYSTEM
2 19 23
