#       Name:                AV-unprocessed.smi:2156
#       Creating user name   scv26
#       Creation time:       Fri Mar 27 11:56:20 2020


#       File generated by GOLD software.
#

@<TRIPOS>MOLECULE
AV-unprocessed.smi:2156
    40    40     1
SMALL
NO_CHARGES


@<TRIPOS>ATOM
      1 ****        -4.5998  -0.0336  -1.2717 C.3            1 S1                 0.0000
      2 ****        -3.0679  -0.0218  -1.2218 C.3            1 S1                 0.0000
      3 ****        -2.4704  -1.4394  -1.1957 C.3            1 S1                 0.0000
      4 ****        -0.9299  -1.4684  -1.1904 C.3            1 S1                 0.0000
      5 ****        -0.3975  -2.9081  -1.2827 C.3            1 S1                 0.0000
      6 ****        -0.4161  -0.8150   0.0113 N.am           1 S1                 0.0000
      7 ****         0.8025  -0.2686   0.1404 C.2            1 S1                 0.0000
      8 ****         1.6463  -0.2836  -0.7571 O.2            1 S1                 0.0000
      9 ****         1.1112   0.3642   1.5048 C.3            1 S1                 0.0000
     10 ****         2.2231   1.3280   1.4620 N.am           1 S1                 0.0000
     11 ****         3.4968   0.8725   1.8454 C.2            1 S1                 0.0000
     12 ****         4.5739   1.6806   1.8334 C.2            1 S1                 0.0000
     13 ****         4.3946   3.0631   1.4077 C.2            1 S1                 0.0000
     14 ****         5.3661   3.8167   1.3951 O.2            1 S1                 0.0000
     15 ****         3.1399   3.4565   1.0406 N.pl3          1 S1                -1.0000
     16 ****         2.0538   2.6226   1.0563 C.2            1 S1                 0.0000
     17 ****         0.9301   2.9973   0.7194 O.2            1 S1                 0.0000
     18 ****        -4.9957   0.9819  -1.2913 H              1 S1                 0.0000
     19 ****        -5.0178  -0.5367  -0.3994 H              1 S1                 0.0000
     20 ****        -4.9617  -0.5487  -2.1619 H              1 S1                 0.0000
     21 ****        -2.6850   0.5203  -2.0872 H              1 S1                 0.0000
     22 ****        -2.7473   0.5375  -0.3423 H              1 S1                 0.0000
     23 ****        -2.8487  -1.9777  -0.3255 H              1 S1                 0.0000
     24 ****        -2.8304  -1.9856  -2.0686 H              1 S1                 0.0000
     25 ****        -0.5813  -0.9180  -2.0665 H              1 S1                 0.0000
     26 ****        -0.7679  -3.4053  -2.1794 H              1 S1                 0.0000
     27 ****        -0.7062  -3.5013  -0.4213 H              1 S1                 0.0000
     28 ****         0.6918  -2.9270  -1.3272 H              1 S1                 0.0000
     29 ****        -1.0423  -0.7592   0.8013 H              1 S1                 0.0000
     30 ****         0.2129   0.8469   1.8945 H              1 S1                 0.0000
     31 ****         1.3319  -0.4392   2.2088 H              1 S1                 0.0000
     32 ****         3.5444  -0.1655   2.1407 H              1 S1                 0.0000
     33 ****         5.5462   1.3144   2.1286 H              1 S1                 0.0000
     34 ****         1.4368  -0.7179  -1.6332 LP             1 S1                 0.0000
     35 ****         2.5408   0.1385  -0.6096 LP             1 S1                 0.0000
     36 ****         6.2648   3.4787   1.6746 LP             1 S1                 0.0000
     37 ****         5.2575   4.7676   1.1053 LP             1 S1                 0.0000
     38 ****         3.0071   4.4025   0.7449 LP             1 S1                 0.0000
     39 ****         0.1613   2.3584   0.7455 LP             1 S1                 0.0000
     40 ****         0.7865   3.9405   0.4197 LP             1 S1                 0.0000
@<TRIPOS>BOND
    1    1    2 1     
    2    1   18 1     
    3    1   19 1     
    4    1   20 1     
    5    2    3 1     
    6    2   21 1     
    7    2   22 1     
    8    3    4 1     
    9    3   23 1     
   10    3   24 1     
   11    4    5 1     
   12    4    6 1     
   13    4   25 1     
   14    5   26 1     
   15    5   27 1     
   16    5   28 1     
   17    6    7 am    
   18    6   29 1     
   19    7    8 2     
   20    7    9 1     
   21    9   10 1     
   22    9   30 1     
   23    9   31 1     
   24   10   16 am    
   25   10   11 1     
   26   11   12 2     
   27   11   32 1     
   28   12   13 1     
   29   12   33 1     
   30   13   14 2     
   31   13   15 1     
   32   15   16 1     
   33   16   17 2     
   34    8   34 1     
   35    8   35 1     
   36   14   36 1     
   37   14   37 1     
   38   15   38 1     
   39   17   39 1     
   40   17   40 1     
@<TRIPOS>SUBSTRUCTURE
      1 S1             1
@<TRIPOS>SET
LONE_PAIRS      STATIC     ATOMS    <user>   **** ""
7 34 35 36 37 38 39 40
DONOR_HYDROGENS      STATIC     ATOMS    <user>   **** ""
1 29
ATOM$BLUE        STATIC     ATOMS    COLORGROUP SYSTEM
7 34 35 36 37 38 39 40
ATOM$RED        STATIC     ATOMS    COLORGROUP SYSTEM
1 29
