AV-unprocessed.smi:898|AV-procd|sdf|4086|dock3
  -GOLD-   22720 1573D 1   1.00000     0.00000
 Structure written by MMmdl.
 33 35  0  0  0  0  0  0  0  0  2 V2000
  150.9534  134.6206  156.0769 O   0  0  0  0  0  0  0  0  0  0  0  0
  150.6637  135.2785  155.0748 C   0  0  0  0  0  0  0  0  0  0  0  0
  151.3088  136.3787  154.6245 N   0  5  0  0  0  0  0  0  0  0  0  0
  150.9859  137.5905  155.1054 C   0  0  0  0  0  0  0  0  0  0  0  0
  149.9006  137.7970  155.8645 N   0  0  0  0  0  0  0  0  0  0  0  0
  149.7506  139.1211  156.2507 N   0  0  0  0  0  0  0  0  0  0  0  0
  150.7237  139.8993  155.7711 C   0  0  0  0  0  0  0  0  0  0  0  0
  150.7862  141.3639  156.0497 C   0  0  0  0  0  0  0  0  0  0  0  0
  151.1238  141.8962  157.4256 C   0  0  0  0  0  0  0  0  0  0  0  0
  149.7227  142.0360  156.8872 C   0  0  0  0  0  0  0  0  0  0  0  0
  151.9112  139.0575  154.7882 S   0  0  0  0  0  0  0  0  0  0  0  0
  149.6232  134.9144  154.3114 N   0  0  0  0  0  0  0  0  0  0  0  0
  148.7512  133.7635  154.5321 C   0  0  1  0  0  0  0  0  0  0  0  0
  147.6494  133.7531  153.4550 C   0  0  0  0  0  0  0  0  0  0  0  0
  146.6432  132.6064  153.6446 C   0  0  0  0  0  0  0  0  0  0  0  0
  147.3099  131.2260  153.5664 C   0  0  0  0  0  0  0  0  0  0  0  0
  148.5377  131.0153  154.8833 S   0  0  0  0  0  0  0  0  0  0  0  0
  149.5737  132.4598  154.5197 C   0  0  0  0  0  0  0  0  0  0  0  0
  151.1735  141.9029  155.1872 H   0  0  0  0  0  0  0  0  0  0  0  0
  151.2770  141.1817  158.2319 H   0  0  0  0  0  0  0  0  0  0  0  0
  151.7332  142.7959  157.4793 H   0  0  0  0  0  0  0  0  0  0  0  0
  149.3968  143.0282  156.5820 H   0  0  0  0  0  0  0  0  0  0  0  0
  148.9516  141.4051  157.3252 H   0  0  0  0  0  0  0  0  0  0  0  0
  149.4253  135.4849  153.5027 H   0  0  0  0  0  0  0  0  0  0  0  0
  148.2723  133.8713  155.5072 H   0  0  0  0  0  0  0  0  0  0  0  0
  147.1111  134.7015  153.4783 H   0  0  0  0  0  0  0  0  0  0  0  0
  148.0993  133.6829  152.4635 H   0  0  0  0  0  0  0  0  0  0  0  0
  146.1327  132.7163  154.6022 H   0  0  0  0  0  0  0  0  0  0  0  0
  145.8715  132.6758  152.8775 H   0  0  0  0  0  0  0  0  0  0  0  0
  146.5612  130.4390  153.6581 H   0  0  0  0  0  0  0  0  0  0  0  0
  147.7978  131.0930  152.6003 H   0  0  0  0  0  0  0  0  0  0  0  0
  150.0506  132.3178  153.5493 H   0  0  0  0  0  0  0  0  0  0  0  0
  150.3706  132.4992  155.2630 H   0  0  0  0  0  0  0  0  0  0  0  0
  1  2  2  0  0  0  0
  2  3  1  0  0  0  0
  2 12  1  0  0  0  0
  3  4  1  0  0  0  0
  4 11  1  0  0  0  0
  4  5  2  0  0  0  0
  5  6  1  0  0  0  0
  6  7  2  0  0  0  0
  7  8  1  0  0  0  0
  7 11  1  0  0  0  0
  8 10  1  0  0  0  0
  8  9  1  0  0  0  0
  8 19  1  0  0  0  0
  9 10  1  0  0  0  0
  9 20  1  0  0  0  0
  9 21  1  0  0  0  0
 10 22  1  0  0  0  0
 10 23  1  0  0  0  0
 12 13  1  0  0  0  0
 12 24  1  0  0  0  0
 13 18  1  0  0  0  0
 13 14  1  0  0  0  0
 13 25  1  0  0  0  0
 14 15  1  0  0  0  0
 14 26  1  0  0  0  0
 14 27  1  0  0  0  0
 15 16  1  0  0  0  0
 15 28  1  0  0  0  0
 15 29  1  0  0  0  0
 16 17  1  0  0  0  0
 16 30  1  0  0  0  0
 16 31  1  0  0  0  0
 17 18  1  0  0  0  0
 18 32  1  0  0  0  0
 18 33  1  0  0  0  0
M  CHG  1   3  -1
M  END
> <s_m_source_file>
AV-unprocessed.smi

> <i_m_source_file_index>
898

> <i_lp_mmshare_version>
43012

> <i_f3d_flags>
0

> <s_epik_input>
W0NIMl0xU1tDSDJdW0NIMl1bQ0gyXVtDQEhdMVtOSF1DKD1PKVtOSF1jMm5uYyhzMilbQ0hdM1tDSDJdW0NIMl0z

> <s_epik_cmdline>
J2VwaWtfcHl0aG9uJywgJy1waCcsICc3LjAnLCAnLXRuJywgJzgnLCAnLW1hJywgJzIwMCcsICctbWV0YWxfYmluZGluZycsICctaW1hZScsICc8aW5maWxlLm1hZT4nLCAnLW9tYWUnLCAnPG91dGZpbGUubWFlPic=

> <r_lp_tautomer_probability>
1

> <r_epik_Ionization_Penalty>
4.71411

> <r_epik_Ionization_Penalty_Charging>
4.5615

> <r_epik_Ionization_Penalty_Neutral>
0.152604

> <r_epik_State_Penalty>
4.56123

> <r_epik_Charging_Adjusted_Penalty>
9.12273

> <i_epik_Tot_Q>
-1

> <i_epik_Tot_abs_Q>
1

> <r_epik_Metal_State_Penalty>
0.850765

> <b_epik_Metal_Only>
1

> <s_lp_Force_Field>
OPLS_2005

> <r_lp_Energy>
0.516701

> <b_lp_Chiralities_Consistent>
1

> <s_lp_Variant>
AV-unprocessed.smi:898-4

> <Gold.Version>
5.8.1

> <Gold.Id.Protein>
6NUR|6NUR_protein|mol2

> <Gold.PLP.Fitness>
34.6531

> <Gold.PLP.PLP>
-27.2443

> <Gold.PLP.part.hbond>
-2.0000

> <Gold.PLP.part.metal>
0.0000

> <Gold.PLP.part.buried>
-2.3062

> <Gold.PLP.part.nonpolar>
-23.4355

> <Gold.PLP.part.repulsive>
0.2454

> <Gold.PLP.ligand.clash>
0.0000

> <Gold.PLP.ligand.torsion>
0.8749

> <Gold.PLP.Chemscore.Hbond>
3.0000

> <Gold.PLP.Chemscore.CHOScore>
0.0000

> <Gold.PLP.Chemscore.Metal>
0.0000

> <Gold.Chemscore.Hbonds>
donor molecule, donor type, donor heavy atom, donor atom, acceptor molecule, acceptor atom, score
      L1  H    12    24       P1  7948  0.90
      P1  H 10752 10764       L1     3  1.70

> <Gold.PLP.Chemscore.Internal.Correction>
0.1585

> <Gold.Rescore>
     Score         DG    S(hbond)    S(metal)    S(lipo)     H(rot)  DE(clash)    DE(int)     intcor
     12.42     -14.49       1.62        0.00      56.73       1.19       0.06       2.01       ----

> <Gold.Chemscore.Fitness>
12.4234

> <Gold.Chemscore.DG>
-14.4923

> <Gold.Chemscore.ZeroCoef>
-5.4800

> <Gold.Chemscore.Hbond>
1.6241

> <Gold.Chemscore.Metal>
0.0000

> <Gold.Chemscore.Lipo>
56.7254

> <Gold.Chemscore.Internal_Hbond>
0.0000

> <Gold.Chemscore.DEClash>
0.0580

> <Gold.Chemscore.DEInternal>
2.0109

> <Gold.Chemscore.Rot>
1.1911

> <Gold.Chemscore.Internal.Correction>
   9.000000E+99

> <Gold.Chemscore.Hbonds>
donor molecule, donor type, donor heavy atom, donor atom, acceptor molecule, acceptor atom, score
      L1  H    12    24       P1  7948  0.18
      P1  H 10752 10764       L1     3  0.15

> <Gold.Chemscore.Hbond.Weighted>
-5.4246

> <Gold.Chemscore.Metal.Weighted>
-0.0000

> <Gold.Chemscore.Lipo.Weighted>
-6.6369

> <Gold.Chemscore.Internal_Hbond.Weighted>
0.0000

> <Gold.Chemscore.DEClash.Weighted>
0.0580

> <Gold.Chemscore.DEInternal.Weighted>
2.0109

> <Gold.Chemscore.Rot.Weighted>
3.0492

> <Gold.Chemscore.Internal.Correction.Weighted>
   9.000000E+99

> <Gold.Protein.RotatedTorsions>
[ 6907 6896 6895 6894 ] final   13.81 input  -60.11 | X-H torsion
[ 7974 7965 7964 7962 ] final   65.82 input  175.53 | X-H torsion
[ 8008 7997 7996 7995 ] final  -44.72 input   59.86 | X-H torsion
[ 10167 10162 10161 10158 ] final   46.42 input  -65.29 | X-H torsion
[ 10718 10713 10712 10709 ] final -178.81 input   66.30 | X-H torsion
[ 10763 10752 10751 10750 ] final  -69.86 input  -60.55 | X-H torsion
[ 11005 11000 10999 10996 ] final -112.02 input  -57.11 | X-H torsion

> <Gold.Protein.ActiveResidues>
 VAL166  LYS551  ARG553  GLY616  TRP617  ASP618  TYR619  PRO620  LYS621  CYS622 
 ASP623  PHE694  ASN695  SER759  ASP760  ASP761  ALA762  ILE779  LEU786  VAL792 
 PHE793  MET794  SER795  GLU796  ALA797  LYS798  CYS799  TRP800  GLU811  SER814 

> <Gold.Protein.RotatedAtoms>
  151.7922  135.0732  160.0388 H   0  0  0  0  0  0  0  0  0  0  0  0  # atno 6907 bound_to 6896
  152.3148  133.5786  159.5713 H   0  0  0  0  0  0  0  0  0  0  0  0  # atno 6908 bound_to 6896
  150.7338  134.0015  159.3681 H   0  0  0  0  0  0  0  0  0  0  0  0  # atno 6909 bound_to 6896
  145.8339  139.3155  143.0971 H   0  0  0  0  0  0  0  0  0  0  0  0  # atno 7974 bound_to 7965
  154.3998  140.1415  156.3729 H   0  0  0  0  0  0  0  0  0  0  0  0  # atno 8008 bound_to 7997
  155.8076  140.3474  155.5418 H   0  0  0  0  0  0  0  0  0  0  0  0  # atno 8009 bound_to 7997
  155.8419  140.0928  157.1719 H   0  0  0  0  0  0  0  0  0  0  0  0  # atno 8010 bound_to 7997
  140.3141  144.2784  150.6194 H   0  0  0  0  0  0  0  0  0  0  0  0  # atno 10167 bound_to 10162
  156.8498  130.9715  151.3093 H   0  0  0  0  0  0  0  0  0  0  0  0  # atno 10718 bound_to 10713
  154.4094  135.6012  153.5944 H   0  0  0  0  0  0  0  0  0  0  0  0  # atno 10763 bound_to 10752
  152.9790  135.5926  154.4088 H   0  0  0  0  0  0  0  0  0  0  0  0  # atno 10764 bound_to 10752
  154.3898  135.2842  155.2140 H   0  0  0  0  0  0  0  0  0  0  0  0  # atno 10765 bound_to 10752
  141.0700  133.9395  157.2503 H   0  0  0  0  0  0  0  0  0  0  0  0  # atno 11005 bound_to 11000
  145.9540  140.8886  143.0244 LP  0  0  0  0  0  0  0  0  0  0  0  0  # atno 17320 bound_to 7965
  144.6738  140.1720  143.7413 LP  0  0  0  0  0  0  0  0  0  0  0  0  # atno 17321 bound_to 7965
  140.5542  143.2201  151.7876 LP  0  0  0  0  0  0  0  0  0  0  0  0  # atno 17342 bound_to 10162
  139.4887  144.4436  151.9736 LP  0  0  0  0  0  0  0  0  0  0  0  0  # atno 17343 bound_to 10162
  157.6309  130.8729  149.9273 LP  0  0  0  0  0  0  0  0  0  0  0  0  # atno 17370 bound_to 10713
  156.0834  130.3670  150.0535 LP  0  0  0  0  0  0  0  0  0  0  0  0  # atno 17371 bound_to 10713
  139.9514  135.0174  156.9004 LP  0  0  0  0  0  0  0  0  0  0  0  0  # atno 17394 bound_to 11000
  140.5693  134.0459  155.7425 LP  0  0  0  0  0  0  0  0  0  0  0  0  # atno 17395 bound_to 11000

$$$$
