AV-unprocessed.smi:114|AV-procd|sdf|1113|dock5
  -GOLD-   2262018233D 1   1.00000     0.00000
 Structure written by MMmdl.
 32 34  0  0  0  0  0  0  0  0  1 V2000
  144.8012  133.3748  152.5562 N   0  0  0  0  0  0  0  0  0  0  0  0
  145.7393  134.1140  153.1647 C   0  0  0  0  0  0  0  0  0  0  0  0
  146.8834  133.5072  153.5570 N   0  0  0  0  0  0  0  0  0  0  0  0
  147.8438  134.2088  154.1710 C   0  0  0  0  0  0  0  0  0  0  0  0
  148.9531  133.5215  154.5308 F   0  0  0  0  0  0  0  0  0  0  0  0
  147.8293  135.5119  154.4706 N   0  0  0  0  0  0  0  0  0  0  0  0
  146.6780  136.1296  154.0767 C   0  0  0  0  0  0  0  0  0  0  0  0
  145.5878  135.4990  153.4188 C   0  0  0  0  0  0  0  0  0  0  0  0
  144.5840  136.4244  153.1695 N   0  0  0  0  0  0  0  0  0  0  0  0
  145.0579  137.5390  153.6576 C   0  0  0  0  0  0  0  0  0  0  0  0
  146.3092  137.4530  154.2280 N   0  0  0  0  0  0  0  0  0  0  0  0
  147.0877  138.5636  154.8690 C   0  0  2  0  0  0  0  0  0  0  0  0
  146.2787  139.6980  154.9809 O   0  0  0  0  0  0  0  0  0  0  0  0
  146.8475  140.7955  154.2663 C   0  0  1  0  0  0  0  0  0  0  0  0
  146.5032  142.1132  154.9775 C   0  0  0  0  0  0  0  0  0  0  0  0
  146.9252  143.2112  154.1972 O   0  0  0  0  0  0  0  0  0  0  0  0
  148.3426  140.4708  154.2723 C   0  0  2  0  0  0  0  0  0  0  0  0
  149.0687  141.1636  153.2741 O   0  0  0  0  0  0  0  0  0  0  0  0
  148.3508  138.9607  154.0807 C   0  0  2  0  0  0  0  0  0  0  0  0
  148.3166  138.5782  152.7142 O   0  0  0  0  0  0  0  0  0  0  0  0
  147.3152  138.1978  155.8710 H   0  0  0  0  0  0  0  0  0  0  0  0
  146.4811  140.7964  153.2384 H   0  0  0  0  0  0  0  0  0  0  0  0
  148.7665  140.7085  155.2493 H   0  0  0  0  0  0  0  0  0  0  0  0
  149.2263  138.5010  154.5402 H   0  0  0  0  0  0  0  0  0  0  0  0
  143.9382  133.8054  152.2566 H   0  0  0  0  0  0  0  0  0  0  0  0
  144.9585  132.3898  152.4000 H   0  0  0  0  0  0  0  0  0  0  0  0
  144.4997  138.4631  153.6193 H   0  0  0  0  0  0  0  0  0  0  0  0
  145.4357  142.1845  155.1886 H   0  0  0  0  0  0  0  0  0  0  0  0
  147.0269  142.1720  155.9321 H   0  0  0  0  0  0  0  0  0  0  0  0
  147.6775  143.6043  154.6123 H   0  0  0  0  0  0  0  0  0  0  0  0
  149.0324  140.6629  152.4738 H   0  0  0  0  0  0  0  0  0  0  0  0
  148.6042  137.6807  152.6468 H   0  0  0  0  0  0  0  0  0  0  0  0
  1  2  1  0  0  0  0
  1 25  1  0  0  0  0
  1 26  1  0  0  0  0
  2  8  1  0  0  0  0
  2  3  2  0  0  0  0
  3  4  1  0  0  0  0
  4  5  1  0  0  0  0
  4  6  2  0  0  0  0
  6  7  1  0  0  0  0
  7 11  1  0  0  0  0
  7  8  2  0  0  0  0
  8  9  1  0  0  0  0
  9 10  2  0  0  0  0
 10 11  1  0  0  0  0
 10 27  1  0  0  0  0
 11 12  1  0  0  0  0
 12 21  1  0  0  0  0
 12 19  1  0  0  0  0
 12 13  1  0  0  0  0
 13 14  1  0  0  0  0
 14 22  1  0  0  0  0
 14 15  1  0  0  0  0
 14 17  1  0  0  0  0
 15 16  1  0  0  0  0
 15 28  1  0  0  0  0
 15 29  1  0  0  0  0
 16 30  1  0  0  0  0
 17 23  1  0  0  0  0
 17 18  1  0  0  0  0
 17 19  1  0  0  0  0
 18 31  1  0  0  0  0
 19 24  1  0  0  0  0
 19 20  1  0  0  0  0
 20 32  1  0  0  0  0
M  END
> <s_m_source_file>
AV-unprocessed.smi

> <i_m_source_file_index>
114

> <i_lp_mmshare_version>
43012

> <i_f3d_flags>
0

> <s_epik_input>
RmMobjEpbmMoW05IMl0pYyhjMTIpbltjSF1uMltDQEBIXTNPW0NASF0oW0NIMl1bT0hdKVtDQEBIXShbT0hdKVtDQEBIXTNbT0hd

> <s_epik_cmdline>
J2VwaWtfcHl0aG9uJywgJy1waCcsICc3LjAnLCAnLXRuJywgJzgnLCAnLW1hJywgJzIwMCcsICctbWV0YWxfYmluZGluZycsICctaW1hZScsICc8aW5maWxlLm1hZT4nLCAnLW9tYWUnLCAnPG91dGZpbGUubWFlPic=

> <r_lp_tautomer_probability>
1

> <r_epik_Ionization_Penalty>
1.13199e-05

> <r_epik_Ionization_Penalty_Charging>
0

> <r_epik_Ionization_Penalty_Neutral>
1.13199e-05

> <r_epik_State_Penalty>
-0

> <r_epik_Charging_Adjusted_Penalty>
0

> <i_epik_Tot_Q>
0

> <i_epik_Tot_abs_Q>
0

> <r_epik_Metal_State_Penalty>
-0

> <b_epik_Metal_Only>
0

> <s_epik_Chemistry_Notes>
This compound contains an acetal/aminal-like group ( X-CH(R)-Y where X, Y are N, S, or O) that may be acid/base labile, releasing an aldehyde.

> <s_lp_Force_Field>
OPLS_2005

> <r_lp_Energy>
45.5286

> <b_lp_Chiralities_Consistent>
1

> <s_lp_Variant>
AV-unprocessed.smi:114-7

> <Gold.Version>
5.8.1

> <Gold.Id.Protein>
6NUR|6NUR_protein|mol2

> <Gold.PLP.Fitness>
34.5233

> <Gold.PLP.PLP>
-21.3613

> <Gold.PLP.part.hbond>
-6.8532

> <Gold.PLP.part.metal>
0.0000

> <Gold.PLP.part.buried>
-4.3837

> <Gold.PLP.part.nonpolar>
-11.2729

> <Gold.PLP.part.repulsive>
0.5571

> <Gold.PLP.ligand.clash>
0.0000

> <Gold.PLP.ligand.torsion>
0.1741

> <Gold.PLP.Chemscore.Hbond>
3.5008

> <Gold.PLP.Chemscore.CHOScore>
1.0000

> <Gold.PLP.Chemscore.Metal>
0.0000

> <Gold.Chemscore.Hbonds>
donor molecule, donor type, donor heavy atom, donor atom, acceptor molecule, acceptor atom, score
      L1  H    16    30       P1  8028  1.00
      L1  H    18    31       P1  7957  1.00
      L1  H    20    32       P1  7948  1.00
      P1  H  8011  8017       L1    18  0.30
      L1  C    10    27       P1 10175  1.00

> <Gold.PLP.Chemscore.Internal.Correction>
0.0080

> <Gold.Rescore>
     Score         DG    S(hbond)    S(metal)    S(lipo)     H(rot)  DE(clash)    DE(int)     intcor
      6.61      -6.86       2.67        0.00      23.81       4.03       0.01       0.23       ----

> <Gold.Chemscore.Fitness>
6.6115

> <Gold.Chemscore.DG>
-6.8578

> <Gold.Chemscore.ZeroCoef>
-5.4800

> <Gold.Chemscore.Hbond>
2.6657

> <Gold.Chemscore.Metal>
0.0000

> <Gold.Chemscore.Lipo>
23.8070

> <Gold.Chemscore.Internal_Hbond>
0.0000

> <Gold.Chemscore.DEClash>
0.0130

> <Gold.Chemscore.DEInternal>
0.2333

> <Gold.Chemscore.Rot>
4.0277

> <Gold.Chemscore.Internal.Correction>
   9.000000E+99

> <Gold.Chemscore.Hbonds>
donor molecule, donor type, donor heavy atom, donor atom, acceptor molecule, acceptor atom, score
      L1  H    16    30       P1  8028  0.30
      L1  H    18    31       P1  7957  0.94
      L1  H    20    32       P1  7948  0.98

> <Gold.Chemscore.Hbond.Weighted>
-8.9033

> <Gold.Chemscore.Metal.Weighted>
-0.0000

> <Gold.Chemscore.Lipo.Weighted>
-2.7854

> <Gold.Chemscore.Internal_Hbond.Weighted>
0.0000

> <Gold.Chemscore.DEClash.Weighted>
0.0130

> <Gold.Chemscore.DEInternal.Weighted>
0.2333

> <Gold.Chemscore.Rot.Weighted>
10.3110

> <Gold.Chemscore.Internal.Correction.Weighted>
   9.000000E+99

> <Gold.Protein.RotatedTorsions>
[ 6907 6896 6895 6894 ] final   93.58 input  -60.11 | X-H torsion
[ 7974 7965 7964 7962 ] final -114.74 input  175.53 | X-H torsion
[ 8008 7997 7996 7995 ] final  -50.40 input   59.86 | X-H torsion
[ 10167 10162 10161 10158 ] final   17.13 input  -65.29 | X-H torsion
[ 10718 10713 10712 10709 ] final -126.83 input   66.30 | X-H torsion
[ 10763 10752 10751 10750 ] final  -84.75 input  -60.55 | X-H torsion
[ 11005 11000 10999 10996 ] final -128.18 input  -57.11 | X-H torsion

> <Gold.Protein.ActiveResidues>
 VAL166  LYS551  ARG553  GLY616  TRP617  ASP618  TYR619  PRO620  LYS621  CYS622 
 ASP623  PHE694  ASN695  SER759  ASP760  ASP761  ALA762  ILE779  LEU786  VAL792 
 PHE793  MET794  SER795  GLU796  ALA797  LYS798  CYS799  TRP800  GLU811  SER814 

> <Gold.Protein.RotatedAtoms>
  152.5452  134.1326  159.8444 H   0  0  0  0  0  0  0  0  0  0  0  0  # atno 6907 bound_to 6896
  151.1370  133.4990  159.2605 H   0  0  0  0  0  0  0  0  0  0  0  0  # atno 6908 bound_to 6896
  151.1614  135.0285  159.8766 H   0  0  0  0  0  0  0  0  0  0  0  0  # atno 6909 bound_to 6896
  145.1166  140.8644  143.3838 H   0  0  0  0  0  0  0  0  0  0  0  0  # atno 7974 bound_to 7965
  154.4061  140.1273  156.4659 H   0  0  0  0  0  0  0  0  0  0  0  0  # atno 8008 bound_to 7997
  155.7227  140.3492  155.5003 H   0  0  0  0  0  0  0  0  0  0  0  0  # atno 8009 bound_to 7997
  155.9200  140.1051  157.1204 H   0  0  0  0  0  0  0  0  0  0  0  0  # atno 8010 bound_to 7997
  140.5748  143.9093  150.6741 H   0  0  0  0  0  0  0  0  0  0  0  0  # atno 10167 bound_to 10162
  156.1801  130.6726  151.0293 H   0  0  0  0  0  0  0  0  0  0  0  0  # atno 10718 bound_to 10713
  154.6031  135.5509  153.7395 H   0  0  0  0  0  0  0  0  0  0  0  0  # atno 10763 bound_to 10752
  153.0163  135.6371  154.1686 H   0  0  0  0  0  0  0  0  0  0  0  0  # atno 10764 bound_to 10752
  154.1625  135.2896  155.3084 H   0  0  0  0  0  0  0  0  0  0  0  0  # atno 10765 bound_to 10752
  140.9538  134.1030  157.4036 H   0  0  0  0  0  0  0  0  0  0  0  0  # atno 11005 bound_to 11000
  145.0787  139.2976  143.5794 LP  0  0  0  0  0  0  0  0  0  0  0  0  # atno 17320 bound_to 7965
  146.3523  140.0286  142.8652 LP  0  0  0  0  0  0  0  0  0  0  0  0  # atno 17321 bound_to 7965
  140.2577  143.3546  152.1350 LP  0  0  0  0  0  0  0  0  0  0  0  0  # atno 17342 bound_to 10162
  139.5137  144.6936  151.5692 LP  0  0  0  0  0  0  0  0  0  0  0  0  # atno 17343 bound_to 10162
  157.6862  131.0824  150.7235 LP  0  0  0  0  0  0  0  0  0  0  0  0  # atno 17370 bound_to 10713
  156.7292  130.4704  149.5503 LP  0  0  0  0  0  0  0  0  0  0  0  0  # atno 17371 bound_to 10713
  139.8855  135.0073  156.6442 LP  0  0  0  0  0  0  0  0  0  0  0  0  # atno 17394 bound_to 11000
  140.7565  133.8853  155.8386 LP  0  0  0  0  0  0  0  0  0  0  0  0  # atno 17395 bound_to 11000

$$$$
