AV-unprocessed.smi:951|AV-procd|sdf|4252|dock1
  -GOLD-   22720 2153D 1   1.00000     0.00000
 Structure written by MMmdl.
 51 53  0  0  0  0  0  0  0  0  1 V2000
  153.1551  138.9718  156.6486 O   0  0  0  0  0  0  0  0  0  0  0  0
  152.1819  138.7148  157.3587 C   0  0  0  0  0  0  0  0  0  0  0  0
  151.0556  138.1612  156.8878 N   0  0  0  0  0  0  0  0  0  0  0  0
  150.8311  137.8162  155.4912 C   0  0  0  0  0  0  0  0  0  0  0  0
  149.3376  137.5822  155.2251 C   0  0  0  0  0  0  0  0  0  0  0  0
  148.6291  138.8458  154.7748 C   0  0  0  0  0  0  0  0  0  0  0  0
  149.2862  140.0943  154.8145 C   0  0  0  0  0  0  0  0  0  0  0  0
  148.5847  141.2357  154.3801 C   0  0  0  0  0  0  0  0  0  0  0  0
  147.2609  141.0853  153.9238 C   0  0  0  0  0  0  0  0  0  0  0  0
  146.6952  139.7946  153.9214 C   0  0  0  0  0  0  0  0  0  0  0  0
  147.3587  138.6940  154.3367 N   0  0  0  0  0  0  0  0  0  0  0  0
  152.2181  139.0061  158.8719 C   0  0  1  0  0  0  0  0  0  0  0  0
  153.1139  137.9744  159.5757 C   0  0  0  0  0  0  0  0  0  0  0  0
  153.6698  138.7073  160.7798 C   0  0  0  0  0  0  0  0  0  0  0  0
  153.7384  140.1693  160.3430 C   0  0  0  0  0  0  0  0  0  0  0  0
  152.7788  140.3218  159.2443 N   0  0  0  0  0  0  0  0  0  0  0  0
  152.4001  141.5155  158.7165 C   0  0  0  0  0  0  0  0  0  0  0  0
  151.4827  141.5986  157.8992 O   0  0  0  0  0  0  0  0  0  0  0  0
  153.1276  142.8108  159.1558 C   0  0  0  0  0  0  0  0  0  0  0  0
  152.9840  143.0692  160.6740 C   0  0  0  0  0  0  0  0  0  0  0  0
  151.6048  143.6278  161.0668 C   0  0  0  0  0  0  0  0  0  0  0  0
  151.2866  144.9092  160.2832 C   0  0  0  0  0  0  0  0  0  0  0  0
  151.3451  144.6622  158.7691 C   0  0  0  0  0  0  0  0  0  0  0  0
  152.6997  144.0605  158.3437 C   0  0  0  0  0  0  0  0  0  0  0  0
  150.3045  137.9755  157.5366 H   0  0  0  0  0  0  0  0  0  0  0  0
  151.2011  138.6222  154.8551 H   0  0  0  0  0  0  0  0  0  0  0  0
  151.4036  136.9205  155.2445 H   0  0  0  0  0  0  0  0  0  0  0  0
  149.2092  136.8143  154.4605 H   0  0  0  0  0  0  0  0  0  0  0  0
  148.8535  137.2022  156.1259 H   0  0  0  0  0  0  0  0  0  0  0  0
  150.3041  140.1777  155.1671 H   0  0  0  0  0  0  0  0  0  0  0  0
  149.0536  142.2084  154.3962 H   0  0  0  0  0  0  0  0  0  0  0  0
  146.6929  141.9380  153.5826 H   0  0  0  0  0  0  0  0  0  0  0  0
  145.6832  139.6418  153.5769 H   0  0  0  0  0  0  0  0  0  0  0  0
  151.2085  138.9552  159.2841 H   0  0  0  0  0  0  0  0  0  0  0  0
  152.5703  137.0711  159.8548 H   0  0  0  0  0  0  0  0  0  0  0  0
  153.9461  137.6720  158.9370 H   0  0  0  0  0  0  0  0  0  0  0  0
  152.9701  138.6113  161.6111 H   0  0  0  0  0  0  0  0  0  0  0  0
  154.6331  138.3175  161.1100 H   0  0  0  0  0  0  0  0  0  0  0  0
  153.5236  140.8361  161.1792 H   0  0  0  0  0  0  0  0  0  0  0  0
  154.7403  140.3930  159.9741 H   0  0  0  0  0  0  0  0  0  0  0  0
  154.1888  142.6939  158.9450 H   0  0  0  0  0  0  0  0  0  0  0  0
  153.1788  142.1545  161.2353 H   0  0  0  0  0  0  0  0  0  0  0  0
  153.7535  143.7763  160.9861 H   0  0  0  0  0  0  0  0  0  0  0  0
  150.8304  142.8817  160.8859 H   0  0  0  0  0  0  0  0  0  0  0  0
  151.5837  143.8360  162.1369 H   0  0  0  0  0  0  0  0  0  0  0  0
  150.2998  145.2804  160.5610 H   0  0  0  0  0  0  0  0  0  0  0  0
  151.9984  145.6899  160.5543 H   0  0  0  0  0  0  0  0  0  0  0  0
  150.5254  144.0081  158.4737 H   0  0  0  0  0  0  0  0  0  0  0  0
  151.1808  145.6003  158.2386 H   0  0  0  0  0  0  0  0  0  0  0  0
  153.4675  144.8265  158.4590 H   0  0  0  0  0  0  0  0  0  0  0  0
  152.6769  143.8270  157.2783 H   0  0  0  0  0  0  0  0  0  0  0  0
  1  2  2  0  0  0  0
  2  3  1  0  0  0  0
  2 12  1  0  0  0  0
  3  4  1  0  0  0  0
  3 25  1  0  0  0  0
  4  5  1  0  0  0  0
  4 26  1  0  0  0  0
  4 27  1  0  0  0  0
  5  6  1  0  0  0  0
  5 28  1  0  0  0  0
  5 29  1  0  0  0  0
  6 11  1  0  0  0  0
  6  7  2  0  0  0  0
  7  8  1  0  0  0  0
  7 30  1  0  0  0  0
  8  9  2  0  0  0  0
  8 31  1  0  0  0  0
  9 10  1  0  0  0  0
  9 32  1  0  0  0  0
 10 11  2  0  0  0  0
 10 33  1  0  0  0  0
 12 16  1  0  0  0  0
 12 13  1  0  0  0  0
 12 34  1  0  0  0  0
 13 14  1  0  0  0  0
 13 35  1  0  0  0  0
 13 36  1  0  0  0  0
 14 15  1  0  0  0  0
 14 37  1  0  0  0  0
 14 38  1  0  0  0  0
 15 16  1  0  0  0  0
 15 39  1  0  0  0  0
 15 40  1  0  0  0  0
 16 17  1  0  0  0  0
 17 18  2  0  0  0  0
 17 19  1  0  0  0  0
 19 24  1  0  0  0  0
 19 20  1  0  0  0  0
 19 41  1  0  0  0  0
 20 21  1  0  0  0  0
 20 42  1  0  0  0  0
 20 43  1  0  0  0  0
 21 22  1  0  0  0  0
 21 44  1  0  0  0  0
 21 45  1  0  0  0  0
 22 23  1  0  0  0  0
 22 46  1  0  0  0  0
 22 47  1  0  0  0  0
 23 24  1  0  0  0  0
 23 48  1  0  0  0  0
 23 49  1  0  0  0  0
 24 50  1  0  0  0  0
 24 51  1  0  0  0  0
M  END
> <s_m_source_file>
AV-unprocessed.smi

> <i_m_source_file_index>
951

> <i_lp_mmshare_version>
43012

> <i_f3d_flags>
0

> <s_epik_input>
bjFbY0hdW2NIXVtjSF1bY0hdYzFbQ0gyXVtDSDJdW05IXUMoPU8pW0NAQEhdMltDSDJdW0NIMl1bQ0gyXU4yQyg9TylbQ0hdM1tDSDJdW0NIMl1bQ0gyXVtDSDJdW0NIMl0z

> <s_epik_cmdline>
J2VwaWtfcHl0aG9uJywgJy1waCcsICc3LjAnLCAnLXRuJywgJzgnLCAnLW1hJywgJzIwMCcsICctbWV0YWxfYmluZGluZycsICctaW1hZScsICc8aW5maWxlLm1hZT4nLCAnLW9tYWUnLCAnPG91dGZpbGUubWFlPic=

> <r_epik_Ionization_Penalty>
0.0265505

> <r_epik_Ionization_Penalty_Charging>
0

> <r_epik_Ionization_Penalty_Neutral>
0.0265505

> <r_epik_State_Penalty>
0.02168

> <r_epik_Charging_Adjusted_Penalty>
0.02168

> <i_epik_Tot_Q>
0

> <i_epik_Tot_abs_Q>
0

> <r_epik_Metal_State_Penalty>
0.020746

> <b_epik_Metal_Only>
0

> <s_lp_Force_Field>
OPLS_2005

> <r_lp_Energy>
20.7073

> <b_lp_Chiralities_Consistent>
1

> <s_lp_Variant>
AV-unprocessed.smi:951-2

> <Gold.Version>
5.8.1

> <Gold.Id.Protein>
6NUR|6NUR_protein|mol2

> <Gold.PLP.Fitness>
53.0367

> <Gold.PLP.PLP>
-48.5749

> <Gold.PLP.part.hbond>
-0.9418

> <Gold.PLP.part.metal>
0.0000

> <Gold.PLP.part.buried>
-6.0209

> <Gold.PLP.part.nonpolar>
-42.7935

> <Gold.PLP.part.repulsive>
0.1928

> <Gold.PLP.ligand.clash>
0.0000

> <Gold.PLP.ligand.torsion>
0.8271

> <Gold.PLP.Chemscore.Hbond>
0.9913

> <Gold.PLP.Chemscore.CHOScore>
1.0000

> <Gold.PLP.Chemscore.Metal>
0.0000

> <Gold.Chemscore.Hbonds>
donor molecule, donor type, donor heavy atom, donor atom, acceptor molecule, acceptor atom, score
      P1  H  7997  8009       L1     1  1.00
      L1  C    10    33       P1 10175  1.00

> <Gold.PLP.Chemscore.Internal.Correction>
0.1422

> <Gold.Rescore>
     Score         DG    S(hbond)    S(metal)    S(lipo)     H(rot)  DE(clash)    DE(int)     intcor
     19.13     -21.26       0.98        0.00     140.91       1.55       0.01       2.12       ----

> <Gold.Chemscore.Fitness>
19.1254

> <Gold.Chemscore.DG>
-21.2578

> <Gold.Chemscore.ZeroCoef>
-5.4800

> <Gold.Chemscore.Hbond>
0.9763

> <Gold.Chemscore.Metal>
0.0000

> <Gold.Chemscore.Lipo>
140.9091

> <Gold.Chemscore.Internal_Hbond>
0.0000

> <Gold.Chemscore.DEClash>
0.0118

> <Gold.Chemscore.DEInternal>
2.1206

> <Gold.Chemscore.Rot>
1.5506

> <Gold.Chemscore.Internal.Correction>
   9.000000E+99

> <Gold.Chemscore.Hbonds>
donor molecule, donor type, donor heavy atom, donor atom, acceptor molecule, acceptor atom, score
      P1  H  7997  8009       L1     1  0.99

> <Gold.Chemscore.Hbond.Weighted>
-3.2609

> <Gold.Chemscore.Metal.Weighted>
-0.0000

> <Gold.Chemscore.Lipo.Weighted>
-16.4864

> <Gold.Chemscore.Internal_Hbond.Weighted>
0.0000

> <Gold.Chemscore.DEClash.Weighted>
0.0118

> <Gold.Chemscore.DEInternal.Weighted>
2.1206

> <Gold.Chemscore.Rot.Weighted>
3.9695

> <Gold.Chemscore.Internal.Correction.Weighted>
   9.000000E+99

> <Gold.Protein.RotatedTorsions>
[ 6907 6896 6895 6894 ] final -121.74 input  -60.11 | X-H torsion
[ 7974 7965 7964 7962 ] final  -95.68 input  175.53 | X-H torsion
[ 8008 7997 7996 7995 ] final -172.44 input   59.86 | X-H torsion
[ 10167 10162 10161 10158 ] final  -32.83 input  -65.29 | X-H torsion
[ 10718 10713 10712 10709 ] final -175.93 input   66.30 | X-H torsion
[ 10763 10752 10751 10750 ] final  -61.10 input  -60.55 | X-H torsion
[ 11005 11000 10999 10996 ] final  117.61 input  -57.11 | X-H torsion

> <Gold.Protein.ActiveResidues>
 VAL166  LYS551  ARG553  GLY616  TRP617  ASP618  TYR619  PRO620  LYS621  CYS622 
 ASP623  PHE694  ASN695  SER759  ASP760  ASP761  ALA762  ILE779  LEU786  VAL792 
 PHE793  MET794  SER795  GLU796  ALA797  LYS798  CYS799  TRP800  GLU811  SER814 

> <Gold.Protein.RotatedAtoms>
  150.8511  133.7785  159.3024 H   0  0  0  0  0  0  0  0  0  0  0  0  # atno 6907 bound_to 6896
  151.5456  135.1066  159.9947 H   0  0  0  0  0  0  0  0  0  0  0  0  # atno 6908 bound_to 6896
  152.4553  133.7668  159.6833 H   0  0  0  0  0  0  0  0  0  0  0  0  # atno 6909 bound_to 6896
  145.3569  140.9485  143.2522 H   0  0  0  0  0  0  0  0  0  0  0  0  # atno 7974 bound_to 7965
  155.9446  140.1115  157.1027 H   0  0  0  0  0  0  0  0  0  0  0  0  # atno 8008 bound_to 7997
  154.4096  140.1212  156.5038 H   0  0  0  0  0  0  0  0  0  0  0  0  # atno 8009 bound_to 7997
  155.6919  140.3472  155.4899 H   0  0  0  0  0  0  0  0  0  0  0  0  # atno 8010 bound_to 7997
  140.7215  143.3665  151.1860 H   0  0  0  0  0  0  0  0  0  0  0  0  # atno 10167 bound_to 10162
  156.8072  130.9573  151.3117 H   0  0  0  0  0  0  0  0  0  0  0  0  # atno 10718 bound_to 10713
  154.2794  135.6275  153.5341 H   0  0  0  0  0  0  0  0  0  0  0  0  # atno 10763 bound_to 10752
  152.9868  135.5629  154.5512 H   0  0  0  0  0  0  0  0  0  0  0  0  # atno 10764 bound_to 10752
  154.5099  135.2876  155.1327 H   0  0  0  0  0  0  0  0  0  0  0  0  # atno 10765 bound_to 10752
  139.9080  134.9612  156.7377 H   0  0  0  0  0  0  0  0  0  0  0  0  # atno 11005 bound_to 11000
  144.8675  139.5086  143.6783 LP  0  0  0  0  0  0  0  0  0  0  0  0  # atno 17320 bound_to 7965
  146.2944  139.7234  142.9137 LP  0  0  0  0  0  0  0  0  0  0  0  0  # atno 17321 bound_to 7965
  139.7228  143.9196  152.2991 LP  0  0  0  0  0  0  0  0  0  0  0  0  # atno 17342 bound_to 10162
  139.8959  144.6939  150.8719 LP  0  0  0  0  0  0  0  0  0  0  0  0  # atno 17343 bound_to 10162
  157.6524  130.8895  149.9660 LP  0  0  0  0  0  0  0  0  0  0  0  0  # atno 17370 bound_to 10713
  156.1066  130.3652  150.0123 LP  0  0  0  0  0  0  0  0  0  0  0  0  # atno 17371 bound_to 10713
  140.6875  133.9420  155.7946 LP  0  0  0  0  0  0  0  0  0  0  0  0  # atno 17394 bound_to 11000
  141.0466  134.0545  157.3836 LP  0  0  0  0  0  0  0  0  0  0  0  0  # atno 17395 bound_to 11000

$$$$
