AV-unprocessed.smi:101|AV-procd|sdf|917|dock9
  -GOLD-   2262017423D 1   1.00000     0.00000
 Structure written by MMmdl.
 44 46  0  0  0  0  0  0  0  0  1 V2000
  147.5445  136.1760  157.9531 C   0  0  0  0  0  0  0  0  0  0  0  0
  148.6888  136.3999  156.9773 C   0  0  0  0  0  0  0  0  0  0  0  0
  148.7590  137.4956  156.1791 C   0  0  0  0  0  0  0  0  0  0  0  0
  149.7885  137.7295  155.2717 N   0  0  0  0  0  0  0  0  0  0  0  0
  149.8616  138.9864  154.4176 C   0  0  2  0  0  0  0  0  0  0  0  0
  150.7918  139.8698  154.9622 O   0  0  0  0  0  0  0  0  0  0  0  0
  150.1210  140.7503  155.8518 C   0  0  1  0  0  0  0  0  0  0  0  0
  151.0224  141.9449  156.1727 C   0  0  0  0  0  0  0  0  0  0  0  0
  151.2001  141.9798  157.5788 O   0  0  0  0  0  0  0  0  0  0  0  0
  152.1922  141.2834  158.1601 C   0  0  0  0  0  0  0  0  0  0  0  0
  152.7262  140.2977  157.6481 O   0  0  0  0  0  0  0  0  0  0  0  0
  152.5745  141.8322  159.4935 C   0  0  0  0  0  0  0  0  0  0  0  0
  152.0151  143.0571  159.9259 C   0  0  0  0  0  0  0  0  0  0  0  0
  152.3591  143.5997  161.1792 C   0  0  0  0  0  0  0  0  0  0  0  0
  153.2667  142.9240  162.0158 C   0  0  0  0  0  0  0  0  0  0  0  0
  153.8304  141.7047  161.5972 C   0  0  0  0  0  0  0  0  0  0  0  0
  153.4880  141.1604  160.3441 C   0  0  0  0  0  0  0  0  0  0  0  0
  148.8594  141.0862  155.0615 C   0  0  2  0  0  0  0  0  0  0  0  0
  147.8276  141.4996  155.9348 O   0  0  0  0  0  0  0  0  0  0  0  0
  148.5137  139.7512  154.4006 C   0  0  1  0  0  0  0  0  0  0  0  0
  148.0472  139.9631  153.0837 O   0  0  0  0  0  0  0  0  0  0  0  0
  150.8642  136.8183  155.2122 C   0  0  0  0  0  0  0  0  0  0  0  0
  151.8412  136.9886  154.4838 O   0  0  0  0  0  0  0  0  0  0  0  0
  150.7894  135.6895  156.0258 N   0  0  0  0  0  0  0  0  0  0  0  0
  149.7547  135.3968  156.9167 C   0  0  0  0  0  0  0  0  0  0  0  0
  149.7977  134.3612  157.5787 O   0  0  0  0  0  0  0  0  0  0  0  0
  151.5527  135.0305  155.9734 H   0  0  0  0  0  0  0  0  0  0  0  0
  146.8125  136.9838  157.9147 H   0  0  0  0  0  0  0  0  0  0  0  0
  147.9214  136.1158  158.9747 H   0  0  0  0  0  0  0  0  0  0  0  0
  147.0249  135.2450  157.7236 H   0  0  0  0  0  0  0  0  0  0  0  0
  147.9607  138.2155  156.2766 H   0  0  0  0  0  0  0  0  0  0  0  0
  150.2042  138.6389  153.4408 H   0  0  0  0  0  0  0  0  0  0  0  0
  149.8523  140.2216  156.7687 H   0  0  0  0  0  0  0  0  0  0  0  0
  151.9794  141.8582  155.6563 H   0  0  0  0  0  0  0  0  0  0  0  0
  150.5490  142.8728  155.8496 H   0  0  0  0  0  0  0  0  0  0  0  0
  151.3164  143.5944  159.3006 H   0  0  0  0  0  0  0  0  0  0  0  0
  151.9255  144.5361  161.4987 H   0  0  0  0  0  0  0  0  0  0  0  0
  153.5298  143.3403  162.9769 H   0  0  0  0  0  0  0  0  0  0  0  0
  154.5271  141.1847  162.2382 H   0  0  0  0  0  0  0  0  0  0  0  0
  153.9395  140.2226  160.0544 H   0  0  0  0  0  0  0  0  0  0  0  0
  149.0718  141.8567  154.3182 H   0  0  0  0  0  0  0  0  0  0  0  0
  147.9483  142.4175  156.1257 H   0  0  0  0  0  0  0  0  0  0  0  0
  147.7632  139.2090  154.9778 H   0  0  0  0  0  0  0  0  0  0  0  0
  148.7416  139.7382  152.4829 H   0  0  0  0  0  0  0  0  0  0  0  0
  1  2  1  0  0  0  0
  1 28  1  0  0  0  0
  1 29  1  0  0  0  0
  1 30  1  0  0  0  0
  2 25  1  0  0  0  0
  2  3  2  0  0  0  0
  3  4  1  0  0  0  0
  3 31  1  0  0  0  0
  4  5  1  0  0  0  0
  4 22  1  0  0  0  0
  5 20  1  0  0  0  0
  5  6  1  0  0  0  0
  5 32  1  0  0  0  0
  6  7  1  0  0  0  0
  7  8  1  0  0  0  0
  7 18  1  0  0  0  0
  7 33  1  0  0  0  0
  8  9  1  0  0  0  0
  8 34  1  0  0  0  0
  8 35  1  0  0  0  0
  9 10  1  0  0  0  0
 10 11  2  0  0  0  0
 10 12  1  0  0  0  0
 12 17  1  0  0  0  0
 12 13  2  0  0  0  0
 13 14  1  0  0  0  0
 13 36  1  0  0  0  0
 14 15  2  0  0  0  0
 14 37  1  0  0  0  0
 15 16  1  0  0  0  0
 15 38  1  0  0  0  0
 16 17  2  0  0  0  0
 16 39  1  0  0  0  0
 17 40  1  0  0  0  0
 18 19  1  0  0  0  0
 18 20  1  0  0  0  0
 18 41  1  0  0  0  0
 19 42  1  0  0  0  0
 20 21  1  0  0  0  0
 20 43  1  0  0  0  0
 21 44  1  0  0  0  0
 22 23  2  0  0  0  0
 22 24  1  0  0  0  0
 24 27  1  0  0  0  0
 24 25  1  0  0  0  0
 25 26  2  0  0  0  0
M  END
> <s_m_source_file>
AV-unprocessed.smi

> <i_m_source_file_index>
101

> <i_lp_mmshare_version>
43012

> <i_f3d_flags>
0

> <s_epik_input>
Tz1jMVtuSF1jKD1PKW4oW2NIXWMxW0NIM10pW0NAQEhdMk9bQ0BIXShbQ0BASF0oW09IXSlbQ0BIXTJbT0hdKVtDSDJdT0MoPU8pYzNbY0hdW2NIXVtjSF1bY0hdW2NIXTM=

> <s_epik_cmdline>
J2VwaWtfcHl0aG9uJywgJy1waCcsICc3LjAnLCAnLXRuJywgJzgnLCAnLW1hJywgJzIwMCcsICctbWV0YWxfYmluZGluZycsICctaW1hZScsICc8aW5maWxlLm1hZT4nLCAnLW9tYWUnLCAnPG91dGZpbGUubWFlPic=

> <r_lp_tautomer_probability>
0.999537

> <r_epik_Ionization_Penalty>
0.00263537

> <r_epik_Ionization_Penalty_Charging>
0.00263428

> <r_epik_Ionization_Penalty_Neutral>
1.09111e-06

> <r_epik_State_Penalty>
0.00183335

> <r_epik_Charging_Adjusted_Penalty>
0.00446763

> <i_epik_Tot_Q>
0

> <i_epik_Tot_abs_Q>
0

> <r_epik_Metal_State_Penalty>
1.00528

> <b_epik_Metal_Only>
0

> <s_epik_Chemistry_Notes>
This compound has an ester and may undergo hydrolysis at high or low pH. This compound contains an acetal/aminal-like group ( X-CH(R)-Y where X, Y are N, S, or O) that may be acid/base labile, releasing an aldehyde.

> <s_lp_Force_Field>
OPLS_2005

> <r_lp_Energy>
27.5612

> <b_lp_Chiralities_Consistent>
1

> <s_lp_Variant>
AV-unprocessed.smi:101-5

> <Gold.Version>
5.8.1

> <Gold.Id.Protein>
6NUR|6NUR_protein|mol2

> <Gold.PLP.Fitness>
55.8263

> <Gold.PLP.PLP>
-44.5172

> <Gold.PLP.part.hbond>
-4.5576

> <Gold.PLP.part.metal>
0.0000

> <Gold.PLP.part.buried>
-8.5330

> <Gold.PLP.part.nonpolar>
-31.7978

> <Gold.PLP.part.repulsive>
0.3676

> <Gold.PLP.ligand.clash>
0.0000

> <Gold.PLP.ligand.torsion>
1.6001

> <Gold.PLP.Chemscore.Hbond>
4.8153

> <Gold.PLP.Chemscore.CHOScore>
0.0000

> <Gold.PLP.Chemscore.Metal>
0.0000

> <Gold.Chemscore.Hbonds>
donor molecule, donor type, donor heavy atom, donor atom, acceptor molecule, acceptor atom, score
      L1  H    21    44       P1  7957  1.00
      P1  H  6896  6907       L1    26  0.99
      P1  H  7989  7998       L1     6  1.00
      P1  H  7997  8008       L1    11  0.94
      P1  H 10752 10763       L1    23  0.90

> <Gold.PLP.Chemscore.Internal.Correction>
0.0635

> <Gold.Rescore>
     Score         DG    S(hbond)    S(metal)    S(lipo)     H(rot)  DE(clash)    DE(int)     intcor
     20.97     -22.62       4.45        0.00      91.93       3.32       0.09       1.56       ----

> <Gold.Chemscore.Fitness>
20.9668

> <Gold.Chemscore.DG>
-22.6197

> <Gold.Chemscore.ZeroCoef>
-5.4800

> <Gold.Chemscore.Hbond>
4.4538

> <Gold.Chemscore.Metal>
0.0000

> <Gold.Chemscore.Lipo>
91.9322

> <Gold.Chemscore.Internal_Hbond>
0.0000

> <Gold.Chemscore.DEClash>
0.0890

> <Gold.Chemscore.DEInternal>
1.5639

> <Gold.Chemscore.Rot>
3.3172

> <Gold.Chemscore.Internal.Correction>
   9.000000E+99

> <Gold.Chemscore.Hbonds>
donor molecule, donor type, donor heavy atom, donor atom, acceptor molecule, acceptor atom, score
      L1  H    19    42       P1  8028  0.01
      L1  H    21    44       P1  7957  0.94
      P1  H  6896  6907       L1    26  0.91
      P1  H  7989  7998       L1     6  0.54
      P1  H  7997  8008       L1    11  0.92
      P1  H 10752 10763       L1    23  0.88

> <Gold.Chemscore.Hbond.Weighted>
-14.8757

> <Gold.Chemscore.Metal.Weighted>
-0.0000

> <Gold.Chemscore.Lipo.Weighted>
-10.7561

> <Gold.Chemscore.Internal_Hbond.Weighted>
0.0000

> <Gold.Chemscore.DEClash.Weighted>
0.0890

> <Gold.Chemscore.DEInternal.Weighted>
1.5639

> <Gold.Chemscore.Rot.Weighted>
8.4920

> <Gold.Chemscore.Internal.Correction.Weighted>
   9.000000E+99

> <Gold.Protein.RotatedTorsions>
[ 6907 6896 6895 6894 ] final -109.52 input  -60.11 | X-H torsion
[ 7974 7965 7964 7962 ] final  131.04 input  175.53 | X-H torsion
[ 8008 7997 7996 7995 ] final  -67.09 input   59.86 | X-H torsion
[ 10167 10162 10161 10158 ] final   -9.84 input  -65.29 | X-H torsion
[ 10718 10713 10712 10709 ] final  -26.54 input   66.30 | X-H torsion
[ 10763 10752 10751 10750 ] final   26.31 input  -60.55 | X-H torsion
[ 11005 11000 10999 10996 ] final  174.57 input  -57.11 | X-H torsion

> <Gold.Protein.ActiveResidues>
 VAL166  LYS551  ARG553  GLY616  TRP617  ASP618  TYR619  PRO620  LYS621  CYS622 
 ASP623  PHE694  ASN695  SER759  ASP760  ASP761  ALA762  ILE779  LEU786  VAL792 
 PHE793  MET794  SER795  GLU796  ALA797  LYS798  CYS799  TRP800  GLU811  SER814 

> <Gold.Protein.RotatedAtoms>
  150.7567  133.9517  159.3487 H   0  0  0  0  0  0  0  0  0  0  0  0  # atno 6907 bound_to 6896
  151.7434  135.0847  160.0329 H   0  0  0  0  0  0  0  0  0  0  0  0  # atno 6908 bound_to 6896
  152.3513  133.6146  159.5983 H   0  0  0  0  0  0  0  0  0  0  0  0  # atno 6909 bound_to 6896
  145.0115  139.4216  143.5242 H   0  0  0  0  0  0  0  0  0  0  0  0  # atno 7974 bound_to 7965
  154.4777  140.0899  156.7302 H   0  0  0  0  0  0  0  0  0  0  0  0  # atno 8008 bound_to 7997
  155.4553  140.3459  155.4287 H   0  0  0  0  0  0  0  0  0  0  0  0  # atno 8009 bound_to 7997
  156.1142  140.1456  156.9284 H   0  0  0  0  0  0  0  0  0  0  0  0  # atno 8010 bound_to 7997
  140.7098  143.5814  150.8988 H   0  0  0  0  0  0  0  0  0  0  0  0  # atno 10167 bound_to 10162
  156.4499  130.4481  149.6997 H   0  0  0  0  0  0  0  0  0  0  0  0  # atno 10718 bound_to 10713
  153.0631  135.6563  154.0417 H   0  0  0  0  0  0  0  0  0  0  0  0  # atno 10763 bound_to 10752
  154.0080  135.2931  155.3397 H   0  0  0  0  0  0  0  0  0  0  0  0  # atno 10764 bound_to 10752
  154.6978  135.5257  153.8551 H   0  0  0  0  0  0  0  0  0  0  0  0  # atno 10765 bound_to 10752
  140.3527  134.7181  157.4279 H   0  0  0  0  0  0  0  0  0  0  0  0  # atno 11005 bound_to 11000
  146.3470  139.9561  142.8723 LP  0  0  0  0  0  0  0  0  0  0  0  0  # atno 17320 bound_to 7965
  145.2017  140.9857  143.4152 LP  0  0  0  0  0  0  0  0  0  0  0  0  # atno 17321 bound_to 7965
  139.9539  143.6240  152.3021 LP  0  0  0  0  0  0  0  0  0  0  0  0  # atno 17342 bound_to 10162
  139.6769  144.7658  151.1680 LP  0  0  0  0  0  0  0  0  0  0  0  0  # atno 17343 bound_to 10162
  156.3827  130.7587  151.2582 LP  0  0  0  0  0  0  0  0  0  0  0  0  # atno 17370 bound_to 10713
  157.7503  131.0291  150.4077 LP  0  0  0  0  0  0  0  0  0  0  0  0  # atno 17371 bound_to 10713
  140.0690  134.5889  155.8663 LP  0  0  0  0  0  0  0  0  0  0  0  0  # atno 17394 bound_to 11000
  141.2007  133.6614  156.5912 LP  0  0  0  0  0  0  0  0  0  0  0  0  # atno 17395 bound_to 11000

$$$$
