AV-unprocessed.smi:3210|AV-procd|sdf|12273|dock2
  -GOLD-   2272018103D 1   1.00000     0.00000
 Structure written by MMmdl.
 34 35  0  0  0  0  0  0  0  0  1 V2000
  147.8600  138.8584  153.7753 O   0  0  0  0  0  0  0  0  0  0  0  0
  146.7868  139.0566  153.2049 C   0  0  0  0  0  0  0  0  0  0  0  0
  146.5332  138.4533  151.8242 C   0  0  0  0  0  0  0  0  0  0  0  0
  145.3551  137.5821  151.8294 N   0  0  0  0  0  0  0  0  0  0  0  0
  145.6642  136.2937  151.2261 C   0  0  0  0  0  0  0  0  0  0  0  0
  144.3881  135.4472  151.0844 C   0  0  0  0  0  0  0  0  0  0  0  0
  144.6772  134.0736  150.7111 N   0  0  0  0  0  0  0  0  0  0  0  0
  143.7904  133.0351  150.5187 C   0  0  0  0  0  0  0  0  0  0  0  0
  144.5228  131.9307  150.1895 C   0  0  0  0  0  0  0  0  0  0  0  0
  145.8664  132.3997  150.2051 C   0  0  0  0  0  0  0  0  0  0  0  0
  145.9553  133.6823  150.5172 N   0  0  0  0  0  0  0  0  0  0  0  0
  145.7945  139.7898  153.7319 N   0  0  0  0  0  0  0  0  0  0  0  0
  145.8376  140.4436  155.0334 C   0  0  0  0  0  0  0  0  0  0  0  0
  146.4450  141.8339  155.0339 C   0  0  0  0  0  0  0  0  0  0  0  0
  146.2497  142.7710  153.8652 C   0  0  0  0  0  0  0  0  0  0  0  0
  147.6063  142.1608  154.1251 C   0  0  0  0  0  0  0  0  0  0  0  0
  146.3867  139.2686  151.1144 H   0  0  0  0  0  0  0  0  0  0  0  0
  147.4077  137.8892  151.4945 H   0  0  0  0  0  0  0  0  0  0  0  0
  144.5856  138.0050  151.3289 H   0  0  0  0  0  0  0  0  0  0  0  0
  146.1276  136.4338  150.2481 H   0  0  0  0  0  0  0  0  0  0  0  0
  146.3855  135.7680  151.8532 H   0  0  0  0  0  0  0  0  0  0  0  0
  143.8528  135.4296  152.0345 H   0  0  0  0  0  0  0  0  0  0  0  0
  143.7076  135.8876  150.3534 H   0  0  0  0  0  0  0  0  0  0  0  0
  142.7244  133.1667  150.6339 H   0  0  0  0  0  0  0  0  0  0  0  0
  144.1553  130.9390  149.9717 H   0  0  0  0  0  0  0  0  0  0  0  0
  146.7731  131.8496  150.0009 H   0  0  0  0  0  0  0  0  0  0  0  0
  144.9495  139.9031  153.1908 H   0  0  0  0  0  0  0  0  0  0  0  0
  144.8283  140.5039  155.4431 H   0  0  0  0  0  0  0  0  0  0  0  0
  146.4037  139.8057  155.7128 H   0  0  0  0  0  0  0  0  0  0  0  0
  146.4829  142.2968  156.0183 H   0  0  0  0  0  0  0  0  0  0  0  0
  145.6892  142.4032  153.0080 H   0  0  0  0  0  0  0  0  0  0  0  0
  146.1225  143.8287  154.0868 H   0  0  0  0  0  0  0  0  0  0  0  0
  148.3839  142.8123  154.5187 H   0  0  0  0  0  0  0  0  0  0  0  0
  147.9481  141.3880  153.4393 H   0  0  0  0  0  0  0  0  0  0  0  0
  1  2  2  0  0  0  0
  2  3  1  0  0  0  0
  2 12  1  0  0  0  0
  3  4  1  0  0  0  0
  3 17  1  0  0  0  0
  3 18  1  0  0  0  0
  4  5  1  0  0  0  0
  4 19  1  0  0  0  0
  5  6  1  0  0  0  0
  5 20  1  0  0  0  0
  5 21  1  0  0  0  0
  6  7  1  0  0  0  0
  6 22  1  0  0  0  0
  6 23  1  0  0  0  0
  7 11  1  0  0  0  0
  7  8  1  0  0  0  0
  8  9  2  0  0  0  0
  8 24  1  0  0  0  0
  9 10  1  0  0  0  0
  9 25  1  0  0  0  0
 10 11  2  0  0  0  0
 10 26  1  0  0  0  0
 12 13  1  0  0  0  0
 12 27  1  0  0  0  0
 13 14  1  0  0  0  0
 13 28  1  0  0  0  0
 13 29  1  0  0  0  0
 14 16  1  0  0  0  0
 14 15  1  0  0  0  0
 14 30  1  0  0  0  0
 15 16  1  0  0  0  0
 15 31  1  0  0  0  0
 15 32  1  0  0  0  0
 16 33  1  0  0  0  0
 16 34  1  0  0  0  0
M  END
> <s_m_source_file>
AV-unprocessed.smi

> <i_m_source_file_index>
3210

> <i_lp_mmshare_version>
43012

> <i_f3d_flags>
0

> <s_epik_input>
W0NIMl0xW0NIMl1bQ0hdMVtDSDJdW05IXUMoPU8pW0NIMl1bTkhdW0NIMl1bQ0gyXW4yW2NIXVtjSF1bY0hdbjI=

> <s_epik_cmdline>
J2VwaWtfcHl0aG9uJywgJy1waCcsICc3LjAnLCAnLXRuJywgJzgnLCAnLW1hJywgJzIwMCcsICctbWV0YWxfYmluZGluZycsICctaW1hZScsICc8aW5maWxlLm1hZT4nLCAnLW9tYWUnLCAnPG91dGZpbGUubWFlPic=

> <r_lp_tautomer_probability>
1

> <r_epik_Ionization_Penalty>
0.724936

> <r_epik_Ionization_Penalty_Charging>
0

> <r_epik_Ionization_Penalty_Neutral>
0.724936

> <r_epik_State_Penalty>
0.747957

> <r_epik_Charging_Adjusted_Penalty>
0.747957

> <i_epik_Tot_Q>
0

> <i_epik_Tot_abs_Q>
0

> <r_epik_Metal_State_Penalty>
0.746186

> <b_epik_Metal_Only>
0

> <s_lp_Force_Field>
OPLS_2005

> <r_lp_Energy>
13.4578

> <b_lp_Chiralities_Consistent>
1

> <s_lp_Variant>
AV-unprocessed.smi:3210-2

> <Gold.Version>
5.8.1

> <Gold.Id.Protein>
6NUR|6NUR_protein|mol2

> <Gold.PLP.Fitness>
46.0360

> <Gold.PLP.PLP>
-35.2008

> <Gold.PLP.part.hbond>
-2.0000

> <Gold.PLP.part.metal>
0.0000

> <Gold.PLP.part.buried>
-5.2754

> <Gold.PLP.part.nonpolar>
-29.6749

> <Gold.PLP.part.repulsive>
0.6246

> <Gold.PLP.ligand.clash>
0.0000

> <Gold.PLP.ligand.torsion>
0.8405

> <Gold.PLP.Chemscore.Hbond>
1.9440

> <Gold.PLP.Chemscore.CHOScore>
2.0000

> <Gold.PLP.Chemscore.Metal>
0.0000

> <Gold.Chemscore.Hbonds>
donor molecule, donor type, donor heavy atom, donor atom, acceptor molecule, acceptor atom, score
      L1  H     4    19       P1 10171  1.00
      L1  H    12    27       P1 10175  1.00
      L1  C     8    24       P1 10186  1.00
      L1  C    10    26       P1 10747  1.00

> <Gold.PLP.Chemscore.Internal.Correction>
0.6841

> <Gold.Rescore>
     Score         DG    S(hbond)    S(metal)    S(lipo)     H(rot)  DE(clash)    DE(int)     intcor
     13.95     -14.86       1.98        0.00      73.42       2.27       0.06       0.85       ----

> <Gold.Chemscore.Fitness>
13.9527

> <Gold.Chemscore.DG>
-14.8589

> <Gold.Chemscore.ZeroCoef>
-5.4800

> <Gold.Chemscore.Hbond>
1.9786

> <Gold.Chemscore.Metal>
0.0000

> <Gold.Chemscore.Lipo>
73.4196

> <Gold.Chemscore.Internal_Hbond>
0.0000

> <Gold.Chemscore.DEClash>
0.0562

> <Gold.Chemscore.DEInternal>
0.8500

> <Gold.Chemscore.Rot>
2.2734

> <Gold.Chemscore.Internal.Correction>
   9.000000E+99

> <Gold.Chemscore.Hbonds>
donor molecule, donor type, donor heavy atom, donor atom, acceptor molecule, acceptor atom, score
      L1  H     4    19       P1 10171  0.94
      L1  H    12    27       P1 10175  0.97

> <Gold.Chemscore.Hbond.Weighted>
-6.6087

> <Gold.Chemscore.Metal.Weighted>
-0.0000

> <Gold.Chemscore.Lipo.Weighted>
-8.5901

> <Gold.Chemscore.Internal_Hbond.Weighted>
0.0000

> <Gold.Chemscore.DEClash.Weighted>
0.0562

> <Gold.Chemscore.DEInternal.Weighted>
0.8500

> <Gold.Chemscore.Rot.Weighted>
5.8199

> <Gold.Chemscore.Internal.Correction.Weighted>
   9.000000E+99

> <Gold.Protein.RotatedTorsions>
[ 6907 6896 6895 6894 ] final -106.70 input  -60.11 | X-H torsion
[ 7974 7965 7964 7962 ] final  -43.11 input  175.53 | X-H torsion
[ 8008 7997 7996 7995 ] final  124.82 input   59.86 | X-H torsion
[ 10167 10162 10161 10158 ] final  -29.90 input  -65.29 | X-H torsion
[ 10718 10713 10712 10709 ] final  -43.92 input   66.30 | X-H torsion
[ 10763 10752 10751 10750 ] final   36.16 input  -60.55 | X-H torsion
[ 11005 11000 10999 10996 ] final  -34.15 input  -57.11 | X-H torsion

> <Gold.Protein.ActiveResidues>
 VAL166  LYS551  ARG553  GLY616  TRP617  ASP618  TYR619  PRO620  LYS621  CYS622 
 ASP623  PHE694  ASN695  SER759  ASP760  ASP761  ALA762  ILE779  LEU786  VAL792 
 PHE793  MET794  SER795  GLU796  ALA797  LYS798  CYS799  TRP800  GLU811  SER814 

> <Gold.Protein.RotatedAtoms>
  150.7403  133.9937  159.3615 H   0  0  0  0  0  0  0  0  0  0  0  0  # atno 6907 bound_to 6896
  151.7886  135.0740  160.0393 H   0  0  0  0  0  0  0  0  0  0  0  0  # atno 6908 bound_to 6896
  152.3223  133.5831  159.5789 H   0  0  0  0  0  0  0  0  0  0  0  0  # atno 6909 bound_to 6896
  146.0051  140.7030  142.9252 H   0  0  0  0  0  0  0  0  0  0  0  0  # atno 7974 bound_to 7965
  156.2814  140.2731  156.1850 H   0  0  0  0  0  0  0  0  0  0  0  0  # atno 8008 bound_to 7997
  155.0517  140.0386  157.2564 H   0  0  0  0  0  0  0  0  0  0  0  0  # atno 8009 bound_to 7997
  154.7189  140.2684  155.6565 H   0  0  0  0  0  0  0  0  0  0  0  0  # atno 8010 bound_to 7997
  140.7255  143.3891  151.1461 H   0  0  0  0  0  0  0  0  0  0  0  0  # atno 10167 bound_to 10162
  156.2440  130.4182  149.8727 H   0  0  0  0  0  0  0  0  0  0  0  0  # atno 10718 bound_to 10713
  153.0088  135.6313  154.1941 H   0  0  0  0  0  0  0  0  0  0  0  0  # atno 10763 bound_to 10752
  154.1684  135.2819  155.3090 H   0  0  0  0  0  0  0  0  0  0  0  0  # atno 10764 bound_to 10752
  154.5928  135.5612  153.7355 H   0  0  0  0  0  0  0  0  0  0  0  0  # atno 10765 bound_to 10752
  140.9693  133.7119  156.1497 H   0  0  0  0  0  0  0  0  0  0  0  0  # atno 11005 bound_to 11000
  144.6932  140.3300  143.7217 LP  0  0  0  0  0  0  0  0  0  0  0  0  # atno 17320 bound_to 7965
  145.7429  139.1769  143.2366 LP  0  0  0  0  0  0  0  0  0  0  0  0  # atno 17321 bound_to 7965
  139.7493  143.8803  152.3072 LP  0  0  0  0  0  0  0  0  0  0  0  0  # atno 17342 bound_to 10162
  139.8651  144.7097  150.9053 LP  0  0  0  0  0  0  0  0  0  0  0  0  # atno 17343 bound_to 10162
  156.6299  130.8661  151.3493 LP  0  0  0  0  0  0  0  0  0  0  0  0  # atno 17370 bound_to 10713
  157.7187  130.9530  150.1354 LP  0  0  0  0  0  0  0  0  0  0  0  0  # atno 17371 bound_to 10713
  140.7353  134.4210  157.5561 LP  0  0  0  0  0  0  0  0  0  0  0  0  # atno 17394 bound_to 11000
  139.8906  134.8800  156.2361 LP  0  0  0  0  0  0  0  0  0  0  0  0  # atno 17395 bound_to 11000

$$$$
