#       Name:                AV-unprocessed.smi:187
#       Creating user name   scv26
#       Creation time:       Thu Mar 26 19:28:57 2020


#       File generated by GOLD software.
#

@<TRIPOS>MOLECULE
AV-unprocessed.smi:187
    63    66     1
SMALL
NO_CHARGES


@<TRIPOS>ATOM
      1 ****        -3.2679   1.0976  -2.3812 C.3            1 S1                 0.0000
      2 ****        -3.7548   1.1278  -0.9170 C.3            1 S1                 0.0000
      3 ****        -5.1447   0.4626  -0.8287 C.3            1 S1                 0.0000
      4 ****        -5.6547   0.3953   0.6166 C.3            1 S1                 0.0000
      5 ****        -4.6303  -0.3404   1.4985 C.3            1 S1                 0.0000
      6 ****        -5.1014  -0.4065   2.9569 C.2            1 S1                 0.0000
      7 ****        -5.2819  -1.6204   3.4832 N.am           1 S1                 0.0000
      8 ****        -5.3006   0.6214   3.6020 O.2            1 S1                 0.0000
      9 ****        -3.2646   0.3644   1.3956 C.3            1 S1                 0.0000
     10 ****        -2.8149   0.4717   0.0070 N.3            1 S1                 0.0000
     11 ****        -1.5255   0.8858  -0.0243 C.ar           1 S1                 0.0000
     12 ****        -1.2322   2.2114  -0.1016 N.ar           1 S1                 0.0000
     13 ****         0.0421   2.6147  -0.1043 C.ar           1 S1                 0.0000
     14 ****         1.1519   1.8762  -0.0330 N.ar           1 S1                 0.0000
     15 ****         0.8587   0.5467   0.0533 C.ar           1 S1                 0.0000
     16 ****        -0.4426  -0.0278   0.0719 C.ar           1 S1                 0.0000
     17 ****        -0.3536  -1.4089   0.1900 N.2            1 S1                 0.0000
     18 ****         0.9306  -1.6381   0.2438 C.2            1 S1                 0.0000
     19 ****         1.7325  -0.5228   0.1410 N.pl3          1 S1                 0.0000
     20 ****         3.1637  -0.4785   0.2091 C.3            1 S1                 0.0000
     21 ****         3.9754   0.3243  -0.8088 C.3            1 S1                 0.0000
     22 ****         5.1278  -0.6990  -0.6846 C.3            1 S1                 0.0000
     23 ****         5.8201  -1.1113  -1.9958 C.3            1 S1                 0.0000
     24 ****         6.3950  -0.0066  -2.6624 O.3            1 S1                 0.0000
     25 ****         6.1998  -0.4005   0.3852 C.3            1 S1                 0.0000
     26 ****         6.8616   0.8258   0.1530 O.3            1 S1                 0.0000
     27 ****         4.0247  -1.6731  -0.2110 C.3            1 S1                 0.0000
     28 ****        -4.0063   1.5477  -3.0451 H              1 S1                 0.0000
     29 ****        -3.0996   0.0747  -2.7199 H              1 S1                 0.0000
     30 ****        -2.3393   1.6501  -2.5217 H              1 S1                 0.0000
     31 ****        -3.8607   2.1689  -0.6078 H              1 S1                 0.0000
     32 ****        -5.8605   1.0098  -1.4431 H              1 S1                 0.0000
     33 ****        -5.0965  -0.5474  -1.2385 H              1 S1                 0.0000
     34 ****        -5.8244   1.4068   0.9893 H              1 S1                 0.0000
     35 ****        -6.6184  -0.1149   0.6446 H              1 S1                 0.0000
     36 ****        -4.5195  -1.3594   1.1226 H              1 S1                 0.0000
     37 ****        -5.5917  -1.7144   4.4395 H              1 S1                 0.0000
     38 ****        -5.1077  -2.4407   2.9210 H              1 S1                 0.0000
     39 ****        -3.3230   1.3662   1.8251 H              1 S1                 0.0000
     40 ****        -2.5282  -0.1874   1.9826 H              1 S1                 0.0000
     41 ****         0.1940   3.6817  -0.1722 H              1 S1                 0.0000
     42 ****         1.3285  -2.6362   0.3558 H              1 S1                 0.0000
     43 ****         3.4055  -0.1660   1.2264 H              1 S1                 0.0000
     44 ****         3.5156   0.3272  -1.7991 H              1 S1                 0.0000
     45 ****         4.2189   1.3385  -0.4915 H              1 S1                 0.0000
     46 ****         6.5943  -1.8579  -1.8173 H              1 S1                 0.0000
     47 ****         5.1075  -1.5687  -2.6826 H              1 S1                 0.0000
     48 ****         6.8060  -0.3140  -3.4556 H              1 S1                 0.0000
     49 ****         5.7588  -0.3482   1.3806 H              1 S1                 0.0000
     50 ****         6.9441  -1.1960   0.4286 H              1 S1                 0.0000
     51 ****         7.5000   0.9582   0.8368 H              1 S1                 0.0000
     52 ****         4.3134  -2.3320   0.6086 H              1 S1                 0.0000
     53 ****         3.5760  -2.2425  -1.0273 H              1 S1                 0.0000
     54 ****        -5.1556   1.5147   3.1766 LP             1 S1                 0.0000
     55 ****        -5.6076   0.5640   4.5520 LP             1 S1                 0.0000
     56 ****        -2.8233  -0.4437  -0.3954 LP             1 S1                 0.0000
     57 ****        -1.9698   2.8844  -0.1564 LP             1 S1                 0.0000
     58 ****         2.0794   2.2498  -0.0417 LP             1 S1                 0.0000
     59 ****        -1.1000  -2.0734   0.2256 LP             1 S1                 0.0000
     60 ****         7.0790   0.4237  -2.0733 LP             1 S1                 0.0000
     61 ****         5.6832   0.6587  -2.8877 LP             1 S1                 0.0000
     62 ****         6.1979   1.5738   0.1624 LP             1 S1                 0.0000
     63 ****         7.3202   0.7982  -0.7352 LP             1 S1                 0.0000
@<TRIPOS>BOND
    1    1    2 1     
    2    1   28 1     
    3    1   29 1     
    4    1   30 1     
    5    2   10 1     
    6    2    3 1     
    7    2   31 1     
    8    3    4 1     
    9    3   32 1     
   10    3   33 1     
   11    4    5 1     
   12    4   34 1     
   13    4   35 1     
   14    5    6 1     
   15    5    9 1     
   16    5   36 1     
   17    6    7 am    
   18    6    8 2     
   19    7   37 1     
   20    7   38 1     
   21    9   10 1     
   22    9   39 1     
   23    9   40 1     
   24   10   11 1     
   25   11   16 ar    
   26   11   12 ar    
   27   12   13 ar    
   28   13   14 ar    
   29   13   41 1     
   30   14   15 ar    
   31   15   19 1     
   32   15   16 ar    
   33   16   17 1     
   34   17   18 2     
   35   18   19 1     
   36   18   42 1     
   37   19   20 1     
   38   20   27 1     
   39   20   21 1     
   40   20   43 1     
   41   21   22 1     
   42   21   44 1     
   43   21   45 1     
   44   22   23 1     
   45   22   25 1     
   46   22   27 1     
   47   23   24 1     
   48   23   46 1     
   49   23   47 1     
   50   24   48 1     
   51   25   26 1     
   52   25   49 1     
   53   25   50 1     
   54   26   51 1     
   55   27   52 1     
   56   27   53 1     
   57    8   54 1     
   58    8   55 1     
   59   10   56 1     
   60   12   57 1     
   61   14   58 1     
   62   17   59 1     
   63   24   60 1     
   64   24   61 1     
   65   26   62 1     
   66   26   63 1     
@<TRIPOS>SUBSTRUCTURE
      1 S1             1
@<TRIPOS>SET
LONE_PAIRS      STATIC     ATOMS    <user>   **** ""
10 54 55 56 57 58 59 60 61 62 63
DONOR_HYDROGENS      STATIC     ATOMS    <user>   **** ""
4 37 38 48 51
ATOM$BLUE        STATIC     ATOMS    COLORGROUP SYSTEM
10 54 55 56 57 58 59 60 61 62 63
ATOM$RED        STATIC     ATOMS    COLORGROUP SYSTEM
4 37 38 48 51
