AV-unprocessed.smi:2443|AV-procd|sdf|9631|dock5
  -GOLD-   2272013263D 1   1.00000     0.00000
 Structure written by MMmdl.
 37 39  0  0  0  0  0  0  0  0  1 V2000
  153.3195  138.2716  154.7176 C   0  0  0  0  0  0  0  0  0  0  0  0
  152.8178  139.5231  155.1731 O   0  0  0  0  0  0  0  0  0  0  0  0
  151.4610  139.7537  155.0796 C   0  0  0  0  0  0  0  0  0  0  0  0
  150.6254  138.7534  154.5415 C   0  0  0  0  0  0  0  0  0  0  0  0
  149.2425  139.0317  154.4600 C   0  0  0  0  0  0  0  0  0  0  0  0
  148.4368  137.9995  153.9113 N   0  0  0  0  0  0  0  0  0  0  0  0
  147.1482  137.7236  154.1780 C   0  0  0  0  0  0  0  0  0  0  0  0
  146.4321  138.3513  154.9585 O   0  0  0  0  0  0  0  0  0  0  0  0
  146.7246  136.6623  153.4772 N   0  0  0  0  0  0  0  0  0  0  0  0
  145.3802  136.1000  153.5412 C   0  0  0  0  0  0  0  0  0  0  0  0
  145.0134  135.1165  152.4356 C   0  0  0  0  0  0  0  0  0  0  0  0
  145.6803  133.7472  152.5334 C   0  0  0  0  0  0  0  0  0  0  0  0
  147.0064  133.5040  151.8498 C   0  0  0  0  0  0  0  0  0  0  0  0
  145.7784  132.7663  151.3809 C   0  0  0  0  0  0  0  0  0  0  0  0
  143.5868  135.1366  151.9195 C   0  0  0  0  0  0  0  0  0  0  0  0
  144.6855  135.7188  151.0775 C   0  0  0  0  0  0  0  0  0  0  0  0
  148.7658  140.2244  154.8944 N   0  0  0  0  0  0  0  0  0  0  0  0
  149.6386  141.1041  155.3889 C   0  0  0  0  0  0  0  0  0  0  0  0
  150.9562  140.9365  155.5058 N   0  0  0  0  0  0  0  0  0  0  0  0
  154.3994  138.2416  154.8616 H   0  0  0  0  0  0  0  0  0  0  0  0
  153.1234  138.1263  153.6544 H   0  0  0  0  0  0  0  0  0  0  0  0
  152.8882  137.4410  155.2782 H   0  0  0  0  0  0  0  0  0  0  0  0
  151.0353  137.8130  154.2030 H   0  0  0  0  0  0  0  0  0  0  0  0
  148.8938  137.4029  153.2377 H   0  0  0  0  0  0  0  0  0  0  0  0
  147.3791  136.2049  152.8597 H   0  0  0  0  0  0  0  0  0  0  0  0
  145.2243  135.6383  154.5178 H   0  0  0  0  0  0  0  0  0  0  0  0
  144.6811  136.9350  153.4917 H   0  0  0  0  0  0  0  0  0  0  0  0
  145.5820  133.2833  153.5132 H   0  0  0  0  0  0  0  0  0  0  0  0
  147.3943  134.2894  151.2045 H   0  0  0  0  0  0  0  0  0  0  0  0
  147.7568  132.9376  152.3977 H   0  0  0  0  0  0  0  0  0  0  0  0
  145.7096  131.7075  151.6220 H   0  0  0  0  0  0  0  0  0  0  0  0
  145.3977  133.0370  150.4002 H   0  0  0  0  0  0  0  0  0  0  0  0
  143.1547  134.1924  151.5936 H   0  0  0  0  0  0  0  0  0  0  0  0
  142.8859  135.8304  152.3796 H   0  0  0  0  0  0  0  0  0  0  0  0
  144.7171  136.8027  150.9853 H   0  0  0  0  0  0  0  0  0  0  0  0
  144.9358  135.1802  150.1681 H   0  0  0  0  0  0  0  0  0  0  0  0
  149.2373  142.0466  155.7299 H   0  0  0  0  0  0  0  0  0  0  0  0
  1  2  1  0  0  0  0
  1 20  1  0  0  0  0
  1 21  1  0  0  0  0
  1 22  1  0  0  0  0
  2  3  1  0  0  0  0
  3 19  1  0  0  0  0
  3  4  2  0  0  0  0
  4  5  1  0  0  0  0
  4 23  1  0  0  0  0
  5  6  1  0  0  0  0
  5 17  2  0  0  0  0
  6  7  1  0  0  0  0
  6 24  1  0  0  0  0
  7  8  2  0  0  0  0
  7  9  1  0  0  0  0
  9 10  1  0  0  0  0
  9 25  1  0  0  0  0
 10 11  1  0  0  0  0
 10 26  1  0  0  0  0
 10 27  1  0  0  0  0
 11 16  1  0  0  0  0
 11 12  1  0  0  0  0
 11 15  1  0  0  0  0
 12 14  1  0  0  0  0
 12 13  1  0  0  0  0
 12 28  1  0  0  0  0
 13 14  1  0  0  0  0
 13 29  1  0  0  0  0
 13 30  1  0  0  0  0
 14 31  1  0  0  0  0
 14 32  1  0  0  0  0
 15 16  1  0  0  0  0
 15 33  1  0  0  0  0
 15 34  1  0  0  0  0
 16 35  1  0  0  0  0
 16 36  1  0  0  0  0
 17 18  1  0  0  0  0
 18 19  2  0  0  0  0
 18 37  1  0  0  0  0
M  END
> <s_m_source_file>
AV-unprocessed.smi

> <i_m_source_file_index>
2443

> <i_lp_mmshare_version>
43012

> <i_f3d_flags>
0

> <s_epik_input>
W0NIM11PYzFbY0hdYyhuW2NIXW4xKVtOSF1DKD1PKVtOSF1bQ0gyXUMyKFtDSDJdW0NIMl0yKVtDSF0zW0NIMl1bQ0gyXTM=

> <s_epik_cmdline>
J2VwaWtfcHl0aG9uJywgJy1waCcsICc3LjAnLCAnLXRuJywgJzgnLCAnLW1hJywgJzIwMCcsICctbWV0YWxfYmluZGluZycsICctaW1hZScsICc8aW5maWxlLm1hZT4nLCAnLW9tYWUnLCAnPG91dGZpbGUubWFlPic=

> <r_lp_tautomer_probability>
1

> <r_epik_Ionization_Penalty>
2.73859e-05

> <r_epik_Ionization_Penalty_Charging>
0

> <r_epik_Ionization_Penalty_Neutral>
2.73859e-05

> <r_epik_State_Penalty>
-0

> <r_epik_Charging_Adjusted_Penalty>
0

> <i_epik_Tot_Q>
0

> <i_epik_Tot_abs_Q>
0

> <r_epik_Metal_State_Penalty>
-0

> <b_epik_Metal_Only>
0

> <s_lp_Force_Field>
OPLS_2005

> <r_lp_Energy>
26.0575

> <b_lp_Chiralities_Consistent>
1

> <s_lp_Variant>
AV-unprocessed.smi:2443-1

> <Gold.Version>
5.8.1

> <Gold.Id.Protein>
6NUR|6NUR_protein|mol2

> <Gold.PLP.Fitness>
39.9975

> <Gold.PLP.PLP>
-29.7975

> <Gold.PLP.part.hbond>
-5.0000

> <Gold.PLP.part.metal>
0.0000

> <Gold.PLP.part.buried>
-0.5067

> <Gold.PLP.part.nonpolar>
-24.7440

> <Gold.PLP.part.repulsive>
0.2302

> <Gold.PLP.ligand.clash>
0.2734

> <Gold.PLP.ligand.torsion>
1.5863

> <Gold.PLP.Chemscore.Hbond>
2.8432

> <Gold.PLP.Chemscore.CHOScore>
0.8523

> <Gold.PLP.Chemscore.Metal>
0.0000

> <Gold.Chemscore.Hbonds>
donor molecule, donor type, donor heavy atom, donor atom, acceptor molecule, acceptor atom, score
      L1  H     6    24       P1  7948  1.00
      L1  H     9    25       P1  7948  1.00
      P1  H  7997  8009       L1     2  1.00
      L1  C    18    37       P1  8028  0.59

> <Gold.PLP.Chemscore.Internal.Correction>
2.5596

> <Gold.Rescore>
     Score         DG    S(hbond)    S(metal)    S(lipo)     H(rot)  DE(clash)    DE(int)     intcor
     11.29     -14.02       2.25        0.00      49.46       1.86       0.07       2.66       ----

> <Gold.Chemscore.Fitness>
11.2886

> <Gold.Chemscore.DG>
-14.0172

> <Gold.Chemscore.ZeroCoef>
-5.4800

> <Gold.Chemscore.Hbond>
2.2504

> <Gold.Chemscore.Metal>
0.0000

> <Gold.Chemscore.Lipo>
49.4644

> <Gold.Chemscore.Internal_Hbond>
0.0000

> <Gold.Chemscore.DEClash>
0.0663

> <Gold.Chemscore.DEInternal>
2.6623

> <Gold.Chemscore.Rot>
1.8619

> <Gold.Chemscore.Internal.Correction>
   9.000000E+99

> <Gold.Chemscore.Hbonds>
donor molecule, donor type, donor heavy atom, donor atom, acceptor molecule, acceptor atom, score
      L1  H     6    24       P1  7948  0.99
      L1  H     9    25       P1  7948  0.95
      P1  H  7997  8009       L1     2  0.24

> <Gold.Chemscore.Hbond.Weighted>
-7.5163

> <Gold.Chemscore.Metal.Weighted>
-0.0000

> <Gold.Chemscore.Lipo.Weighted>
-5.7873

> <Gold.Chemscore.Internal_Hbond.Weighted>
0.0000

> <Gold.Chemscore.DEClash.Weighted>
0.0663

> <Gold.Chemscore.DEInternal.Weighted>
2.6623

> <Gold.Chemscore.Rot.Weighted>
4.7665

> <Gold.Chemscore.Internal.Correction.Weighted>
   9.000000E+99

> <Gold.Protein.RotatedTorsions>
[ 6907 6896 6895 6894 ] final  131.31 input  -60.11 | X-H torsion
[ 7974 7965 7964 7962 ] final  -82.77 input  175.53 | X-H torsion
[ 8008 7997 7996 7995 ] final -160.82 input   59.86 | X-H torsion
[ 10167 10162 10161 10158 ] final -162.80 input  -65.29 | X-H torsion
[ 10718 10713 10712 10709 ] final -161.90 input   66.30 | X-H torsion
[ 10763 10752 10751 10750 ] final  -95.60 input  -60.55 | X-H torsion
[ 11005 11000 10999 10996 ] final -154.65 input  -57.11 | X-H torsion

> <Gold.Protein.ActiveResidues>
 VAL166  LYS551  ARG553  GLY616  TRP617  ASP618  TYR619  PRO620  LYS621  CYS622 
 ASP623  PHE694  ASN695  SER759  ASP760  ASP761  ALA762  ILE779  LEU786  VAL792 
 PHE793  MET794  SER795  GLU796  ALA797  LYS798  CYS799  TRP800  GLU811  SER814 

> <Gold.Protein.RotatedAtoms>
  152.3438  133.6098  159.5895 H   0  0  0  0  0  0  0  0  0  0  0  0  # atno 6907 bound_to 6896
  150.7495  133.9680  159.3545 H   0  0  0  0  0  0  0  0  0  0  0  0  # atno 6908 bound_to 6896
  151.7541  135.0826  160.0386 H   0  0  0  0  0  0  0  0  0  0  0  0  # atno 6909 bound_to 6896
  145.5289  140.9523  143.1614 H   0  0  0  0  0  0  0  0  0  0  0  0  # atno 7974 bound_to 7965
  155.7831  140.0868  157.2048 H   0  0  0  0  0  0  0  0  0  0  0  0  # atno 8008 bound_to 7997
  154.3989  140.1504  156.3133 H   0  0  0  0  0  0  0  0  0  0  0  0  # atno 8009 bound_to 7997
  155.8633  140.3429  155.5774 H   0  0  0  0  0  0  0  0  0  0  0  0  # atno 8010 bound_to 7997
  139.6366  144.0338  152.2059 H   0  0  0  0  0  0  0  0  0  0  0  0  # atno 10167 bound_to 10162
  156.6028  130.8818  151.2918 H   0  0  0  0  0  0  0  0  0  0  0  0  # atno 10718 bound_to 10713
  154.7163  135.5115  153.8742 H   0  0  0  0  0  0  0  0  0  0  0  0  # atno 10763 bound_to 10752
  153.0823  135.6635  154.0029 H   0  0  0  0  0  0  0  0  0  0  0  0  # atno 10764 bound_to 10752
  153.9861  135.3024  155.3395 H   0  0  0  0  0  0  0  0  0  0  0  0  # atno 10765 bound_to 10752
  140.6950  134.4000  157.5215 H   0  0  0  0  0  0  0  0  0  0  0  0  # atno 11005 bound_to 11000
  144.7636  139.6897  143.7224 LP  0  0  0  0  0  0  0  0  0  0  0  0  # atno 17320 bound_to 7965
  146.2057  139.5380  142.9714 LP  0  0  0  0  0  0  0  0  0  0  0  0  # atno 17321 bound_to 7965
  140.0017  144.6288  150.7724 LP  0  0  0  0  0  0  0  0  0  0  0  0  # atno 17342 bound_to 10162
  140.7469  143.2897  151.3364 LP  0  0  0  0  0  0  0  0  0  0  0  0  # atno 17343 bound_to 10162
  157.7275  130.9644  150.1701 LP  0  0  0  0  0  0  0  0  0  0  0  0  # atno 17370 bound_to 10713
  156.2455  130.3695  149.8290 LP  0  0  0  0  0  0  0  0  0  0  0  0  # atno 17371 bound_to 10713
  139.8913  134.8784  156.2328 LP  0  0  0  0  0  0  0  0  0  0  0  0  # atno 17394 bound_to 11000
  141.0210  133.7041  156.1269 LP  0  0  0  0  0  0  0  0  0  0  0  0  # atno 17395 bound_to 11000

$$$$
