#       Name:                AV-unprocessed.smi:895
#       Creating user name   scv26
#       Creation time:       Fri Mar 27 01:55:57 2020


#       File generated by GOLD software.
#

@<TRIPOS>MOLECULE
AV-unprocessed.smi:895
    49    50     1
SMALL
NO_CHARGES


@<TRIPOS>ATOM
      1 ****        -2.9966  -0.9057  -4.6200 C.3            1 S1                 0.0000
      2 ****        -2.6185  -0.6288  -3.1550 C.3            1 S1                 0.0000
      3 ****        -3.5664   0.4239  -2.5471 C.3            1 S1                 0.0000
      4 ****        -2.8132  -1.8542  -2.4772 O.3            1 S1                 0.0000
      5 ****        -1.1168  -0.2547  -3.0589 C.3            1 S1                 0.0000
      6 ****        -0.7512   0.4100  -1.8110 N.am           1 S1                 0.0000
      7 ****        -0.4224  -0.2144  -0.6724 C.2            1 S1                 0.0000
      8 ****        -0.3932  -1.4377  -0.5417 O.2            1 S1                 0.0000
      9 ****        -0.1270   0.6578   0.3019 N.am           1 S1                 0.0000
     10 ****         0.2833   0.3133   1.6634 C.3            1 S1                 0.0000
     11 ****        -0.4897   1.2149   2.6466 C.3            1 S1                 0.0000
     12 ****        -0.0491   0.9917   4.1007 C.3            1 S1                 0.0000
     13 ****         1.4630   1.2025   4.2560 C.3            1 S1                 0.0000
     14 ****         2.2424   0.2808   3.3075 C.3            1 S1                 0.0000
     15 ****         1.8168   0.4842   1.8365 C.3            1 S1                 0.0000
     16 ****         2.5694  -0.3937   0.9477 N.pl3          1 S1                 0.0000
     17 ****         3.3345  -0.0427  -0.1454 C.2            1 S1                 0.0000
     18 ****         3.8203  -1.1952  -0.6929 C.2            1 S1                 0.0000
     19 ****         3.2888  -2.2160   0.1431 C.2            1 S1                 0.0000
     20 ****         2.5411  -1.7347   1.1219 N.2            1 S1                 0.0000
     21 ****        -2.8903  -0.0086  -5.2305 H              1 S1                 0.0000
     22 ****        -4.0305  -1.2417  -4.7095 H              1 S1                 0.0000
     23 ****        -2.3607  -1.6772  -5.0562 H              1 S1                 0.0000
     24 ****        -3.4265   1.3964  -3.0202 H              1 S1                 0.0000
     25 ****        -3.4067   0.5487  -1.4756 H              1 S1                 0.0000
     26 ****        -4.6106   0.1402  -2.6832 H              1 S1                 0.0000
     27 ****        -2.4962  -1.7605  -1.5912 H              1 S1                 0.0000
     28 ****        -0.4792  -1.1225  -3.2399 H              1 S1                 0.0000
     29 ****        -0.8773   0.4563  -3.8503 H              1 S1                 0.0000
     30 ****        -0.7475   1.4193  -1.8187 H              1 S1                 0.0000
     31 ****        -0.1850   1.6418   0.0855 H              1 S1                 0.0000
     32 ****         0.0145  -0.7214   1.8852 H              1 S1                 0.0000
     33 ****        -0.3362   2.2631   2.3849 H              1 S1                 0.0000
     34 ****        -1.5608   1.0297   2.5577 H              1 S1                 0.0000
     35 ****        -0.5888   1.6713   4.7608 H              1 S1                 0.0000
     36 ****        -0.3128  -0.0194   4.4133 H              1 S1                 0.0000
     37 ****         1.7136   2.2433   4.0472 H              1 S1                 0.0000
     38 ****         1.7609   1.0121   5.2875 H              1 S1                 0.0000
     39 ****         3.3119   0.4653   3.4141 H              1 S1                 0.0000
     40 ****         2.0769  -0.7546   3.6079 H              1 S1                 0.0000
     41 ****         2.0743   1.5089   1.5629 H              1 S1                 0.0000
     42 ****         3.4636   0.9873  -0.4434 H              1 S1                 0.0000
     43 ****         4.4548  -1.2946  -1.5609 H              1 S1                 0.0000
     44 ****         3.4214  -3.2851   0.0673 H              1 S1                 0.0000
     45 ****        -2.3068  -2.5808  -2.9416 LP             1 S1                 0.0000
     46 ****        -3.7868  -2.0819  -2.4648 LP             1 S1                 0.0000
     47 ****        -0.6239  -2.0288  -1.3146 LP             1 S1                 0.0000
     48 ****        -0.1387  -1.8407   0.3375 LP             1 S1                 0.0000
     49 ****         2.0612  -2.2483   1.8332 LP             1 S1                 0.0000
@<TRIPOS>BOND
    1    1    2 1     
    2    1   21 1     
    3    1   22 1     
    4    1   23 1     
    5    2    3 1     
    6    2    4 1     
    7    2    5 1     
    8    3   24 1     
    9    3   25 1     
   10    3   26 1     
   11    4   27 1     
   12    5    6 1     
   13    5   28 1     
   14    5   29 1     
   15    6    7 am    
   16    6   30 1     
   17    7    8 2     
   18    7    9 am    
   19    9   10 1     
   20    9   31 1     
   21   10   15 1     
   22   10   11 1     
   23   10   32 1     
   24   11   12 1     
   25   11   33 1     
   26   11   34 1     
   27   12   13 1     
   28   12   35 1     
   29   12   36 1     
   30   13   14 1     
   31   13   37 1     
   32   13   38 1     
   33   14   15 1     
   34   14   39 1     
   35   14   40 1     
   36   15   16 1     
   37   15   41 1     
   38   16   20 1     
   39   16   17 1     
   40   17   18 2     
   41   17   42 1     
   42   18   19 1     
   43   18   43 1     
   44   19   20 2     
   45   19   44 1     
   46    4   45 1     
   47    4   46 1     
   48    8   47 1     
   49    8   48 1     
   50   20   49 1     
@<TRIPOS>SUBSTRUCTURE
      1 S1             1
@<TRIPOS>SET
LONE_PAIRS      STATIC     ATOMS    <user>   **** ""
5 45 46 47 48 49
DONOR_HYDROGENS      STATIC     ATOMS    <user>   **** ""
3 27 30 31
ATOM$BLUE        STATIC     ATOMS    COLORGROUP SYSTEM
5 45 46 47 48 49
ATOM$RED        STATIC     ATOMS    COLORGROUP SYSTEM
3 27 30 31
