AV-unprocessed.smi:1703|AV-procd|sdf|6854|dock2
  -GOLD-   22720 8 33D 1   1.00000     0.00000
 Structure written by MMmdl.
 48 50  0  0  0  0  0  0  0  0  1 V2000
  145.6151  142.5956  153.8956 C   0  0  0  0  0  0  0  0  0  0  0  0
  146.5700  142.1462  155.0066 C   0  0  2  0  0  0  0  0  0  0  0  0
  147.8580  141.5124  154.4476 C   0  0  0  0  0  0  0  0  0  0  0  0
  148.7310  141.0183  155.5065 N   0  0  0  0  0  0  0  0  0  0  0  0
  149.9518  140.4361  154.9453 C   0  0  0  0  0  0  0  0  0  0  0  0
  151.1945  140.4938  155.8555 C   0  0  2  0  0  0  0  0  0  0  0  0
  152.3136  140.0439  155.1177 O   0  0  0  0  0  0  0  0  0  0  0  0
  151.0215  139.6133  157.1084 C   0  0  0  0  0  0  0  0  0  0  0  0
  151.8498  140.0602  158.2210 N   0  0  0  0  0  0  0  0  0  0  0  0
  152.7552  139.3497  158.9404 C   0  0  0  0  0  0  0  0  0  0  0  0
  153.0250  137.9003  158.6511 C   0  0  0  0  0  0  0  0  0  0  0  0
  152.7180  137.0356  159.7257 O   0  0  0  0  0  0  0  0  0  0  0  0
  153.3766  140.0245  159.9110 N   0  0  0  0  0  0  0  0  0  0  0  0
  152.8203  141.2846  159.8138 C   0  0  0  0  0  0  0  0  0  0  0  0
  153.0597  142.4561  160.5673 C   0  0  0  0  0  0  0  0  0  0  0  0
  152.3579  143.6453  160.2799 C   0  0  0  0  0  0  0  0  0  0  0  0
  151.4096  143.6804  159.2370 C   0  0  0  0  0  0  0  0  0  0  0  0
  151.1562  142.5242  158.4741 C   0  0  0  0  0  0  0  0  0  0  0  0
  151.8592  141.3400  158.7657 C   0  0  0  0  0  0  0  0  0  0  0  0
  147.9803  140.0770  156.3352 C   0  0  0  0  0  0  0  0  0  0  0  0
  146.6903  140.7056  156.8969 C   0  0  2  0  0  0  0  0  0  0  0  0
  145.8576  139.6998  157.6984 C   0  0  0  0  0  0  0  0  0  0  0  0
  145.8957  141.1877  155.8169 O   0  0  0  0  0  0  0  0  0  0  0  0
  146.0850  143.3388  153.2511 H   0  0  0  0  0  0  0  0  0  0  0  0
  144.7128  143.0417  154.3146 H   0  0  0  0  0  0  0  0  0  0  0  0
  145.3117  141.7544  153.2717 H   0  0  0  0  0  0  0  0  0  0  0  0
  146.8256  143.0118  155.6202 H   0  0  0  0  0  0  0  0  0  0  0  0
  147.5977  140.6944  153.7737 H   0  0  0  0  0  0  0  0  0  0  0  0
  148.3903  142.2516  153.8478 H   0  0  0  0  0  0  0  0  0  0  0  0
  149.7568  139.3978  154.6718 H   0  0  0  0  0  0  0  0  0  0  0  0
  150.1958  140.9455  154.0117 H   0  0  0  0  0  0  0  0  0  0  0  0
  151.3854  141.5158  156.1795 H   0  0  0  0  0  0  0  0  0  0  0  0
  153.0222  139.8839  155.7227 H   0  0  0  0  0  0  0  0  0  0  0  0
  149.9816  139.6378  157.4364 H   0  0  0  0  0  0  0  0  0  0  0  0
  151.2396  138.5701  156.8794 H   0  0  0  0  0  0  0  0  0  0  0  0
  152.4377  137.5967  157.7841 H   0  0  0  0  0  0  0  0  0  0  0  0
  154.0767  137.7707  158.3968 H   0  0  0  0  0  0  0  0  0  0  0  0
  153.1860  137.3357  160.4901 H   0  0  0  0  0  0  0  0  0  0  0  0
  153.7842  142.4392  161.3681 H   0  0  0  0  0  0  0  0  0  0  0  0
  152.5482  144.5346  160.8625 H   0  0  0  0  0  0  0  0  0  0  0  0
  150.8765  144.5953  159.0231 H   0  0  0  0  0  0  0  0  0  0  0  0
  150.4310  142.5472  157.6745 H   0  0  0  0  0  0  0  0  0  0  0  0
  147.7295  139.1899  155.7512 H   0  0  0  0  0  0  0  0  0  0  0  0
  148.5888  139.7384  157.1724 H   0  0  0  0  0  0  0  0  0  0  0  0
  146.9469  141.5436  157.5476 H   0  0  0  0  0  0  0  0  0  0  0  0
  146.4227  139.3086  158.5447 H   0  0  0  0  0  0  0  0  0  0  0  0
  145.5540  138.8556  157.0788 H   0  0  0  0  0  0  0  0  0  0  0  0
  144.9540  140.1676  158.0903 H   0  0  0  0  0  0  0  0  0  0  0  0
  1  2  1  0  0  0  0
  1 24  1  0  0  0  0
  1 25  1  0  0  0  0
  1 26  1  0  0  0  0
  2 23  1  0  0  0  0
  2  3  1  0  0  0  0
  2 27  1  0  0  0  0
  3  4  1  0  0  0  0
  3 28  1  0  0  0  0
  3 29  1  0  0  0  0
  4  5  1  0  0  0  0
  4 20  1  0  0  0  0
  5  6  1  0  0  0  0
  5 30  1  0  0  0  0
  5 31  1  0  0  0  0
  6  7  1  0  0  0  0
  6  8  1  0  0  0  0
  6 32  1  0  0  0  0
  7 33  1  0  0  0  0
  8  9  1  0  0  0  0
  8 34  1  0  0  0  0
  8 35  1  0  0  0  0
  9 19  1  0  0  0  0
  9 10  1  0  0  0  0
 10 11  1  0  0  0  0
 10 13  2  0  0  0  0
 11 12  1  0  0  0  0
 11 36  1  0  0  0  0
 11 37  1  0  0  0  0
 12 38  1  0  0  0  0
 13 14  1  0  0  0  0
 14 19  2  0  0  0  0
 14 15  1  0  0  0  0
 15 16  2  0  0  0  0
 15 39  1  0  0  0  0
 16 17  1  0  0  0  0
 16 40  1  0  0  0  0
 17 18  2  0  0  0  0
 17 41  1  0  0  0  0
 18 19  1  0  0  0  0
 18 42  1  0  0  0  0
 20 21  1  0  0  0  0
 20 43  1  0  0  0  0
 20 44  1  0  0  0  0
 21 22  1  0  0  0  0
 21 23  1  0  0  0  0
 21 45  1  0  0  0  0
 22 46  1  0  0  0  0
 22 47  1  0  0  0  0
 22 48  1  0  0  0  0
M  END
> <s_m_source_file>
AV-unprocessed.smi

> <i_m_source_file_index>
1703

> <i_lp_mmshare_version>
43012

> <i_f3d_flags>
0

> <s_epik_input>
W0NIM11bQ0BASF0xW0NIMl1OKFtDSDJdW0NASF0oTzEpW0NIM10pW0NIMl1bQ0BIXShbT0hdKVtDSDJdbihjKG4yKVtDSDJdW09IXSljKGMyMylbY0hdW2NIXVtjSF1bY0hdMw==

> <s_epik_cmdline>
J2VwaWtfcHl0aG9uJywgJy1waCcsICc3LjAnLCAnLXRuJywgJzgnLCAnLW1hJywgJzIwMCcsICctbWV0YWxfYmluZGluZycsICctaW1hZScsICc8aW5maWxlLm1hZT4nLCAnLW9tYWUnLCAnPG91dGZpbGUubWFlPic=

> <r_epik_Ionization_Penalty>
0.307685

> <r_epik_Ionization_Penalty_Charging>
0

> <r_epik_Ionization_Penalty_Neutral>
0.307685

> <r_epik_State_Penalty>
0.277856

> <r_epik_Charging_Adjusted_Penalty>
0.277856

> <i_epik_Tot_Q>
0

> <i_epik_Tot_abs_Q>
0

> <r_epik_Metal_State_Penalty>
0.238959

> <b_epik_Metal_Only>
0

> <s_lp_Force_Field>
OPLS_2005

> <r_lp_Energy>
28.9256

> <b_lp_Chiralities_Consistent>
1

> <s_lp_Variant>
AV-unprocessed.smi:1703-2

> <Gold.Version>
5.8.1

> <Gold.Id.Protein>
6NUR|6NUR_protein|mol2

> <Gold.PLP.Fitness>
45.5298

> <Gold.PLP.PLP>
-42.9139

> <Gold.PLP.part.hbond>
-2.2017

> <Gold.PLP.part.metal>
0.0000

> <Gold.PLP.part.buried>
-4.6986

> <Gold.PLP.part.nonpolar>
-36.2285

> <Gold.PLP.part.repulsive>
0.1827

> <Gold.PLP.ligand.clash>
0.0000

> <Gold.PLP.ligand.torsion>
0.6356

> <Gold.PLP.Chemscore.Hbond>
1.2816

> <Gold.PLP.Chemscore.CHOScore>
0.0000

> <Gold.PLP.Chemscore.Metal>
0.0000

> <Gold.Chemscore.Hbonds>
donor molecule, donor type, donor heavy atom, donor atom, acceptor molecule, acceptor atom, score
      P1  H  6896  6908       L1    12  0.67
      P1  H  7989  7998       L1     7  0.39

> <Gold.PLP.Chemscore.Internal.Correction>
0.0422

> <Gold.Rescore>
     Score         DG    S(hbond)    S(metal)    S(lipo)     H(rot)  DE(clash)    DE(int)     intcor
     13.36     -13.95       0.99        0.00     107.20       2.88       0.03       0.56       ----

> <Gold.Chemscore.Fitness>
13.3556

> <Gold.Chemscore.DG>
-13.9513

> <Gold.Chemscore.ZeroCoef>
-5.4800

> <Gold.Chemscore.Hbond>
0.9867

> <Gold.Chemscore.Metal>
0.0000

> <Gold.Chemscore.Lipo>
107.2048

> <Gold.Chemscore.Internal_Hbond>
0.0000

> <Gold.Chemscore.DEClash>
0.0317

> <Gold.Chemscore.DEInternal>
0.5640

> <Gold.Chemscore.Rot>
2.8778

> <Gold.Chemscore.Internal.Correction>
   9.000000E+99

> <Gold.Chemscore.Hbonds>
donor molecule, donor type, donor heavy atom, donor atom, acceptor molecule, acceptor atom, score
      P1  H  6896  6908       L1    12  0.57
      P1  H  7989  7998       L1     7  0.03

> <Gold.Chemscore.Hbond.Weighted>
-3.2954

> <Gold.Chemscore.Metal.Weighted>
-0.0000

> <Gold.Chemscore.Lipo.Weighted>
-12.5430

> <Gold.Chemscore.Internal_Hbond.Weighted>
0.0000

> <Gold.Chemscore.DEClash.Weighted>
0.0317

> <Gold.Chemscore.DEInternal.Weighted>
0.5640

> <Gold.Chemscore.Rot.Weighted>
7.3671

> <Gold.Chemscore.Internal.Correction.Weighted>
   9.000000E+99

> <Gold.Protein.RotatedTorsions>
[ 6907 6896 6895 6894 ] final -116.28 input  -60.11 | X-H torsion
[ 7974 7965 7964 7962 ] final  157.02 input  175.53 | X-H torsion
[ 8008 7997 7996 7995 ] final  179.61 input   59.86 | X-H torsion
[ 10167 10162 10161 10158 ] final  -95.79 input  -65.29 | X-H torsion
[ 10718 10713 10712 10709 ] final   73.53 input   66.30 | X-H torsion
[ 10763 10752 10751 10750 ] final  -55.34 input  -60.55 | X-H torsion
[ 11005 11000 10999 10996 ] final   54.29 input  -57.11 | X-H torsion

> <Gold.Protein.ActiveResidues>
 VAL166  LYS551  ARG553  GLY616  TRP617  ASP618  TYR619  PRO620  LYS621  CYS622 
 ASP623  PHE694  ASN695  SER759  ASP760  ASP761  ALA762  ILE779  LEU786  VAL792 
 PHE793  MET794  SER795  GLU796  ALA797  LYS798  CYS799  TRP800  GLU811  SER814 

> <Gold.Protein.RotatedAtoms>
  150.8044  133.8538  159.3212 H   0  0  0  0  0  0  0  0  0  0  0  0  # atno 6907 bound_to 6896
  151.6341  135.1018  160.0137 H   0  0  0  0  0  0  0  0  0  0  0  0  # atno 6908 bound_to 6896
  152.4133  133.6959  159.6452 H   0  0  0  0  0  0  0  0  0  0  0  0  # atno 6909 bound_to 6896
  144.7928  139.7283  143.6214 H   0  0  0  0  0  0  0  0  0  0  0  0  # atno 7974 bound_to 7965
  156.0414  140.1304  157.0151 H   0  0  0  0  0  0  0  0  0  0  0  0  # atno 8008 bound_to 7997
  154.4393  140.1029  156.6314 H   0  0  0  0  0  0  0  0  0  0  0  0  # atno 8009 bound_to 7997
  155.5660  140.3465  155.4505 H   0  0  0  0  0  0  0  0  0  0  0  0  # atno 8010 bound_to 7997
  140.3005  143.3165  152.0253 H   0  0  0  0  0  0  0  0  0  0  0  0  # atno 10167 bound_to 10162
  157.6552  130.9633  150.1082 H   0  0  0  0  0  0  0  0  0  0  0  0  # atno 10718 bound_to 10713
  154.1892  135.6430  153.5055 H   0  0  0  0  0  0  0  0  0  0  0  0  # atno 10763 bound_to 10752
  153.0039  135.5424  154.6433 H   0  0  0  0  0  0  0  0  0  0  0  0  # atno 10764 bound_to 10752
  154.5817  135.2926  155.0698 H   0  0  0  0  0  0  0  0  0  0  0  0  # atno 10765 bound_to 10752
  140.0698  134.5485  155.9059 H   0  0  0  0  0  0  0  0  0  0  0  0  # atno 11005 bound_to 11000
  146.2186  139.5595  142.9633 LP  0  0  0  0  0  0  0  0  0  0  0  0  # atno 17320 bound_to 7965
  145.5750  141.0389  143.2153 LP  0  0  0  0  0  0  0  0  0  0  0  0  # atno 17321 bound_to 7965
  139.4916  144.6459  151.6779 LP  0  0  0  0  0  0  0  0  0  0  0  0  # atno 17342 bound_to 10162
  140.5655  144.0197  150.6190 LP  0  0  0  0  0  0  0  0  0  0  0  0  # atno 17343 bound_to 10162
  156.1986  130.3659  149.8817 LP  0  0  0  0  0  0  0  0  0  0  0  0  # atno 17370 bound_to 10713
  156.6727  130.8826  151.3564 LP  0  0  0  0  0  0  0  0  0  0  0  0  # atno 17371 bound_to 10713
  141.2007  133.6614  156.5912 LP  0  0  0  0  0  0  0  0  0  0  0  0  # atno 17394 bound_to 11000
  140.3644  134.7660  157.4556 LP  0  0  0  0  0  0  0  0  0  0  0  0  # atno 17395 bound_to 11000

$$$$
