AV-unprocessed.smi:598|AV-procd|sdf|3021|dock4
  -GOLD-   2262023533D 1   1.00000     0.00000
 Structure written by MMmdl.
 43 44  0  0  0  0  0  0  0  0  3 V2000
  144.9029  133.7050  150.4523 C   0  0  0  0  0  0  0  0  0  0  0  0
  145.7714  134.3264  151.5608 C   0  0  2  0  0  0  0  0  0  0  0  0
  146.6682  133.2408  152.1911 C   0  0  0  0  0  0  0  0  0  0  0  0
  147.5741  133.8042  153.2942 C   0  0  0  0  0  0  0  0  0  0  0  0
  146.7492  134.5174  154.3762 C   0  0  0  0  0  0  0  0  0  0  0  0
  145.8481  135.6152  153.7809 C   0  0  1  0  0  0  0  0  0  0  0  0
  146.6743  136.7262  153.3034 N   0  0  0  0  0  0  0  0  0  0  0  0
  146.6656  137.9825  153.7753 C   0  0  0  0  0  0  0  0  0  0  0  0
  145.9756  138.3451  154.7284 O   0  0  0  0  0  0  0  0  0  0  0  0
  147.5794  138.9786  153.0510 C   0  0  0  0  0  0  0  0  0  0  0  0
  148.5838  139.5629  153.9540 N   0  0  0  0  0  0  0  0  0  0  0  0
  149.7214  138.7748  154.2182 C   0  0  0  0  0  0  0  0  0  0  0  0
  150.7236  139.2042  155.0091 C   0  0  0  0  0  0  0  0  0  0  0  0
  151.8882  138.3835  155.2586 N   0  3  0  0  0  0  0  0  0  0  0  0
  152.7905  138.8388  155.9537 O   0  0  0  0  0  0  0  0  0  0  0  0
  151.9406  137.2590  154.7686 O   0  5  0  0  0  0  0  0  0  0  0  0
  150.5992  140.5240  155.5966 C   0  0  0  0  0  0  0  0  0  0  0  0
  149.5152  141.2845  155.3452 C   0  0  0  0  0  0  0  0  0  0  0  0
  148.4283  140.8170  154.4781 C   0  0  0  0  0  0  0  0  0  0  0  0
  147.4417  141.5124  154.2373 O   0  0  0  0  0  0  0  0  0  0  0  0
  144.9374  135.0473  152.6569 C   0  0  1  0  0  0  0  0  0  0  0  0
  143.9904  136.1230  152.0862 C   0  0  0  0  0  0  0  0  0  0  0  0
  144.1725  133.0076  150.8637 H   0  0  0  0  0  0  0  0  0  0  0  0
  145.5167  133.1579  149.7362 H   0  0  0  0  0  0  0  0  0  0  0  0
  144.3625  134.4646  149.8878 H   0  0  0  0  0  0  0  0  0  0  0  0
  146.4219  135.0618  151.0852 H   0  0  0  0  0  0  0  0  0  0  0  0
  146.0456  132.4470  152.6068 H   0  0  0  0  0  0  0  0  0  0  0  0
  147.2852  132.7738  151.4225 H   0  0  0  0  0  0  0  0  0  0  0  0
  148.1546  132.9980  153.7438 H   0  0  0  0  0  0  0  0  0  0  0  0
  148.2962  134.4960  152.8591 H   0  0  0  0  0  0  0  0  0  0  0  0
  146.1284  133.7842  154.8925 H   0  0  0  0  0  0  0  0  0  0  0  0
  147.4109  134.9400  155.1334 H   0  0  0  0  0  0  0  0  0  0  0  0
  145.2079  135.9720  154.5896 H   0  0  0  0  0  0  0  0  0  0  0  0
  147.2829  136.5250  152.5235 H   0  0  0  0  0  0  0  0  0  0  0  0
  148.0416  138.4717  152.2027 H   0  0  0  0  0  0  0  0  0  0  0  0
  146.9796  139.7778  152.6116 H   0  0  0  0  0  0  0  0  0  0  0  0
  149.7203  137.8123  153.7267 H   0  0  0  0  0  0  0  0  0  0  0  0
  151.3745  140.9129  156.2400 H   0  0  0  0  0  0  0  0  0  0  0  0
  149.4438  142.2655  155.7919 H   0  0  0  0  0  0  0  0  0  0  0  0
  144.2994  134.2949  153.1236 H   0  0  0  0  0  0  0  0  0  0  0  0
  144.5263  136.8503  151.4755 H   0  0  0  0  0  0  0  0  0  0  0  0
  143.4886  136.6659  152.8876 H   0  0  0  0  0  0  0  0  0  0  0  0
  143.2090  135.6827  151.4676 H   0  0  0  0  0  0  0  0  0  0  0  0
  1  2  1  0  0  0  0
  1 23  1  0  0  0  0
  1 24  1  0  0  0  0
  1 25  1  0  0  0  0
  2 21  1  0  0  0  0
  2  3  1  0  0  0  0
  2 26  1  0  0  0  0
  3  4  1  0  0  0  0
  3 27  1  0  0  0  0
  3 28  1  0  0  0  0
  4  5  1  0  0  0  0
  4 29  1  0  0  0  0
  4 30  1  0  0  0  0
  5  6  1  0  0  0  0
  5 31  1  0  0  0  0
  5 32  1  0  0  0  0
  6  7  1  0  0  0  0
  6 21  1  0  0  0  0
  6 33  1  0  0  0  0
  7  8  1  0  0  0  0
  7 34  1  0  0  0  0
  8  9  2  0  0  0  0
  8 10  1  0  0  0  0
 10 11  1  0  0  0  0
 10 35  1  0  0  0  0
 10 36  1  0  0  0  0
 11 19  1  0  0  0  0
 11 12  1  0  0  0  0
 12 13  2  0  0  0  0
 12 37  1  0  0  0  0
 13 14  1  0  0  0  0
 13 17  1  0  0  0  0
 14 15  2  0  0  0  0
 14 16  1  0  0  0  0
 17 18  2  0  0  0  0
 17 38  1  0  0  0  0
 18 19  1  0  0  0  0
 18 39  1  0  0  0  0
 19 20  2  0  0  0  0
 21 22  1  0  0  0  0
 21 40  1  0  0  0  0
 22 41  1  0  0  0  0
 22 42  1  0  0  0  0
 22 43  1  0  0  0  0
M  CHG  1  14   1
M  CHG  1  16  -1
M  END
> <s_m_source_file>
AV-unprocessed.smi

> <i_m_source_file_index>
598

> <i_lp_mmshare_version>
43012

> <i_f3d_flags>
0

> <s_epik_input>
W0NIM11bQ0BASF0xW0NIMl1bQ0gyXVtDSDJdW0NASF0oW0NASF0xW0NIM10pW05IXUMoPU8pW0NIMl1uMltjSF1jKFtOK10oPU8pW08tXSlbY0hdW2NIXWMyPU8=

> <s_epik_cmdline>
J2VwaWtfcHl0aG9uJywgJy1waCcsICc3LjAnLCAnLXRuJywgJzgnLCAnLW1hJywgJzIwMCcsICctbWV0YWxfYmluZGluZycsICctaW1hZScsICc8aW5maWxlLm1hZT4nLCAnLW9tYWUnLCAnPG91dGZpbGUubWFlPic=

> <r_lp_tautomer_probability>
1

> <r_epik_Ionization_Penalty>
1.91291e-08

> <r_epik_Ionization_Penalty_Charging>
8.21931e-11

> <r_epik_Ionization_Penalty_Neutral>
1.90469e-08

> <r_epik_State_Penalty>
-0

> <r_epik_Charging_Adjusted_Penalty>
8.21931e-11

> <i_epik_Tot_Q>
0

> <i_epik_Tot_abs_Q>
2

> <r_epik_Metal_State_Penalty>
-0

> <b_epik_Metal_Only>
0

> <s_lp_Force_Field>
OPLS_2005

> <r_lp_Energy>
23.6598

> <b_lp_Chiralities_Consistent>
1

> <s_lp_Variant>
AV-unprocessed.smi:598-1

> <Gold.Version>
5.8.1

> <Gold.Id.Protein>
6NUR|6NUR_protein|mol2

> <Gold.PLP.Fitness>
44.9995

> <Gold.PLP.PLP>
-34.3185

> <Gold.PLP.part.hbond>
-3.0000

> <Gold.PLP.part.metal>
0.0000

> <Gold.PLP.part.buried>
-0.5694

> <Gold.PLP.part.nonpolar>
-30.9085

> <Gold.PLP.part.repulsive>
0.3312

> <Gold.PLP.ligand.clash>
0.0000

> <Gold.PLP.ligand.torsion>
0.2840

> <Gold.PLP.Chemscore.Hbond>
2.7440

> <Gold.PLP.Chemscore.CHOScore>
1.0000

> <Gold.PLP.Chemscore.Metal>
0.0000

> <Gold.Chemscore.Hbonds>
donor molecule, donor type, donor heavy atom, donor atom, acceptor molecule, acceptor atom, score
      L1  H     7    34       P1  7948  1.00
      P1  H  7997  8010       L1    15  0.98
      P1  H 10752 10763       L1    16  0.72
      L1  C    12    37       P1  7948  1.00

> <Gold.PLP.Chemscore.Internal.Correction>
0.0169

> <Gold.Rescore>
     Score         DG    S(hbond)    S(metal)    S(lipo)     H(rot)  DE(clash)    DE(int)     intcor
     17.31     -17.73       2.50        0.00      66.87       1.54       0.08       0.33       ----

> <Gold.Chemscore.Fitness>
17.3099

> <Gold.Chemscore.DG>
-17.7269

> <Gold.Chemscore.ZeroCoef>
-5.4800

> <Gold.Chemscore.Hbond>
2.5043

> <Gold.Chemscore.Metal>
0.0000

> <Gold.Chemscore.Lipo>
66.8652

> <Gold.Chemscore.Internal_Hbond>
0.0000

> <Gold.Chemscore.DEClash>
0.0832

> <Gold.Chemscore.DEInternal>
0.3337

> <Gold.Chemscore.Rot>
1.5393

> <Gold.Chemscore.Internal.Correction>
   9.000000E+99

> <Gold.Chemscore.Hbonds>
donor molecule, donor type, donor heavy atom, donor atom, acceptor molecule, acceptor atom, score
      L1  H     7    34       P1  7948  0.95
      P1  H  7997  8010       L1    15  0.91
      P1  H 10752 10763       L1    16  0.69

> <Gold.Chemscore.Hbond.Weighted>
-8.3643

> <Gold.Chemscore.Metal.Weighted>
-0.0000

> <Gold.Chemscore.Lipo.Weighted>
-7.8232

> <Gold.Chemscore.Internal_Hbond.Weighted>
0.0000

> <Gold.Chemscore.DEClash.Weighted>
0.0832

> <Gold.Chemscore.DEInternal.Weighted>
0.3337

> <Gold.Chemscore.Rot.Weighted>
3.9407

> <Gold.Chemscore.Internal.Correction.Weighted>
   9.000000E+99

> <Gold.Protein.RotatedTorsions>
[ 6907 6896 6895 6894 ] final  -34.59 input  -60.11 | X-H torsion
[ 7974 7965 7964 7962 ] final   78.90 input  175.53 | X-H torsion
[ 8008 7997 7996 7995 ] final   76.78 input   59.86 | X-H torsion
[ 10167 10162 10161 10158 ] final  -49.78 input  -65.29 | X-H torsion
[ 10718 10713 10712 10709 ] final  -82.55 input   66.30 | X-H torsion
[ 10763 10752 10751 10750 ] final   27.40 input  -60.55 | X-H torsion
[ 11005 11000 10999 10996 ] final -118.16 input  -57.11 | X-H torsion

> <Gold.Protein.ActiveResidues>
 VAL166  LYS551  ARG553  GLY616  TRP617  ASP618  TYR619  PRO620  LYS621  CYS622 
 ASP623  PHE694  ASN695  SER759  ASP760  ASP761  ALA762  ILE779  LEU786  VAL792 
 PHE793  MET794  SER795  GLU796  ALA797  LYS798  CYS799  TRP800  GLU811  SER814 

> <Gold.Protein.RotatedAtoms>
  151.0506  134.9670  159.8209 H   0  0  0  0  0  0  0  0  0  0  0  0  # atno 6907 bound_to 6896
  152.5380  134.2542  159.8920 H   0  0  0  0  0  0  0  0  0  0  0  0  # atno 6908 bound_to 6896
  151.2558  133.4284  159.2647 H   0  0  0  0  0  0  0  0  0  0  0  0  # atno 6909 bound_to 6896
  145.6711  139.2497  143.1868 H   0  0  0  0  0  0  0  0  0  0  0  0  # atno 7974 bound_to 7965
  155.8322  140.3465  155.5579 H   0  0  0  0  0  0  0  0  0  0  0  0  # atno 8008 bound_to 7997
  155.8229  140.0915  157.1858 H   0  0  0  0  0  0  0  0  0  0  0  0  # atno 8009 bound_to 7997
  154.4004  140.1426  156.3509 H   0  0  0  0  0  0  0  0  0  0  0  0  # atno 8010 bound_to 7997
  140.6669  143.2684  151.4265 H   0  0  0  0  0  0  0  0  0  0  0  0  # atno 10167 bound_to 10162
  156.0031  130.4638  150.4122 H   0  0  0  0  0  0  0  0  0  0  0  0  # atno 10718 bound_to 10713
  153.0558  135.6538  154.0581 H   0  0  0  0  0  0  0  0  0  0  0  0  # atno 10763 bound_to 10752
  154.0259  135.2916  155.3376 H   0  0  0  0  0  0  0  0  0  0  0  0  # atno 10764 bound_to 10752
  154.6872  135.5297  153.8410 H   0  0  0  0  0  0  0  0  0  0  0  0  # atno 10765 bound_to 10752
  141.0305  133.9989  157.3150 H   0  0  0  0  0  0  0  0  0  0  0  0  # atno 11005 bound_to 11000
  146.1044  140.7505  142.9533 LP  0  0  0  0  0  0  0  0  0  0  0  0  # atno 17320 bound_to 7965
  144.7056  140.3839  143.7120 LP  0  0  0  0  0  0  0  0  0  0  0  0  # atno 17321 bound_to 7965
  139.5921  144.1477  152.2100 LP  0  0  0  0  0  0  0  0  0  0  0  0  # atno 17342 bound_to 10162
  140.0834  144.5681  150.7105 LP  0  0  0  0  0  0  0  0  0  0  0  0  # atno 17343 bound_to 10162
  157.2184  131.0476  151.2560 LP  0  0  0  0  0  0  0  0  0  0  0  0  # atno 17370 bound_to 10713
  157.3823  130.7238  149.6639 LP  0  0  0  0  0  0  0  0  0  0  0  0  # atno 17371 bound_to 10713
  139.9204  135.0200  156.8044 LP  0  0  0  0  0  0  0  0  0  0  0  0  # atno 17394 bound_to 11000
  140.6415  133.9814  155.7710 LP  0  0  0  0  0  0  0  0  0  0  0  0  # atno 17395 bound_to 11000

$$$$
