AV-unprocessed.smi:404|AV-procd|sdf|2497|dock9
  -GOLD-   2262022443D 1   1.00000     0.00000
 Structure written by MMmdl.
 44 45  0  0  0  0  0  0  0  0  1 V2000
  151.7658  138.6745  154.8784 C   0  0  0  0  0  0  0  0  0  0  0  0
  150.5817  139.5364  155.2123 C   0  0  0  0  0  0  0  0  0  0  0  0
  149.9145  140.1286  154.2357 N   0  0  0  0  0  0  0  0  0  0  0  0
  148.9362  140.8183  154.8561 N   0  0  0  0  0  0  0  0  0  0  0  0
  148.0046  141.5990  154.0655 C   0  0  0  0  0  0  0  0  0  0  0  0
  148.9874  140.6639  156.2275 C   0  0  0  0  0  0  0  0  0  0  0  0
  148.0138  141.3363  157.1408 C   0  0  0  0  0  0  0  0  0  0  0  0
  150.0436  139.8352  156.4986 C   0  0  0  0  0  0  0  0  0  0  0  0
  150.5391  139.3486  157.8366 C   0  0  0  0  0  0  0  0  0  0  0  0
  151.9191  139.9420  158.1183 C   0  0  0  0  0  0  0  0  0  0  0  0
  152.8371  139.7698  157.3166 O   0  0  0  0  0  0  0  0  0  0  0  0
  152.0502  140.6353  159.2602 N   0  0  0  0  0  0  0  0  0  0  0  0
  153.2798  141.2583  159.7413 C   0  0  0  0  0  0  0  0  0  0  0  0
  153.1294  142.7792  159.9564 C   0  0  0  0  0  0  0  0  0  0  0  0
  152.2683  143.1310  161.1911 C   0  0  0  0  0  0  0  0  0  0  0  0
  152.1072  144.6502  161.3645 C   0  0  0  0  0  0  0  0  0  0  0  0
  151.5318  145.3014  160.0983 C   0  0  0  0  0  0  0  0  0  0  0  0
  152.3911  144.9677  158.8704 C   0  0  0  0  0  0  0  0  0  0  0  0
  152.5428  143.4481  158.6960 C   0  0  0  0  0  0  0  0  0  0  0  0
  152.6933  139.1492  155.1985 H   0  0  0  0  0  0  0  0  0  0  0  0
  151.8417  138.4880  153.8064 H   0  0  0  0  0  0  0  0  0  0  0  0
  151.6980  137.7075  155.3766 H   0  0  0  0  0  0  0  0  0  0  0  0
  146.9816  141.3349  154.3349 H   0  0  0  0  0  0  0  0  0  0  0  0
  148.1479  141.4082  153.0008 H   0  0  0  0  0  0  0  0  0  0  0  0
  148.1619  142.6606  154.2591 H   0  0  0  0  0  0  0  0  0  0  0  0
  148.2789  141.1806  158.1864 H   0  0  0  0  0  0  0  0  0  0  0  0
  147.0073  140.9459  156.9883 H   0  0  0  0  0  0  0  0  0  0  0  0
  147.9922  142.4113  156.9608 H   0  0  0  0  0  0  0  0  0  0  0  0
  149.8620  139.6359  158.6416 H   0  0  0  0  0  0  0  0  0  0  0  0
  150.5952  138.2599  157.8701 H   0  0  0  0  0  0  0  0  0  0  0  0
  151.2372  140.7228  159.8527 H   0  0  0  0  0  0  0  0  0  0  0  0
  153.5298  140.7796  160.6886 H   0  0  0  0  0  0  0  0  0  0  0  0
  154.1148  141.0491  159.0702 H   0  0  0  0  0  0  0  0  0  0  0  0
  154.1268  143.1927  160.1149 H   0  0  0  0  0  0  0  0  0  0  0  0
  151.2847  142.6689  161.0963 H   0  0  0  0  0  0  0  0  0  0  0  0
  152.7145  142.7212  162.0970 H   0  0  0  0  0  0  0  0  0  0  0  0
  151.4596  144.8596  162.2163 H   0  0  0  0  0  0  0  0  0  0  0  0
  153.0756  145.0955  161.5959 H   0  0  0  0  0  0  0  0  0  0  0  0
  150.5112  144.9514  159.9377 H   0  0  0  0  0  0  0  0  0  0  0  0
  151.4722  146.3822  160.2291 H   0  0  0  0  0  0  0  0  0  0  0  0
  151.9445  145.4020  157.9755 H   0  0  0  0  0  0  0  0  0  0  0  0
  153.3759  145.4242  158.9774 H   0  0  0  0  0  0  0  0  0  0  0  0
  153.1810  143.2459  157.8351 H   0  0  0  0  0  0  0  0  0  0  0  0
  151.5698  143.0114  158.4665 H   0  0  0  0  0  0  0  0  0  0  0  0
  1  2  1  0  0  0  0
  1 20  1  0  0  0  0
  1 21  1  0  0  0  0
  1 22  1  0  0  0  0
  2  8  1  0  0  0  0
  2  3  2  0  0  0  0
  3  4  1  0  0  0  0
  4  5  1  0  0  0  0
  4  6  1  0  0  0  0
  5 23  1  0  0  0  0
  5 24  1  0  0  0  0
  5 25  1  0  0  0  0
  6  7  1  0  0  0  0
  6  8  2  0  0  0  0
  7 26  1  0  0  0  0
  7 27  1  0  0  0  0
  7 28  1  0  0  0  0
  8  9  1  0  0  0  0
  9 10  1  0  0  0  0
  9 29  1  0  0  0  0
  9 30  1  0  0  0  0
 10 11  2  0  0  0  0
 10 12  1  0  0  0  0
 12 13  1  0  0  0  0
 12 31  1  0  0  0  0
 13 14  1  0  0  0  0
 13 32  1  0  0  0  0
 13 33  1  0  0  0  0
 14 19  1  0  0  0  0
 14 15  1  0  0  0  0
 14 34  1  0  0  0  0
 15 16  1  0  0  0  0
 15 35  1  0  0  0  0
 15 36  1  0  0  0  0
 16 17  1  0  0  0  0
 16 37  1  0  0  0  0
 16 38  1  0  0  0  0
 17 18  1  0  0  0  0
 17 39  1  0  0  0  0
 17 40  1  0  0  0  0
 18 19  1  0  0  0  0
 18 41  1  0  0  0  0
 18 42  1  0  0  0  0
 19 43  1  0  0  0  0
 19 44  1  0  0  0  0
M  END
> <s_m_source_file>
AV-unprocessed.smi

> <i_m_source_file_index>
404

> <i_lp_mmshare_version>
43012

> <i_f3d_flags>
0

> <s_epik_input>
W0NIM11jMW5uKFtDSDNdKWMoW0NIM10pYzFbQ0gyXUMoPU8pW05IXVtDSDJdW0NIXTJbQ0gyXVtDSDJdW0NIMl1bQ0gyXVtDSDJdMg==

> <s_epik_cmdline>
J2VwaWtfcHl0aG9uJywgJy1waCcsICc3LjAnLCAnLXRuJywgJzgnLCAnLW1hJywgJzIwMCcsICctbWV0YWxfYmluZGluZycsICctaW1hZScsICc8aW5maWxlLm1hZT4nLCAnLW9tYWUnLCAnPG91dGZpbGUubWFlPic=

> <r_lp_tautomer_probability>
1

> <r_epik_Ionization_Penalty>
0.00317479

> <r_epik_Ionization_Penalty_Charging>
0

> <r_epik_Ionization_Penalty_Neutral>
0.00317479

> <r_epik_State_Penalty>
0.00223767

> <r_epik_Charging_Adjusted_Penalty>
0.00223767

> <i_epik_Tot_Q>
0

> <i_epik_Tot_abs_Q>
0

> <r_epik_Metal_State_Penalty>
-0

> <b_epik_Metal_Only>
0

> <s_lp_Force_Field>
OPLS_2005

> <r_lp_Energy>
5.4513

> <b_lp_Chiralities_Consistent>
1

> <s_lp_Variant>
AV-unprocessed.smi:404-1

> <Gold.Version>
5.8.1

> <Gold.Id.Protein>
6NUR|6NUR_protein|mol2

> <Gold.PLP.Fitness>
49.5943

> <Gold.PLP.PLP>
-45.9595

> <Gold.PLP.part.hbond>
-2.0000

> <Gold.PLP.part.metal>
0.0000

> <Gold.PLP.part.buried>
-5.0901

> <Gold.PLP.part.nonpolar>
-39.5885

> <Gold.PLP.part.repulsive>
1.1276

> <Gold.PLP.ligand.clash>
0.0000

> <Gold.PLP.ligand.torsion>
0.1193

> <Gold.PLP.Chemscore.Hbond>
1.2888

> <Gold.PLP.Chemscore.CHOScore>
0.0000

> <Gold.PLP.Chemscore.Metal>
0.0000

> <Gold.Chemscore.Hbonds>
donor molecule, donor type, donor heavy atom, donor atom, acceptor molecule, acceptor atom, score
      P1  H  7989  7998       L1     3  0.51
      P1  H  7997  8008       L1    11  0.93

> <Gold.PLP.Chemscore.Internal.Correction>
0.0070

> <Gold.Rescore>
     Score         DG    S(hbond)    S(metal)    S(lipo)     H(rot)  DE(clash)    DE(int)     intcor
     18.93     -19.57       1.00        0.00     122.07       1.38       0.39       0.25       ----

> <Gold.Chemscore.Fitness>
18.9277

> <Gold.Chemscore.DG>
-19.5651

> <Gold.Chemscore.ZeroCoef>
-5.4800

> <Gold.Chemscore.Hbond>
0.9961

> <Gold.Chemscore.Metal>
0.0000

> <Gold.Chemscore.Lipo>
122.0739

> <Gold.Chemscore.Internal_Hbond>
0.0000

> <Gold.Chemscore.DEClash>
0.3908

> <Gold.Chemscore.DEInternal>
0.2467

> <Gold.Chemscore.Rot>
1.3768

> <Gold.Chemscore.Internal.Correction>
   9.000000E+99

> <Gold.Chemscore.Hbonds>
donor molecule, donor type, donor heavy atom, donor atom, acceptor molecule, acceptor atom, score
      P1  H  7989  7998       L1     3  0.03
      P1  H  7997  8008       L1    11  0.91

> <Gold.Chemscore.Hbond.Weighted>
-3.3270

> <Gold.Chemscore.Metal.Weighted>
-0.0000

> <Gold.Chemscore.Lipo.Weighted>
-14.2826

> <Gold.Chemscore.Internal_Hbond.Weighted>
0.0000

> <Gold.Chemscore.DEClash.Weighted>
0.3908

> <Gold.Chemscore.DEInternal.Weighted>
0.2467

> <Gold.Chemscore.Rot.Weighted>
3.5245

> <Gold.Chemscore.Internal.Correction.Weighted>
   9.000000E+99

> <Gold.Protein.RotatedTorsions>
[ 6907 6896 6895 6894 ] final   54.74 input  -60.11 | X-H torsion
[ 7974 7965 7964 7962 ] final  -26.56 input  175.53 | X-H torsion
[ 8008 7997 7996 7995 ] final  -45.13 input   59.86 | X-H torsion
[ 10167 10162 10161 10158 ] final -145.43 input  -65.29 | X-H torsion
[ 10718 10713 10712 10709 ] final   47.89 input   66.30 | X-H torsion
[ 10763 10752 10751 10750 ] final  -32.79 input  -60.55 | X-H torsion
[ 11005 11000 10999 10996 ] final  164.32 input  -57.11 | X-H torsion

> <Gold.Protein.ActiveResidues>
 VAL166  LYS551  ARG553  GLY616  TRP617  ASP618  TYR619  PRO620  LYS621  CYS622 
 ASP623  PHE694  ASN695  SER759  ASP760  ASP761  ALA762  ILE779  LEU786  VAL792 
 PHE793  MET794  SER795  GLU796  ALA797  LYS798  CYS799  TRP800  GLU811  SER814 

> <Gold.Protein.RotatedAtoms>
  152.3469  134.7059  160.0247 H   0  0  0  0  0  0  0  0  0  0  0  0  # atno 6907 bound_to 6896
  151.7425  133.3317  159.3378 H   0  0  0  0  0  0  0  0  0  0  0  0  # atno 6908 bound_to 6896
  150.7515  134.6198  159.6174 H   0  0  0  0  0  0  0  0  0  0  0  0  # atno 6909 bound_to 6896
  146.1417  140.5035  142.8649 H   0  0  0  0  0  0  0  0  0  0  0  0  # atno 7974 bound_to 7965
  154.3999  140.1404  156.3797 H   0  0  0  0  0  0  0  0  0  0  0  0  # atno 8008 bound_to 7997
  155.8015  140.3476  155.5385 H   0  0  0  0  0  0  0  0  0  0  0  0  # atno 8009 bound_to 7997
  155.8478  140.0937  157.1684 H   0  0  0  0  0  0  0  0  0  0  0  0  # atno 8010 bound_to 7997
  139.7807  143.8105  152.2638 H   0  0  0  0  0  0  0  0  0  0  0  0  # atno 10167 bound_to 10162
  157.4631  130.8208  149.7907 H   0  0  0  0  0  0  0  0  0  0  0  0  # atno 10718 bound_to 10713
  153.8195  135.6875  153.4829 H   0  0  0  0  0  0  0  0  0  0  0  0  # atno 10763 bound_to 10752
  153.1578  135.4592  154.9727 H   0  0  0  0  0  0  0  0  0  0  0  0  # atno 10764 bound_to 10752
  154.7933  135.3310  154.7668 H   0  0  0  0  0  0  0  0  0  0  0  0  # atno 10765 bound_to 10752
  140.2447  134.8024  157.3444 H   0  0  0  0  0  0  0  0  0  0  0  0  # atno 11005 bound_to 11000
  144.7800  140.5821  143.6612 LP  0  0  0  0  0  0  0  0  0  0  0  0  # atno 17320 bound_to 7965
  145.5031  139.1482  143.3646 LP  0  0  0  0  0  0  0  0  0  0  0  0  # atno 17321 bound_to 7965
  139.8167  144.7313  150.9626 LP  0  0  0  0  0  0  0  0  0  0  0  0  # atno 17342 bound_to 10162
  140.7818  143.4198  151.0859 LP  0  0  0  0  0  0  0  0  0  0  0  0  # atno 17343 bound_to 10162
  156.0038  130.3866  150.2507 LP  0  0  0  0  0  0  0  0  0  0  0  0  # atno 17370 bound_to 10713
  157.0686  131.0110  151.3198 LP  0  0  0  0  0  0  0  0  0  0  0  0  # atno 17371 bound_to 10713
  140.1618  134.4719  155.7889 LP  0  0  0  0  0  0  0  0  0  0  0  0  # atno 17394 bound_to 11000
  141.2207  133.6904  156.7557 LP  0  0  0  0  0  0  0  0  0  0  0  0  # atno 17395 bound_to 11000

$$$$
