AV-unprocessed.smi:160|AV-procd|sdf|1373|dock6
  -GOLD-   2262019 93D 1   1.00000     0.00000
 Structure written by MMmdl.
 28 29  0  0  0  0  0  0  0  0  2 V2000
  155.6986  139.0510  158.8960 N   0  5  0  0  0  0  0  0  0  0  0  0
  154.4953  139.0132  159.5085 C   0  0  0  0  0  0  0  0  0  0  0  0
  154.2987  138.9445  160.7214 O   0  0  0  0  0  0  0  0  0  0  0  0
  153.3120  139.0645  158.5717 C   0  0  0  0  0  0  0  0  0  0  0  0
  152.0349  139.0200  159.0604 N   0  0  0  0  0  0  0  0  0  0  0  0
  151.3674  139.0917  157.9170 C   0  0  0  0  0  0  0  0  0  0  0  0
  152.1431  139.1781  156.8329 N   0  0  0  0  0  0  0  0  0  0  0  0
  151.7572  139.2716  155.3865 C   0  0  2  0  0  0  0  0  0  0  0  0
  150.8421  140.3168  155.2399 O   0  0  0  0  0  0  0  0  0  0  0  0
  149.5288  139.7895  155.0816 C   0  0  1  0  0  0  0  0  0  0  0  0
  148.6304  140.8271  154.3908 C   0  0  0  0  0  0  0  0  0  0  0  0
  149.2394  141.2836  153.2022 O   0  0  0  0  0  0  0  0  0  0  0  0
  149.8036  138.5516  154.2259 C   0  0  2  0  0  0  0  0  0  0  0  0
  148.7269  137.6326  154.2179 O   0  0  0  0  0  0  0  0  0  0  0  0
  151.0864  137.9892  154.8364 C   0  0  2  0  0  0  0  0  0  0  0  0
  150.8357  136.9902  155.8138 O   0  0  0  0  0  0  0  0  0  0  0  0
  153.4357  139.1547  157.2439 N   0  0  0  0  0  0  0  0  0  0  0  0
  152.6870  139.5235  154.8751 H   0  0  0  0  0  0  0  0  0  0  0  0
  149.1204  139.4913  156.0493 H   0  0  0  0  0  0  0  0  0  0  0  0
  150.0075  138.8606  153.1996 H   0  0  0  0  0  0  0  0  0  0  0  0
  151.7242  137.5550  154.0660 H   0  0  0  0  0  0  0  0  0  0  0  0
  156.1571  138.1618  158.6639 H   0  0  0  0  0  0  0  0  0  0  0  0
  150.2885  139.0837  157.8690 H   0  0  0  0  0  0  0  0  0  0  0  0
  147.6417  140.4188  154.1790 H   0  0  0  0  0  0  0  0  0  0  0  0
  148.4913  141.6928  155.0386 H   0  0  0  0  0  0  0  0  0  0  0  0
  149.2542  140.5737  152.5791 H   0  0  0  0  0  0  0  0  0  0  0  0
  148.7709  137.1272  153.4208 H   0  0  0  0  0  0  0  0  0  0  0  0
  151.6401  136.5253  155.9858 H   0  0  0  0  0  0  0  0  0  0  0  0
  1  2  1  0  0  0  0
  1 22  1  0  0  0  0
  2  3  2  0  0  0  0
  2  4  1  0  0  0  0
  4 17  2  0  0  0  0
  4  5  1  0  0  0  0
  5  6  2  0  0  0  0
  6  7  1  0  0  0  0
  6 23  1  0  0  0  0
  7  8  1  0  0  0  0
  7 17  1  0  0  0  0
  8 18  1  0  0  0  0
  8 15  1  0  0  0  0
  8  9  1  0  0  0  0
  9 10  1  0  0  0  0
 10 19  1  0  0  0  0
 10 11  1  0  0  0  0
 10 13  1  0  0  0  0
 11 12  1  0  0  0  0
 11 24  1  0  0  0  0
 11 25  1  0  0  0  0
 12 26  1  0  0  0  0
 13 20  1  0  0  0  0
 13 14  1  0  0  0  0
 13 15  1  0  0  0  0
 14 27  1  0  0  0  0
 15 21  1  0  0  0  0
 15 16  1  0  0  0  0
 16 28  1  0  0  0  0
M  CHG  1   1  -1
M  END
> <s_m_source_file>
AV-unprocessed.smi

> <i_m_source_file_index>
160

> <i_lp_mmshare_version>
43012

> <i_f3d_flags>
0

> <s_epik_input>
W05IMl1DKD1PKWMxbltjSF1uKG4xKVtDQEBIXTJPW0NASF0oW0NIMl1bT0hdKVtDQEBIXShbT0hdKVtDQEhdMltPSF0=

> <s_epik_cmdline>
J2VwaWtfcHl0aG9uJywgJy1waCcsICc3LjAnLCAnLXRuJywgJzgnLCAnLW1hJywgJzIwMCcsICctbWV0YWxfYmluZGluZycsICctaW1hZScsICc8aW5maWxlLm1hZT4nLCAnLW9tYWUnLCAnPG91dGZpbGUubWFlPic=

> <r_lp_tautomer_probability>
1

> <r_epik_Ionization_Penalty>
6.6993

> <r_epik_Ionization_Penalty_Charging>
6.6993

> <r_epik_Ionization_Penalty_Neutral>
6.01698e-06

> <r_epik_State_Penalty>
6.69929

> <r_epik_Charging_Adjusted_Penalty>
13.3986

> <i_epik_Tot_Q>
-1

> <i_epik_Tot_abs_Q>
1

> <r_epik_Metal_State_Penalty>
2.62798

> <b_epik_Metal_Only>
1

> <s_epik_Chemistry_Notes>
This compound contains an acetal/aminal-like group ( X-CH(R)-Y where X, Y are N, S, or O) that may be acid/base labile, releasing an aldehyde.

> <s_lp_Force_Field>
OPLS_2005

> <r_lp_Energy>
50.1619

> <b_lp_Chiralities_Consistent>
1

> <s_lp_Variant>
AV-unprocessed.smi:160-31

> <Gold.Version>
5.8.1

> <Gold.Id.Protein>
6NUR|6NUR_protein|mol2

> <Gold.PLP.Fitness>
43.8903

> <Gold.PLP.PLP>
-25.2053

> <Gold.PLP.part.hbond>
-6.0340

> <Gold.PLP.part.metal>
0.0000

> <Gold.PLP.part.buried>
-3.7168

> <Gold.PLP.part.nonpolar>
-15.8698

> <Gold.PLP.part.repulsive>
0.0426

> <Gold.PLP.ligand.clash>
0.0000

> <Gold.PLP.ligand.torsion>
0.1368

> <Gold.PLP.Chemscore.Hbond>
6.3140

> <Gold.PLP.Chemscore.CHOScore>
0.0000

> <Gold.PLP.Chemscore.Metal>
0.0000

> <Gold.Chemscore.Hbonds>
donor molecule, donor type, donor heavy atom, donor atom, acceptor molecule, acceptor atom, score
      L1  H    12    26       P1  7957  0.98
      L1  H    14    27       P1  7948  1.00
      P1  H  7989  7998       L1     9  0.60
      P1  H  7997  8008       L1     1  2.00
      P1  H  7997  8009       L1    17  0.69
      P1  H  8011  8017       L1    12  0.99

> <Gold.PLP.Chemscore.Internal.Correction>
0.0166

> <Gold.Rescore>
     Score         DG    S(hbond)    S(metal)    S(lipo)     H(rot)  DE(clash)    DE(int)     intcor
     10.90     -11.30       3.92        0.00      26.34       4.04       0.05       0.35       ----

> <Gold.Chemscore.Fitness>
10.9013

> <Gold.Chemscore.DG>
-11.3029

> <Gold.Chemscore.ZeroCoef>
-5.4800

> <Gold.Chemscore.Hbond>
3.9176

> <Gold.Chemscore.Metal>
0.0000

> <Gold.Chemscore.Lipo>
26.3356

> <Gold.Chemscore.Internal_Hbond>
0.0000

> <Gold.Chemscore.DEClash>
0.0519

> <Gold.Chemscore.DEInternal>
0.3497

> <Gold.Chemscore.Rot>
4.0403

> <Gold.Chemscore.Internal.Correction>
   9.000000E+99

> <Gold.Chemscore.Hbonds>
donor molecule, donor type, donor heavy atom, donor atom, acceptor molecule, acceptor atom, score
      L1  H    12    26       P1  7957  0.89
      L1  H    14    27       P1  7948  1.00
      P1  H  7989  7998       L1     9  0.03
      P1  H  7997  8008       L1     1  0.39
      P1  H  7997  8009       L1    17  0.55
      P1  H  8011  8017       L1    12  0.23

> <Gold.Chemscore.Hbond.Weighted>
-13.0847

> <Gold.Chemscore.Metal.Weighted>
-0.0000

> <Gold.Chemscore.Lipo.Weighted>
-3.0813

> <Gold.Chemscore.Internal_Hbond.Weighted>
0.0000

> <Gold.Chemscore.DEClash.Weighted>
0.0519

> <Gold.Chemscore.DEInternal.Weighted>
0.3497

> <Gold.Chemscore.Rot.Weighted>
10.3431

> <Gold.Chemscore.Internal.Correction.Weighted>
   9.000000E+99

> <Gold.Protein.RotatedTorsions>
[ 6907 6896 6895 6894 ] final -117.01 input  -60.11 | X-H torsion
[ 7974 7965 7964 7962 ] final  153.97 input  175.53 | X-H torsion
[ 8008 7997 7996 7995 ] final -160.82 input   59.86 | X-H torsion
[ 10167 10162 10161 10158 ] final  172.70 input  -65.29 | X-H torsion
[ 10718 10713 10712 10709 ] final   40.98 input   66.30 | X-H torsion
[ 10763 10752 10751 10750 ] final  172.90 input  -60.55 | X-H torsion
[ 11005 11000 10999 10996 ] final   34.25 input  -57.11 | X-H torsion

> <Gold.Protein.ActiveResidues>
 VAL166  LYS551  ARG553  GLY616  TRP617  ASP618  TYR619  PRO620  LYS621  CYS622 
 ASP623  PHE694  ASN695  SER759  ASP760  ASP761  ALA762  ILE779  LEU786  VAL792 
 PHE793  MET794  SER795  GLU796  ALA797  LYS798  CYS799  TRP800  GLU811  SER814 

> <Gold.Protein.RotatedAtoms>
  150.8102  133.8436  159.3185 H   0  0  0  0  0  0  0  0  0  0  0  0  # atno 6907 bound_to 6896
  151.6224  135.1029  160.0114 H   0  0  0  0  0  0  0  0  0  0  0  0  # atno 6908 bound_to 6896
  152.4193  133.7050  159.6503 H   0  0  0  0  0  0  0  0  0  0  0  0  # atno 6909 bound_to 6896
  144.8119  139.6871  143.6138 H   0  0  0  0  0  0  0  0  0  0  0  0  # atno 7974 bound_to 7965
  155.7831  140.0868  157.2049 H   0  0  0  0  0  0  0  0  0  0  0  0  # atno 8008 bound_to 7997
  154.3989  140.1504  156.3133 H   0  0  0  0  0  0  0  0  0  0  0  0  # atno 8009 bound_to 7997
  155.8634  140.3429  155.5774 H   0  0  0  0  0  0  0  0  0  0  0  0  # atno 8010 bound_to 7997
  139.5085  144.3344  152.0080 H   0  0  0  0  0  0  0  0  0  0  0  0  # atno 10167 bound_to 10162
  157.3883  130.7792  149.7249 H   0  0  0  0  0  0  0  0  0  0  0  0  # atno 10718 bound_to 10713
  154.4325  135.2760  155.1903 H   0  0  0  0  0  0  0  0  0  0  0  0  # atno 10763 bound_to 10752
  154.3803  135.6089  153.5790 H   0  0  0  0  0  0  0  0  0  0  0  0  # atno 10764 bound_to 10752
  152.9837  135.5878  154.4639 H   0  0  0  0  0  0  0  0  0  0  0  0  # atno 10765 bound_to 10752
  140.2547  134.3262  155.7878 H   0  0  0  0  0  0  0  0  0  0  0  0  # atno 11005 bound_to 11000
  146.2419  139.6018  142.9486 LP  0  0  0  0  0  0  0  0  0  0  0  0  # atno 17320 bound_to 7965
  145.5303  141.0427  143.2386 LP  0  0  0  0  0  0  0  0  0  0  0  0  # atno 17321 bound_to 7965
  140.2783  144.3888  150.6127 LP  0  0  0  0  0  0  0  0  0  0  0  0  # atno 17342 bound_to 10162
  140.6037  143.2167  151.7022 LP  0  0  0  0  0  0  0  0  0  0  0  0  # atno 17343 bound_to 10162
  155.9792  130.4043  150.3601 LP  0  0  0  0  0  0  0  0  0  0  0  0  # atno 17370 bound_to 10713
  157.1714  131.0370  151.2793 LP  0  0  0  0  0  0  0  0  0  0  0  0  # atno 17371 bound_to 10713
  141.2197  133.7374  156.9093 LP  0  0  0  0  0  0  0  0  0  0  0  0  # atno 17394 bound_to 11000
  140.1523  134.9222  157.2608 LP  0  0  0  0  0  0  0  0  0  0  0  0  # atno 17395 bound_to 11000

$$$$
