#       Name:                AV-unprocessed.smi:1809
#       Creating user name   scv26
#       Creation time:       Fri Mar 27 08:56:48 2020


#       File generated by GOLD software.
#

@<TRIPOS>MOLECULE
AV-unprocessed.smi:1809
    46    48     1
SMALL
NO_CHARGES


@<TRIPOS>ATOM
      1 ****        -7.5498   2.0408   2.4272 C.3            1 S1                 0.0000
      2 ****        -6.1772   1.4866   2.2542 C.2            1 S1                 0.0000
      3 ****        -5.9377   0.3363   1.6131 N.2            1 S1                 0.0000
      4 ****        -4.5853   0.0273   1.5745 N.2            1 S1                 0.0000
      5 ****        -3.8423   0.9581   2.1891 C.2            1 S1                 0.0000
      6 ****        -2.4277   0.8939   2.2956 N.am           1 S1                 0.0000
      7 ****        -1.6011  -0.0581   1.8289 C.2            1 S1                 0.0000
      8 ****        -1.9495  -1.0694   1.2190 O.2            1 S1                 0.0000
      9 ****        -0.3212   0.2273   2.1073 N.am           1 S1                 0.0000
     10 ****         0.8167  -0.6104   1.7435 C.3            1 S1                 0.0000
     11 ****         1.1584  -0.5026   0.2465 C.3            1 S1                 0.0000
     12 ****         2.2810  -1.4859  -0.1584 C.3            1 S1                 0.0000
     13 ****         2.6178  -1.2422  -1.5727 N.4            1 S1                 1.0000
     14 ****         3.6552  -2.0790  -2.1999 C.3            1 S1                 0.0000
     15 ****         4.1922  -1.2299  -3.3701 C.3            1 S1                 0.0000
     16 ****         3.5110   0.1445  -3.2362 C.3            1 S1                 0.0000
     17 ****         3.0278   0.1470  -1.7897 C.3            1 S1                 0.0000
     18 ****         1.8683   1.0773  -1.4097 C.3            1 S1                 0.0000
     19 ****         1.5626   0.8431  -0.0335 O.3            1 S1                 0.0000
     20 ****        -4.7443   2.3010   2.8704 S.3            1 S1                 0.0000
     21 ****        -8.2805   1.2341   2.4933 H              1 S1                 0.0000
     22 ****        -7.8033   2.6764   1.5789 H              1 S1                 0.0000
     23 ****        -7.6042   2.6350   3.3394 H              1 S1                 0.0000
     24 ****        -1.9956   1.6649   2.7827 H              1 S1                 0.0000
     25 ****        -0.1187   1.0784   2.6112 H              1 S1                 0.0000
     26 ****         1.6737  -0.3085   2.3465 H              1 S1                 0.0000
     27 ****         0.6017  -1.6464   2.0100 H              1 S1                 0.0000
     28 ****         0.2697  -0.7283  -0.3454 H              1 S1                 0.0000
     29 ****         3.1645  -1.3449   0.4663 H              1 S1                 0.0000
     30 ****         1.9517  -2.5179  -0.0321 H              1 S1                 0.0000
     31 ****         4.4545  -2.2824  -1.4854 H              1 S1                 0.0000
     32 ****         3.2416  -3.0326  -2.5290 H              1 S1                 0.0000
     33 ****         5.2763  -1.1339  -3.2961 H              1 S1                 0.0000
     34 ****         3.9683  -1.6842  -4.3360 H              1 S1                 0.0000
     35 ****         4.1827   0.9742  -3.4588 H              1 S1                 0.0000
     36 ****         2.6615   0.2057  -3.9183 H              1 S1                 0.0000
     37 ****         3.8819   0.3634  -1.1440 H              1 S1                 0.0000
     38 ****         2.1549   2.1208  -1.5415 H              1 S1                 0.0000
     39 ****         0.9891   0.8988  -2.0309 H              1 S1                 0.0000
     40 ****         1.7740  -1.3792  -2.1112 H              1 S1                 0.0000
     41 ****        -6.6516  -0.2350   1.2083 LP             1 S1                 0.0000
     42 ****        -4.2102  -0.7916   1.1402 LP             1 S1                 0.0000
     43 ****        -2.9186  -1.2334   1.0352 LP             1 S1                 0.0000
     44 ****        -1.2632  -1.7267   0.9075 LP             1 S1                 0.0000
     45 ****         2.3768   1.0476   0.5099 LP             1 S1                 0.0000
     46 ****         0.8205   1.4577   0.2340 LP             1 S1                 0.0000
@<TRIPOS>BOND
    1    1    2 1     
    2    1   21 1     
    3    1   22 1     
    4    1   23 1     
    5    2   20 1     
    6    2    3 2     
    7    3    4 1     
    8    4    5 2     
    9    5    6 1     
   10    5   20 1     
   11    6    7 am    
   12    6   24 1     
   13    7    8 2     
   14    7    9 am    
   15    9   10 1     
   16    9   25 1     
   17   10   11 1     
   18   10   26 1     
   19   10   27 1     
   20   11   19 1     
   21   11   12 1     
   22   11   28 1     
   23   12   13 1     
   24   12   29 1     
   25   12   30 1     
   26   13   17 1     
   27   13   14 1     
   28   13   40 1     
   29   14   15 1     
   30   14   31 1     
   31   14   32 1     
   32   15   16 1     
   33   15   33 1     
   34   15   34 1     
   35   16   17 1     
   36   16   35 1     
   37   16   36 1     
   38   17   18 1     
   39   17   37 1     
   40   18   19 1     
   41   18   38 1     
   42   18   39 1     
   43    3   41 1     
   44    4   42 1     
   45    8   43 1     
   46    8   44 1     
   47   19   45 1     
   48   19   46 1     
@<TRIPOS>SUBSTRUCTURE
      1 S1             1
@<TRIPOS>SET
LONE_PAIRS      STATIC     ATOMS    <user>   **** ""
6 41 42 43 44 45 46
DONOR_HYDROGENS      STATIC     ATOMS    <user>   **** ""
3 24 25 40
ATOM$BLUE        STATIC     ATOMS    COLORGROUP SYSTEM
6 41 42 43 44 45 46
ATOM$RED        STATIC     ATOMS    COLORGROUP SYSTEM
3 24 25 40
