AV-unprocessed.smi:2124|AV-procd|sdf|8651|dock3
  -GOLD-   2272011403D 1   1.00000     0.00000
 Structure written by MMmdl.
 47 49  0  0  0  0  0  0  0  0  1 V2000
  146.7709  138.2016  151.7571 C   0  0  0  0  0  0  0  0  0  0  0  0
  146.6995  139.0053  153.0383 C   0  0  0  0  0  0  0  0  0  0  0  0
  145.9537  138.6910  154.0459 N   0  0  0  0  0  0  0  0  0  0  0  0
  145.9734  139.5115  155.1824 C   0  0  0  0  0  0  0  0  0  0  0  0
  145.0747  139.0668  156.3237 C   0  0  0  0  0  0  0  0  0  0  0  0
  146.7588  140.6274  155.2450 C   0  0  0  0  0  0  0  0  0  0  0  0
  146.8072  141.5543  156.4601 C   0  0  0  0  0  0  0  0  0  0  0  0
  147.9192  141.2848  157.4786 C   0  0  0  0  0  0  0  0  0  0  0  0
  147.8387  140.3083  158.2227 O   0  0  0  0  0  0  0  0  0  0  0  0
  148.9382  142.1582  157.5118 N   0  0  0  0  0  0  0  0  0  0  0  0
  150.0912  142.1039  158.4065 C   0  0  1  0  0  0  0  0  0  0  0  0
  151.3096  141.6023  157.6156 C   0  0  0  0  0  0  0  0  0  0  0  0
  150.3330  143.4979  159.0319 C   0  0  2  0  0  0  0  0  0  0  0  0
  150.9324  144.5485  158.0697 C   0  0  0  0  0  0  0  0  0  0  0  0
  152.1141  145.1226  158.8741 C   0  0  2  0  0  0  0  0  0  0  0  0
  153.2525  144.0866  158.9040 C   0  0  0  0  0  0  0  0  0  0  0  0
  152.7067  143.0137  159.8632 C   0  0  0  0  0  0  0  0  0  0  0  0
  151.3120  143.5609  160.2323 C   0  0  1  0  0  0  0  0  0  0  0  0
  151.5928  145.0584  160.3053 C   0  0  0  0  0  0  0  0  0  0  0  0
  147.6022  140.9793  154.0866 C   0  0  0  0  0  0  0  0  0  0  0  0
  148.3365  141.9646  154.0342 O   0  0  0  0  0  0  0  0  0  0  0  0
  147.5209  140.1311  153.0373 N   0  0  0  0  0  0  0  0  0  0  0  0
  148.0806  140.3286  152.2205 H   0  0  0  0  0  0  0  0  0  0  0  0
  147.4545  138.6517  151.0360 H   0  0  0  0  0  0  0  0  0  0  0  0
  145.7842  138.1385  151.2978 H   0  0  0  0  0  0  0  0  0  0  0  0
  147.1168  137.1896  151.9683 H   0  0  0  0  0  0  0  0  0  0  0  0
  145.6720  138.7830  157.1903 H   0  0  0  0  0  0  0  0  0  0  0  0
  144.4703  138.2048  156.0388 H   0  0  0  0  0  0  0  0  0  0  0  0
  144.3937  139.8644  156.6185 H   0  0  0  0  0  0  0  0  0  0  0  0
  146.9133  142.5872  156.1300 H   0  0  0  0  0  0  0  0  0  0  0  0
  145.8445  141.5281  156.9729 H   0  0  0  0  0  0  0  0  0  0  0  0
  148.9104  142.9311  156.8625 H   0  0  0  0  0  0  0  0  0  0  0  0
  149.9085  141.3890  159.2097 H   0  0  0  0  0  0  0  0  0  0  0  0
  152.1898  141.5157  158.2527 H   0  0  0  0  0  0  0  0  0  0  0  0
  151.5574  142.2777  156.7962 H   0  0  0  0  0  0  0  0  0  0  0  0
  151.1193  140.6171  157.1883 H   0  0  0  0  0  0  0  0  0  0  0  0
  149.3700  143.8736  159.3834 H   0  0  0  0  0  0  0  0  0  0  0  0
  151.2616  144.1221  157.1212 H   0  0  0  0  0  0  0  0  0  0  0  0
  150.1979  145.3229  157.8457 H   0  0  0  0  0  0  0  0  0  0  0  0
  152.4317  146.1107  158.5408 H   0  0  0  0  0  0  0  0  0  0  0  0
  153.4745  143.6859  157.9143 H   0  0  0  0  0  0  0  0  0  0  0  0
  154.1687  144.5251  159.3010 H   0  0  0  0  0  0  0  0  0  0  0  0
  152.6794  142.0212  159.4149 H   0  0  0  0  0  0  0  0  0  0  0  0
  153.3357  142.9480  160.7519 H   0  0  0  0  0  0  0  0  0  0  0  0
  150.9069  143.1343  161.1503 H   0  0  0  0  0  0  0  0  0  0  0  0
  152.3436  145.3231  161.0521 H   0  0  0  0  0  0  0  0  0  0  0  0
  150.6980  145.6620  160.4683 H   0  0  0  0  0  0  0  0  0  0  0  0
  1  2  1  0  0  0  0
  1 24  1  0  0  0  0
  1 25  1  0  0  0  0
  1 26  1  0  0  0  0
  2 22  1  0  0  0  0
  2  3  2  0  0  0  0
  3  4  1  0  0  0  0
  4  5  1  0  0  0  0
  4  6  2  0  0  0  0
  5 27  1  0  0  0  0
  5 28  1  0  0  0  0
  5 29  1  0  0  0  0
  6  7  1  0  0  0  0
  6 20  1  0  0  0  0
  7  8  1  0  0  0  0
  7 30  1  0  0  0  0
  7 31  1  0  0  0  0
  8  9  2  0  0  0  0
  8 10  1  0  0  0  0
 10 11  1  0  0  0  0
 10 32  1  0  0  0  0
 11 12  1  0  0  0  0
 11 13  1  0  0  0  0
 11 33  1  0  0  0  0
 12 34  1  0  0  0  0
 12 35  1  0  0  0  0
 12 36  1  0  0  0  0
 13 18  1  0  0  0  0
 13 14  1  0  0  0  0
 13 37  1  0  0  0  0
 14 15  1  0  0  0  0
 14 38  1  0  0  0  0
 14 39  1  0  0  0  0
 15 19  1  0  0  0  0
 15 16  1  0  0  0  0
 15 40  1  0  0  0  0
 16 17  1  0  0  0  0
 16 41  1  0  0  0  0
 16 42  1  0  0  0  0
 17 18  1  0  0  0  0
 17 43  1  0  0  0  0
 17 44  1  0  0  0  0
 18 19  1  0  0  0  0
 18 45  1  0  0  0  0
 19 46  1  0  0  0  0
 19 47  1  0  0  0  0
 20 21  2  0  0  0  0
 20 22  1  0  0  0  0
 22 23  1  0  0  0  0
M  END
> <s_m_source_file>
AV-unprocessed.smi

> <i_m_source_file_index>
2124

> <i_lp_mmshare_version>
43012

> <i_f3d_flags>
0

> <s_epik_input>
W0NIM11jMW5jKFtDSDNdKWMoYyg9TylbbkhdMSlbQ0gyXUMoPU8pW05IXVtDQEhdKFtDSDNdKVtDQEhdKFtDSDJdW0NASF0yMylbQ0BIXShbQ0gyXTMpW0NIMl1bQ0gyXTI=

> <s_epik_cmdline>
J2VwaWtfcHl0aG9uJywgJy1waCcsICc3LjAnLCAnLXRuJywgJzgnLCAnLW1hJywgJzIwMCcsICctbWV0YWxfYmluZGluZycsICctaW1hZScsICc8aW5maWxlLm1hZT4nLCAnLW9tYWUnLCAnPG91dGZpbGUubWFlPic=

> <r_lp_tautomer_probability>
0.839158

> <r_epik_Ionization_Penalty>
0.000383628

> <r_epik_Ionization_Penalty_Charging>
0.00035045

> <r_epik_Ionization_Penalty_Neutral>
3.31781e-05

> <r_epik_State_Penalty>
0.09125

> <r_epik_Charging_Adjusted_Penalty>
0.0916005

> <i_epik_Tot_Q>
0

> <i_epik_Tot_abs_Q>
0

> <r_epik_Metal_State_Penalty>
0.255229

> <b_epik_Metal_Only>
0

> <s_lp_Force_Field>
OPLS_2005

> <r_lp_Energy>
53.2281

> <b_lp_Chiralities_Consistent>
1

> <s_lp_Variant>
AV-unprocessed.smi:2124-2

> <Gold.Version>
5.8.1

> <Gold.Id.Protein>
6NUR|6NUR_protein|mol2

> <Gold.PLP.Fitness>
46.9661

> <Gold.PLP.PLP>
-41.1485

> <Gold.PLP.part.hbond>
-3.9745

> <Gold.PLP.part.metal>
0.0000

> <Gold.PLP.part.buried>
-3.8858

> <Gold.PLP.part.nonpolar>
-34.4907

> <Gold.PLP.part.repulsive>
1.4100

> <Gold.PLP.ligand.clash>
0.0214

> <Gold.PLP.ligand.torsion>
0.8403

> <Gold.PLP.Chemscore.Hbond>
2.4960

> <Gold.PLP.Chemscore.CHOScore>
0.0000

> <Gold.PLP.Chemscore.Metal>
0.0000

> <Gold.Chemscore.Hbonds>
donor molecule, donor type, donor heavy atom, donor atom, acceptor molecule, acceptor atom, score
      L1  H    10    32       P1  8028  0.70
      L1  H    22    23       P1  7957  1.00
      P1  H  8011  8017       L1    21  0.16

> <Gold.PLP.Chemscore.Internal.Correction>
0.0316

> <Gold.Rescore>
     Score         DG    S(hbond)    S(metal)    S(lipo)     H(rot)  DE(clash)    DE(int)     intcor
     20.63     -23.30       2.64        0.00     113.06       1.65       1.17       1.50       ----

> <Gold.Chemscore.Fitness>
20.6263

> <Gold.Chemscore.DG>
-23.2966

> <Gold.Chemscore.ZeroCoef>
-5.4800

> <Gold.Chemscore.Hbond>
2.6410

> <Gold.Chemscore.Metal>
0.0000

> <Gold.Chemscore.Lipo>
113.0608

> <Gold.Chemscore.Internal_Hbond>
0.0000

> <Gold.Chemscore.DEClash>
1.1669

> <Gold.Chemscore.DEInternal>
1.5034

> <Gold.Chemscore.Rot>
1.6534

> <Gold.Chemscore.Internal.Correction>
   9.000000E+99

> <Gold.Chemscore.Hbonds>
donor molecule, donor type, donor heavy atom, donor atom, acceptor molecule, acceptor atom, score
      L1  H    10    32       P1  8028  0.64
      L1  H    22    23       P1  7957  0.96
      P1  H  8011  8017       L1    21  0.16

> <Gold.Chemscore.Hbond.Weighted>
-8.8211

> <Gold.Chemscore.Metal.Weighted>
-0.0000

> <Gold.Chemscore.Lipo.Weighted>
-13.2281

> <Gold.Chemscore.Internal_Hbond.Weighted>
0.0000

> <Gold.Chemscore.DEClash.Weighted>
1.1669

> <Gold.Chemscore.DEInternal.Weighted>
1.5034

> <Gold.Chemscore.Rot.Weighted>
4.2326

> <Gold.Chemscore.Internal.Correction.Weighted>
   9.000000E+99

> <Gold.Protein.RotatedTorsions>
[ 6907 6896 6895 6894 ] final  122.67 input  -60.11 | X-H torsion
[ 7974 7965 7964 7962 ] final  120.11 input  175.53 | X-H torsion
[ 8008 7997 7996 7995 ] final  135.36 input   59.86 | X-H torsion
[ 10167 10162 10161 10158 ] final  -16.99 input  -65.29 | X-H torsion
[ 10718 10713 10712 10709 ] final  -64.59 input   66.30 | X-H torsion
[ 10763 10752 10751 10750 ] final  151.14 input  -60.55 | X-H torsion
[ 11005 11000 10999 10996 ] final -178.87 input  -57.11 | X-H torsion

> <Gold.Protein.ActiveResidues>
 VAL166  LYS551  ARG553  GLY616  TRP617  ASP618  TYR619  PRO620  LYS621  CYS622 
 ASP623  PHE694  ASN695  SER759  ASP760  ASP761  ALA762  ILE779  LEU786  VAL792 
 PHE793  MET794  SER795  GLU796  ALA797  LYS798  CYS799  TRP800  GLU811  SER814 

> <Gold.Protein.RotatedAtoms>
  152.4224  133.7138  159.6493 H   0  0  0  0  0  0  0  0  0  0  0  0  # atno 6907 bound_to 6896
  150.8100  133.8429  159.3193 H   0  0  0  0  0  0  0  0  0  0  0  0  # atno 6908 bound_to 6896
  151.6141  135.1040  160.0139 H   0  0  0  0  0  0  0  0  0  0  0  0  # atno 6909 bound_to 6896
  145.1351  139.3303  143.4645 H   0  0  0  0  0  0  0  0  0  0  0  0  # atno 7974 bound_to 7965
  156.3002  140.2473  156.3568 H   0  0  0  0  0  0  0  0  0  0  0  0  # atno 8008 bound_to 7997
  154.8914  140.0409  157.1860 H   0  0  0  0  0  0  0  0  0  0  0  0  # atno 8009 bound_to 7997
  154.8594  140.2918  155.5553 H   0  0  0  0  0  0  0  0  0  0  0  0  # atno 8010 bound_to 7997
  140.7241  143.5060  150.9809 H   0  0  0  0  0  0  0  0  0  0  0  0  # atno 10167 bound_to 10162
  156.0720  130.4235  150.1443 H   0  0  0  0  0  0  0  0  0  0  0  0  # atno 10718 bound_to 10713
  154.0989  135.2847  155.3256 H   0  0  0  0  0  0  0  0  0  0  0  0  # atno 10763 bound_to 10752
  154.6569  135.5349  153.7973 H   0  0  0  0  0  0  0  0  0  0  0  0  # atno 10764 bound_to 10752
  153.0386  135.6524  154.1154 H   0  0  0  0  0  0  0  0  0  0  0  0  # atno 10765 bound_to 10752
  140.4249  134.6572  157.4683 H   0  0  0  0  0  0  0  0  0  0  0  0  # atno 11005 bound_to 11000
  146.3510  140.1365  142.8595 LP  0  0  0  0  0  0  0  0  0  0  0  0  # atno 17320 bound_to 7965
  145.0593  140.9076  143.4948 LP  0  0  0  0  0  0  0  0  0  0  0  0  # atno 17321 bound_to 7965
  139.8772  143.7117  152.3160 LP  0  0  0  0  0  0  0  0  0  0  0  0  # atno 17342 bound_to 10162
  139.7387  144.7565  151.0687 LP  0  0  0  0  0  0  0  0  0  0  0  0  # atno 17343 bound_to 10162
  156.9492  130.9769  151.3501 LP  0  0  0  0  0  0  0  0  0  0  0  0  # atno 17370 bound_to 10713
  157.5795  130.8366  149.8503 LP  0  0  0  0  0  0  0  0  0  0  0  0  # atno 17371 bound_to 10713
  140.0174  134.6598  155.9289 LP  0  0  0  0  0  0  0  0  0  0  0  0  # atno 17394 bound_to 11000
  141.1769  133.6541  156.4864 LP  0  0  0  0  0  0  0  0  0  0  0  0  # atno 17395 bound_to 11000

$$$$
