AV-unprocessed.smi:9|AV-procd|sdf|52|dock3
  -GOLD-   2262015173D 1   1.00000     0.00000
 Structure written by MMmdl.
 35 37  0  0  0  0  0  0  0  0  1 V2000
  148.6330  141.7991  154.0233 O   0  0  0  0  0  0  0  0  0  0  0  0
  149.5369  141.5079  154.8035 C   0  0  0  0  0  0  0  0  0  0  0  0
  149.9256  142.3001  155.8322 N   0  0  0  0  0  0  0  0  0  0  0  0
  150.9686  141.9579  156.7308 C   0  0  0  0  0  0  0  0  0  0  0  0
  151.1712  143.0437  157.7759 C   0  0  0  0  0  0  0  0  0  0  0  0
  152.0612  142.6676  158.6954 F   0  0  0  0  0  0  0  0  0  0  0  0
  151.6142  144.1636  157.2038 F   0  0  0  0  0  0  0  0  0  0  0  0
  150.0230  143.3134  158.3978 F   0  0  0  0  0  0  0  0  0  0  0  0
  151.6839  140.8628  156.6966 N   0  0  0  0  0  0  0  0  0  0  0  0
  151.3063  140.0437  155.6513 C   0  0  0  0  0  0  0  0  0  0  0  0
  150.3215  140.2512  154.7209 C   0  0  0  0  0  0  0  0  0  0  0  0
  150.2368  139.1890  153.8294 N   0  0  0  0  0  0  0  0  0  0  0  0
  151.1938  138.3739  154.2683 C   0  0  0  0  0  0  0  0  0  0  0  0
  151.8810  138.8158  155.3397 N   0  0  0  0  0  0  0  0  0  0  0  0
  152.9736  138.1366  156.0227 C   0  0  0  0  0  0  0  0  0  0  0  0
  152.6357  137.6704  157.4625 C   0  0  2  0  0  0  0  0  0  0  0  0
  151.3560  137.0663  157.4224 O   0  0  0  0  0  0  0  0  0  0  0  0
  152.6125  138.8463  158.4643 C   0  0  0  0  0  0  0  0  0  0  0  0
  152.5433  138.3567  159.9143 C   0  0  0  0  0  0  0  0  0  0  0  0
  153.6457  137.3249  160.1770 C   0  0  0  0  0  0  0  0  0  0  0  0
  153.4833  136.2334  159.2820 O   0  0  0  0  0  0  0  0  0  0  0  0
  153.6422  136.5831  157.9092 C   0  0  0  0  0  0  0  0  0  0  0  0
  149.4435  143.1777  155.9616 H   0  0  0  0  0  0  0  0  0  0  0  0
  151.4068  137.4280  153.7919 H   0  0  0  0  0  0  0  0  0  0  0  0
  153.2876  137.2888  155.4122 H   0  0  0  0  0  0  0  0  0  0  0  0
  153.8246  138.8188  156.0465 H   0  0  0  0  0  0  0  0  0  0  0  0
  151.4572  136.1747  157.1258 H   0  0  0  0  0  0  0  0  0  0  0  0
  153.5205  139.4384  158.3419 H   0  0  0  0  0  0  0  0  0  0  0  0
  151.7779  139.5186  158.2620 H   0  0  0  0  0  0  0  0  0  0  0  0
  152.6444  139.1992  160.5990 H   0  0  0  0  0  0  0  0  0  0  0  0
  151.5684  137.9097  160.1111 H   0  0  0  0  0  0  0  0  0  0  0  0
  154.6367  137.7669  160.0622 H   0  0  0  0  0  0  0  0  0  0  0  0
  153.5765  136.9549  161.1999 H   0  0  0  0  0  0  0  0  0  0  0  0
  153.5357  135.6843  157.3003 H   0  0  0  0  0  0  0  0  0  0  0  0
  154.6649  136.9340  157.7620 H   0  0  0  0  0  0  0  0  0  0  0  0
  1  2  2  0  0  0  0
  2 11  1  0  0  0  0
  2  3  1  0  0  0  0
  3 23  1  0  0  0  0
  3  4  1  0  0  0  0
  4  5  1  0  0  0  0
  4  9  2  0  0  0  0
  5  6  1  0  0  0  0
  5  7  1  0  0  0  0
  5  8  1  0  0  0  0
  9 10  1  0  0  0  0
 10 14  1  0  0  0  0
 10 11  2  0  0  0  0
 11 12  1  0  0  0  0
 12 13  2  0  0  0  0
 13 14  1  0  0  0  0
 13 24  1  0  0  0  0
 14 15  1  0  0  0  0
 15 16  1  0  0  0  0
 15 25  1  0  0  0  0
 15 26  1  0  0  0  0
 16 22  1  0  0  0  0
 16 17  1  0  0  0  0
 16 18  1  0  0  0  0
 17 27  1  0  0  0  0
 18 19  1  0  0  0  0
 18 28  1  0  0  0  0
 18 29  1  0  0  0  0
 19 20  1  0  0  0  0
 19 30  1  0  0  0  0
 19 31  1  0  0  0  0
 20 21  1  0  0  0  0
 20 32  1  0  0  0  0
 20 33  1  0  0  0  0
 21 22  1  0  0  0  0
 22 34  1  0  0  0  0
 22 35  1  0  0  0  0
M  END
> <s_m_source_file>
AV-unprocessed.smi

> <i_m_source_file_index>
9

> <i_lp_mmshare_version>
43012

> <i_f3d_flags>
0

> <s_epik_input>
RkMoRikoRiljKG4xKVtuSF1jKD1PKWMoYzEyKW5bY0hdbjJbQ0gyXVtDQEBdMyhbT0hdKVtDSDJdW0NIMl1bQ0gyXU9bQ0gyXTM=

> <s_epik_cmdline>
J2VwaWtfcHl0aG9uJywgJy1waCcsICc3LjAnLCAnLXRuJywgJzgnLCAnLW1hJywgJzIwMCcsICctbWV0YWxfYmluZGluZycsICctaW1hZScsICc8aW5maWxlLm1hZT4nLCAnLW9tYWUnLCAnPG91dGZpbGUubWFlPic=

> <r_lp_tautomer_probability>
0.85571

> <r_epik_Ionization_Penalty>
0.770127

> <r_epik_Ionization_Penalty_Charging>
0.770101

> <r_epik_Ionization_Penalty_Neutral>
2.64604e-05

> <r_epik_State_Penalty>
2.30539

> <r_epik_Charging_Adjusted_Penalty>
3.07549

> <i_epik_Tot_Q>
0

> <i_epik_Tot_abs_Q>
0

> <r_epik_Metal_State_Penalty>
2.4903

> <b_epik_Metal_Only>
0

> <s_lp_Force_Field>
OPLS_2005

> <r_lp_Energy>
27.1686

> <b_lp_Chiralities_Consistent>
1

> <s_lp_Variant>
AV-unprocessed.smi:9-4

> <Gold.Version>
5.8.1

> <Gold.Id.Protein>
6NUR|6NUR_protein|mol2

> <Gold.PLP.Fitness>
44.2672

> <Gold.PLP.PLP>
-35.9461

> <Gold.PLP.part.hbond>
-3.7919

> <Gold.PLP.part.metal>
0.0000

> <Gold.PLP.part.buried>
-1.3563

> <Gold.PLP.part.nonpolar>
-31.5608

> <Gold.PLP.part.repulsive>
2.2330

> <Gold.PLP.ligand.clash>
0.0000

> <Gold.PLP.ligand.torsion>
0.3506

> <Gold.PLP.Chemscore.Hbond>
2.2412

> <Gold.PLP.Chemscore.CHOScore>
0.7644

> <Gold.PLP.Chemscore.Metal>
0.0000

> <Gold.Chemscore.Hbonds>
donor molecule, donor type, donor heavy atom, donor atom, acceptor molecule, acceptor atom, score
      L1  H     3    23       P1  8028  1.00
      P1  H  6896  6909       L1    21  1.00
      P1  H  8011  8017       L1     1  0.37
      L1  C    13    24       P1  7949  0.52

> <Gold.PLP.Chemscore.Internal.Correction>
0.0054

> <Gold.Rescore>
     Score         DG    S(hbond)    S(metal)    S(lipo)     H(rot)  DE(clash)    DE(int)     intcor
     10.94     -12.46       2.11        0.00      46.20       2.14       0.11       1.41       ----

> <Gold.Chemscore.Fitness>
10.9414

> <Gold.Chemscore.DG>
-12.4596

> <Gold.Chemscore.ZeroCoef>
-5.4800

> <Gold.Chemscore.Hbond>
2.1093

> <Gold.Chemscore.Metal>
0.0000

> <Gold.Chemscore.Lipo>
46.2033

> <Gold.Chemscore.Internal_Hbond>
0.0000

> <Gold.Chemscore.DEClash>
0.1092

> <Gold.Chemscore.DEInternal>
1.4090

> <Gold.Chemscore.Rot>
2.1373

> <Gold.Chemscore.Internal.Correction>
   9.000000E+99

> <Gold.Chemscore.Hbonds>
donor molecule, donor type, donor heavy atom, donor atom, acceptor molecule, acceptor atom, score
      L1  H     3    23       P1  8028  0.99
      P1  H  6896  6909       L1    21  0.81
      P1  H  8011  8017       L1     1  0.10

> <Gold.Chemscore.Hbond.Weighted>
-7.0452

> <Gold.Chemscore.Metal.Weighted>
-0.0000

> <Gold.Chemscore.Lipo.Weighted>
-5.4058

> <Gold.Chemscore.Internal_Hbond.Weighted>
0.0000

> <Gold.Chemscore.DEClash.Weighted>
0.1092

> <Gold.Chemscore.DEInternal.Weighted>
1.4090

> <Gold.Chemscore.Rot.Weighted>
5.4714

> <Gold.Chemscore.Internal.Correction.Weighted>
   9.000000E+99

> <Gold.Protein.RotatedTorsions>
[ 6907 6896 6895 6894 ] final  174.41 input  -60.11 | X-H torsion
[ 7974 7965 7964 7962 ] final  137.12 input  175.53 | X-H torsion
[ 8008 7997 7996 7995 ] final  127.28 input   59.86 | X-H torsion
[ 10167 10162 10161 10158 ] final  106.34 input  -65.29 | X-H torsion
[ 10718 10713 10712 10709 ] final  -19.22 input   66.30 | X-H torsion
[ 10763 10752 10751 10750 ] final  -59.48 input  -60.55 | X-H torsion
[ 11005 11000 10999 10996 ] final  -64.27 input  -57.11 | X-H torsion

> <Gold.Protein.ActiveResidues>
 VAL166  LYS551  ARG553  GLY616  TRP617  ASP618  TYR619  PRO620  LYS621  CYS622 
 ASP623  PHE694  ASN695  SER759  ASP760  ASP761  ALA762  ILE779  LEU786  VAL792 
 PHE793  MET794  SER795  GLU796  ALA797  LYS798  CYS799  TRP800  GLU811  SER814 

> <Gold.Protein.RotatedAtoms>
  151.7527  133.3328  159.3395 H   0  0  0  0  0  0  0  0  0  0  0  0  # atno 6907 bound_to 6896
  150.7529  134.6178  159.6129 H   0  0  0  0  0  0  0  0  0  0  0  0  # atno 6908 bound_to 6896
  152.3458  134.7075  160.0302 H   0  0  0  0  0  0  0  0  0  0  0  0  # atno 6909 bound_to 6896
  144.9498  139.4832  143.5531 H   0  0  0  0  0  0  0  0  0  0  0  0  # atno 7974 bound_to 7965
  156.2887  140.2672  156.2248 H   0  0  0  0  0  0  0  0  0  0  0  0  # atno 8008 bound_to 7997
  155.0132  140.0387  157.2426 H   0  0  0  0  0  0  0  0  0  0  0  0  # atno 8009 bound_to 7997
  154.7500  140.2741  155.6305 H   0  0  0  0  0  0  0  0  0  0  0  0  # atno 8010 bound_to 7997
  139.7018  144.7093  151.1173 H   0  0  0  0  0  0  0  0  0  0  0  0  # atno 10167 bound_to 10162
  156.5487  130.4696  149.6463 H   0  0  0  0  0  0  0  0  0  0  0  0  # atno 10718 bound_to 10713
  154.2543  135.6320  153.5251 H   0  0  0  0  0  0  0  0  0  0  0  0  # atno 10763 bound_to 10752
  152.9907  135.5572  154.5773 H   0  0  0  0  0  0  0  0  0  0  0  0  # atno 10764 bound_to 10752
  154.5308  135.2888  155.1157 H   0  0  0  0  0  0  0  0  0  0  0  0  # atno 10765 bound_to 10752
  141.1419  133.6663  156.5808 H   0  0  0  0  0  0  0  0  0  0  0  0  # atno 11005 bound_to 11000
  146.3317  139.8575  142.8862 LP  0  0  0  0  0  0  0  0  0  0  0  0  # atno 17320 bound_to 7965
  145.2861  141.0153  143.3689 LP  0  0  0  0  0  0  0  0  0  0  0  0  # atno 17321 bound_to 7965
  140.7711  143.5414  150.9308 LP  0  0  0  0  0  0  0  0  0  0  0  0  # atno 17342 bound_to 10162
  139.9096  143.6737  152.3117 LP  0  0  0  0  0  0  0  0  0  0  0  0  # atno 17343 bound_to 10162
  156.2905  130.7121  151.1969 LP  0  0  0  0  0  0  0  0  0  0  0  0  # atno 17370 bound_to 10713
  157.7392  131.0532  150.5249 LP  0  0  0  0  0  0  0  0  0  0  0  0  # atno 17371 bound_to 10713
  140.3839  134.7499  157.4679 LP  0  0  0  0  0  0  0  0  0  0  0  0  # atno 17394 bound_to 11000
  140.0616  134.5987  155.8742 LP  0  0  0  0  0  0  0  0  0  0  0  0  # atno 17395 bound_to 11000

$$$$
