AV-unprocessed.smi:36|AV-procd|sdf|300|dock7
  -GOLD-   2262016103D 1   1.00000     0.00000
 Structure written by MMmdl.
 63 66  0  0  0  0  0  0  0  0  2 V2000
  144.9777  145.6328  158.2973 C   0  0  0  0  0  0  0  0  0  0  0  0
  143.9050  145.6330  157.1956 C   0  0  0  0  0  0  0  0  0  0  0  0
  142.5453  146.0397  157.7885 C   0  0  0  0  0  0  0  0  0  0  0  0
  144.2995  146.6165  156.0814 C   0  0  0  0  0  0  0  0  0  0  0  0
  143.7569  143.8790  156.4542 Si  0  0  0  0  0  0  0  0  0  0  0  0
  143.2962  142.6018  157.7829 C   0  0  0  0  0  0  0  0  0  0  0  0
  142.4695  143.8377  155.0550 C   0  0  0  0  0  0  0  0  0  0  0  0
  145.2645  143.4505  155.8156 O   0  0  0  0  0  0  0  0  0  0  0  0
  145.4796  142.2743  155.0640 C   0  0  0  0  0  0  0  0  0  0  0  0
  146.7012  142.4484  154.1507 C   0  0  1  0  0  0  0  0  0  0  0  0
  147.8317  142.6590  154.9986 O   0  0  0  0  0  0  0  0  0  0  0  0
  148.8325  141.7422  154.6932 C   0  0  1  0  0  0  0  0  0  0  0  0
  149.5467  141.3807  155.9522 N   0  0  0  0  0  0  0  0  0  0  0  0
  149.2253  141.7355  157.2121 C   0  0  0  0  0  0  0  0  0  0  0  0
  150.0079  141.2905  158.1930 N   0  0  0  0  0  0  0  0  0  0  0  0
  150.9485  140.5528  157.4890 C   0  0  0  0  0  0  0  0  0  0  0  0
  152.0855  139.8056  157.9026 C   0  0  0  0  0  0  0  0  0  0  0  0
  152.4483  139.6902  159.1886 N   0  5  0  0  0  0  0  0  0  0  0  0
  153.4622  140.4488  159.6771 C   0  0  0  0  0  0  0  0  0  0  0  0
  154.6704  140.2040  159.6508 O   0  0  0  0  0  0  0  0  0  0  0  0
  152.9888  141.6926  160.3811 C   0  0  0  0  0  0  0  0  0  0  0  0
  153.0776  141.7768  161.7896 C   0  0  0  0  0  0  0  0  0  0  0  0
  152.6617  142.9404  162.4656 C   0  0  0  0  0  0  0  0  0  0  0  0
  152.1602  144.0366  161.7396 C   0  0  0  0  0  0  0  0  0  0  0  0
  152.0804  143.9705  160.3360 C   0  0  0  0  0  0  0  0  0  0  0  0
  152.4967  142.8075  159.6591 C   0  0  0  0  0  0  0  0  0  0  0  0
  152.7986  139.1806  156.9312 N   0  0  0  0  0  0  0  0  0  0  0  0
  152.4342  139.2906  155.6486 C   0  0  0  0  0  0  0  0  0  0  0  0
  151.4056  139.9620  155.1227 N   0  0  0  0  0  0  0  0  0  0  0  0
  150.6756  140.5891  156.0910 C   0  0  0  0  0  0  0  0  0  0  0  0
  148.1423  140.5304  154.0775 C   0  0  0  0  0  0  0  0  0  0  0  0
  147.0206  141.1976  153.3093 C   0  0  2  0  0  0  0  0  0  0  0  0
  147.4581  141.5747  152.0185 O   0  0  0  0  0  0  0  0  0  0  0  0
  145.0890  146.6223  158.7419 H   0  0  0  0  0  0  0  0  0  0  0  0
  145.9509  145.3379  157.9043 H   0  0  0  0  0  0  0  0  0  0  0  0
  144.7232  144.9399  159.0996 H   0  0  0  0  0  0  0  0  0  0  0  0
  142.2429  145.3664  158.5908 H   0  0  0  0  0  0  0  0  0  0  0  0
  141.7609  146.0207  157.0309 H   0  0  0  0  0  0  0  0  0  0  0  0
  142.5789  147.0480  158.2026 H   0  0  0  0  0  0  0  0  0  0  0  0
  144.3737  147.6364  156.4604 H   0  0  0  0  0  0  0  0  0  0  0  0
  143.5645  146.6170  155.2758 H   0  0  0  0  0  0  0  0  0  0  0  0
  145.2649  146.3580  155.6457 H   0  0  0  0  0  0  0  0  0  0  0  0
  142.3370  142.8328  158.2455 H   0  0  0  0  0  0  0  0  0  0  0  0
  144.0404  142.5638  158.5780 H   0  0  0  0  0  0  0  0  0  0  0  0
  143.2208  141.5992  157.3623 H   0  0  0  0  0  0  0  0  0  0  0  0
  141.4767  144.1020  155.4183 H   0  0  0  0  0  0  0  0  0  0  0  0
  142.3955  142.8478  154.6053 H   0  0  0  0  0  0  0  0  0  0  0  0
  142.7187  144.5374  154.2579 H   0  0  0  0  0  0  0  0  0  0  0  0
  145.6396  141.4457  155.7543 H   0  0  0  0  0  0  0  0  0  0  0  0
  144.5937  142.0325  154.4774 H   0  0  0  0  0  0  0  0  0  0  0  0
  146.5549  143.3249  153.5174 H   0  0  0  0  0  0  0  0  0  0  0  0
  149.5810  142.1935  154.0402 H   0  0  0  0  0  0  0  0  0  0  0  0
  148.3691  142.3594  157.4225 H   0  0  0  0  0  0  0  0  0  0  0  0
  153.4613  140.9450  162.3622 H   0  0  0  0  0  0  0  0  0  0  0  0
  152.7284  142.9913  163.5423 H   0  0  0  0  0  0  0  0  0  0  0  0
  151.8415  144.9288  162.2579 H   0  0  0  0  0  0  0  0  0  0  0  0
  151.7023  144.8131  159.7763 H   0  0  0  0  0  0  0  0  0  0  0  0
  152.4363  142.7814  158.5805 H   0  0  0  0  0  0  0  0  0  0  0  0
  153.0579  138.7660  154.9406 H   0  0  0  0  0  0  0  0  0  0  0  0
  148.8284  139.9427  153.4664 H   0  0  0  0  0  0  0  0  0  0  0  0
  147.7301  139.8941  154.8611 H   0  0  0  0  0  0  0  0  0  0  0  0
  146.1627  140.5356  153.1937 H   0  0  0  0  0  0  0  0  0  0  0  0
  148.2713  141.1295  151.8358 H   0  0  0  0  0  0  0  0  0  0  0  0
  1  2  1  0  0  0  0
  1 34  1  0  0  0  0
  1 35  1  0  0  0  0
  1 36  1  0  0  0  0
  2  3  1  0  0  0  0
  2  4  1  0  0  0  0
  2  5  1  0  0  0  0
  3 37  1  0  0  0  0
  3 38  1  0  0  0  0
  3 39  1  0  0  0  0
  4 40  1  0  0  0  0
  4 41  1  0  0  0  0
  4 42  1  0  0  0  0
  5  6  1  0  0  0  0
  5  7  1  0  0  0  0
  5  8  1  0  0  0  0
  6 43  1  0  0  0  0
  6 44  1  0  0  0  0
  6 45  1  0  0  0  0
  7 46  1  0  0  0  0
  7 47  1  0  0  0  0
  7 48  1  0  0  0  0
  8  9  1  0  0  0  0
  9 10  1  0  0  0  0
  9 49  1  0  0  0  0
  9 50  1  0  0  0  0
 10 32  1  0  0  0  0
 10 11  1  0  0  0  0
 10 51  1  0  0  0  0
 11 12  1  0  0  0  0
 12 13  1  0  0  0  0
 12 31  1  0  0  0  0
 12 52  1  0  0  0  0
 13 30  1  0  0  0  0
 13 14  1  0  0  0  0
 14 15  2  0  0  0  0
 14 53  1  0  0  0  0
 15 16  1  0  0  0  0
 16 30  2  0  0  0  0
 16 17  1  0  0  0  0
 17 18  1  0  0  0  0
 17 27  2  0  0  0  0
 18 19  1  0  0  0  0
 19 20  2  0  0  0  0
 19 21  1  0  0  0  0
 21 26  1  0  0  0  0
 21 22  2  0  0  0  0
 22 23  1  0  0  0  0
 22 54  1  0  0  0  0
 23 24  2  0  0  0  0
 23 55  1  0  0  0  0
 24 25  1  0  0  0  0
 24 56  1  0  0  0  0
 25 26  2  0  0  0  0
 25 57  1  0  0  0  0
 26 58  1  0  0  0  0
 27 28  1  0  0  0  0
 28 29  2  0  0  0  0
 28 59  1  0  0  0  0
 29 30  1  0  0  0  0
 31 32  1  0  0  0  0
 31 60  1  0  0  0  0
 31 61  1  0  0  0  0
 32 33  1  0  0  0  0
 32 62  1  0  0  0  0
 33 63  1  0  0  0  0
M  CHG  1  18  -1
M  END
> <s_m_source_file>
AV-unprocessed.smi

> <i_m_source_file_index>
36

> <i_lp_mmshare_version>
43012

> <i_f3d_flags>
0

> <s_epik_input>
W0NIM11DKFtDSDNdKShbQ0gzXSlbU2ldKFtDSDNdKShbQ0gzXSlPW0NIMl1bQ0BASF0xT1tDQEhdKFtDSDJdW0NASF0xW09IXSluKFtjSF1uMiljKGMyMyluW2NIXW5jM1tOSF1DKD1PKWM0W2NIXVtjSF1bY0hdW2NIXVtjSF00

> <s_epik_cmdline>
J2VwaWtfcHl0aG9uJywgJy1waCcsICc3LjAnLCAnLXRuJywgJzgnLCAnLW1hJywgJzIwMCcsICctbWV0YWxfYmluZGluZycsICctaW1hZScsICc8aW5maWxlLm1hZT4nLCAnLW9tYWUnLCAnPG91dGZpbGUubWFlPic=

> <r_lp_tautomer_probability>
1

> <r_epik_Ionization_Penalty>
4.75685

> <r_epik_Ionization_Penalty_Charging>
3.55822

> <r_epik_Ionization_Penalty_Neutral>
1.19863

> <r_epik_State_Penalty>
3.564

> <r_epik_Charging_Adjusted_Penalty>
7.12222

> <i_epik_Tot_Q>
-1

> <i_epik_Tot_abs_Q>
1

> <r_epik_Metal_State_Penalty>
0.523258

> <b_epik_Metal_Only>
1

> <s_epik_Chemistry_Notes>
This compound contains an acetal/aminal-like group ( X-CH(R)-Y where X, Y are N, S, or O) that may be acid/base labile, releasing an aldehyde.

> <s_lp_Force_Field>
OPLS_2005

> <r_lp_Energy>
29.6254

> <b_lp_Chiralities_Consistent>
1

> <s_lp_Variant>
AV-unprocessed.smi:36-22

> <Gold.Version>
5.8.1

> <Gold.Id.Protein>
6NUR|6NUR_protein|mol2

> <Gold.PLP.Fitness>
57.7550

> <Gold.PLP.PLP>
-54.4010

> <Gold.PLP.part.hbond>
-4.0000

> <Gold.PLP.part.metal>
0.0000

> <Gold.PLP.part.buried>
-3.5050

> <Gold.PLP.part.nonpolar>
-49.7382

> <Gold.PLP.part.repulsive>
2.4333

> <Gold.PLP.ligand.clash>
0.0000

> <Gold.PLP.ligand.torsion>
3.1153

> <Gold.PLP.Chemscore.Hbond>
3.0000

> <Gold.PLP.Chemscore.CHOScore>
0.0000

> <Gold.PLP.Chemscore.Metal>
0.0000

> <Gold.Chemscore.Hbonds>
donor molecule, donor type, donor heavy atom, donor atom, acceptor molecule, acceptor atom, score
      L1  H    33    63       P1  7957  1.00
      P1  H  7989  7998       L1    29  1.00
      P1  H  7997  8010       L1    27  0.75

> <Gold.PLP.Chemscore.Internal.Correction>
0.5845

> <Gold.Rescore>
     Score         DG    S(hbond)    S(metal)    S(lipo)     H(rot)  DE(clash)    DE(int)     intcor
     15.11     -18.62       2.09        0.00     111.12       2.67       0.40       3.11       ----

> <Gold.Chemscore.Fitness>
15.1132

> <Gold.Chemscore.DG>
-18.6220

> <Gold.Chemscore.ZeroCoef>
-5.4800

> <Gold.Chemscore.Hbond>
2.0889

> <Gold.Chemscore.Metal>
0.0000

> <Gold.Chemscore.Lipo>
111.1185

> <Gold.Chemscore.Internal_Hbond>
0.0000

> <Gold.Chemscore.DEClash>
0.3963

> <Gold.Chemscore.DEInternal>
3.1126

> <Gold.Chemscore.Rot>
2.6702

> <Gold.Chemscore.Internal.Correction>
   9.000000E+99

> <Gold.Chemscore.Hbonds>
donor molecule, donor type, donor heavy atom, donor atom, acceptor molecule, acceptor atom, score
      L1  H    33    63       P1  7957  1.00
      P1  H  7989  7998       L1    29  0.90
      P1  H  7997  8010       L1    27  0.07

> <Gold.Chemscore.Hbond.Weighted>
-6.9769

> <Gold.Chemscore.Metal.Weighted>
-0.0000

> <Gold.Chemscore.Lipo.Weighted>
-13.0009

> <Gold.Chemscore.Internal_Hbond.Weighted>
0.0000

> <Gold.Chemscore.DEClash.Weighted>
0.3963

> <Gold.Chemscore.DEInternal.Weighted>
3.1126

> <Gold.Chemscore.Rot.Weighted>
6.8358

> <Gold.Chemscore.Internal.Correction.Weighted>
   9.000000E+99

> <Gold.Protein.RotatedTorsions>
[ 6907 6896 6895 6894 ] final -157.04 input  -60.11 | X-H torsion
[ 7974 7965 7964 7962 ] final  -11.52 input  175.53 | X-H torsion
[ 8008 7997 7996 7995 ] final   54.55 input   59.86 | X-H torsion
[ 10167 10162 10161 10158 ] final  -80.86 input  -65.29 | X-H torsion
[ 10718 10713 10712 10709 ] final  -44.86 input   66.30 | X-H torsion
[ 10763 10752 10751 10750 ] final  -80.52 input  -60.55 | X-H torsion
[ 11005 11000 10999 10996 ] final  172.59 input  -57.11 | X-H torsion

> <Gold.Protein.ActiveResidues>
 VAL166  LYS551  ARG553  GLY616  TRP617  ASP618  TYR619  PRO620  LYS621  CYS622 
 ASP623  PHE694  ASN695  SER759  ASP760  ASP761  ALA762  ILE779  LEU786  VAL792 
 PHE793  MET794  SER795  GLU796  ALA797  LYS798  CYS799  TRP800  GLU811  SER814 

> <Gold.Protein.RotatedAtoms>
  151.2968  133.4140  159.2636 H   0  0  0  0  0  0  0  0  0  0  0  0  # atno 6907 bound_to 6896
  151.0229  134.9483  159.8080 H   0  0  0  0  0  0  0  0  0  0  0  0  # atno 6908 bound_to 6896
  152.5328  134.2931  159.9103 H   0  0  0  0  0  0  0  0  0  0  0  0  # atno 6909 bound_to 6896
  146.2184  140.2923  142.8369 H   0  0  0  0  0  0  0  0  0  0  0  0  # atno 7974 bound_to 7965
  155.4866  140.3470  155.4348 H   0  0  0  0  0  0  0  0  0  0  0  0  # atno 8008 bound_to 7997
  156.1004  140.1434  156.9503 H   0  0  0  0  0  0  0  0  0  0  0  0  # atno 8009 bound_to 7997
  154.4690  140.0907  156.7074 H   0  0  0  0  0  0  0  0  0  0  0  0  # atno 8010 bound_to 7997
  140.4465  143.2497  151.8551 H   0  0  0  0  0  0  0  0  0  0  0  0  # atno 10167 bound_to 10162
  156.2343  130.4175  149.8837 H   0  0  0  0  0  0  0  0  0  0  0  0  # atno 10718 bound_to 10713
  154.5522  135.5658  153.6932 H   0  0  0  0  0  0  0  0  0  0  0  0  # atno 10763 bound_to 10752
  152.9993  135.6253  154.2358 H   0  0  0  0  0  0  0  0  0  0  0  0  # atno 10764 bound_to 10752
  154.2293  135.2866  155.2875 H   0  0  0  0  0  0  0  0  0  0  0  0  # atno 10765 bound_to 10752
  140.3314  134.7354  157.4137 H   0  0  0  0  0  0  0  0  0  0  0  0  # atno 11005 bound_to 11000
  144.9118  140.7765  143.5803 LP  0  0  0  0  0  0  0  0  0  0  0  0  # atno 17320 bound_to 7965
  145.2854  139.1903  143.4768 LP  0  0  0  0  0  0  0  0  0  0  0  0  # atno 17321 bound_to 7965
  139.4793  144.5170  151.8855 LP  0  0  0  0  0  0  0  0  0  0  0  0  # atno 17342 bound_to 10162
  140.4258  144.2182  150.5887 LP  0  0  0  0  0  0  0  0  0  0  0  0  # atno 17343 bound_to 10162
  156.6441  130.8717  151.3519 LP  0  0  0  0  0  0  0  0  0  0  0  0  # atno 17370 bound_to 10713
  157.7147  130.9482  150.1212 LP  0  0  0  0  0  0  0  0  0  0  0  0  # atno 17371 bound_to 10713
  140.0858  134.5669  155.8494 LP  0  0  0  0  0  0  0  0  0  0  0  0  # atno 17394 bound_to 11000
  141.2062  133.6653  156.6230 LP  0  0  0  0  0  0  0  0  0  0  0  0  # atno 17395 bound_to 11000

$$$$
