AV-unprocessed.smi:2085|AV-procd|sdf|8516|dock7
  -GOLD-   2272011233D 1   1.00000     0.00000
 Structure written by MMmdl.
 30 31  0  0  0  0  0  0  0  0  1 V2000
  153.1772  138.7622  154.8311 C   0  0  0  0  0  0  0  0  0  0  0  0
  152.7519  139.7647  155.7482 O   0  0  0  0  0  0  0  0  0  0  0  0
  151.4722  140.2720  155.6249 C   0  0  0  0  0  0  0  0  0  0  0  0
  150.7336  139.9029  154.5481 N   0  0  0  0  0  0  0  0  0  0  0  0
  149.4868  140.4011  154.4224 C   0  0  0  0  0  0  0  0  0  0  0  0
  148.9158  141.2904  155.3506 C   0  0  0  0  0  0  0  0  0  0  0  0
  149.6794  141.6750  156.4682 C   0  0  0  0  0  0  0  0  0  0  0  0
  150.9854  141.1494  156.6222 C   0  0  0  0  0  0  0  0  0  0  0  0
  151.8514  141.4861  157.6998 N   0  0  0  0  0  0  0  0  0  0  0  0
  151.6737  142.3897  158.6817 C   0  0  0  0  0  0  0  0  0  0  0  0
  150.6537  143.0618  158.8323 O   0  0  0  0  0  0  0  0  0  0  0  0
  152.8219  142.5249  159.6928 C   0  0  2  0  0  0  0  0  0  0  0  0
  153.2015  141.2098  160.3873 C   0  0  0  0  0  0  0  0  0  0  0  0
  153.6563  141.6858  161.7486 C   0  0  0  0  0  0  0  0  0  0  0  0
  152.6857  142.8293  162.0128 C   0  0  0  0  0  0  0  0  0  0  0  0
  152.4572  143.4270  160.7415 O   0  0  0  0  0  0  0  0  0  0  0  0
  154.2015  138.4721  155.0644 H   0  0  0  0  0  0  0  0  0  0  0  0
  153.1636  139.1287  153.8038 H   0  0  0  0  0  0  0  0  0  0  0  0
  152.5562  137.8678  154.9011 H   0  0  0  0  0  0  0  0  0  0  0  0
  148.9299  140.0871  153.5520 H   0  0  0  0  0  0  0  0  0  0  0  0
  147.9166  141.6739  155.2058 H   0  0  0  0  0  0  0  0  0  0  0  0
  149.2541  142.3742  157.1709 H   0  0  0  0  0  0  0  0  0  0  0  0
  152.6980  140.9380  157.7596 H   0  0  0  0  0  0  0  0  0  0  0  0
  153.6939  142.9408  159.1864 H   0  0  0  0  0  0  0  0  0  0  0  0
  152.3371  140.5520  160.4967 H   0  0  0  0  0  0  0  0  0  0  0  0
  153.9798  140.6621  159.8551 H   0  0  0  0  0  0  0  0  0  0  0  0
  153.6188  140.9077  162.5114 H   0  0  0  0  0  0  0  0  0  0  0  0
  154.6779  142.0642  161.6923 H   0  0  0  0  0  0  0  0  0  0  0  0
  151.7390  142.4439  162.3936 H   0  0  0  0  0  0  0  0  0  0  0  0
  153.0726  143.5522  162.7311 H   0  0  0  0  0  0  0  0  0  0  0  0
  1  2  1  0  0  0  0
  1 17  1  0  0  0  0
  1 18  1  0  0  0  0
  1 19  1  0  0  0  0
  2  3  1  0  0  0  0
  3  8  1  0  0  0  0
  3  4  2  0  0  0  0
  4  5  1  0  0  0  0
  5  6  2  0  0  0  0
  5 20  1  0  0  0  0
  6  7  1  0  0  0  0
  6 21  1  0  0  0  0
  7  8  2  0  0  0  0
  7 22  1  0  0  0  0
  8  9  1  0  0  0  0
  9 10  1  0  0  0  0
  9 23  1  0  0  0  0
 10 11  2  0  0  0  0
 10 12  1  0  0  0  0
 12 16  1  0  0  0  0
 12 13  1  0  0  0  0
 12 24  1  0  0  0  0
 13 14  1  0  0  0  0
 13 25  1  0  0  0  0
 13 26  1  0  0  0  0
 14 15  1  0  0  0  0
 14 27  1  0  0  0  0
 14 28  1  0  0  0  0
 15 16  1  0  0  0  0
 15 29  1  0  0  0  0
 15 30  1  0  0  0  0
M  END
> <s_m_source_file>
AV-unprocessed.smi

> <i_m_source_file_index>
2085

> <i_lp_mmshare_version>
43012

> <i_f3d_flags>
0

> <s_epik_input>
W0NIM11PYzFuW2NIXVtjSF1bY0hdYzFbTkhdQyg9TylbQ0BASF0yW0NIMl1bQ0gyXVtDSDJdTzI=

> <s_epik_cmdline>
J2VwaWtfcHl0aG9uJywgJy1waCcsICc3LjAnLCAnLXRuJywgJzgnLCAnLW1hJywgJzIwMCcsICctbWV0YWxfYmluZGluZycsICctaW1hZScsICc8aW5maWxlLm1hZT4nLCAnLW9tYWUnLCAnPG91dGZpbGUubWFlPic=

> <r_lp_tautomer_probability>
1

> <r_epik_Ionization_Penalty>
2.59253e-05

> <r_epik_Ionization_Penalty_Charging>
0

> <r_epik_Ionization_Penalty_Neutral>
2.59253e-05

> <r_epik_State_Penalty>
-0

> <r_epik_Charging_Adjusted_Penalty>
0

> <i_epik_Tot_Q>
0

> <i_epik_Tot_abs_Q>
0

> <r_epik_Metal_State_Penalty>
-0

> <b_epik_Metal_Only>
0

> <s_lp_Force_Field>
OPLS_2005

> <r_lp_Energy>
24.0215

> <b_lp_Chiralities_Consistent>
1

> <s_lp_Variant>
AV-unprocessed.smi:2085-1

> <Gold.Version>
5.8.1

> <Gold.Id.Protein>
6NUR|6NUR_protein|mol2

> <Gold.PLP.Fitness>
44.0627

> <Gold.PLP.PLP>
-36.5180

> <Gold.PLP.part.hbond>
-2.0000

> <Gold.PLP.part.metal>
0.0000

> <Gold.PLP.part.buried>
-2.6600

> <Gold.PLP.part.nonpolar>
-30.9050

> <Gold.PLP.part.repulsive>
0.2971

> <Gold.PLP.ligand.clash>
0.0000

> <Gold.PLP.ligand.torsion>
0.0860

> <Gold.PLP.Chemscore.Hbond>
1.6000

> <Gold.PLP.Chemscore.CHOScore>
0.9699

> <Gold.PLP.Chemscore.Metal>
0.0000

> <Gold.Chemscore.Hbonds>
donor molecule, donor type, donor heavy atom, donor atom, acceptor molecule, acceptor atom, score
      P1  H  7989  7998       L1     4  0.65
      P1  H  7997  8008       L1     2  0.70
      L1  C     5    20       P1  7957  1.00

> <Gold.PLP.Chemscore.Internal.Correction>
0.0072

> <Gold.Rescore>
     Score         DG    S(hbond)    S(metal)    S(lipo)     H(rot)  DE(clash)    DE(int)     intcor
     12.78     -14.24       0.83        0.00      78.30       1.24       0.11       1.35       ----

> <Gold.Chemscore.Fitness>
12.7760

> <Gold.Chemscore.DG>
-14.2356

> <Gold.Chemscore.ZeroCoef>
-5.4800

> <Gold.Chemscore.Hbond>
0.8276

> <Gold.Chemscore.Metal>
0.0000

> <Gold.Chemscore.Lipo>
78.2983

> <Gold.Chemscore.Internal_Hbond>
0.0000

> <Gold.Chemscore.DEClash>
0.1054

> <Gold.Chemscore.DEInternal>
1.3541

> <Gold.Chemscore.Rot>
1.2381

> <Gold.Chemscore.Internal.Correction>
   9.000000E+99

> <Gold.Chemscore.Hbonds>
donor molecule, donor type, donor heavy atom, donor atom, acceptor molecule, acceptor atom, score
      P1  H  7989  7998       L1     4  0.02
      P1  H  7997  8008       L1     2  0.07

> <Gold.Chemscore.Hbond.Weighted>
-2.7641

> <Gold.Chemscore.Metal.Weighted>
-0.0000

> <Gold.Chemscore.Lipo.Weighted>
-9.1609

> <Gold.Chemscore.Internal_Hbond.Weighted>
0.0000

> <Gold.Chemscore.DEClash.Weighted>
0.1054

> <Gold.Chemscore.DEInternal.Weighted>
1.3541

> <Gold.Chemscore.Rot.Weighted>
3.1694

> <Gold.Chemscore.Internal.Correction.Weighted>
   9.000000E+99

> <Gold.Protein.RotatedTorsions>
[ 6907 6896 6895 6894 ] final  -63.12 input  -60.11 | X-H torsion
[ 7974 7965 7964 7962 ] final  141.14 input  175.53 | X-H torsion
[ 8008 7997 7996 7995 ] final  -37.71 input   59.86 | X-H torsion
[ 10167 10162 10161 10158 ] final -132.72 input  -65.29 | X-H torsion
[ 10718 10713 10712 10709 ] final  -19.68 input   66.30 | X-H torsion
[ 10763 10752 10751 10750 ] final  -48.68 input  -60.55 | X-H torsion
[ 11005 11000 10999 10996 ] final   93.79 input  -57.11 | X-H torsion

> <Gold.Protein.ActiveResidues>
 VAL166  LYS551  ARG553  GLY616  TRP617  ASP618  TYR619  PRO620  LYS621  CYS622 
 ASP623  PHE694  ASN695  SER759  ASP760  ASP761  ALA762  ILE779  LEU786  VAL792 
 PHE793  MET794  SER795  GLU796  ALA797  LYS798  CYS799  TRP800  GLU811  SER814 

> <Gold.Protein.RotatedAtoms>
  150.7670  134.6478  159.6271 H   0  0  0  0  0  0  0  0  0  0  0  0  # atno 6907 bound_to 6896
  152.3706  134.6737  160.0186 H   0  0  0  0  0  0  0  0  0  0  0  0  # atno 6908 bound_to 6896
  151.7098  133.3276  159.3324 H   0  0  0  0  0  0  0  0  0  0  0  0  # atno 6909 bound_to 6896
  144.9123  139.5276  143.5703 H   0  0  0  0  0  0  0  0  0  0  0  0  # atno 7974 bound_to 7965
  154.4049  140.1597  156.2582 H   0  0  0  0  0  0  0  0  0  0  0  0  # atno 8008 bound_to 7997
  155.9060  140.3430  155.6040 H   0  0  0  0  0  0  0  0  0  0  0  0  # atno 8009 bound_to 7997
  155.7392  140.0790  157.2244 H   0  0  0  0  0  0  0  0  0  0  0  0  # atno 8010 bound_to 7997
  139.9057  143.6554  152.2586 H   0  0  0  0  0  0  0  0  0  0  0  0  # atno 10167 bound_to 10162
  156.5423  130.4681  149.6493 H   0  0  0  0  0  0  0  0  0  0  0  0  # atno 10718 bound_to 10713
  154.0817  135.6590  153.4839 H   0  0  0  0  0  0  0  0  0  0  0  0  # atno 10763 bound_to 10752
  153.0353  135.5181  154.7467 H   0  0  0  0  0  0  0  0  0  0  0  0  # atno 10764 bound_to 10752
  154.6564  135.3008  154.9890 H   0  0  0  0  0  0  0  0  0  0  0  0  # atno 10765 bound_to 10752
  139.8806  134.8810  156.3770 H   0  0  0  0  0  0  0  0  0  0  0  0  # atno 11005 bound_to 11000
  146.3165  139.7939  142.8980 LP  0  0  0  0  0  0  0  0  0  0  0  0  # atno 17320 bound_to 7965
  145.3433  141.0292  143.3380 LP  0  0  0  0  0  0  0  0  0  0  0  0  # atno 17321 bound_to 7965
  139.6987  144.7638  151.1312 LP  0  0  0  0  0  0  0  0  0  0  0  0  # atno 17342 bound_to 10162
  140.7697  143.5488  150.9228 LP  0  0  0  0  0  0  0  0  0  0  0  0  # atno 17343 bound_to 10162
  156.2960  130.7151  151.2011 LP  0  0  0  0  0  0  0  0  0  0  0  0  # atno 17370 bound_to 10713
  157.7403  131.0518  150.5175 LP  0  0  0  0  0  0  0  0  0  0  0  0  # atno 17371 bound_to 10713
  140.9425  133.7505  156.0165 LP  0  0  0  0  0  0  0  0  0  0  0  0  # atno 17394 bound_to 11000
  140.8202  134.3298  157.5384 LP  0  0  0  0  0  0  0  0  0  0  0  0  # atno 17395 bound_to 11000

$$$$
