AV-unprocessed.smi:2344|AV-procd|sdf|9360|dock2
  -GOLD-   2272012583D 1   1.00000     0.00000
 Structure written by MMmdl.
 35 36  0  0  0  0  0  0  0  0  1 V2000
  143.6031  132.5854  150.4718 C   0  0  0  0  0  0  0  0  0  0  0  0
  144.0445  133.8938  151.0932 C   0  0  0  0  0  0  0  0  0  0  0  0
  143.4654  134.3647  152.2866 C   0  0  0  0  0  0  0  0  0  0  0  0
  143.9143  135.5871  152.8225 C   0  0  0  0  0  0  0  0  0  0  0  0
  144.9298  136.3083  152.1551 C   0  0  0  0  0  0  0  0  0  0  0  0
  145.3078  137.5283  152.7763 N   0  0  0  0  0  0  0  0  0  0  0  0
  146.2359  138.4139  152.3734 C   0  0  0  0  0  0  0  0  0  0  0  0
  146.9374  138.3050  151.3670 O   0  0  0  0  0  0  0  0  0  0  0  0
  146.3143  139.4515  153.2184 N   0  0  0  0  0  0  0  0  0  0  0  0
  147.2433  140.5676  153.0843 C   0  0  1  0  0  0  0  0  0  0  0  0
  146.5875  141.8490  153.5241 C   0  0  0  0  0  0  0  0  0  0  0  0
  147.2308  142.4387  154.5293 C   0  0  0  0  0  0  0  0  0  0  0  0
  148.4437  141.6638  154.9755 C   0  0  1  0  0  0  0  0  0  0  0  0
  148.4139  141.3065  156.4740 C   0  0  0  0  0  0  0  0  0  0  0  0
  148.4398  142.4623  157.2890 O   0  0  0  0  0  0  0  0  0  0  0  0
  148.4691  140.4372  154.0275 C   0  0  0  0  0  0  0  0  0  0  0  0
  145.4827  135.8453  151.0064 N   0  0  0  0  0  0  0  0  0  0  0  0
  145.0523  134.6737  150.4936 C   0  0  0  0  0  0  0  0  0  0  0  0
  147.5594  140.6760  152.0453 H   0  0  0  0  0  0  0  0  0  0  0  0
  149.3185  142.2854  154.7808 H   0  0  0  0  0  0  0  0  0  0  0  0
  142.6127  132.2980  150.8259 H   0  0  0  0  0  0  0  0  0  0  0  0
  144.3041  131.7915  150.7293 H   0  0  0  0  0  0  0  0  0  0  0  0
  143.5628  132.6699  149.3855 H   0  0  0  0  0  0  0  0  0  0  0  0
  142.6906  133.8017  152.7860 H   0  0  0  0  0  0  0  0  0  0  0  0
  143.4802  135.9634  153.7375 H   0  0  0  0  0  0  0  0  0  0  0  0
  144.8168  137.7509  153.6294 H   0  0  0  0  0  0  0  0  0  0  0  0
  145.7044  139.4619  154.0227 H   0  0  0  0  0  0  0  0  0  0  0  0
  145.6962  142.2315  153.0487 H   0  0  0  0  0  0  0  0  0  0  0  0
  146.9389  143.3689  154.9941 H   0  0  0  0  0  0  0  0  0  0  0  0
  147.5175  140.7312  156.7068 H   0  0  0  0  0  0  0  0  0  0  0  0
  149.2694  140.6805  156.7294 H   0  0  0  0  0  0  0  0  0  0  0  0
  148.6102  143.2129  156.7405 H   0  0  0  0  0  0  0  0  0  0  0  0
  148.4529  139.4999  154.5859 H   0  0  0  0  0  0  0  0  0  0  0  0
  149.3910  140.4306  153.4448 H   0  0  0  0  0  0  0  0  0  0  0  0
  145.5269  134.3513  149.5784 H   0  0  0  0  0  0  0  0  0  0  0  0
  1  2  1  0  0  0  0
  1 21  1  0  0  0  0
  1 22  1  0  0  0  0
  1 23  1  0  0  0  0
  2 18  1  0  0  0  0
  2  3  2  0  0  0  0
  3  4  1  0  0  0  0
  3 24  1  0  0  0  0
  4  5  2  0  0  0  0
  4 25  1  0  0  0  0
  5  6  1  0  0  0  0
  5 17  1  0  0  0  0
  6  7  1  0  0  0  0
  6 26  1  0  0  0  0
  7  8  2  0  0  0  0
  7  9  1  0  0  0  0
  9 10  1  0  0  0  0
  9 27  1  0  0  0  0
 10 19  1  0  0  0  0
 10 16  1  0  0  0  0
 10 11  1  0  0  0  0
 11 12  2  0  0  0  0
 11 28  1  0  0  0  0
 12 13  1  0  0  0  0
 12 29  1  0  0  0  0
 13 20  1  0  0  0  0
 13 14  1  0  0  0  0
 13 16  1  0  0  0  0
 14 15  1  0  0  0  0
 14 30  1  0  0  0  0
 14 31  1  0  0  0  0
 15 32  1  0  0  0  0
 16 33  1  0  0  0  0
 16 34  1  0  0  0  0
 17 18  2  0  0  0  0
 18 35  1  0  0  0  0
M  END
> <s_m_source_file>
AV-unprocessed.smi

> <i_m_source_file_index>
2344

> <i_lp_mmshare_version>
43012

> <i_f3d_flags>
0

> <s_epik_input>
W0NIM11jMVtjSF1bY0hdYyhuW2NIXTEpW05IXUMoPU8pW05IXVtDQEBIXTJbQ0hdPVtDSF1bQ0BASF0oW0NIMl0yKVtDSDJdW09IXQ==

> <s_epik_cmdline>
J2VwaWtfcHl0aG9uJywgJy1waCcsICc3LjAnLCAnLXRuJywgJzgnLCAnLW1hJywgJzIwMCcsICctbWV0YWxfYmluZGluZycsICctaW1hZScsICc8aW5maWxlLm1hZT4nLCAnLW9tYWUnLCAnPG91dGZpbGUubWFlPic=

> <r_lp_tautomer_probability>
1

> <r_epik_Ionization_Penalty>
5.7643e-05

> <r_epik_Ionization_Penalty_Charging>
0

> <r_epik_Ionization_Penalty_Neutral>
5.7643e-05

> <r_epik_State_Penalty>
-0

> <r_epik_Charging_Adjusted_Penalty>
0

> <i_epik_Tot_Q>
0

> <i_epik_Tot_abs_Q>
0

> <r_epik_Metal_State_Penalty>
-0

> <b_epik_Metal_Only>
0

> <s_lp_Force_Field>
OPLS_2005

> <r_lp_Energy>
18.1017

> <b_lp_Chiralities_Consistent>
1

> <s_lp_Variant>
AV-unprocessed.smi:2344-4

> <Gold.Version>
5.8.1

> <Gold.Id.Protein>
6NUR|6NUR_protein|mol2

> <Gold.PLP.Fitness>
39.0906

> <Gold.PLP.PLP>
-30.6768

> <Gold.PLP.part.hbond>
-3.0000

> <Gold.PLP.part.metal>
0.0000

> <Gold.PLP.part.buried>
-0.9025

> <Gold.PLP.part.nonpolar>
-28.2928

> <Gold.PLP.part.repulsive>
1.8705

> <Gold.PLP.ligand.clash>
0.0000

> <Gold.PLP.ligand.torsion>
0.3020

> <Gold.PLP.Chemscore.Hbond>
2.0000

> <Gold.PLP.Chemscore.CHOScore>
1.0000

> <Gold.PLP.Chemscore.Metal>
0.0000

> <Gold.Chemscore.Hbonds>
donor molecule, donor type, donor heavy atom, donor atom, acceptor molecule, acceptor atom, score
      L1  H    15    32       P1  8028  1.00
      P1  H  7954  7966       L1     8  1.00
      L1  C    18    35       P1  7921  1.00

> <Gold.PLP.Chemscore.Internal.Correction>
0.0177

> <Gold.Rescore>
     Score         DG    S(hbond)    S(metal)    S(lipo)     H(rot)  DE(clash)    DE(int)     intcor
     12.32     -15.33       1.90        0.00      69.76       1.82       1.38       1.63       ----

> <Gold.Chemscore.Fitness>
12.3196

> <Gold.Chemscore.DG>
-15.3288

> <Gold.Chemscore.ZeroCoef>
-5.4800

> <Gold.Chemscore.Hbond>
1.8988

> <Gold.Chemscore.Metal>
0.0000

> <Gold.Chemscore.Lipo>
69.7595

> <Gold.Chemscore.Internal_Hbond>
0.0000

> <Gold.Chemscore.DEClash>
1.3760

> <Gold.Chemscore.DEInternal>
1.6333

> <Gold.Chemscore.Rot>
1.8184

> <Gold.Chemscore.Internal.Correction>
   9.000000E+99

> <Gold.Chemscore.Hbonds>
donor molecule, donor type, donor heavy atom, donor atom, acceptor molecule, acceptor atom, score
      L1  H    15    32       P1  8028  0.65
      P1  H  7954  7966       L1     8  0.98

> <Gold.Chemscore.Hbond.Weighted>
-6.3420

> <Gold.Chemscore.Metal.Weighted>
-0.0000

> <Gold.Chemscore.Lipo.Weighted>
-8.1619

> <Gold.Chemscore.Internal_Hbond.Weighted>
0.0000

> <Gold.Chemscore.DEClash.Weighted>
1.3760

> <Gold.Chemscore.DEInternal.Weighted>
1.6333

> <Gold.Chemscore.Rot.Weighted>
4.6551

> <Gold.Chemscore.Internal.Correction.Weighted>
   9.000000E+99

> <Gold.Protein.RotatedTorsions>
[ 6907 6896 6895 6894 ] final -137.65 input  -60.11 | X-H torsion
[ 7974 7965 7964 7962 ] final  -98.16 input  175.53 | X-H torsion
[ 8008 7997 7996 7995 ] final   49.07 input   59.86 | X-H torsion
[ 10167 10162 10161 10158 ] final  -34.18 input  -65.29 | X-H torsion
[ 10718 10713 10712 10709 ] final  171.70 input   66.30 | X-H torsion
[ 10763 10752 10751 10750 ] final -101.18 input  -60.55 | X-H torsion
[ 11005 11000 10999 10996 ] final   90.30 input  -57.11 | X-H torsion

> <Gold.Protein.ActiveResidues>
 VAL166  LYS551  ARG553  GLY616  TRP617  ASP618  TYR619  PRO620  LYS621  CYS622 
 ASP623  PHE694  ASN695  SER759  ASP760  ASP761  ALA762  ILE779  LEU786  VAL792 
 PHE793  MET794  SER795  GLU796  ALA797  LYS798  CYS799  TRP800  GLU811  SER814 

> <Gold.Protein.RotatedAtoms>
  151.0251  133.5841  159.2666 H   0  0  0  0  0  0  0  0  0  0  0  0  # atno 6907 bound_to 6896
  151.2943  135.0750  159.9225 H   0  0  0  0  0  0  0  0  0  0  0  0  # atno 6908 bound_to 6896
  152.5332  133.9944  159.7920 H   0  0  0  0  0  0  0  0  0  0  0  0  # atno 6909 bound_to 6896
  145.3243  140.9428  143.2698 H   0  0  0  0  0  0  0  0  0  0  0  0  # atno 7974 bound_to 7965
  155.3961  140.3435  155.4254 H   0  0  0  0  0  0  0  0  0  0  0  0  # atno 8008 bound_to 7997
  156.1530  140.1577  156.8771 H   0  0  0  0  0  0  0  0  0  0  0  0  # atno 8009 bound_to 7997
  154.5069  140.0800  156.7894 H   0  0  0  0  0  0  0  0  0  0  0  0  # atno 8010 bound_to 7997
  140.7190  143.3567  151.2046 H   0  0  0  0  0  0  0  0  0  0  0  0  # atno 10167 bound_to 10162
  156.9897  131.0144  151.2860 H   0  0  0  0  0  0  0  0  0  0  0  0  # atno 10718 bound_to 10713
  154.7637  135.4907  153.9514 H   0  0  0  0  0  0  0  0  0  0  0  0  # atno 10763 bound_to 10752
  153.1282  135.6747  153.9229 H   0  0  0  0  0  0  0  0  0  0  0  0  # atno 10764 bound_to 10752
  153.8941  135.3117  155.3426 H   0  0  0  0  0  0  0  0  0  0  0  0  # atno 10765 bound_to 10752
  139.8858  134.8605  156.3266 H   0  0  0  0  0  0  0  0  0  0  0  0  # atno 11005 bound_to 11000
  144.8915  139.4769  143.6676 LP  0  0  0  0  0  0  0  0  0  0  0  0  # atno 17320 bound_to 7965
  146.3070  139.7615  142.9048 LP  0  0  0  0  0  0  0  0  0  0  0  0  # atno 17321 bound_to 7965
  139.7109  143.9378  152.2947 LP  0  0  0  0  0  0  0  0  0  0  0  0  # atno 17342 bound_to 10162
  139.9102  144.6861  150.8570 LP  0  0  0  0  0  0  0  0  0  0  0  0  # atno 17343 bound_to 10162
  157.5467  130.8155  149.8095 LP  0  0  0  0  0  0  0  0  0  0  0  0  # atno 17370 bound_to 10713
  156.0212  130.3795  150.1957 LP  0  0  0  0  0  0  0  0  0  0  0  0  # atno 17371 bound_to 10713
  140.9751  133.7302  156.0591 LP  0  0  0  0  0  0  0  0  0  0  0  0  # atno 17394 bound_to 11000
  140.7821  134.3713  157.5485 LP  0  0  0  0  0  0  0  0  0  0  0  0  # atno 17395 bound_to 11000

$$$$
