AV-unprocessed.smi:160|AV-procd|sdf|1364|dock1
  -GOLD-   2262019 73D 1   1.00000     0.00000
 Structure written by MMmdl.
 28 29  0  0  0  0  0  0  0  0  2 V2000
  153.9064  138.2695  157.9172 N   0  5  0  0  0  0  0  0  0  0  0  0
  153.4708  137.3261  157.0541 C   0  0  0  0  0  0  0  0  0  0  0  0
  153.8050  136.1417  157.0443 O   0  0  0  0  0  0  0  0  0  0  0  0
  152.4854  137.8223  156.0223 C   0  0  0  0  0  0  0  0  0  0  0  0
  151.9636  136.9669  155.0909 N   0  0  0  0  0  0  0  0  0  0  0  0
  151.1900  137.8180  154.4308 C   0  0  0  0  0  0  0  0  0  0  0  0
  151.2296  139.0699  154.8950 N   0  0  0  0  0  0  0  0  0  0  0  0
  150.5039  140.2919  154.4131 C   0  0  1  0  0  0  0  0  0  0  0  0
  149.5416  139.8983  153.4812 O   0  0  0  0  0  0  0  0  0  0  0  0
  148.2548  139.8978  154.0897 C   0  0  2  0  0  0  0  0  0  0  0  0
  147.1377  139.9555  153.0328 C   0  0  0  0  0  0  0  0  0  0  0  0
  147.3295  138.9467  152.0644 O   0  0  0  0  0  0  0  0  0  0  0  0
  148.3335  141.1047  155.0365 C   0  0  2  0  0  0  0  0  0  0  0  0
  148.0888  142.3150  154.3418 O   0  0  0  0  0  0  0  0  0  0  0  0
  149.7735  141.0658  155.5388 C   0  0  1  0  0  0  0  0  0  0  0  0
  149.8294  140.4482  156.8130 O   0  0  0  0  0  0  0  0  0  0  0  0
  152.0765  139.0930  155.9546 N   0  0  0  0  0  0  0  0  0  0  0  0
  151.2741  140.8834  153.9170 H   0  0  0  0  0  0  0  0  0  0  0  0
  148.1441  138.9971  154.6961 H   0  0  0  0  0  0  0  0  0  0  0  0
  147.6046  141.0309  155.8450 H   0  0  0  0  0  0  0  0  0  0  0  0
  150.2030  142.0647  155.6271 H   0  0  0  0  0  0  0  0  0  0  0  0
  154.3254  137.9674  158.8045 H   0  0  0  0  0  0  0  0  0  0  0  0
  150.5842  137.5224  153.5869 H   0  0  0  0  0  0  0  0  0  0  0  0
  146.1700  139.7749  153.5012 H   0  0  0  0  0  0  0  0  0  0  0  0
  147.0918  140.9339  152.5534 H   0  0  0  0  0  0  0  0  0  0  0  0
  148.0577  139.1906  151.5143 H   0  0  0  0  0  0  0  0  0  0  0  0
  148.4949  143.0217  154.8197 H   0  0  0  0  0  0  0  0  0  0  0  0
  148.9591  140.4347  157.1809 H   0  0  0  0  0  0  0  0  0  0  0  0
  1  2  1  0  0  0  0
  1 22  1  0  0  0  0
  2  3  2  0  0  0  0
  2  4  1  0  0  0  0
  4 17  2  0  0  0  0
  4  5  1  0  0  0  0
  5  6  2  0  0  0  0
  6  7  1  0  0  0  0
  6 23  1  0  0  0  0
  7  8  1  0  0  0  0
  7 17  1  0  0  0  0
  8 18  1  0  0  0  0
  8 15  1  0  0  0  0
  8  9  1  0  0  0  0
  9 10  1  0  0  0  0
 10 19  1  0  0  0  0
 10 11  1  0  0  0  0
 10 13  1  0  0  0  0
 11 12  1  0  0  0  0
 11 24  1  0  0  0  0
 11 25  1  0  0  0  0
 12 26  1  0  0  0  0
 13 20  1  0  0  0  0
 13 14  1  0  0  0  0
 13 15  1  0  0  0  0
 14 27  1  0  0  0  0
 15 21  1  0  0  0  0
 15 16  1  0  0  0  0
 16 28  1  0  0  0  0
M  CHG  1   1  -1
M  END
> <s_m_source_file>
AV-unprocessed.smi

> <i_m_source_file_index>
160

> <i_lp_mmshare_version>
43012

> <i_f3d_flags>
0

> <s_epik_input>
W05IMl1DKD1PKWMxbltjSF1uKG4xKVtDQEBIXTJPW0NASF0oW0NIMl1bT0hdKVtDQEBIXShbT0hdKVtDQEhdMltPSF0=

> <s_epik_cmdline>
J2VwaWtfcHl0aG9uJywgJy1waCcsICc3LjAnLCAnLXRuJywgJzgnLCAnLW1hJywgJzIwMCcsICctbWV0YWxfYmluZGluZycsICctaW1hZScsICc8aW5maWxlLm1hZT4nLCAnLW9tYWUnLCAnPG91dGZpbGUubWFlPic=

> <r_lp_tautomer_probability>
1

> <r_epik_Ionization_Penalty>
6.6993

> <r_epik_Ionization_Penalty_Charging>
6.6993

> <r_epik_Ionization_Penalty_Neutral>
6.01698e-06

> <r_epik_State_Penalty>
6.69929

> <r_epik_Charging_Adjusted_Penalty>
13.3986

> <i_epik_Tot_Q>
-1

> <i_epik_Tot_abs_Q>
1

> <r_epik_Metal_State_Penalty>
2.62798

> <b_epik_Metal_Only>
1

> <s_epik_Chemistry_Notes>
This compound contains an acetal/aminal-like group ( X-CH(R)-Y where X, Y are N, S, or O) that may be acid/base labile, releasing an aldehyde.

> <s_lp_Force_Field>
OPLS_2005

> <r_lp_Energy>
46.6633

> <b_lp_Chiralities_Consistent>
1

> <s_lp_Variant>
AV-unprocessed.smi:160-22

> <Gold.Version>
5.8.1

> <Gold.Id.Protein>
6NUR|6NUR_protein|mol2

> <Gold.PLP.Fitness>
40.7859

> <Gold.PLP.PLP>
-21.6585

> <Gold.PLP.part.hbond>
-7.6561

> <Gold.PLP.part.metal>
0.0000

> <Gold.PLP.part.buried>
-1.0018

> <Gold.PLP.part.nonpolar>
-18.8909

> <Gold.PLP.part.repulsive>
5.1196

> <Gold.PLP.ligand.clash>
0.0000

> <Gold.PLP.ligand.torsion>
0.2490

> <Gold.PLP.Chemscore.Hbond>
5.6800

> <Gold.PLP.Chemscore.CHOScore>
0.8603

> <Gold.PLP.Chemscore.Metal>
0.0000

> <Gold.Chemscore.Hbonds>
donor molecule, donor type, donor heavy atom, donor atom, acceptor molecule, acceptor atom, score
      L1  H    12    26       P1  7957  1.00
      L1  H    14    27       P1  8028  1.00
      P1  H  7997  8010       L1     1  1.79
      P1  H 10752 10763       L1     5  0.74
      P1  H 10752 10764       L1     3  0.94
      L1  C     6    23       P1  7948  0.48
      L1  C     6    23       P1  7949  0.44

> <Gold.PLP.Chemscore.Internal.Correction>
0.0044

> <Gold.Rescore>
     Score         DG    S(hbond)    S(metal)    S(lipo)     H(rot)  DE(clash)    DE(int)     intcor
      7.94     -12.99       4.46        0.00      25.43       4.04       3.32       1.74       ----

> <Gold.Chemscore.Fitness>
7.9352

> <Gold.Chemscore.DG>
-12.9937

> <Gold.Chemscore.ZeroCoef>
-5.4800

> <Gold.Chemscore.Hbond>
4.4555

> <Gold.Chemscore.Metal>
0.0000

> <Gold.Chemscore.Lipo>
25.4298

> <Gold.Chemscore.Internal_Hbond>
0.0000

> <Gold.Chemscore.DEClash>
3.3227

> <Gold.Chemscore.DEInternal>
1.7358

> <Gold.Chemscore.Rot>
4.0403

> <Gold.Chemscore.Internal.Correction>
   9.000000E+99

> <Gold.Chemscore.Hbonds>
donor molecule, donor type, donor heavy atom, donor atom, acceptor molecule, acceptor atom, score
      L1  H    12    26       P1  7957  0.89
      L1  H    14    27       P1  8028  1.00
      P1  H  7997  8010       L1     1  0.69
      P1  H 10752 10763       L1     5  0.73
      P1  H 10752 10764       L1     3  0.87

> <Gold.Chemscore.Hbond.Weighted>
-14.8815

> <Gold.Chemscore.Metal.Weighted>
-0.0000

> <Gold.Chemscore.Lipo.Weighted>
-2.9753

> <Gold.Chemscore.Internal_Hbond.Weighted>
0.0000

> <Gold.Chemscore.DEClash.Weighted>
3.3227

> <Gold.Chemscore.DEInternal.Weighted>
1.7358

> <Gold.Chemscore.Rot.Weighted>
10.3431

> <Gold.Chemscore.Internal.Correction.Weighted>
   9.000000E+99

> <Gold.Protein.RotatedTorsions>
[ 6907 6896 6895 6894 ] final  114.78 input  -60.11 | X-H torsion
[ 7974 7965 7964 7962 ] final   84.65 input  175.53 | X-H torsion
[ 8008 7997 7996 7995 ] final   20.35 input   59.86 | X-H torsion
[ 10167 10162 10161 10158 ] final   98.53 input  -65.29 | X-H torsion
[ 10718 10713 10712 10709 ] final  105.08 input   66.30 | X-H torsion
[ 10763 10752 10751 10750 ] final   36.35 input  -60.55 | X-H torsion
[ 11005 11000 10999 10996 ] final   98.46 input  -57.11 | X-H torsion

> <Gold.Protein.ActiveResidues>
 VAL166  LYS551  ARG553  GLY616  TRP617  ASP618  TYR619  PRO620  LYS621  CYS622 
 ASP623  PHE694  ASN695  SER759  ASP760  ASP761  ALA762  ILE779  LEU786  VAL792 
 PHE793  MET794  SER795  GLU796  ALA797  LYS798  CYS799  TRP800  GLU811  SER814 

> <Gold.Protein.RotatedAtoms>
  152.4781  133.8188  159.7042 H   0  0  0  0  0  0  0  0  0  0  0  0  # atno 6907 bound_to 6896
  150.8812  133.7360  159.2938 H   0  0  0  0  0  0  0  0  0  0  0  0  # atno 6908 bound_to 6896
  151.4863  135.1058  159.9843 H   0  0  0  0  0  0  0  0  0  0  0  0  # atno 6909 bound_to 6896
  145.5960  139.2345  143.2273 H   0  0  0  0  0  0  0  0  0  0  0  0  # atno 7974 bound_to 7965
  154.9344  140.3044  155.5152 H   0  0  0  0  0  0  0  0  0  0  0  0  # atno 8008 bound_to 7997
  156.3001  140.2348  156.4344 H   0  0  0  0  0  0  0  0  0  0  0  0  # atno 8009 bound_to 7997
  154.8206  140.0423  157.1397 H   0  0  0  0  0  0  0  0  0  0  0  0  # atno 8010 bound_to 7997
  139.7700  144.6925  151.0169 H   0  0  0  0  0  0  0  0  0  0  0  0  # atno 10167 bound_to 10162
  157.6718  131.0819  150.5803 H   0  0  0  0  0  0  0  0  0  0  0  0  # atno 10718 bound_to 10713
  153.0080  135.6308  154.1972 H   0  0  0  0  0  0  0  0  0  0  0  0  # atno 10763 bound_to 10752
  154.1715  135.2818  155.3081 H   0  0  0  0  0  0  0  0  0  0  0  0  # atno 10764 bound_to 10752
  154.5905  135.5619  153.7333 H   0  0  0  0  0  0  0  0  0  0  0  0  # atno 10765 bound_to 10752
  139.8772  134.9050  156.4460 H   0  0  0  0  0  0  0  0  0  0  0  0  # atno 11005 bound_to 11000
  146.1612  140.6785  142.9277 LP  0  0  0  0  0  0  0  0  0  0  0  0  # atno 17320 bound_to 7965
  144.7330  140.4728  143.6924 LP  0  0  0  0  0  0  0  0  0  0  0  0  # atno 17321 bound_to 7965
  140.7813  143.4599  151.0292 LP  0  0  0  0  0  0  0  0  0  0  0  0  # atno 17342 bound_to 10162
  139.8283  143.7726  152.3179 LP  0  0  0  0  0  0  0  0  0  0  0  0  # atno 17343 bound_to 10162
  156.6103  130.4378  149.5861 LP  0  0  0  0  0  0  0  0  0  0  0  0  # atno 17370 bound_to 10713
  156.2435  130.6865  151.1578 LP  0  0  0  0  0  0  0  0  0  0  0  0  # atno 17371 bound_to 10713
  140.8966  133.7810  155.9632 LP  0  0  0  0  0  0  0  0  0  0  0  0  # atno 17394 bound_to 11000
  140.8697  134.2742  157.5197 LP  0  0  0  0  0  0  0  0  0  0  0  0  # atno 17395 bound_to 11000

$$$$
