AV-unprocessed.smi:977|AV-procd|sdf|4306|dock4
  -GOLD-   22720 2213D 1   1.00000     0.00000
 Structure written by MMmdl.
 37 38  0  0  0  0  0  0  0  0  1 V2000
  147.2014  141.5221  153.6232 C   0  0  0  0  0  0  0  0  0  0  0  0
  148.4398  140.8021  154.0803 C   0  0  0  0  0  0  0  0  0  0  0  0
  149.3504  141.4643  154.7788 N   0  0  0  0  0  0  0  0  0  0  0  0
  150.4124  140.5743  155.0030 O   0  0  0  0  0  0  0  0  0  0  0  0
  150.1141  139.3798  154.4282 C   0  0  0  0  0  0  0  0  0  0  0  0
  151.1344  138.2981  154.5428 C   0  0  0  0  0  0  0  0  0  0  0  0
  148.8760  139.4623  153.8630 C   0  0  0  0  0  0  0  0  0  0  0  0
  148.2405  138.4163  153.1489 N   0  0  0  0  0  0  0  0  0  0  0  0
  146.9233  138.1671  153.1015 C   0  0  0  0  0  0  0  0  0  0  0  0
  146.0696  138.7872  153.7354 O   0  0  0  0  0  0  0  0  0  0  0  0
  146.6480  137.1369  152.2887 N   0  0  0  0  0  0  0  0  0  0  0  0
  145.3127  136.6125  152.0085 C   0  0  2  0  0  0  0  0  0  0  0  0
  144.6514  136.2274  153.3411 C   0  0  0  0  0  0  0  0  0  0  0  0
  145.4011  135.4191  151.0316 C   0  0  1  0  0  0  0  0  0  0  0  0
  146.1647  134.2090  151.5798 C   0  0  0  0  0  0  0  0  0  0  0  0
  145.5137  133.0595  150.8462 C   0  0  0  0  0  0  0  0  0  0  0  0
  144.0578  133.5047  150.8305 C   0  0  0  0  0  0  0  0  0  0  0  0
  144.0999  134.9221  150.7127 O   0  0  0  0  0  0  0  0  0  0  0  0
  146.8604  141.1473  152.6580 H   0  0  0  0  0  0  0  0  0  0  0  0
  147.3803  142.5918  153.5102 H   0  0  0  0  0  0  0  0  0  0  0  0
  146.3887  141.3968  154.3387 H   0  0  0  0  0  0  0  0  0  0  0  0
  150.8769  137.4465  153.9129 H   0  0  0  0  0  0  0  0  0  0  0  0
  151.2084  137.9472  155.5719 H   0  0  0  0  0  0  0  0  0  0  0  0
  152.1164  138.6589  154.2364 H   0  0  0  0  0  0  0  0  0  0  0  0
  148.8495  137.7530  152.6928 H   0  0  0  0  0  0  0  0  0  0  0  0
  147.4182  136.6884  151.8150 H   0  0  0  0  0  0  0  0  0  0  0  0
  144.7054  137.3964  151.5524 H   0  0  0  0  0  0  0  0  0  0  0  0
  143.6265  135.8868  153.1938 H   0  0  0  0  0  0  0  0  0  0  0  0
  144.6143  137.0794  154.0208 H   0  0  0  0  0  0  0  0  0  0  0  0
  145.1996  135.4272  153.8397 H   0  0  0  0  0  0  0  0  0  0  0  0
  145.8631  135.7347  150.0947 H   0  0  0  0  0  0  0  0  0  0  0  0
  147.2395  134.2704  151.4070 H   0  0  0  0  0  0  0  0  0  0  0  0
  145.9975  134.1007  152.6525 H   0  0  0  0  0  0  0  0  0  0  0  0
  145.9013  132.9925  149.8288 H   0  0  0  0  0  0  0  0  0  0  0  0
  145.6604  132.0969  151.3366 H   0  0  0  0  0  0  0  0  0  0  0  0
  143.4868  133.0516  150.0199 H   0  0  0  0  0  0  0  0  0  0  0  0
  143.5721  133.2498  151.7731 H   0  0  0  0  0  0  0  0  0  0  0  0
  1  2  1  0  0  0  0
  1 19  1  0  0  0  0
  1 20  1  0  0  0  0
  1 21  1  0  0  0  0
  2  7  1  0  0  0  0
  2  3  2  0  0  0  0
  3  4  1  0  0  0  0
  4  5  1  0  0  0  0
  5  6  1  0  0  0  0
  5  7  2  0  0  0  0
  6 22  1  0  0  0  0
  6 23  1  0  0  0  0
  6 24  1  0  0  0  0
  7  8  1  0  0  0  0
  8  9  1  0  0  0  0
  8 25  1  0  0  0  0
  9 10  2  0  0  0  0
  9 11  1  0  0  0  0
 11 12  1  0  0  0  0
 11 26  1  0  0  0  0
 12 13  1  0  0  0  0
 12 14  1  0  0  0  0
 12 27  1  0  0  0  0
 13 28  1  0  0  0  0
 13 29  1  0  0  0  0
 13 30  1  0  0  0  0
 14 18  1  0  0  0  0
 14 15  1  0  0  0  0
 14 31  1  0  0  0  0
 15 16  1  0  0  0  0
 15 32  1  0  0  0  0
 15 33  1  0  0  0  0
 16 17  1  0  0  0  0
 16 34  1  0  0  0  0
 16 35  1  0  0  0  0
 17 18  1  0  0  0  0
 17 36  1  0  0  0  0
 17 37  1  0  0  0  0
M  END
> <s_m_source_file>
AV-unprocessed.smi

> <i_m_source_file_index>
977

> <i_lp_mmshare_version>
43012

> <i_f3d_flags>
0

> <s_epik_input>
W0NIM11jMW5vYyhbQ0gzXSljMVtOSF1DKD1PKVtOSF1bQ0BIXShbQ0gzXSlbQ0BASF0yW0NIMl1bQ0gyXVtDSDJdTzI=

> <s_epik_cmdline>
J2VwaWtfcHl0aG9uJywgJy1waCcsICc3LjAnLCAnLXRuJywgJzgnLCAnLW1hJywgJzIwMCcsICctbWV0YWxfYmluZGluZycsICctaW1hZScsICc8aW5maWxlLm1hZT4nLCAnLW9tYWUnLCAnPG91dGZpbGUubWFlPic=

> <r_lp_tautomer_probability>
1

> <r_epik_Ionization_Penalty>
3.41601e-05

> <r_epik_Ionization_Penalty_Charging>
0

> <r_epik_Ionization_Penalty_Neutral>
3.41601e-05

> <r_epik_State_Penalty>
-0

> <r_epik_Charging_Adjusted_Penalty>
0

> <i_epik_Tot_Q>
0

> <i_epik_Tot_abs_Q>
0

> <r_epik_Metal_State_Penalty>
-0

> <b_epik_Metal_Only>
0

> <s_lp_Force_Field>
OPLS_2005

> <r_lp_Energy>
19.7512

> <b_lp_Chiralities_Consistent>
1

> <s_lp_Variant>
AV-unprocessed.smi:977-3

> <Gold.Version>
5.8.1

> <Gold.Id.Protein>
6NUR|6NUR_protein|mol2

> <Gold.PLP.Fitness>
38.1116

> <Gold.PLP.PLP>
-31.6727

> <Gold.PLP.part.hbond>
-3.8590

> <Gold.PLP.part.metal>
0.0000

> <Gold.PLP.part.buried>
-3.6048

> <Gold.PLP.part.nonpolar>
-25.3053

> <Gold.PLP.part.repulsive>
0.7297

> <Gold.PLP.ligand.clash>
0.0000

> <Gold.PLP.ligand.torsion>
0.2558

> <Gold.PLP.Chemscore.Hbond>
2.2240

> <Gold.PLP.Chemscore.CHOScore>
0.0000

> <Gold.PLP.Chemscore.Metal>
0.0000

> <Gold.Chemscore.Hbonds>
donor molecule, donor type, donor heavy atom, donor atom, acceptor molecule, acceptor atom, score
      L1  H     8    25       P1  7948  0.94
      L1  H    11    26       P1  7948  0.99
      P1  H  7989  7998       L1     4  0.34

> <Gold.PLP.Chemscore.Internal.Correction>
0.2786

> <Gold.Rescore>
     Score         DG    S(hbond)    S(metal)    S(lipo)     H(rot)  DE(clash)    DE(int)     intcor
     14.86     -16.42       1.89        0.00      66.12       1.22       0.01       1.55       ----

> <Gold.Chemscore.Fitness>
14.8596

> <Gold.Chemscore.DG>
-16.4184

> <Gold.Chemscore.ZeroCoef>
-5.4800

> <Gold.Chemscore.Hbond>
1.8938

> <Gold.Chemscore.Metal>
0.0000

> <Gold.Chemscore.Lipo>
66.1233

> <Gold.Chemscore.Internal_Hbond>
0.0000

> <Gold.Chemscore.DEClash>
0.0077

> <Gold.Chemscore.DEInternal>
1.5510

> <Gold.Chemscore.Rot>
1.2200

> <Gold.Chemscore.Internal.Correction>
   9.000000E+99

> <Gold.Chemscore.Hbonds>
donor molecule, donor type, donor heavy atom, donor atom, acceptor molecule, acceptor atom, score
      L1  H     8    25       P1  7948  0.91
      L1  H    11    26       P1  7948  0.91

> <Gold.Chemscore.Hbond.Weighted>
-6.3251

> <Gold.Chemscore.Metal.Weighted>
-0.0000

> <Gold.Chemscore.Lipo.Weighted>
-7.7364

> <Gold.Chemscore.Internal_Hbond.Weighted>
0.0000

> <Gold.Chemscore.DEClash.Weighted>
0.0077

> <Gold.Chemscore.DEInternal.Weighted>
1.5510

> <Gold.Chemscore.Rot.Weighted>
3.1232

> <Gold.Chemscore.Internal.Correction.Weighted>
   9.000000E+99

> <Gold.Protein.RotatedTorsions>
[ 6907 6896 6895 6894 ] final  175.09 input  -60.11 | X-H torsion
[ 7974 7965 7964 7962 ] final   47.02 input  175.53 | X-H torsion
[ 8008 7997 7996 7995 ] final  178.77 input   59.86 | X-H torsion
[ 10167 10162 10161 10158 ] final  -62.98 input  -65.29 | X-H torsion
[ 10718 10713 10712 10709 ] final   33.86 input   66.30 | X-H torsion
[ 10763 10752 10751 10750 ] final   92.63 input  -60.55 | X-H torsion
[ 11005 11000 10999 10996 ] final  145.12 input  -57.11 | X-H torsion

> <Gold.Protein.ActiveResidues>
 VAL166  LYS551  ARG553  GLY616  TRP617  ASP618  TYR619  PRO620  LYS621  CYS622 
 ASP623  PHE694  ASN695  SER759  ASP760  ASP761  ALA762  ILE779  LEU786  VAL792 
 PHE793  MET794  SER795  GLU796  ALA797  LYS798  CYS799  TRP800  GLU811  SER814 

> <Gold.Protein.RotatedAtoms>
  151.7417  133.3322  159.3367 H   0  0  0  0  0  0  0  0  0  0  0  0  # atno 6907 bound_to 6896
  150.7570  134.6272  159.6176 H   0  0  0  0  0  0  0  0  0  0  0  0  # atno 6908 bound_to 6896
  152.3526  134.6987  160.0283 H   0  0  0  0  0  0  0  0  0  0  0  0  # atno 6909 bound_to 6896
  146.0336  139.4794  142.9822 H   0  0  0  0  0  0  0  0  0  0  0  0  # atno 7974 bound_to 7965
  156.0510  140.1325  157.0050 H   0  0  0  0  0  0  0  0  0  0  0  0  # atno 8008 bound_to 7997
  154.4435  140.1011  156.6446 H   0  0  0  0  0  0  0  0  0  0  0  0  # atno 8009 bound_to 7997
  155.5524  140.3463  155.4474 H   0  0  0  0  0  0  0  0  0  0  0  0  # atno 8010 bound_to 7997
  140.5902  143.2340  151.6156 H   0  0  0  0  0  0  0  0  0  0  0  0  # atno 10167 bound_to 10162
  157.3031  130.7361  149.6679 H   0  0  0  0  0  0  0  0  0  0  0  0  # atno 10718 bound_to 10713
  153.2213  135.4354  155.0492 H   0  0  0  0  0  0  0  0  0  0  0  0  # atno 10763 bound_to 10752
  154.8251  135.3357  154.6923 H   0  0  0  0  0  0  0  0  0  0  0  0  # atno 10764 bound_to 10752
  153.7354  135.7008  153.5035 H   0  0  0  0  0  0  0  0  0  0  0  0  # atno 10765 bound_to 10752
  140.0687  134.9164  157.1308 H   0  0  0  0  0  0  0  0  0  0  0  0  # atno 11005 bound_to 11000
  145.7000  141.0139  143.1509 LP  0  0  0  0  0  0  0  0  0  0  0  0  # atno 17320 bound_to 7965
  144.7042  139.8633  143.7435 LP  0  0  0  0  0  0  0  0  0  0  0  0  # atno 17321 bound_to 7965
  139.5222  144.3168  152.0945 LP  0  0  0  0  0  0  0  0  0  0  0  0  # atno 17342 bound_to 10162
  140.2332  144.4347  150.6291 LP  0  0  0  0  0  0  0  0  0  0  0  0  # atno 17343 bound_to 10162
  155.9673  130.4274  150.4741 LP  0  0  0  0  0  0  0  0  0  0  0  0  # atno 17370 bound_to 10713
  157.2726  131.0590  151.2250 LP  0  0  0  0  0  0  0  0  0  0  0  0  # atno 17371 bound_to 10713
  140.3660  134.2442  155.7182 LP  0  0  0  0  0  0  0  0  0  0  0  0  # atno 17394 bound_to 11000
  141.2003  133.7991  157.0496 LP  0  0  0  0  0  0  0  0  0  0  0  0  # atno 17395 bound_to 11000

$$$$
