AV-unprocessed.smi:136|AV-procd|sdf|1171|dock8
  -GOLD-   2262018313D 1   1.00000     0.00000
 Structure written by MMmdl.
 54 58  0  0  0  0  0  0  0  0  1 V2000
  145.8432  135.5763  154.3119 O   0  0  0  0  0  0  0  0  0  0  0  0
  145.0329  136.5052  154.3143 C   0  0  0  0  0  0  0  0  0  0  0  0
  145.4964  137.9260  154.7005 C   0  0  0  0  0  0  0  0  0  0  0  0
  146.8368  137.9554  155.3269 N   0  0  0  0  0  0  0  0  0  0  0  0
  146.9530  137.6040  156.6949 C   0  0  0  0  0  0  0  0  0  0  0  0
  145.9688  137.2626  157.3524 O   0  0  0  0  0  0  0  0  0  0  0  0
  148.2975  137.6861  157.2543 C   0  0  0  0  0  0  0  0  0  0  0  0
  148.5017  137.3692  158.5443 F   0  0  0  0  0  0  0  0  0  0  0  0
  149.3429  138.0782  156.4975 C   0  0  0  0  0  0  0  0  0  0  0  0
  149.2140  138.4223  155.1636 N   0  0  0  0  0  0  0  0  0  0  0  0
  150.3964  138.8678  154.3300 C   0  0  2  0  0  0  0  0  0  0  0  0
  151.4790  137.7734  154.3004 C   0  0  0  0  0  0  0  0  0  0  0  0
  152.7354  138.5396  154.6619 C   0  0  0  0  0  0  0  0  0  0  0  0
  152.1847  139.6422  155.5537 C   0  0  0  0  0  0  0  0  0  0  0  0
  150.9773  140.0076  154.8980 O   0  0  0  0  0  0  0  0  0  0  0  0
  147.9436  138.3722  154.5499 C   0  0  0  0  0  0  0  0  0  0  0  0
  147.8062  138.6884  153.3659 O   0  0  0  0  0  0  0  0  0  0  0  0
  143.7331  136.3184  153.9940 N   0  0  0  0  0  0  0  0  0  0  0  0
  142.7911  137.2895  154.1010 N   0  0  0  0  0  0  0  0  0  0  0  0
  141.6360  136.8023  153.8339 C   0  0  0  0  0  0  0  0  0  0  0  0
  140.3757  137.5778  153.8397 C   0  0  0  0  0  0  0  0  0  0  0  0
  139.1413  136.8973  153.9456 C   0  0  0  0  0  0  0  0  0  0  0  0
  137.9419  137.6361  153.9585 C   0  0  0  0  0  0  0  0  0  0  0  0
  137.9747  139.0420  153.8646 C   0  0  0  0  0  0  0  0  0  0  0  0
  136.5024  139.9411  153.8830 Cl  0  0  0  0  0  0  0  0  0  0  0  0
  139.2084  139.7151  153.7565 C   0  0  0  0  0  0  0  0  0  0  0  0
  140.4144  138.9873  153.7434 C   0  0  0  0  0  0  0  0  0  0  0  0
  141.6588  135.3504  153.4931 C   0  0  0  0  0  0  0  0  0  0  0  0
  143.1541  135.0357  153.5755 C   0  0  1  0  0  0  0  0  0  0  0  0
  143.7189  134.5285  152.2809 C   0  0  0  0  0  0  0  0  0  0  0  0
  143.5275  133.3834  151.5586 C   0  0  0  0  0  0  0  0  0  0  0  0
  144.3510  133.4943  150.4043 C   0  0  0  0  0  0  0  0  0  0  0  0
  144.9793  134.7028  150.5042 C   0  0  0  0  0  0  0  0  0  0  0  0
  144.6011  135.3486  151.6399 O   0  0  0  0  0  0  0  0  0  0  0  0
  145.4815  138.5581  153.8110 H   0  0  0  0  0  0  0  0  0  0  0  0
  144.7465  138.3701  155.3568 H   0  0  0  0  0  0  0  0  0  0  0  0
  150.3106  138.1211  156.9730 H   0  0  0  0  0  0  0  0  0  0  0  0
  149.9918  139.1241  153.3492 H   0  0  0  0  0  0  0  0  0  0  0  0
  151.2678  137.0134  155.0546 H   0  0  0  0  0  0  0  0  0  0  0  0
  151.5294  137.2971  153.3209 H   0  0  0  0  0  0  0  0  0  0  0  0
  153.4848  137.9228  155.1585 H   0  0  0  0  0  0  0  0  0  0  0  0
  153.1836  138.9716  153.7662 H   0  0  0  0  0  0  0  0  0  0  0  0
  151.9706  139.2611  156.5530 H   0  0  0  0  0  0  0  0  0  0  0  0
  152.8634  140.4901  155.6459 H   0  0  0  0  0  0  0  0  0  0  0  0
  139.0951  135.8204  154.0203 H   0  0  0  0  0  0  0  0  0  0  0  0
  136.9957  137.1220  154.0423 H   0  0  0  0  0  0  0  0  0  0  0  0
  139.2315  140.7926  153.6844 H   0  0  0  0  0  0  0  0  0  0  0  0
  141.3458  139.5271  153.6600 H   0  0  0  0  0  0  0  0  0  0  0  0
  141.0864  134.7652  154.2136 H   0  0  0  0  0  0  0  0  0  0  0  0
  141.2525  135.1744  152.4959 H   0  0  0  0  0  0  0  0  0  0  0  0
  143.3282  134.2996  154.3623 H   0  0  0  0  0  0  0  0  0  0  0  0
  142.8779  132.5648  151.8308 H   0  0  0  0  0  0  0  0  0  0  0  0
  144.4687  132.7807  149.6021 H   0  0  0  0  0  0  0  0  0  0  0  0
  145.6896  135.2331  149.8874 H   0  0  0  0  0  0  0  0  0  0  0  0
  1  2  2  0  0  0  0
  2  3  1  0  0  0  0
  2 18  1  0  0  0  0
  3  4  1  0  0  0  0
  3 35  1  0  0  0  0
  3 36  1  0  0  0  0
  4 16  1  0  0  0  0
  4  5  1  0  0  0  0
  5  6  2  0  0  0  0
  5  7  1  0  0  0  0
  7  8  1  0  0  0  0
  7  9  2  0  0  0  0
  9 10  1  0  0  0  0
  9 37  1  0  0  0  0
 10 11  1  0  0  0  0
 10 16  1  0  0  0  0
 11 15  1  0  0  0  0
 11 12  1  0  0  0  0
 11 38  1  0  0  0  0
 12 13  1  0  0  0  0
 12 39  1  0  0  0  0
 12 40  1  0  0  0  0
 13 14  1  0  0  0  0
 13 41  1  0  0  0  0
 13 42  1  0  0  0  0
 14 15  1  0  0  0  0
 14 43  1  0  0  0  0
 14 44  1  0  0  0  0
 16 17  2  0  0  0  0
 18 29  1  0  0  0  0
 18 19  1  0  0  0  0
 19 20  2  0  0  0  0
 20 21  1  0  0  0  0
 20 28  1  0  0  0  0
 21 27  1  0  0  0  0
 21 22  2  0  0  0  0
 22 23  1  0  0  0  0
 22 45  1  0  0  0  0
 23 24  2  0  0  0  0
 23 46  1  0  0  0  0
 24 25  1  0  0  0  0
 24 26  1  0  0  0  0
 26 27  2  0  0  0  0
 26 47  1  0  0  0  0
 27 48  1  0  0  0  0
 28 29  1  0  0  0  0
 28 49  1  0  0  0  0
 28 50  1  0  0  0  0
 29 30  1  0  0  0  0
 29 51  1  0  0  0  0
 30 34  1  0  0  0  0
 30 31  2  0  0  0  0
 31 32  1  0  0  0  0
 31 52  1  0  0  0  0
 32 33  2  0  0  0  0
 32 53  1  0  0  0  0
 33 34  1  0  0  0  0
 33 54  1  0  0  0  0
M  END
> <s_m_source_file>
AV-unprocessed.smi

> <i_m_source_file_index>
136

> <i_lp_mmshare_version>
43012

> <i_f3d_flags>
0

> <s_epik_input>
bzFbY0hdW2NIXVtjSF1jMVtDQEBIXTJbQ0gyXUMoYzNbY0hdW2NIXWMoQ2wpW2NIXVtjSF0zKT1OTjJDKD1PKVtDSDJdbjRjKD1PKWMoRilbY0hdbihjND1PKVtDQEBIXTVbQ0gyXVtDSDJdW0NIMl1PNQ==

> <s_epik_cmdline>
J2VwaWtfcHl0aG9uJywgJy1waCcsICc3LjAnLCAnLXRuJywgJzgnLCAnLW1hJywgJzIwMCcsICctbWV0YWxfYmluZGluZycsICctaW1hZScsICc8aW5maWxlLm1hZT4nLCAnLW9tYWUnLCAnPG91dGZpbGUubWFlPic=

> <r_lp_tautomer_probability>
1

> <r_epik_Ionization_Penalty>
2.55467e-08

> <r_epik_Ionization_Penalty_Charging>
4.85705e-09

> <r_epik_Ionization_Penalty_Neutral>
2.06897e-08

> <r_epik_State_Penalty>
-0

> <r_epik_Charging_Adjusted_Penalty>
4.85705e-09

> <i_epik_Tot_Q>
0

> <i_epik_Tot_abs_Q>
0

> <r_epik_Metal_State_Penalty>
-0

> <b_epik_Metal_Only>
0

> <s_epik_Chemistry_Notes>
This compound has an imine and may undergo hydrolysis. This compound contains an acetal/aminal-like group ( X-CH(R)-Y where X, Y are N, S, or O) that may be acid/base labile, releasing an aldehyde.

> <s_lp_Force_Field>
OPLS_2005

> <r_lp_Energy>
40.8333

> <b_lp_Chiralities_Consistent>
1

> <s_lp_Variant>
AV-unprocessed.smi:136-1

> <Gold.Version>
5.8.1

> <Gold.Id.Protein>
6NUR|6NUR_protein|mol2

> <Gold.PLP.Fitness>
54.2859

> <Gold.PLP.PLP>
-49.7747

> <Gold.PLP.part.hbond>
-1.0000

> <Gold.PLP.part.metal>
0.0000

> <Gold.PLP.part.buried>
-8.6378

> <Gold.PLP.part.nonpolar>
-41.5635

> <Gold.PLP.part.repulsive>
0.6647

> <Gold.PLP.ligand.clash>
0.0000

> <Gold.PLP.ligand.torsion>
0.6567

> <Gold.PLP.Chemscore.Hbond>
1.0000

> <Gold.PLP.Chemscore.CHOScore>
0.9228

> <Gold.PLP.Chemscore.Metal>
0.0000

> <Gold.Chemscore.Hbonds>
donor molecule, donor type, donor heavy atom, donor atom, acceptor molecule, acceptor atom, score
      P1  H  7989  7998       L1    15  1.00
      L1  C    33    54       P1  7921  0.94

> <Gold.PLP.Chemscore.Internal.Correction>
0.0560

> <Gold.Rescore>
     Score         DG    S(hbond)    S(metal)    S(lipo)     H(rot)  DE(clash)    DE(int)     intcor
     12.11     -15.77       0.49        0.00     113.48       1.81       0.51       3.15       ----

> <Gold.Chemscore.Fitness>
12.1120

> <Gold.Chemscore.DG>
-15.7709

> <Gold.Chemscore.ZeroCoef>
-5.4800

> <Gold.Chemscore.Hbond>
0.4900

> <Gold.Chemscore.Metal>
0.0000

> <Gold.Chemscore.Lipo>
113.4771

> <Gold.Chemscore.Internal_Hbond>
0.0000

> <Gold.Chemscore.DEClash>
0.5107

> <Gold.Chemscore.DEInternal>
3.1482

> <Gold.Chemscore.Rot>
1.8056

> <Gold.Chemscore.Internal.Correction>
   9.000000E+99

> <Gold.Chemscore.Hbonds>
donor molecule, donor type, donor heavy atom, donor atom, acceptor molecule, acceptor atom, score
      P1  H  7989  7998       L1    15  0.10

> <Gold.Chemscore.Hbond.Weighted>
-1.6364

> <Gold.Chemscore.Metal.Weighted>
-0.0000

> <Gold.Chemscore.Lipo.Weighted>
-13.2768

> <Gold.Chemscore.Internal_Hbond.Weighted>
0.0000

> <Gold.Chemscore.DEClash.Weighted>
0.5107

> <Gold.Chemscore.DEInternal.Weighted>
3.1482

> <Gold.Chemscore.Rot.Weighted>
4.6223

> <Gold.Chemscore.Internal.Correction.Weighted>
   9.000000E+99

> <Gold.Protein.RotatedTorsions>
[ 6907 6896 6895 6894 ] final  132.43 input  -60.11 | X-H torsion
[ 7974 7965 7964 7962 ] final  104.67 input  175.53 | X-H torsion
[ 8008 7997 7996 7995 ] final  108.22 input   59.86 | X-H torsion
[ 10167 10162 10161 10158 ] final  -36.55 input  -65.29 | X-H torsion
[ 10718 10713 10712 10709 ] final -133.67 input   66.30 | X-H torsion
[ 10763 10752 10751 10750 ] final   49.75 input  -60.55 | X-H torsion
[ 11005 11000 10999 10996 ] final -100.99 input  -57.11 | X-H torsion

> <Gold.Protein.ActiveResidues>
 VAL166  LYS551  ARG553  GLY616  TRP617  ASP618  TYR619  PRO620  LYS621  CYS622 
 ASP623  PHE694  ASN695  SER759  ASP760  ASP761  ALA762  ILE779  LEU786  VAL792 
 PHE793  MET794  SER795  GLU796  ALA797  LYS798  CYS799  TRP800  GLU811  SER814 

> <Gold.Protein.RotatedAtoms>
  152.3325  133.5974  159.5819 H   0  0  0  0  0  0  0  0  0  0  0  0  # atno 6907 bound_to 6896
  150.7431  133.9846  159.3596 H   0  0  0  0  0  0  0  0  0  0  0  0  # atno 6908 bound_to 6896
  151.7720  135.0784  160.0412 H   0  0  0  0  0  0  0  0  0  0  0  0  # atno 6909 bound_to 6896
  145.3297  139.2490  143.3667 H   0  0  0  0  0  0  0  0  0  0  0  0  # atno 7974 bound_to 7965
  156.1886  140.3080  155.9287 H   0  0  0  0  0  0  0  0  0  0  0  0  # atno 8008 bound_to 7997
  155.3225  140.0456  157.3057 H   0  0  0  0  0  0  0  0  0  0  0  0  # atno 8009 bound_to 7997
  154.5425  140.2266  155.8627 H   0  0  0  0  0  0  0  0  0  0  0  0  # atno 8010 bound_to 7997
  140.7140  143.3401  151.2376 H   0  0  0  0  0  0  0  0  0  0  0  0  # atno 10167 bound_to 10162
  156.2474  130.7132  151.1018 H   0  0  0  0  0  0  0  0  0  0  0  0  # atno 10718 bound_to 10713
  152.9786  135.5901  154.4140 H   0  0  0  0  0  0  0  0  0  0  0  0  # atno 10763 bound_to 10752
  154.3772  135.2767  155.2234 H   0  0  0  0  0  0  0  0  0  0  0  0  # atno 10764 bound_to 10752
  154.4163  135.6069  153.6038 H   0  0  0  0  0  0  0  0  0  0  0  0  # atno 10765 bound_to 10752
  141.1249  133.8442  157.1173 H   0  0  0  0  0  0  0  0  0  0  0  0  # atno 11005 bound_to 11000
  146.3050  140.3873  142.8690 LP  0  0  0  0  0  0  0  0  0  0  0  0  # atno 17320 bound_to 7965
  144.8873  140.7479  143.5948 LP  0  0  0  0  0  0  0  0  0  0  0  0  # atno 17321 bound_to 7965
  139.6906  143.9698  152.2857 LP  0  0  0  0  0  0  0  0  0  0  0  0  # atno 17342 bound_to 10162
  139.9358  144.6712  150.8316 LP  0  0  0  0  0  0  0  0  0  0  0  0  # atno 17343 bound_to 10162
  157.7200  131.0687  150.6173 LP  0  0  0  0  0  0  0  0  0  0  0  0  # atno 17370 bound_to 10713
  156.6250  130.4416  149.5808 LP  0  0  0  0  0  0  0  0  0  0  0  0  # atno 17371 bound_to 10713
  140.0238  134.9933  157.0645 LP  0  0  0  0  0  0  0  0  0  0  0  0  # atno 17394 bound_to 11000
  140.4396  134.1695  155.7173 LP  0  0  0  0  0  0  0  0  0  0  0  0  # atno 17395 bound_to 11000

$$$$
