AV-unprocessed.smi:1813|AV-procd|sdf|7344|dock6
  -GOLD-   22720 9 03D 1   1.00000     0.00000
 Structure written by MMmdl.
 39 40  0  0  0  0  0  0  0  0  3 V2000
  142.2943  137.4342  153.2638 C   0  0  0  0  0  0  0  0  0  0  0  0
  143.6429  137.4947  152.7125 N   0  5  0  0  0  0  0  0  0  0  0  0
  144.7683  137.4188  153.4723 C   0  0  0  0  0  0  0  0  0  0  0  0
  144.9378  137.0017  154.6228 O   0  0  0  0  0  0  0  0  0  0  0  0
  145.9922  137.9248  152.7005 C   0  0  0  0  0  0  0  0  0  0  0  0
  146.6865  138.9753  153.4857 N   0  3  2  0  0  0  0  0  0  0  0  0
  147.1066  140.1262  152.6472 C   0  0  0  0  0  0  0  0  0  0  0  0
  147.6758  141.2625  153.5127 C   0  0  0  0  0  0  0  0  0  0  0  0
  148.8467  140.7720  154.3796 C   0  0  1  0  0  0  0  0  0  0  0  0
  149.2952  141.8487  155.2576 N   0  0  0  0  0  0  0  0  0  0  0  0
  150.2050  141.7222  156.2344 C   0  0  0  0  0  0  0  0  0  0  0  0
  150.7741  140.6626  156.4988 O   0  0  0  0  0  0  0  0  0  0  0  0
  150.3986  142.8898  156.8722 N   0  0  0  0  0  0  0  0  0  0  0  0
  151.2920  143.1698  157.9392 C   0  0  0  0  0  0  0  0  0  0  0  0
  151.6020  144.4015  158.3604 N   0  0  0  0  0  0  0  0  0  0  0  0
  152.5006  144.3786  159.4300 C   0  0  0  0  0  0  0  0  0  0  0  0
  152.8673  143.1122  159.8122 C   0  0  0  0  0  0  0  0  0  0  0  0
  152.0933  141.8903  158.8390 S   0  0  0  0  0  0  0  0  0  0  0  0
  148.4043  139.5478  155.2019 C   0  0  0  0  0  0  0  0  0  0  0  0
  147.8172  138.4515  154.2983 C   0  0  0  0  0  0  0  0  0  0  0  0
  141.5359  137.6003  152.4991 H   0  0  0  0  0  0  0  0  0  0  0  0
  142.1234  138.1842  154.0365 H   0  0  0  0  0  0  0  0  0  0  0  0
  142.0741  136.4643  153.7110 H   0  0  0  0  0  0  0  0  0  0  0  0
  146.6855  137.1254  152.4289 H   0  0  0  0  0  0  0  0  0  0  0  0
  145.6228  138.3419  151.7625 H   0  0  0  0  0  0  0  0  0  0  0  0
  147.8493  139.7961  151.9190 H   0  0  0  0  0  0  0  0  0  0  0  0
  146.2527  140.5025  152.0827 H   0  0  0  0  0  0  0  0  0  0  0  0
  148.0015  142.0843  152.8740 H   0  0  0  0  0  0  0  0  0  0  0  0
  146.8838  141.6606  154.1490 H   0  0  0  0  0  0  0  0  0  0  0  0
  149.6645  140.4805  153.7173 H   0  0  0  0  0  0  0  0  0  0  0  0
  148.8810  142.7576  155.1108 H   0  0  0  0  0  0  0  0  0  0  0  0
  149.8482  143.6735  156.5533 H   0  0  0  0  0  0  0  0  0  0  0  0
  152.8276  145.3133  159.8611 H   0  0  0  0  0  0  0  0  0  0  0  0
  153.5421  142.8254  160.6049 H   0  0  0  0  0  0  0  0  0  0  0  0
  149.2481  139.1451  155.7636 H   0  0  0  0  0  0  0  0  0  0  0  0
  147.6571  139.8452  155.9395 H   0  0  0  0  0  0  0  0  0  0  0  0
  147.4841  137.6222  154.9224 H   0  0  0  0  0  0  0  0  0  0  0  0
  148.5894  138.0558  153.6367 H   0  0  0  0  0  0  0  0  0  0  0  0
  145.9982  139.3310  154.1339 H   0  0  0  0  0  0  0  0  0  0  0  0
  1  2  1  0  0  0  0
  1 21  1  0  0  0  0
  1 22  1  0  0  0  0
  1 23  1  0  0  0  0
  2  3  1  0  0  0  0
  3  4  2  0  0  0  0
  3  5  1  0  0  0  0
  5  6  1  0  0  0  0
  5 24  1  0  0  0  0
  5 25  1  0  0  0  0
  6 20  1  0  0  0  0
  6  7  1  0  0  0  0
  6 39  1  0  0  0  0
  7  8  1  0  0  0  0
  7 26  1  0  0  0  0
  7 27  1  0  0  0  0
  8  9  1  0  0  0  0
  8 28  1  0  0  0  0
  8 29  1  0  0  0  0
  9 10  1  0  0  0  0
  9 19  1  0  0  0  0
  9 30  1  0  0  0  0
 10 11  1  0  0  0  0
 10 31  1  0  0  0  0
 11 12  2  0  0  0  0
 11 13  1  0  0  0  0
 13 14  1  0  0  0  0
 13 32  1  0  0  0  0
 14 18  1  0  0  0  0
 14 15  2  0  0  0  0
 15 16  1  0  0  0  0
 16 17  2  0  0  0  0
 16 33  1  0  0  0  0
 17 18  1  0  0  0  0
 17 34  1  0  0  0  0
 19 20  1  0  0  0  0
 19 35  1  0  0  0  0
 19 36  1  0  0  0  0
 20 37  1  0  0  0  0
 20 38  1  0  0  0  0
M  CHG  1   2  -1
M  CHG  1   6   1
M  END
> <s_m_source_file>
AV-unprocessed.smi

> <i_m_source_file_index>
1813

> <i_lp_mmshare_version>
43012

> <i_f3d_flags>
0

> <s_epik_input>
W0NIM11bTkhdQyg9TylbQ0gyXU4xW0NIMl1bQ0gyXVtDSF0oW0NIMl1bQ0gyXTEpW05IXUMoPU8pW05IXWMybltjSF1bY0hdczI=

> <s_epik_cmdline>
J2VwaWtfcHl0aG9uJywgJy1waCcsICc3LjAnLCAnLXRuJywgJzgnLCAnLW1hJywgJzIwMCcsICctbWV0YWxfYmluZGluZycsICctaW1hZScsICc8aW5maWxlLm1hZT4nLCAnLW9tYWUnLCAnPG91dGZpbGUubWFlPic=

> <r_lp_tautomer_probability>
0.999

> <r_epik_Ionization_Penalty>
6.14232

> <r_epik_Ionization_Penalty_Charging>
6.14218

> <r_epik_Ionization_Penalty_Neutral>
0.000139308

> <r_epik_State_Penalty>
6.98503

> <r_epik_Charging_Adjusted_Penalty>
13.1272

> <i_epik_Tot_Q>
0

> <i_epik_Tot_abs_Q>
2

> <r_epik_Metal_State_Penalty>
2.95036

> <b_epik_Metal_Only>
1

> <s_lp_Force_Field>
OPLS_2005

> <r_lp_Energy>
7.46639

> <b_lp_Chiralities_Consistent>
1

> <s_lp_Variant>
AV-unprocessed.smi:1813-5

> <Gold.Version>
5.8.1

> <Gold.Id.Protein>
6NUR|6NUR_protein|mol2

> <Gold.PLP.Fitness>
37.1481

> <Gold.PLP.PLP>
-32.7355

> <Gold.PLP.part.hbond>
-2.0000

> <Gold.PLP.part.metal>
0.0000

> <Gold.PLP.part.buried>
-5.4873

> <Gold.PLP.part.nonpolar>
-27.2581

> <Gold.PLP.part.repulsive>
1.8646

> <Gold.PLP.ligand.clash>
0.0000

> <Gold.PLP.ligand.torsion>
0.7460

> <Gold.PLP.Chemscore.Hbond>
1.9440

> <Gold.PLP.Chemscore.CHOScore>
0.0000

> <Gold.PLP.Chemscore.Metal>
0.0000

> <Gold.Chemscore.Hbonds>
donor molecule, donor type, donor heavy atom, donor atom, acceptor molecule, acceptor atom, score
      L1  H    10    31       P1  8028  0.94
      L1  H    13    32       P1  8028  1.00

> <Gold.PLP.Chemscore.Internal.Correction>
0.0726

> <Gold.Rescore>
     Score         DG    S(hbond)    S(metal)    S(lipo)     H(rot)  DE(clash)    DE(int)     intcor
     13.27     -16.11       1.84        0.00      76.29       1.73       0.33       2.51       ----

> <Gold.Chemscore.Fitness>
13.2716

> <Gold.Chemscore.DG>
-16.1139

> <Gold.Chemscore.ZeroCoef>
-5.4800

> <Gold.Chemscore.Hbond>
1.8383

> <Gold.Chemscore.Metal>
0.0000

> <Gold.Chemscore.Lipo>
76.2900

> <Gold.Chemscore.Internal_Hbond>
0.0000

> <Gold.Chemscore.DEClash>
0.3285

> <Gold.Chemscore.DEInternal>
2.5139

> <Gold.Chemscore.Rot>
1.7312

> <Gold.Chemscore.Internal.Correction>
   9.000000E+99

> <Gold.Chemscore.Hbonds>
donor molecule, donor type, donor heavy atom, donor atom, acceptor molecule, acceptor atom, score
      L1  H    10    31       P1  8028  0.85
      L1  H    13    32       P1  8028  1.00

> <Gold.Chemscore.Hbond.Weighted>
-6.1398

> <Gold.Chemscore.Metal.Weighted>
-0.0000

> <Gold.Chemscore.Lipo.Weighted>
-8.9259

> <Gold.Chemscore.Internal_Hbond.Weighted>
0.0000

> <Gold.Chemscore.DEClash.Weighted>
0.3285

> <Gold.Chemscore.DEInternal.Weighted>
2.5139

> <Gold.Chemscore.Rot.Weighted>
4.4319

> <Gold.Chemscore.Internal.Correction.Weighted>
   9.000000E+99

> <Gold.Protein.RotatedTorsions>
[ 6907 6896 6895 6894 ] final   23.09 input  -60.11 | X-H torsion
[ 7974 7965 7964 7962 ] final   35.81 input  175.53 | X-H torsion
[ 8008 7997 7996 7995 ] final   67.73 input   59.86 | X-H torsion
[ 10167 10162 10161 10158 ] final -167.14 input  -65.29 | X-H torsion
[ 10718 10713 10712 10709 ] final  -62.76 input   66.30 | X-H torsion
[ 10763 10752 10751 10750 ] final   58.01 input  -60.55 | X-H torsion
[ 11005 11000 10999 10996 ] final  -36.65 input  -57.11 | X-H torsion

> <Gold.Protein.ActiveResidues>
 VAL166  LYS551  ARG553  GLY616  TRP617  ASP618  TYR619  PRO620  LYS621  CYS622 
 ASP623  PHE694  ASN695  SER759  ASP760  ASP761  ALA762  ILE779  LEU786  VAL792 
 PHE793  MET794  SER795  GLU796  ALA797  LYS798  CYS799  TRP800  GLU811  SER814 

> <Gold.Protein.RotatedAtoms>
  151.9371  135.0230  160.0533 H   0  0  0  0  0  0  0  0  0  0  0  0  # atno 6907 bound_to 6896
  152.2068  133.4877  159.5097 H   0  0  0  0  0  0  0  0  0  0  0  0  # atno 6908 bound_to 6896
  150.6967  134.1435  159.4156 H   0  0  0  0  0  0  0  0  0  0  0  0  # atno 6909 bound_to 6896
  146.1257  139.6096  142.9260 H   0  0  0  0  0  0  0  0  0  0  0  0  # atno 7974 bound_to 7965
  155.6974  140.3495  155.4919 H   0  0  0  0  0  0  0  0  0  0  0  0  # atno 8008 bound_to 7997
  155.9471  140.1112  157.1030 H   0  0  0  0  0  0  0  0  0  0  0  0  # atno 8009 bound_to 7997
  154.4114  140.1201  156.4989 H   0  0  0  0  0  0  0  0  0  0  0  0  # atno 8010 bound_to 7997
  139.6069  144.0895  152.1802 H   0  0  0  0  0  0  0  0  0  0  0  0  # atno 10167 bound_to 10162
  156.0834  130.4213  150.1181 H   0  0  0  0  0  0  0  0  0  0  0  0  # atno 10718 bound_to 10713
  152.9861  135.5622  154.5483 H   0  0  0  0  0  0  0  0  0  0  0  0  # atno 10763 bound_to 10752
  154.4925  135.2793  155.1487 H   0  0  0  0  0  0  0  0  0  0  0  0  # atno 10764 bound_to 10752
  154.2951  135.6318  153.5454 H   0  0  0  0  0  0  0  0  0  0  0  0  # atno 10765 bound_to 10752
  140.9891  133.7014  156.1818 H   0  0  0  0  0  0  0  0  0  0  0  0  # atno 11005 bound_to 11000
  145.5371  141.0423  143.2351 LP  0  0  0  0  0  0  0  0  0  0  0  0  # atno 17320 bound_to 7965
  144.7640  139.6890  143.7223 LP  0  0  0  0  0  0  0  0  0  0  0  0  # atno 17321 bound_to 7965
  140.0505  144.5937  150.7340 LP  0  0  0  0  0  0  0  0  0  0  0  0  # atno 17342 bound_to 10162
  140.7291  143.2669  151.4016 LP  0  0  0  0  0  0  0  0  0  0  0  0  # atno 17343 bound_to 10162
  156.9208  130.9682  151.3549 LP  0  0  0  0  0  0  0  0  0  0  0  0  # atno 17370 bound_to 10713
  157.5959  130.8477  149.8729 LP  0  0  0  0  0  0  0  0  0  0  0  0  # atno 17371 bound_to 10713
  140.7068  134.4505  157.5584 LP  0  0  0  0  0  0  0  0  0  0  0  0  # atno 17394 bound_to 11000
  139.8984  134.8614  156.2003 LP  0  0  0  0  0  0  0  0  0  0  0  0  # atno 17395 bound_to 11000

$$$$
