AV-unprocessed.smi:2705|AV-procd|sdf|10443|dock8
  -GOLD-   2272014483D 1   1.00000     0.00000
 Structure written by MMmdl.
 36 37  0  0  0  0  0  0  0  0  1 V2000
  145.1316  134.5090  153.9833 C   0  0  0  0  0  0  0  0  0  0  0  0
  145.8619  133.9865  152.7245 C   0  0  0  0  0  0  0  0  0  0  0  0
  147.3051  133.9132  152.9922 N   0  0  0  0  0  0  0  0  0  0  0  0
  147.9613  133.1251  153.8634 C   0  0  0  0  0  0  0  0  0  0  0  0
  147.4204  132.2767  154.5714 O   0  0  0  0  0  0  0  0  0  0  0  0
  149.4700  133.3454  153.9613 C   0  0  0  0  0  0  0  0  0  0  0  0
  149.8311  133.8448  155.2751 N   0  0  0  0  0  0  0  0  0  0  0  0
  150.3848  134.9989  155.6545 C   0  0  0  0  0  0  0  0  0  0  0  0
  150.5392  135.0593  156.9681 N   0  0  0  0  0  0  0  0  0  0  0  0
  150.0376  133.8427  157.3996 N   0  0  0  0  0  0  0  0  0  0  0  0
  149.6158  133.1180  156.3996 N   0  0  0  0  0  0  0  0  0  0  0  0
  145.3851  132.5340  152.4671 C   0  0  0  0  0  0  0  0  0  0  0  0
  145.7019  131.9579  151.0749 C   0  0  0  0  0  0  0  0  0  0  0  0
  144.5779  132.2239  150.0584 C   0  0  0  0  0  0  0  0  0  0  0  0
  144.4556  133.6848  149.5994 C   0  0  0  0  0  0  0  0  0  0  0  0
  144.2980  134.7101  150.7368 C   0  0  0  0  0  0  0  0  0  0  0  0
  145.6059  134.9349  151.5173 C   0  0  0  0  0  0  0  0  0  0  0  0
  144.0511  134.5198  153.8377 H   0  0  0  0  0  0  0  0  0  0  0  0
  145.4249  135.5266  154.2412 H   0  0  0  0  0  0  0  0  0  0  0  0
  145.3368  133.8801  154.8506 H   0  0  0  0  0  0  0  0  0  0  0  0
  147.8699  134.5642  152.4662 H   0  0  0  0  0  0  0  0  0  0  0  0
  149.9981  132.4100  153.7693 H   0  0  0  0  0  0  0  0  0  0  0  0
  149.7988  134.0628  153.2082 H   0  0  0  0  0  0  0  0  0  0  0  0
  150.6659  135.7898  154.9746 H   0  0  0  0  0  0  0  0  0  0  0  0
  145.8300  131.8827  153.2214 H   0  0  0  0  0  0  0  0  0  0  0  0
  144.3114  132.4545  152.6425 H   0  0  0  0  0  0  0  0  0  0  0  0
  146.6631  132.3156  150.7041 H   0  0  0  0  0  0  0  0  0  0  0  0
  145.8060  130.8768  151.1739 H   0  0  0  0  0  0  0  0  0  0  0  0
  144.7475  131.6028  149.1784 H   0  0  0  0  0  0  0  0  0  0  0  0
  143.6250  131.8907  150.4713 H   0  0  0  0  0  0  0  0  0  0  0  0
  145.3173  133.9479  148.9849 H   0  0  0  0  0  0  0  0  0  0  0  0
  143.5916  133.7616  148.9383 H   0  0  0  0  0  0  0  0  0  0  0  0
  144.0127  135.6596  150.2827 H   0  0  0  0  0  0  0  0  0  0  0  0
  143.4758  134.4427  151.4012 H   0  0  0  0  0  0  0  0  0  0  0  0
  145.6136  135.9659  151.8736 H   0  0  0  0  0  0  0  0  0  0  0  0
  146.4389  134.8821  150.8142 H   0  0  0  0  0  0  0  0  0  0  0  0
  1  2  1  0  0  0  0
  1 18  1  0  0  0  0
  1 19  1  0  0  0  0
  1 20  1  0  0  0  0
  2 17  1  0  0  0  0
  2  3  1  0  0  0  0
  2 12  1  0  0  0  0
  3  4  1  0  0  0  0
  3 21  1  0  0  0  0
  4  5  2  0  0  0  0
  4  6  1  0  0  0  0
  6  7  1  0  0  0  0
  6 22  1  0  0  0  0
  6 23  1  0  0  0  0
  7 11  1  0  0  0  0
  7  8  1  0  0  0  0
  8  9  2  0  0  0  0
  8 24  1  0  0  0  0
  9 10  1  0  0  0  0
 10 11  2  0  0  0  0
 12 13  1  0  0  0  0
 12 25  1  0  0  0  0
 12 26  1  0  0  0  0
 13 14  1  0  0  0  0
 13 27  1  0  0  0  0
 13 28  1  0  0  0  0
 14 15  1  0  0  0  0
 14 29  1  0  0  0  0
 14 30  1  0  0  0  0
 15 16  1  0  0  0  0
 15 31  1  0  0  0  0
 15 32  1  0  0  0  0
 16 17  1  0  0  0  0
 16 33  1  0  0  0  0
 16 34  1  0  0  0  0
 17 35  1  0  0  0  0
 17 36  1  0  0  0  0
M  END
> <s_m_source_file>
AV-unprocessed.smi

> <i_m_source_file_index>
2705

> <i_lp_mmshare_version>
43012

> <i_f3d_flags>
0

> <s_epik_input>
W0NIMl0xW0NIMl1bQ0gyXVtDSDJdW0NIMl1bQ0gyXUMxKFtDSDNdKVtOSF1DKD1PKVtDSDJdbjJbY0hdbm5uMg==

> <s_epik_cmdline>
J2VwaWtfcHl0aG9uJywgJy1waCcsICc3LjAnLCAnLXRuJywgJzgnLCAnLW1hJywgJzIwMCcsICctbWV0YWxfYmluZGluZycsICctaW1hZScsICc8aW5maWxlLm1hZT4nLCAnLW9tYWUnLCAnPG91dGZpbGUubWFlPic=

> <r_lp_tautomer_probability>
1

> <r_epik_Ionization_Penalty>
4.39395e-07

> <r_epik_Ionization_Penalty_Charging>
0

> <r_epik_Ionization_Penalty_Neutral>
4.39395e-07

> <r_epik_State_Penalty>
-0

> <r_epik_Charging_Adjusted_Penalty>
0

> <i_epik_Tot_Q>
0

> <i_epik_Tot_abs_Q>
0

> <r_epik_Metal_State_Penalty>
-0

> <b_epik_Metal_Only>
0

> <s_lp_Force_Field>
OPLS_2005

> <r_lp_Energy>
20.5987

> <b_lp_Chiralities_Consistent>
1

> <s_lp_Variant>
AV-unprocessed.smi:2705-1

> <Gold.Version>
5.8.1

> <Gold.Id.Protein>
6NUR|6NUR_protein|mol2

> <Gold.PLP.Fitness>
32.6873

> <Gold.PLP.PLP>
-26.9590

> <Gold.PLP.part.hbond>
-2.2374

> <Gold.PLP.part.metal>
0.0000

> <Gold.PLP.part.buried>
-3.0812

> <Gold.PLP.part.nonpolar>
-22.2851

> <Gold.PLP.part.repulsive>
0.0194

> <Gold.PLP.ligand.clash>
0.0000

> <Gold.PLP.ligand.torsion>
0.1038

> <Gold.PLP.Chemscore.Hbond>
1.9760

> <Gold.PLP.Chemscore.CHOScore>
0.0000

> <Gold.PLP.Chemscore.Metal>
0.0000

> <Gold.Chemscore.Hbonds>
donor molecule, donor type, donor heavy atom, donor atom, acceptor molecule, acceptor atom, score
      L1  H     3    21       P1  7948  0.99
      P1  H  6896  6907       L1    10  0.99

> <Gold.PLP.Chemscore.Internal.Correction>
0.0080

> <Gold.Rescore>
     Score         DG    S(hbond)    S(metal)    S(lipo)     H(rot)  DE(clash)    DE(int)     intcor
     10.40     -11.83       1.57        0.00      51.23       1.91       0.00       1.43       ----

> <Gold.Chemscore.Fitness>
10.4021

> <Gold.Chemscore.DG>
-11.8293

> <Gold.Chemscore.ZeroCoef>
-5.4800

> <Gold.Chemscore.Hbond>
1.5672

> <Gold.Chemscore.Metal>
0.0000

> <Gold.Chemscore.Lipo>
51.2285

> <Gold.Chemscore.Internal_Hbond>
0.0000

> <Gold.Chemscore.DEClash>
0.0000

> <Gold.Chemscore.DEInternal>
1.4272

> <Gold.Chemscore.Rot>
1.9058

> <Gold.Chemscore.Internal.Correction>
   9.000000E+99

> <Gold.Chemscore.Hbonds>
donor molecule, donor type, donor heavy atom, donor atom, acceptor molecule, acceptor atom, score
      L1  H     3    21       P1  7948  0.56
      P1  H  6896  6907       L1    10  0.23

> <Gold.Chemscore.Hbond.Weighted>
-5.2344

> <Gold.Chemscore.Metal.Weighted>
-0.0000

> <Gold.Chemscore.Lipo.Weighted>
-5.9937

> <Gold.Chemscore.Internal_Hbond.Weighted>
0.0000

> <Gold.Chemscore.DEClash.Weighted>
0.0000

> <Gold.Chemscore.DEInternal.Weighted>
1.4272

> <Gold.Chemscore.Rot.Weighted>
4.8788

> <Gold.Chemscore.Internal.Correction.Weighted>
   9.000000E+99

> <Gold.Protein.RotatedTorsions>
[ 6907 6896 6895 6894 ] final -123.22 input  -60.11 | X-H torsion
[ 7974 7965 7964 7962 ] final -166.40 input  175.53 | X-H torsion
[ 8008 7997 7996 7995 ] final  -30.09 input   59.86 | X-H torsion
[ 10167 10162 10161 10158 ] final -172.75 input  -65.29 | X-H torsion
[ 10718 10713 10712 10709 ] final  -84.18 input   66.30 | X-H torsion
[ 10763 10752 10751 10750 ] final  -87.50 input  -60.55 | X-H torsion
[ 11005 11000 10999 10996 ] final -112.70 input  -57.11 | X-H torsion

> <Gold.Protein.ActiveResidues>
 VAL166  LYS551  ARG553  GLY616  TRP617  ASP618  TYR619  PRO620  LYS621  CYS622 
 ASP623  PHE694  ASN695  SER759  ASP760  ASP761  ALA762  ILE779  LEU786  VAL792 
 PHE793  MET794  SER795  GLU796  ALA797  LYS798  CYS799  TRP800  GLU811  SER814 

> <Gold.Protein.RotatedAtoms>
  150.8650  133.7588  159.2979 H   0  0  0  0  0  0  0  0  0  0  0  0  # atno 6907 bound_to 6896
  151.5218  135.1066  159.9890 H   0  0  0  0  0  0  0  0  0  0  0  0  # atno 6908 bound_to 6896
  152.4654  133.7867  159.6936 H   0  0  0  0  0  0  0  0  0  0  0  0  # atno 6909 bound_to 6896
  144.7246  140.2672  143.6256 H   0  0  0  0  0  0  0  0  0  0  0  0  # atno 7974 bound_to 7965
  154.4264  140.1800  156.1352 H   0  0  0  0  0  0  0  0  0  0  0  0  # atno 8008 bound_to 7997
  156.0036  140.3357  155.6845 H   0  0  0  0  0  0  0  0  0  0  0  0  # atno 8009 bound_to 7997
  155.6209  140.0659  157.2669 H   0  0  0  0  0  0  0  0  0  0  0  0  # atno 8010 bound_to 7997
  139.5727  144.1604  152.1407 H   0  0  0  0  0  0  0  0  0  0  0  0  # atno 10167 bound_to 10162
  156.0009  130.4689  150.4371 H   0  0  0  0  0  0  0  0  0  0  0  0  # atno 10718 bound_to 10713
  154.6343  135.5411  153.7716 H   0  0  0  0  0  0  0  0  0  0  0  0  # atno 10763 bound_to 10752
  153.0300  135.6443  154.1254 H   0  0  0  0  0  0  0  0  0  0  0  0  # atno 10764 bound_to 10752
  154.1183  135.2922  155.3194 H   0  0  0  0  0  0  0  0  0  0  0  0  # atno 10765 bound_to 10752
  141.0659  133.9459  157.2579 H   0  0  0  0  0  0  0  0  0  0  0  0  # atno 11005 bound_to 11000
  145.8078  139.1991  143.2010 LP  0  0  0  0  0  0  0  0  0  0  0  0  # atno 17320 bound_to 7965
  146.0621  140.7959  142.9729 LP  0  0  0  0  0  0  0  0  0  0  0  0  # atno 17321 bound_to 7965
  140.1140  144.5432  150.6906 LP  0  0  0  0  0  0  0  0  0  0  0  0  # atno 17342 bound_to 10162
  140.7011  143.2435  151.4862 LP  0  0  0  0  0  0  0  0  0  0  0  0  # atno 17343 bound_to 10162
  157.2415  131.0526  151.2434 LP  0  0  0  0  0  0  0  0  0  0  0  0  # atno 17370 bound_to 10713
  157.3616  130.7134  149.6505 LP  0  0  0  0  0  0  0  0  0  0  0  0  # atno 17371 bound_to 10713
  139.9476  135.0181  156.8899 LP  0  0  0  0  0  0  0  0  0  0  0  0  # atno 17394 bound_to 11000
  140.5773  134.0385  155.7451 LP  0  0  0  0  0  0  0  0  0  0  0  0  # atno 17395 bound_to 11000

$$$$
