AV-unprocessed.smi:2217|AV-procd|sdf|8972|dock4
  -GOLD-   2272012183D 1   1.00000     0.00000
 Structure written by MMmdl.
 45 48  0  0  0  0  0  0  0  0  1 V2000
  143.4433  132.1166  150.3416 C   0  0  0  0  0  0  0  0  0  0  0  0
  144.3347  133.1764  150.9540 C   0  0  0  0  0  0  0  0  0  0  0  0
  145.7180  132.9675  151.1074 C   0  0  0  0  0  0  0  0  0  0  0  0
  146.4992  133.9902  151.6788 C   0  0  0  0  0  0  0  0  0  0  0  0
  145.8846  135.1957  152.0872 C   0  0  0  0  0  0  0  0  0  0  0  0
  146.7807  136.1570  152.6416 N   0  0  0  0  0  0  0  0  0  0  0  0
  146.5572  137.3449  153.2437 C   0  0  0  0  0  0  0  0  0  0  0  0
  145.4149  137.7747  153.3955 O   0  0  0  0  0  0  0  0  0  0  0  0
  147.6437  138.0143  153.6586 N   0  0  0  0  0  0  0  0  0  0  0  0
  147.6187  139.2924  154.3596 C   0  0  2  0  0  0  0  0  0  0  0  0
  147.6291  140.4880  153.3940 C   0  0  1  0  0  0  0  0  0  0  0  0
  146.4347  141.3991  153.3203 C   0  0  0  0  0  0  0  0  0  0  0  0
  146.8144  142.5364  154.2727 C   0  0  0  0  0  0  0  0  0  0  0  0
  147.8023  141.9719  155.1323 O   0  0  0  0  0  0  0  0  0  0  0  0
  148.6353  141.1327  154.3357 C   0  0  1  0  0  0  0  0  0  0  0  0
  148.9892  139.7464  154.9157 C   0  0  0  0  0  0  0  0  0  0  0  0
  150.2746  139.1175  154.3697 C   0  0  0  0  0  0  0  0  0  0  0  0
  151.4038  139.5707  155.2952 C   0  0  0  0  0  0  0  0  0  0  0  0
  150.7403  139.8128  156.6540 C   0  0  0  0  0  0  0  0  0  0  0  0
  149.2331  139.6562  156.4202 C   0  0  0  0  0  0  0  0  0  0  0  0
  144.5493  135.3856  151.9319 N   0  0  0  0  0  0  0  0  0  0  0  0
  143.8003  134.4060  151.3834 C   0  0  0  0  0  0  0  0  0  0  0  0
  143.9748  131.1715  150.2263 H   0  0  0  0  0  0  0  0  0  0  0  0
  143.0978  132.4380  149.3589 H   0  0  0  0  0  0  0  0  0  0  0  0
  142.5717  131.9415  150.9730 H   0  0  0  0  0  0  0  0  0  0  0  0
  146.1776  132.0420  150.7926 H   0  0  0  0  0  0  0  0  0  0  0  0
  147.5631  133.8453  151.8002 H   0  0  0  0  0  0  0  0  0  0  0  0
  147.7571  135.9275  152.5269 H   0  0  0  0  0  0  0  0  0  0  0  0
  148.5487  137.5956  153.4950 H   0  0  0  0  0  0  0  0  0  0  0  0
  146.8245  139.3780  155.1048 H   0  0  0  0  0  0  0  0  0  0  0  0
  148.0813  140.2468  152.4299 H   0  0  0  0  0  0  0  0  0  0  0  0
  146.2477  141.7660  152.3108 H   0  0  0  0  0  0  0  0  0  0  0  0
  145.5343  140.8891  153.6646 H   0  0  0  0  0  0  0  0  0  0  0  0
  147.2568  143.3666  153.7203 H   0  0  0  0  0  0  0  0  0  0  0  0
  145.9620  142.9167  154.8356 H   0  0  0  0  0  0  0  0  0  0  0  0
  149.4415  141.6672  153.8312 H   0  0  0  0  0  0  0  0  0  0  0  0
  150.2143  138.0292  154.4028 H   0  0  0  0  0  0  0  0  0  0  0  0
  150.4711  139.3930  153.3331 H   0  0  0  0  0  0  0  0  0  0  0  0
  152.2080  138.8363  155.3491 H   0  0  0  0  0  0  0  0  0  0  0  0
  151.8328  140.5031  154.9261 H   0  0  0  0  0  0  0  0  0  0  0  0
  151.0921  139.1052  157.4055 H   0  0  0  0  0  0  0  0  0  0  0  0
  150.9736  140.8160  157.0125 H   0  0  0  0  0  0  0  0  0  0  0  0
  148.6673  140.3986  156.9832 H   0  0  0  0  0  0  0  0  0  0  0  0
  148.9111  138.6804  156.7858 H   0  0  0  0  0  0  0  0  0  0  0  0
  142.7446  134.6122  151.2835 H   0  0  0  0  0  0  0  0  0  0  0  0
  1  2  1  0  0  0  0
  1 23  1  0  0  0  0
  1 24  1  0  0  0  0
  1 25  1  0  0  0  0
  2 22  1  0  0  0  0
  2  3  2  0  0  0  0
  3  4  1  0  0  0  0
  3 26  1  0  0  0  0
  4  5  2  0  0  0  0
  4 27  1  0  0  0  0
  5  6  1  0  0  0  0
  5 21  1  0  0  0  0
  6  7  1  0  0  0  0
  6 28  1  0  0  0  0
  7  8  2  0  0  0  0
  7  9  1  0  0  0  0
  9 10  1  0  0  0  0
  9 29  1  0  0  0  0
 10 16  1  0  0  0  0
 10 11  1  0  0  0  0
 10 30  1  0  0  0  0
 11 15  1  0  0  0  0
 11 12  1  0  0  0  0
 11 31  1  0  0  0  0
 12 13  1  0  0  0  0
 12 32  1  0  0  0  0
 12 33  1  0  0  0  0
 13 14  1  0  0  0  0
 13 34  1  0  0  0  0
 13 35  1  0  0  0  0
 14 15  1  0  0  0  0
 15 16  1  0  0  0  0
 15 36  1  0  0  0  0
 16 20  1  0  0  0  0
 16 17  1  0  0  0  0
 17 18  1  0  0  0  0
 17 37  1  0  0  0  0
 17 38  1  0  0  0  0
 18 19  1  0  0  0  0
 18 39  1  0  0  0  0
 18 40  1  0  0  0  0
 19 20  1  0  0  0  0
 19 41  1  0  0  0  0
 19 42  1  0  0  0  0
 20 43  1  0  0  0  0
 20 44  1  0  0  0  0
 21 22  2  0  0  0  0
 22 45  1  0  0  0  0
M  END
> <s_m_source_file>
AV-unprocessed.smi

> <i_m_source_file_index>
2217

> <i_lp_mmshare_version>
43012

> <i_f3d_flags>
0

> <s_epik_input>
W0NIM11jMVtjSF1bY0hdYyhuW2NIXTEpW05IXUMoPU8pW05IXVtDQEBIXTJbQ0BASF0oW0NIMl1bQ0gyXU8zKVtDQEhdM0MyNFtDSDJdW0NIMl1bQ0gyXVtDSDJdNA==

> <s_epik_cmdline>
J2VwaWtfcHl0aG9uJywgJy1waCcsICc3LjAnLCAnLXRuJywgJzgnLCAnLW1hJywgJzIwMCcsICctbWV0YWxfYmluZGluZycsICctaW1hZScsICc8aW5maWxlLm1hZT4nLCAnLW9tYWUnLCAnPG91dGZpbGUubWFlPic=

> <r_lp_tautomer_probability>
1

> <r_epik_Ionization_Penalty>
6.14796e-05

> <r_epik_Ionization_Penalty_Charging>
0

> <r_epik_Ionization_Penalty_Neutral>
6.14796e-05

> <r_epik_State_Penalty>
-0

> <r_epik_Charging_Adjusted_Penalty>
0

> <i_epik_Tot_Q>
0

> <i_epik_Tot_abs_Q>
0

> <r_epik_Metal_State_Penalty>
-0

> <b_epik_Metal_Only>
0

> <s_lp_Force_Field>
OPLS_2005

> <r_lp_Energy>
58.5561

> <b_lp_Chiralities_Consistent>
1

> <s_lp_Variant>
AV-unprocessed.smi:2217-5

> <Gold.Version>
5.8.1

> <Gold.Id.Protein>
6NUR|6NUR_protein|mol2

> <Gold.PLP.Fitness>
36.6748

> <Gold.PLP.PLP>
-32.3202

> <Gold.PLP.part.hbond>
-1.2551

> <Gold.PLP.part.metal>
0.0000

> <Gold.PLP.part.buried>
-0.0333

> <Gold.PLP.part.nonpolar>
-32.3311

> <Gold.PLP.part.repulsive>
1.4363

> <Gold.PLP.ligand.clash>
0.0000

> <Gold.PLP.ligand.torsion>
0.2365

> <Gold.PLP.Chemscore.Hbond>
0.9649

> <Gold.PLP.Chemscore.CHOScore>
0.5829

> <Gold.PLP.Chemscore.Metal>
0.0000

> <Gold.Chemscore.Hbonds>
donor molecule, donor type, donor heavy atom, donor atom, acceptor molecule, acceptor atom, score
      L1  H     6    28       P1  7948  0.60
      L1  H     9    29       P1  7948  0.33
      L1  C    22    45       P1 10186  0.59

> <Gold.PLP.Chemscore.Internal.Correction>
0.1842

> <Gold.Rescore>
     Score         DG    S(hbond)    S(metal)    S(lipo)     H(rot)  DE(clash)    DE(int)     intcor
     16.14     -18.41       1.30        0.00      95.17       1.00       0.83       1.45       ----

> <Gold.Chemscore.Fitness>
16.1383

> <Gold.Chemscore.DG>
-18.4114

> <Gold.Chemscore.ZeroCoef>
-5.4800

> <Gold.Chemscore.Hbond>
1.3042

> <Gold.Chemscore.Metal>
0.0000

> <Gold.Chemscore.Lipo>
95.1741

> <Gold.Chemscore.Internal_Hbond>
0.0000

> <Gold.Chemscore.DEClash>
0.8264

> <Gold.Chemscore.DEInternal>
1.4466

> <Gold.Chemscore.Rot>
1.0000

> <Gold.Chemscore.Internal.Correction>
   9.000000E+99

> <Gold.Chemscore.Hbonds>
donor molecule, donor type, donor heavy atom, donor atom, acceptor molecule, acceptor atom, score
      L1  H     6    28       P1  7948  0.58
      L1  H     9    29       P1  7948  0.33

> <Gold.Chemscore.Hbond.Weighted>
-4.3560

> <Gold.Chemscore.Metal.Weighted>
-0.0000

> <Gold.Chemscore.Lipo.Weighted>
-11.1354

> <Gold.Chemscore.Internal_Hbond.Weighted>
0.0000

> <Gold.Chemscore.DEClash.Weighted>
0.8264

> <Gold.Chemscore.DEInternal.Weighted>
1.4466

> <Gold.Chemscore.Rot.Weighted>
2.5600

> <Gold.Chemscore.Internal.Correction.Weighted>
   9.000000E+99

> <Gold.Protein.RotatedTorsions>
[ 6907 6896 6895 6894 ] final  -40.34 input  -60.11 | X-H torsion
[ 7974 7965 7964 7962 ] final   35.73 input  175.53 | X-H torsion
[ 8008 7997 7996 7995 ] final  -26.59 input   59.86 | X-H torsion
[ 10167 10162 10161 10158 ] final  -14.23 input  -65.29 | X-H torsion
[ 10718 10713 10712 10709 ] final   38.54 input   66.30 | X-H torsion
[ 10763 10752 10751 10750 ] final  129.12 input  -60.55 | X-H torsion
[ 11005 11000 10999 10996 ] final  166.64 input  -57.11 | X-H torsion

> <Gold.Protein.ActiveResidues>
 VAL166  LYS551  ARG553  GLY616  TRP617  ASP618  TYR619  PRO620  LYS621  CYS622 
 ASP623  PHE694  ASN695  SER759  ASP760  ASP761  ALA762  ILE779  LEU786  VAL792 
 PHE793  MET794  SER795  GLU796  ALA797  LYS798  CYS799  TRP800  GLU811  SER814 

> <Gold.Protein.RotatedAtoms>
  150.9796  134.9154  159.7836 H   0  0  0  0  0  0  0  0  0  0  0  0  # atno 6907 bound_to 6896
  152.5217  134.3428  159.9233 H   0  0  0  0  0  0  0  0  0  0  0  0  # atno 6908 bound_to 6896
  151.3436  133.3912  159.2708 H   0  0  0  0  0  0  0  0  0  0  0  0  # atno 6909 bound_to 6896
  146.1262  139.6106  142.9257 H   0  0  0  0  0  0  0  0  0  0  0  0  # atno 7974 bound_to 7965
  154.4418  140.1895  156.0799 H   0  0  0  0  0  0  0  0  0  0  0  0  # atno 8008 bound_to 7997
  156.0447  140.3315  155.7256 H   0  0  0  0  0  0  0  0  0  0  0  0  # atno 8009 bound_to 7997
  155.5647  140.0607  157.2811 H   0  0  0  0  0  0  0  0  0  0  0  0  # atno 8010 bound_to 7997
  140.7197  143.5343  150.9483 H   0  0  0  0  0  0  0  0  0  0  0  0  # atno 10167 bound_to 10162
  157.3601  130.7645  149.7041 H   0  0  0  0  0  0  0  0  0  0  0  0  # atno 10718 bound_to 10713
  153.7367  135.3230  155.3296 H   0  0  0  0  0  0  0  0  0  0  0  0  # atno 10763 bound_to 10752
  154.8308  135.4535  154.1068 H   0  0  0  0  0  0  0  0  0  0  0  0  # atno 10764 bound_to 10752
  153.2231  135.6950  153.8059 H   0  0  0  0  0  0  0  0  0  0  0  0  # atno 10765 bound_to 10752
  140.2686  134.7845  157.3654 H   0  0  0  0  0  0  0  0  0  0  0  0  # atno 11005 bound_to 11000
  145.5359  141.0424  143.2357 LP  0  0  0  0  0  0  0  0  0  0  0  0  # atno 17320 bound_to 7965
  144.7645  139.6878  143.7220 LP  0  0  0  0  0  0  0  0  0  0  0  0  # atno 17321 bound_to 7965
  139.9064  143.6773  152.3123 LP  0  0  0  0  0  0  0  0  0  0  0  0  # atno 17342 bound_to 10162
  139.7141  144.7615  151.1064 LP  0  0  0  0  0  0  0  0  0  0  0  0  # atno 17343 bound_to 10162
  155.9736  130.4116  150.3991 LP  0  0  0  0  0  0  0  0  0  0  0  0  # atno 17370 bound_to 10713
  157.2066  131.0450  151.2622 LP  0  0  0  0  0  0  0  0  0  0  0  0  # atno 17371 bound_to 10713
  140.1395  134.4990  155.8042 LP  0  0  0  0  0  0  0  0  0  0  0  0  # atno 17394 bound_to 11000
  141.2180  133.6820  156.7185 LP  0  0  0  0  0  0  0  0  0  0  0  0  # atno 17395 bound_to 11000

$$$$
