#       Name:                AV-unprocessed.smi:1586
#       Creating user name   scv26
#       Creation time:       Fri Mar 27 07:00:08 2020


#       File generated by GOLD software.
#

@<TRIPOS>MOLECULE
AV-unprocessed.smi:1586
    53    54     1
SMALL
NO_CHARGES


@<TRIPOS>ATOM
      1 ****        -2.7887  -4.4255  -1.1306 C.3            1 S1                 0.0000
      2 ****        -2.9559  -2.9334  -0.8089 C.3            1 S1                 0.0000
      3 ****        -2.3685  -2.0526  -1.8494 N.4            1 S1                 1.0000
      4 ****        -0.8838  -2.0608  -1.8684 C.3            1 S1                 0.0000
      5 ****        -0.3570  -1.1389  -2.9884 C.3            1 S1                 0.0000
      6 ****        -0.7956   0.2521  -2.8042 N.3            1 S1                 0.0000
      7 ****        -0.2468   0.9478  -1.6184 C.3            1 S1                 0.0000
      8 ****        -0.7254   2.4186  -1.5892 C.3            1 S1                 0.0000
      9 ****         1.3056   0.8900  -1.5766 C.3            1 S1                 0.0000
     10 ****         1.8585   1.5032  -0.3725 N.am           1 S1                 0.0000
     11 ****         1.8141   0.9531   0.8501 C.2            1 S1                 0.0000
     12 ****         1.2834  -0.1339   1.0841 O.2            1 S1                 0.0000
     13 ****         2.4152   1.7340   1.7637 N.am           1 S1                 0.0000
     14 ****         2.5698   1.4766   3.1499 C.2            1 S1                 0.0000
     15 ****         3.2603   2.3905   3.9893 C.2            1 S1                 0.0000
     16 ****         3.1929   1.7927   5.2164 C.2            1 S1                 0.0000
     17 ****         3.7036   2.1794   6.5621 C.3            1 S1                 0.0000
     18 ****         2.5179   0.6143   5.1330 O.3            1 S1                 0.0000
     19 ****         2.1197   0.4176   3.8055 N.2            1 S1                 0.0000
     20 ****        -2.2646   0.2199  -2.8734 C.3            1 S1                 0.0000
     21 ****        -2.8794  -0.6620  -1.7633 C.3            1 S1                 0.0000
     22 ****        -3.3166  -5.0355  -0.3973 H              1 S1                 0.0000
     23 ****        -1.7436  -4.7336  -1.1111 H              1 S1                 0.0000
     24 ****        -3.1949  -4.6665  -2.1133 H              1 S1                 0.0000
     25 ****        -4.0240  -2.7253  -0.7319 H              1 S1                 0.0000
     26 ****        -2.5243  -2.7006   0.1657 H              1 S1                 0.0000
     27 ****        -0.4884  -1.7673  -0.8952 H              1 S1                 0.0000
     28 ****        -0.5235  -3.0716  -2.0558 H              1 S1                 0.0000
     29 ****         0.7252  -1.2107  -3.0738 H              1 S1                 0.0000
     30 ****        -0.7296  -1.4963  -3.9495 H              1 S1                 0.0000
     31 ****        -0.6174   0.4625  -0.7173 H              1 S1                 0.0000
     32 ****        -0.2515   2.9838  -0.7871 H              1 S1                 0.0000
     33 ****        -1.7963   2.5021  -1.4091 H              1 S1                 0.0000
     34 ****        -0.4970   2.9289  -2.5255 H              1 S1                 0.0000
     35 ****         1.6824  -0.1317  -1.5991 H              1 S1                 0.0000
     36 ****         1.7259   1.3957  -2.4466 H              1 S1                 0.0000
     37 ****         2.3112   2.3993  -0.4814 H              1 S1                 0.0000
     38 ****         2.8121   2.6006   1.4320 H              1 S1                 0.0000
     39 ****         3.7302   3.3291   3.7361 H              1 S1                 0.0000
     40 ****         3.8562   3.2570   6.6251 H              1 S1                 0.0000
     41 ****         4.6552   1.6895   6.7684 H              1 S1                 0.0000
     42 ****         2.9987   1.8928   7.3430 H              1 S1                 0.0000
     43 ****        -2.6862   1.2228  -2.8421 H              1 S1                 0.0000
     44 ****        -2.5576  -0.1746  -3.8475 H              1 S1                 0.0000
     45 ****        -3.9635  -0.6737  -1.8809 H              1 S1                 0.0000
     46 ****        -2.6831  -0.2484  -0.7736 H              1 S1                 0.0000
     47 ****        -2.6744  -2.4098  -2.7432 H              1 S1                 0.0000
     48 ****        -0.4156   0.8265  -3.5292 LP             1 S1                 0.0000
     49 ****         0.8572  -0.6522   0.3426 LP             1 S1                 0.0000
     50 ****         1.2789  -0.4979   2.0155 LP             1 S1                 0.0000
     51 ****         1.7124   0.6454   5.7248 LP             1 S1                 0.0000
     52 ****         3.1137  -0.1358   5.4202 LP             1 S1                 0.0000
     53 ****         1.6063  -0.3555   3.4328 LP             1 S1                 0.0000
@<TRIPOS>BOND
    1    1    2 1     
    2    1   22 1     
    3    1   23 1     
    4    1   24 1     
    5    2    3 1     
    6    2   25 1     
    7    2   26 1     
    8    3   21 1     
    9    3    4 1     
   10    3   47 1     
   11    4    5 1     
   12    4   27 1     
   13    4   28 1     
   14    5    6 1     
   15    5   29 1     
   16    5   30 1     
   17    6    7 1     
   18    6   20 1     
   19    7    8 1     
   20    7    9 1     
   21    7   31 1     
   22    8   32 1     
   23    8   33 1     
   24    8   34 1     
   25    9   10 1     
   26    9   35 1     
   27    9   36 1     
   28   10   11 am    
   29   10   37 1     
   30   11   12 2     
   31   11   13 am    
   32   13   14 1     
   33   13   38 1     
   34   14   19 2     
   35   14   15 1     
   36   15   16 2     
   37   15   39 1     
   38   16   17 1     
   39   16   18 1     
   40   17   40 1     
   41   17   41 1     
   42   17   42 1     
   43   18   19 1     
   44   20   21 1     
   45   20   43 1     
   46   20   44 1     
   47   21   45 1     
   48   21   46 1     
   49    6   48 1     
   50   12   49 1     
   51   12   50 1     
   52   18   51 1     
   53   18   52 1     
   54   19   53 1     
@<TRIPOS>SUBSTRUCTURE
      1 S1             1
@<TRIPOS>SET
LONE_PAIRS      STATIC     ATOMS    <user>   **** ""
6 48 49 50 51 52 53
DONOR_HYDROGENS      STATIC     ATOMS    <user>   **** ""
3 47 37 38
ATOM$BLUE        STATIC     ATOMS    COLORGROUP SYSTEM
6 48 49 50 51 52 53
ATOM$RED        STATIC     ATOMS    COLORGROUP SYSTEM
3 47 37 38
