AV-unprocessed.smi:2318|AV-procd|sdf|9275|dock3
  -GOLD-   2272012493D 1   1.00000     0.00000
 Structure written by MMmdl.
 37 38  0  0  0  0  0  0  0  0  1 V2000
  152.4722  143.4915  161.9679 C   0  0  0  0  0  0  0  0  0  0  0  0
  151.9235  143.9594  160.7134 N   0  0  0  0  0  0  0  0  0  0  0  0
  151.9431  145.2355  160.1875 C   0  0  0  0  0  0  0  0  0  0  0  0
  151.3017  145.1912  158.9821 C   0  0  0  0  0  0  0  0  0  0  0  0
  150.9228  143.8257  158.8629 C   0  0  0  0  0  0  0  0  0  0  0  0
  150.2169  143.3691  157.7205 N   0  0  0  0  0  0  0  0  0  0  0  0
  149.8378  142.1110  157.4376 C   0  0  0  0  0  0  0  0  0  0  0  0
  150.0557  141.1289  158.1474 O   0  0  0  0  0  0  0  0  0  0  0  0
  149.1852  142.0552  156.2675 N   0  0  0  0  0  0  0  0  0  0  0  0
  148.6213  140.8524  155.6509 C   0  0  2  0  0  0  0  0  0  0  0  0
  149.7274  140.1283  154.8416 C   0  0  0  0  0  0  0  0  0  0  0  0
  149.4473  138.6557  154.5231 C   0  0  0  0  0  0  0  0  0  0  0  0
  150.8106  138.0682  154.1505 C   0  0  0  0  0  0  0  0  0  0  0  0
  151.8539  138.9114  154.8954 C   0  0  0  0  0  0  0  0  0  0  0  0
  151.0854  140.0624  155.5564 C   0  0  0  0  0  0  0  0  0  0  0  0
  147.3872  141.2549  154.8114 C   0  0  0  0  0  0  0  0  0  0  0  0
  147.7642  142.0388  153.8004 F   0  0  0  0  0  0  0  0  0  0  0  0
  146.7866  140.1740  154.3118 F   0  0  0  0  0  0  0  0  0  0  0  0
  146.5095  141.9368  155.5461 F   0  0  0  0  0  0  0  0  0  0  0  0
  151.2952  143.0859  159.8986 N   0  0  0  0  0  0  0  0  0  0  0  0
  152.9295  144.3201  162.5091 H   0  0  0  0  0  0  0  0  0  0  0  0
  153.2296  142.7303  161.7783 H   0  0  0  0  0  0  0  0  0  0  0  0
  151.6787  143.0629  162.5808 H   0  0  0  0  0  0  0  0  0  0  0  0
  152.4066  146.0603  160.7090 H   0  0  0  0  0  0  0  0  0  0  0  0
  151.1308  146.0077  158.2963 H   0  0  0  0  0  0  0  0  0  0  0  0
  149.9716  144.0788  157.0462 H   0  0  0  0  0  0  0  0  0  0  0  0
  149.0555  142.9184  155.7604 H   0  0  0  0  0  0  0  0  0  0  0  0
  148.2759  140.1692  156.4289 H   0  0  0  0  0  0  0  0  0  0  0  0
  149.8740  140.6530  153.8960 H   0  0  0  0  0  0  0  0  0  0  0  0
  149.0607  138.1497  155.4091 H   0  0  0  0  0  0  0  0  0  0  0  0
  148.7209  138.5271  153.7207 H   0  0  0  0  0  0  0  0  0  0  0  0
  150.8787  137.0092  154.4011 H   0  0  0  0  0  0  0  0  0  0  0  0
  150.9689  138.1597  153.0750 H   0  0  0  0  0  0  0  0  0  0  0  0
  152.3880  138.3220  155.6417 H   0  0  0  0  0  0  0  0  0  0  0  0
  152.5950  139.2955  154.1933 H   0  0  0  0  0  0  0  0  0  0  0  0
  151.6318  141.0046  155.5026 H   0  0  0  0  0  0  0  0  0  0  0  0
  150.9354  139.8332  156.6128 H   0  0  0  0  0  0  0  0  0  0  0  0
  1  2  1  0  0  0  0
  1 21  1  0  0  0  0
  1 22  1  0  0  0  0
  1 23  1  0  0  0  0
  2 20  1  0  0  0  0
  2  3  1  0  0  0  0
  3  4  2  0  0  0  0
  3 24  1  0  0  0  0
  4  5  1  0  0  0  0
  4 25  1  0  0  0  0
  5  6  1  0  0  0  0
  5 20  2  0  0  0  0
  6  7  1  0  0  0  0
  6 26  1  0  0  0  0
  7  8  2  0  0  0  0
  7  9  1  0  0  0  0
  9 10  1  0  0  0  0
  9 27  1  0  0  0  0
 10 11  1  0  0  0  0
 10 16  1  0  0  0  0
 10 28  1  0  0  0  0
 11 15  1  0  0  0  0
 11 12  1  0  0  0  0
 11 29  1  0  0  0  0
 12 13  1  0  0  0  0
 12 30  1  0  0  0  0
 12 31  1  0  0  0  0
 13 14  1  0  0  0  0
 13 32  1  0  0  0  0
 13 33  1  0  0  0  0
 14 15  1  0  0  0  0
 14 34  1  0  0  0  0
 14 35  1  0  0  0  0
 15 36  1  0  0  0  0
 15 37  1  0  0  0  0
 16 17  1  0  0  0  0
 16 18  1  0  0  0  0
 16 19  1  0  0  0  0
M  END
> <s_m_source_file>
AV-unprocessed.smi

> <i_m_source_file_index>
2318

> <i_lp_mmshare_version>
43012

> <i_f3d_flags>
0

> <s_epik_input>
W0NIM11uMVtjSF1bY0hdYyhuMSlbTkhdQyg9TylbTkhdW0NAQEhdKEMoRikoRilGKVtDSF0yW0NIMl1bQ0gyXVtDSDJdW0NIMl0y

> <s_epik_cmdline>
J2VwaWtfcHl0aG9uJywgJy1waCcsICc3LjAnLCAnLXRuJywgJzgnLCAnLW1hJywgJzIwMCcsICctbWV0YWxfYmluZGluZycsICctaW1hZScsICc8aW5maWxlLm1hZT4nLCAnLW9tYWUnLCAnPG91dGZpbGUubWFlPic=

> <r_lp_tautomer_probability>
1

> <r_epik_Ionization_Penalty>
2.39546e-05

> <r_epik_Ionization_Penalty_Charging>
0

> <r_epik_Ionization_Penalty_Neutral>
2.39546e-05

> <r_epik_State_Penalty>
-0

> <r_epik_Charging_Adjusted_Penalty>
0

> <i_epik_Tot_Q>
0

> <i_epik_Tot_abs_Q>
0

> <r_epik_Metal_State_Penalty>
-0

> <b_epik_Metal_Only>
0

> <s_lp_Force_Field>
OPLS_2005

> <r_lp_Energy>
23.9909

> <b_lp_Chiralities_Consistent>
1

> <s_lp_Variant>
AV-unprocessed.smi:2318-1

> <Gold.Version>
5.8.1

> <Gold.Id.Protein>
6NUR|6NUR_protein|mol2

> <Gold.PLP.Fitness>
50.5268

> <Gold.PLP.PLP>
-45.5567

> <Gold.PLP.part.hbond>
-2.3365

> <Gold.PLP.part.metal>
0.0000

> <Gold.PLP.part.buried>
-5.4756

> <Gold.PLP.part.nonpolar>
-37.3925

> <Gold.PLP.part.repulsive>
0.1231

> <Gold.PLP.ligand.clash>
0.0000

> <Gold.PLP.ligand.torsion>
0.6797

> <Gold.PLP.Chemscore.Hbond>
2.0000

> <Gold.PLP.Chemscore.CHOScore>
0.0000

> <Gold.PLP.Chemscore.Metal>
0.0000

> <Gold.Chemscore.Hbonds>
donor molecule, donor type, donor heavy atom, donor atom, acceptor molecule, acceptor atom, score
      L1  H     6    26       P1  8028  1.00
      L1  H     9    27       P1  8028  1.00

> <Gold.PLP.Chemscore.Internal.Correction>
0.3295

> <Gold.Rescore>
     Score         DG    S(hbond)    S(metal)    S(lipo)     H(rot)  DE(clash)    DE(int)     intcor
     15.90     -17.96       1.87        0.00      81.86       1.30       0.08       1.98       ----

> <Gold.Chemscore.Fitness>
15.8995

> <Gold.Chemscore.DG>
-17.9623

> <Gold.Chemscore.ZeroCoef>
-5.4800

> <Gold.Chemscore.Hbond>
1.8664

> <Gold.Chemscore.Metal>
0.0000

> <Gold.Chemscore.Lipo>
81.8577

> <Gold.Chemscore.Internal_Hbond>
0.0000

> <Gold.Chemscore.DEClash>
0.0781

> <Gold.Chemscore.DEInternal>
1.9846

> <Gold.Chemscore.Rot>
1.3003

> <Gold.Chemscore.Internal.Correction>
   9.000000E+99

> <Gold.Chemscore.Hbonds>
donor molecule, donor type, donor heavy atom, donor atom, acceptor molecule, acceptor atom, score
      L1  H     6    26       P1  8028  0.85
      L1  H     9    27       P1  8028  0.97

> <Gold.Chemscore.Hbond.Weighted>
-6.2337

> <Gold.Chemscore.Metal.Weighted>
-0.0000

> <Gold.Chemscore.Lipo.Weighted>
-9.5773

> <Gold.Chemscore.Internal_Hbond.Weighted>
0.0000

> <Gold.Chemscore.DEClash.Weighted>
0.0781

> <Gold.Chemscore.DEInternal.Weighted>
1.9846

> <Gold.Chemscore.Rot.Weighted>
3.3287

> <Gold.Chemscore.Internal.Correction.Weighted>
   9.000000E+99

> <Gold.Protein.RotatedTorsions>
[ 6907 6896 6895 6894 ] final  -31.93 input  -60.11 | X-H torsion
[ 7974 7965 7964 7962 ] final  -58.70 input  175.53 | X-H torsion
[ 8008 7997 7996 7995 ] final -170.26 input   59.86 | X-H torsion
[ 10167 10162 10161 10158 ] final -161.66 input  -65.29 | X-H torsion
[ 10718 10713 10712 10709 ] final   42.69 input   66.30 | X-H torsion
[ 10763 10752 10751 10750 ] final  176.50 input  -60.55 | X-H torsion
[ 11005 11000 10999 10996 ] final  -41.64 input  -57.11 | X-H torsion

> <Gold.Protein.ActiveResidues>
 VAL166  LYS551  ARG553  GLY616  TRP617  ASP618  TYR619  PRO620  LYS621  CYS622 
 ASP623  PHE694  ASN695  SER759  ASP760  ASP761  ALA762  ILE779  LEU786  VAL792 
 PHE793  MET794  SER795  GLU796  ALA797  LYS798  CYS799  TRP800  GLU811  SER814 

> <Gold.Protein.RotatedAtoms>
  151.0855  134.9884  159.8376 H   0  0  0  0  0  0  0  0  0  0  0  0  # atno 6907 bound_to 6896
  152.5424  134.2130  159.8767 H   0  0  0  0  0  0  0  0  0  0  0  0  # atno 6908 bound_to 6896
  151.2162  133.4484  159.2633 H   0  0  0  0  0  0  0  0  0  0  0  0  # atno 6909 bound_to 6896
  145.8362  140.8447  143.0058 H   0  0  0  0  0  0  0  0  0  0  0  0  # atno 7974 bound_to 7965
  155.9160  140.1065  157.1244 H   0  0  0  0  0  0  0  0  0  0  0  0  # atno 8008 bound_to 7997
  154.4046  140.1265  156.4682 H   0  0  0  0  0  0  0  0  0  0  0  0  # atno 8009 bound_to 7997
  155.7254  140.3469  155.5037 H   0  0  0  0  0  0  0  0  0  0  0  0  # atno 8010 bound_to 7997
  139.6449  144.0191  152.2120 H   0  0  0  0  0  0  0  0  0  0  0  0  # atno 10167 bound_to 10162
  157.4077  130.7896  149.7403 H   0  0  0  0  0  0  0  0  0  0  0  0  # atno 10718 bound_to 10713
  154.4819  135.2775  155.1564 H   0  0  0  0  0  0  0  0  0  0  0  0  # atno 10763 bound_to 10752
  154.3270  135.6198  153.5537 H   0  0  0  0  0  0  0  0  0  0  0  0  # atno 10764 bound_to 10752
  152.9876  135.5756  154.5222 H   0  0  0  0  0  0  0  0  0  0  0  0  # atno 10765 bound_to 10752
  141.0260  133.6841  156.2485 H   0  0  0  0  0  0  0  0  0  0  0  0  # atno 11005 bound_to 11000
  144.6736  140.0744  143.7471 LP  0  0  0  0  0  0  0  0  0  0  0  0  # atno 17320 bound_to 7965
  145.9516  139.2738  143.1208 LP  0  0  0  0  0  0  0  0  0  0  0  0  # atno 17321 bound_to 7965
  139.9890  144.6375  150.7832 LP  0  0  0  0  0  0  0  0  0  0  0  0  # atno 17342 bound_to 10162
  140.7509  143.2964  151.3193 LP  0  0  0  0  0  0  0  0  0  0  0  0  # atno 17343 bound_to 10162
  155.9841  130.3994  150.3328 LP  0  0  0  0  0  0  0  0  0  0  0  0  # atno 17370 bound_to 10713
  157.1463  131.0309  151.2905 LP  0  0  0  0  0  0  0  0  0  0  0  0  # atno 17371 bound_to 10713
  140.6490  134.5087  157.5576 LP  0  0  0  0  0  0  0  0  0  0  0  0  # atno 17394 bound_to 11000
  139.9176  134.8214  156.1314 LP  0  0  0  0  0  0  0  0  0  0  0  0  # atno 17395 bound_to 11000

$$$$
