AV-unprocessed.smi:2874|AV-procd|sdf|11039|dock3
  -GOLD-   2272015503D 1   1.00000     0.00000
 Structure written by MMmdl.
 40 42  0  0  0  0  0  0  0  0  2 V2000
  148.4856  144.8940  160.6825 C   0  0  0  0  0  0  0  0  0  0  0  0
  149.3983  144.1534  159.8923 O   0  0  0  0  0  0  0  0  0  0  0  0
  150.7172  144.6719  159.9525 C   0  0  0  0  0  0  0  0  0  0  0  0
  151.4722  144.3031  158.6676 C   0  0  0  0  0  0  0  0  0  0  0  0
  151.8407  142.8810  158.6290 N   0  0  0  0  0  0  0  0  0  0  0  0
  151.5844  141.9250  157.6924 C   0  0  0  0  0  0  0  0  0  0  0  0
  150.6810  142.1535  156.1917 S   0  0  0  0  0  0  0  0  0  0  0  0
  150.4134  140.5018  155.4819 C   0  0  0  0  0  0  0  0  0  0  0  0
  149.1448  140.4770  154.6476 C   0  0  0  0  0  0  0  0  0  0  0  0
  148.8686  139.3397  154.0014 N   0  0  0  0  0  0  0  0  0  0  0  0
  147.7499  139.3232  153.2445 C   0  0  0  0  0  0  0  0  0  0  0  0
  146.9102  140.4505  153.1373 C   0  0  0  0  0  0  0  0  0  0  0  0
  147.3016  141.5906  153.8670 C   0  0  0  0  0  0  0  0  0  0  0  0
  146.5434  142.7577  153.8294 N   0  0  0  0  0  0  0  0  0  0  0  0
  148.4206  141.6015  154.6222 N   0  0  0  0  0  0  0  0  0  0  0  0
  152.1573  140.7666  158.1220 N   0  3  0  0  0  0  0  0  0  0  0  0
  152.7810  140.9802  159.3514 C   0  0  0  0  0  0  0  0  0  0  0  0
  153.4848  140.1111  160.1788 C   0  0  0  0  0  0  0  0  0  0  0  0
  154.0019  140.6532  161.3741 C   0  0  0  0  0  0  0  0  0  0  0  0
  154.8857  139.6351  162.4502 Cl  0  0  0  0  0  0  0  0  0  0  0  0
  153.8107  142.0109  161.7049 C   0  0  0  0  0  0  0  0  0  0  0  0
  153.0945  142.8829  160.8587 C   0  0  0  0  0  0  0  0  0  0  0  0
  152.5850  142.3373  159.6812 C   0  0  0  0  0  0  0  0  0  0  0  0
  147.4919  144.4534  160.6031 H   0  0  0  0  0  0  0  0  0  0  0  0
  148.4226  145.9296  160.3459 H   0  0  0  0  0  0  0  0  0  0  0  0
  148.7755  144.8840  161.7341 H   0  0  0  0  0  0  0  0  0  0  0  0
  150.6847  145.7561  160.0697 H   0  0  0  0  0  0  0  0  0  0  0  0
  151.2413  144.2659  160.8188 H   0  0  0  0  0  0  0  0  0  0  0  0
  150.8822  144.5414  157.7822 H   0  0  0  0  0  0  0  0  0  0  0  0
  152.3895  144.8879  158.5930 H   0  0  0  0  0  0  0  0  0  0  0  0
  151.2658  140.2409  154.8541 H   0  0  0  0  0  0  0  0  0  0  0  0
  150.3682  139.7654  156.2854 H   0  0  0  0  0  0  0  0  0  0  0  0
  147.5244  138.4063  152.7201 H   0  0  0  0  0  0  0  0  0  0  0  0
  146.0168  140.4344  152.5303 H   0  0  0  0  0  0  0  0  0  0  0  0
  145.6973  142.8167  153.2808 H   0  0  0  0  0  0  0  0  0  0  0  0
  146.7443  143.5338  154.4434 H   0  0  0  0  0  0  0  0  0  0  0  0
  153.6321  139.0717  159.9246 H   0  0  0  0  0  0  0  0  0  0  0  0
  154.2214  142.3931  162.6282 H   0  0  0  0  0  0  0  0  0  0  0  0
  152.9549  143.9211  161.1217 H   0  0  0  0  0  0  0  0  0  0  0  0
  152.1113  139.8918  157.6147 H   0  0  0  0  0  0  0  0  0  0  0  0
  1  2  1  0  0  0  0
  1 24  1  0  0  0  0
  1 25  1  0  0  0  0
  1 26  1  0  0  0  0
  2  3  1  0  0  0  0
  3  4  1  0  0  0  0
  3 27  1  0  0  0  0
  3 28  1  0  0  0  0
  4  5  1  0  0  0  0
  4 29  1  0  0  0  0
  4 30  1  0  0  0  0
  5 23  1  0  0  0  0
  5  6  1  0  0  0  0
  6  7  1  0  0  0  0
  6 16  2  0  0  0  0
  7  8  1  0  0  0  0
  8  9  1  0  0  0  0
  8 31  1  0  0  0  0
  8 32  1  0  0  0  0
  9 15  1  0  0  0  0
  9 10  2  0  0  0  0
 10 11  1  0  0  0  0
 11 12  2  0  0  0  0
 11 33  1  0  0  0  0
 12 13  1  0  0  0  0
 12 34  1  0  0  0  0
 13 14  1  0  0  0  0
 13 15  2  0  0  0  0
 14 35  1  0  0  0  0
 14 36  1  0  0  0  0
 16 17  1  0  0  0  0
 16 40  1  0  0  0  0
 17 23  2  0  0  0  0
 17 18  1  0  0  0  0
 18 19  2  0  0  0  0
 18 37  1  0  0  0  0
 19 20  1  0  0  0  0
 19 21  1  0  0  0  0
 21 22  2  0  0  0  0
 21 38  1  0  0  0  0
 22 23  1  0  0  0  0
 22 39  1  0  0  0  0
M  CHG  1  16   1
M  END
> <s_m_source_file>
AV-unprocessed.smi

> <i_m_source_file_index>
2874

> <i_lp_mmshare_version>
43012

> <i_f3d_flags>
0

> <s_epik_input>
W2NIXTFjKENsKVtjSF1bY0hdYyhjMTIpbihbQ0gyXVtDSDJdT1tDSDNdKWMobjIpU1tDSDJdYzNuW2NIXVtjSF1jKG4zKVtOSDJd

> <s_epik_cmdline>
J2VwaWtfcHl0aG9uJywgJy1waCcsICc3LjAnLCAnLXRuJywgJzgnLCAnLW1hJywgJzIwMCcsICctbWV0YWxfYmluZGluZycsICctaW1hZScsICc8aW5maWxlLm1hZT4nLCAnLW9tYWUnLCAnPG91dGZpbGUubWFlPic=

> <r_lp_tautomer_probability>
1

> <r_epik_Ionization_Penalty>
2.48176

> <r_epik_Ionization_Penalty_Charging>
2.48043

> <r_epik_Ionization_Penalty_Neutral>
0.00132706

> <r_epik_State_Penalty>
2.64401

> <r_epik_Charging_Adjusted_Penalty>
5.12444

> <i_epik_Tot_Q>
1

> <i_epik_Tot_abs_Q>
1

> <r_epik_Metal_State_Penalty>
2.65168

> <b_epik_Metal_Only>
0

> <s_lp_Force_Field>
OPLS_2005

> <r_lp_Energy>
0.65944

> <b_lp_Chiralities_Consistent>
1

> <s_lp_Variant>
AV-unprocessed.smi:2874-2

> <Gold.Version>
5.8.1

> <Gold.Id.Protein>
6NUR|6NUR_protein|mol2

> <Gold.PLP.Fitness>
50.1383

> <Gold.PLP.PLP>
-48.0355

> <Gold.PLP.part.hbond>
-0.6079

> <Gold.PLP.part.metal>
0.0000

> <Gold.PLP.part.buried>
-4.7238

> <Gold.PLP.part.nonpolar>
-42.7747

> <Gold.PLP.part.repulsive>
0.9681

> <Gold.PLP.ligand.clash>
0.0000

> <Gold.PLP.ligand.torsion>
0.4869

> <Gold.PLP.Chemscore.Hbond>
0.0000

> <Gold.PLP.Chemscore.CHOScore>
1.0000

> <Gold.PLP.Chemscore.Metal>
0.0000

> <Gold.Chemscore.Hbonds>
donor molecule, donor type, donor heavy atom, donor atom, acceptor molecule, acceptor atom, score
      L1  C    11    33       P1  7948  0.52

> <Gold.PLP.Chemscore.Internal.Correction>
0.0767

> <Gold.Rescore>
     Score         DG    S(hbond)    S(metal)    S(lipo)     H(rot)  DE(clash)    DE(int)     intcor
     12.64     -13.48       0.00        0.00     123.23       2.51       0.31       0.53       ----

> <Gold.Chemscore.Fitness>
12.6404

> <Gold.Chemscore.DG>
-13.4754

> <Gold.Chemscore.ZeroCoef>
-5.4800

> <Gold.Chemscore.Hbond>
0.0000

> <Gold.Chemscore.Metal>
0.0000

> <Gold.Chemscore.Lipo>
123.2293

> <Gold.Chemscore.Internal_Hbond>
0.0000

> <Gold.Chemscore.DEClash>
0.3081

> <Gold.Chemscore.DEInternal>
0.5269

> <Gold.Chemscore.Rot>
2.5088

> <Gold.Chemscore.Internal.Correction>
   9.000000E+99

> <Gold.Chemscore.Hbond.Weighted>
-0.0000

> <Gold.Chemscore.Metal.Weighted>
-0.0000

> <Gold.Chemscore.Lipo.Weighted>
-14.4178

> <Gold.Chemscore.Internal_Hbond.Weighted>
0.0000

> <Gold.Chemscore.DEClash.Weighted>
0.3081

> <Gold.Chemscore.DEInternal.Weighted>
0.5269

> <Gold.Chemscore.Rot.Weighted>
6.4224

> <Gold.Chemscore.Internal.Correction.Weighted>
   9.000000E+99

> <Gold.Protein.RotatedTorsions>
[ 6907 6896 6895 6894 ] final -111.89 input  -60.11 | X-H torsion
[ 7974 7965 7964 7962 ] final  -58.93 input  175.53 | X-H torsion
[ 8008 7997 7996 7995 ] final -109.88 input   59.86 | X-H torsion
[ 10167 10162 10161 10158 ] final -114.85 input  -65.29 | X-H torsion
[ 10718 10713 10712 10709 ] final  142.25 input   66.30 | X-H torsion
[ 10763 10752 10751 10750 ] final  110.27 input  -60.55 | X-H torsion
[ 11005 11000 10999 10996 ] final   40.54 input  -57.11 | X-H torsion

> <Gold.Protein.ActiveResidues>
 VAL166  LYS551  ARG553  GLY616  TRP617  ASP618  TYR619  PRO620  LYS621  CYS622 
 ASP623  PHE694  ASN695  SER759  ASP760  ASP761  ALA762  ILE779  LEU786  VAL792 
 PHE793  MET794  SER795  GLU796  ALA797  LYS798  CYS799  TRP800  GLU811  SER814 

> <Gold.Protein.RotatedAtoms>
  150.7721  133.9169  159.3386 H   0  0  0  0  0  0  0  0  0  0  0  0  # atno 6907 bound_to 6896
  151.7053  135.0921  160.0267 H   0  0  0  0  0  0  0  0  0  0  0  0  # atno 6908 bound_to 6896
  152.3742  133.6422  159.6146 H   0  0  0  0  0  0  0  0  0  0  0  0  # atno 6909 bound_to 6896
  145.8334  140.8464  143.0071 H   0  0  0  0  0  0  0  0  0  0  0  0  # atno 7974 bound_to 7965
  154.9660  140.0398  157.2212 H   0  0  0  0  0  0  0  0  0  0  0  0  # atno 8008 bound_to 7997
  154.7845  140.2824  155.6016 H   0  0  0  0  0  0  0  0  0  0  0  0  # atno 8009 bound_to 7997
  156.2941  140.2585  156.2678 H   0  0  0  0  0  0  0  0  0  0  0  0  # atno 8010 bound_to 7997
  140.0965  143.4652  152.1838 H   0  0  0  0  0  0  0  0  0  0  0  0  # atno 10167 bound_to 10162
  157.3827  131.0994  151.0723 H   0  0  0  0  0  0  0  0  0  0  0  0  # atno 10718 bound_to 10713
  153.4466  135.3753  155.2259 H   0  0  0  0  0  0  0  0  0  0  0  0  # atno 10763 bound_to 10752
  154.8755  135.3875  154.4089 H   0  0  0  0  0  0  0  0  0  0  0  0  # atno 10764 bound_to 10752
  153.4642  135.7087  153.6096 H   0  0  0  0  0  0  0  0  0  0  0  0  # atno 10765 bound_to 10752
  140.1921  134.3974  155.8141 H   0  0  0  0  0  0  0  0  0  0  0  0  # atno 11005 bound_to 11000
  144.6738  140.0706  143.7473 LP  0  0  0  0  0  0  0  0  0  0  0  0  # atno 17320 bound_to 7965
  145.9545  139.2757  143.1192 LP  0  0  0  0  0  0  0  0  0  0  0  0  # atno 17321 bound_to 7965
  139.5695  144.7454  151.3930 LP  0  0  0  0  0  0  0  0  0  0  0  0  # atno 17342 bound_to 10162
  140.7001  143.7653  150.7389 LP  0  0  0  0  0  0  0  0  0  0  0  0  # atno 17343 bound_to 10162
  157.1786  130.6299  149.5664 LP  0  0  0  0  0  0  0  0  0  0  0  0  # atno 17370 bound_to 10713
  155.9779  130.4761  150.6625 LP  0  0  0  0  0  0  0  0  0  0  0  0  # atno 17371 bound_to 10713
  141.2226  133.7051  156.8112 LP  0  0  0  0  0  0  0  0  0  0  0  0  # atno 17394 bound_to 11000
  140.2148  134.8800  157.3314 LP  0  0  0  0  0  0  0  0  0  0  0  0  # atno 17395 bound_to 11000

$$$$
