AV-unprocessed.smi:3082|AV-procd|sdf|11742|dock4
  -GOLD-   2272017133D 1   1.00000     0.00000
 Structure written by MMmdl.
 28 29  0  0  0  0  0  0  0  0  2 V2000
  155.0519  139.5181  161.6525 C   0  0  0  0  0  0  0  0  0  0  0  0
  154.1492  140.3191  160.7592 C   0  0  0  0  0  0  0  0  0  0  0  0
  153.2037  139.8361  159.8110 C   0  0  0  0  0  0  0  0  0  0  0  0
  152.5669  140.8088  159.1802 N   0  0  0  0  0  0  0  0  0  0  0  0
  153.0790  141.9458  159.7014 N   0  0  0  0  0  0  0  0  0  0  0  0
  152.6088  143.2431  159.2388 C   0  0  2  0  0  0  0  0  0  0  0  0
  152.1990  144.1514  160.4157 C   0  0  0  0  0  0  0  0  0  0  0  0
  151.6876  145.5027  159.8932 C   0  0  0  0  0  0  0  0  0  0  0  0
  150.5480  145.3037  158.8798 C   0  0  0  0  0  0  0  0  0  0  0  0
  150.9796  144.4236  157.7719 N   0  3  0  0  0  0  0  0  0  0  0  0
  151.4445  143.0979  158.2354 C   0  0  0  0  0  0  0  0  0  0  0  0
  154.0352  141.6767  160.6584 C   0  0  0  0  0  0  0  0  0  0  0  0
  154.9026  138.4457  161.5244 H   0  0  0  0  0  0  0  0  0  0  0  0
  154.8782  139.7425  162.7050 H   0  0  0  0  0  0  0  0  0  0  0  0
  156.1033  139.7219  161.4480 H   0  0  0  0  0  0  0  0  0  0  0  0
  152.9636  138.8127  159.5629 H   0  0  0  0  0  0  0  0  0  0  0  0
  153.4433  143.7190  158.7204 H   0  0  0  0  0  0  0  0  0  0  0  0
  151.4160  143.6753  161.0077 H   0  0  0  0  0  0  0  0  0  0  0  0
  153.0451  144.3067  161.0862 H   0  0  0  0  0  0  0  0  0  0  0  0
  151.3442  146.1182  160.7251 H   0  0  0  0  0  0  0  0  0  0  0  0
  152.5070  146.0476  159.4225 H   0  0  0  0  0  0  0  0  0  0  0  0
  149.6770  144.8649  159.3687 H   0  0  0  0  0  0  0  0  0  0  0  0
  150.2340  146.2639  158.4697 H   0  0  0  0  0  0  0  0  0  0  0  0
  150.2062  144.2948  157.1350 H   0  0  0  0  0  0  0  0  0  0  0  0
  151.7588  142.5127  157.3706 H   0  0  0  0  0  0  0  0  0  0  0  0
  150.6030  142.5708  158.6877 H   0  0  0  0  0  0  0  0  0  0  0  0
  154.5530  142.4655  161.1843 H   0  0  0  0  0  0  0  0  0  0  0  0
  151.7365  144.8751  157.2788 H   0  0  0  0  0  0  0  0  0  0  0  0
  1  2  1  0  0  0  0
  1 13  1  0  0  0  0
  1 14  1  0  0  0  0
  1 15  1  0  0  0  0
  2 12  2  0  0  0  0
  2  3  1  0  0  0  0
  3  4  2  0  0  0  0
  3 16  1  0  0  0  0
  4  5  1  0  0  0  0
  5  6  1  0  0  0  0
  5 12  1  0  0  0  0
  6 11  1  0  0  0  0
  6  7  1  0  0  0  0
  6 17  1  0  0  0  0
  7  8  1  0  0  0  0
  7 18  1  0  0  0  0
  7 19  1  0  0  0  0
  8  9  1  0  0  0  0
  8 20  1  0  0  0  0
  8 21  1  0  0  0  0
  9 10  1  0  0  0  0
  9 22  1  0  0  0  0
  9 23  1  0  0  0  0
 10 11  1  0  0  0  0
 10 24  1  0  0  0  0
 10 28  1  0  0  0  0
 11 25  1  0  0  0  0
 11 26  1  0  0  0  0
 12 27  1  0  0  0  0
M  CHG  1  10   1
M  END
> <s_m_source_file>
AV-unprocessed.smi

> <i_m_source_file_index>
3082

> <i_lp_mmshare_version>
43012

> <i_f3d_flags>
0

> <s_epik_input>
W0NIM11jMVtjSF1ubihbY0hdMSlbQ0BASF0yW0NIMl1bQ0gyXVtDSDJdW05IXVtDSDJdMg==

> <s_epik_cmdline>
J2VwaWtfcHl0aG9uJywgJy1waCcsICc3LjAnLCAnLXRuJywgJzgnLCAnLW1hJywgJzIwMCcsICctbWV0YWxfYmluZGluZycsICctaW1hZScsICc8aW5maWxlLm1hZT4nLCAnLW9tYWUnLCAnPG91dGZpbGUubWFlPic=

> <r_lp_tautomer_probability>
1

> <r_epik_Ionization_Penalty>
0.000667973

> <r_epik_Ionization_Penalty_Charging>
0.000651447

> <r_epik_Ionization_Penalty_Neutral>
1.65255e-05

> <r_epik_State_Penalty>
-0

> <r_epik_Charging_Adjusted_Penalty>
0.000651447

> <i_epik_Tot_Q>
1

> <i_epik_Tot_abs_Q>
1

> <r_epik_Metal_State_Penalty>
-0

> <b_epik_Metal_Only>
0

> <s_lp_Force_Field>
OPLS_2005

> <r_lp_Energy>
15.6496

> <b_lp_Chiralities_Consistent>
1

> <s_lp_Variant>
AV-unprocessed.smi:3082-1

> <Gold.Version>
5.8.1

> <Gold.Id.Protein>
6NUR|6NUR_protein|mol2

> <Gold.PLP.Fitness>
37.2334

> <Gold.PLP.PLP>
-31.4090

> <Gold.PLP.part.hbond>
-1.0000

> <Gold.PLP.part.metal>
0.0000

> <Gold.PLP.part.buried>
-3.2186

> <Gold.PLP.part.nonpolar>
-27.5882

> <Gold.PLP.part.repulsive>
0.0620

> <Gold.PLP.ligand.clash>
0.0000

> <Gold.PLP.ligand.torsion>
0.0968

> <Gold.PLP.Chemscore.Hbond>
2.0000

> <Gold.PLP.Chemscore.CHOScore>
0.0000

> <Gold.PLP.Chemscore.Metal>
0.0000

> <Gold.Chemscore.Hbonds>
donor molecule, donor type, donor heavy atom, donor atom, acceptor molecule, acceptor atom, score
      L1  H    10    24       P1  8028  2.00

> <Gold.PLP.Chemscore.Internal.Correction>
0.0179

> <Gold.Rescore>
     Score         DG    S(hbond)    S(metal)    S(lipo)     H(rot)  DE(clash)    DE(int)     intcor
     16.61     -16.72       0.95        0.00      90.76       1.00       0.10       0.01       ----

> <Gold.Chemscore.Fitness>
16.6133

> <Gold.Chemscore.DG>
-16.7199

> <Gold.Chemscore.ZeroCoef>
-5.4800

> <Gold.Chemscore.Hbond>
0.9525

> <Gold.Chemscore.Metal>
0.0000

> <Gold.Chemscore.Lipo>
90.7556

> <Gold.Chemscore.Internal_Hbond>
0.0000

> <Gold.Chemscore.DEClash>
0.0968

> <Gold.Chemscore.DEInternal>
0.0098

> <Gold.Chemscore.Rot>
1.0000

> <Gold.Chemscore.Internal.Correction>
   9.000000E+99

> <Gold.Chemscore.Hbonds>
donor molecule, donor type, donor heavy atom, donor atom, acceptor molecule, acceptor atom, score
      L1  H    10    24       P1  8028  0.75

> <Gold.Chemscore.Hbond.Weighted>
-3.1815

> <Gold.Chemscore.Metal.Weighted>
-0.0000

> <Gold.Chemscore.Lipo.Weighted>
-10.6184

> <Gold.Chemscore.Internal_Hbond.Weighted>
0.0000

> <Gold.Chemscore.DEClash.Weighted>
0.0968

> <Gold.Chemscore.DEInternal.Weighted>
0.0098

> <Gold.Chemscore.Rot.Weighted>
2.5600

> <Gold.Chemscore.Internal.Correction.Weighted>
   9.000000E+99

> <Gold.Protein.RotatedTorsions>
[ 6907 6896 6895 6894 ] final  -27.96 input  -60.11 | X-H torsion
[ 7974 7965 7964 7962 ] final -157.44 input  175.53 | X-H torsion
[ 8008 7997 7996 7995 ] final  -73.57 input   59.86 | X-H torsion
[ 10167 10162 10161 10158 ] final -173.19 input  -65.29 | X-H torsion
[ 10718 10713 10712 10709 ] final  162.85 input   66.30 | X-H torsion
[ 10763 10752 10751 10750 ] final  -79.81 input  -60.55 | X-H torsion
[ 11005 11000 10999 10996 ] final  102.12 input  -57.11 | X-H torsion

> <Gold.Protein.ActiveResidues>
 VAL166  LYS551  ARG553  GLY616  TRP617  ASP618  TYR619  PRO620  LYS621  CYS622 
 ASP623  PHE694  ASN695  SER759  ASP760  ASP761  ALA762  ILE779  LEU786  VAL792 
 PHE793  MET794  SER795  GLU796  ALA797  LYS798  CYS799  TRP800  GLU811  SER814 

> <Gold.Protein.RotatedAtoms>
  151.1396  135.0172  159.8619 H   0  0  0  0  0  0  0  0  0  0  0  0  # atno 6907 bound_to 6896
  152.5452  134.1515  159.8530 H   0  0  0  0  0  0  0  0  0  0  0  0  # atno 6908 bound_to 6896
  151.1589  133.4813  159.2627 H   0  0  0  0  0  0  0  0  0  0  0  0  # atno 6909 bound_to 6896
  144.7548  140.3969  143.6020 H   0  0  0  0  0  0  0  0  0  0  0  0  # atno 7974 bound_to 7965
  154.5258  140.0777  156.8256 H   0  0  0  0  0  0  0  0  0  0  0  0  # atno 8008 bound_to 7997
  155.3479  140.3411  155.4221 H   0  0  0  0  0  0  0  0  0  0  0  0  # atno 8009 bound_to 7997
  156.1730  140.1626  156.8400 H   0  0  0  0  0  0  0  0  0  0  0  0  # atno 8010 bound_to 7997
  139.5702  144.1660  152.1372 H   0  0  0  0  0  0  0  0  0  0  0  0  # atno 10167 bound_to 10162
  157.1167  131.0482  151.2433 H   0  0  0  0  0  0  0  0  0  0  0  0  # atno 10718 bound_to 10713
  154.5433  135.5683  153.6858 H   0  0  0  0  0  0  0  0  0  0  0  0  # atno 10763 bound_to 10752
  152.9969  135.6233  154.2472 H   0  0  0  0  0  0  0  0  0  0  0  0  # atno 10764 bound_to 10752
  154.2404  135.2862  155.2835 H   0  0  0  0  0  0  0  0  0  0  0  0  # atno 10765 bound_to 10752
  139.8776  134.9211  156.5010 H   0  0  0  0  0  0  0  0  0  0  0  0  # atno 11005 bound_to 11000
  145.6817  139.1620  143.2697 LP  0  0  0  0  0  0  0  0  0  0  0  0  # atno 17320 bound_to 7965
  146.1545  140.6878  142.9306 LP  0  0  0  0  0  0  0  0  0  0  0  0  # atno 17321 bound_to 7965
  140.1191  144.5389  150.6874 LP  0  0  0  0  0  0  0  0  0  0  0  0  # atno 17342 bound_to 10162
  140.6986  143.2420  151.4929 LP  0  0  0  0  0  0  0  0  0  0  0  0  # atno 17343 bound_to 10162
  157.4512  130.7599  149.7153 LP  0  0  0  0  0  0  0  0  0  0  0  0  # atno 17370 bound_to 10713
  155.9838  130.3997  150.3346 LP  0  0  0  0  0  0  0  0  0  0  0  0  # atno 17371 bound_to 10713
  140.8589  133.8075  155.9245 LP  0  0  0  0  0  0  0  0  0  0  0  0  # atno 17394 bound_to 11000
  140.9069  134.2309  157.5009 LP  0  0  0  0  0  0  0  0  0  0  0  0  # atno 17395 bound_to 11000

$$$$
