AV-unprocessed.smi:155|AV-procd|sdf|1280|dock9
  -GOLD-   2262018553D 1   1.00000     0.00000
 Structure written by MMmdl.
 64 67  0  0  0  0  0  0  0  0  3 V2000
  145.9840  129.8197  151.6853 C   0  0  0  0  0  0  0  0  0  0  0  0
  146.9576  130.9119  151.9123 N   0  3  0  0  0  0  0  0  0  0  0  0
  147.6840  130.7215  153.1891 C   0  0  0  0  0  0  0  0  0  0  0  0
  146.3279  132.2531  151.7710 C   0  0  0  0  0  0  0  0  0  0  0  0
  147.2586  133.4250  152.1632 C   0  0  0  0  0  0  0  0  0  0  0  0
  146.5524  134.7193  152.3649 N   0  3  1  0  0  0  0  0  0  0  0  0
  145.8438  135.2038  151.1502 C   0  0  0  0  0  0  0  0  0  0  0  0
  146.1158  136.7030  150.9346 C   0  0  0  0  0  0  0  0  0  0  0  0
  145.4229  137.6239  151.9565 C   0  0  0  0  0  0  0  0  0  0  0  0
  145.7083  137.2592  153.3437 N   0  0  0  0  0  0  0  0  0  0  0  0
  146.8527  137.6591  153.9779 C   0  0  0  0  0  0  0  0  0  0  0  0
  147.5751  136.7100  154.6333 N   0  0  0  0  0  0  0  0  0  0  0  0
  148.7121  137.0152  155.2613 C   0  0  0  0  0  0  0  0  0  0  0  0
  149.3165  138.1976  155.3541 N   0  0  0  0  0  0  0  0  0  0  0  0
  148.6048  139.1665  154.7130 C   0  0  0  0  0  0  0  0  0  0  0  0
  147.3788  138.9903  154.0033 C   0  0  0  0  0  0  0  0  0  0  0  0
  146.9869  140.2135  153.4682 N   0  0  0  0  0  0  0  0  0  0  0  0
  147.9099  141.0542  153.8434 C   0  0  0  0  0  0  0  0  0  0  0  0
  148.9161  140.5105  154.6055 N   0  0  0  0  0  0  0  0  0  0  0  0
  150.0631  141.2140  155.1580 C   0  0  0  0  0  0  0  0  0  0  0  0
  149.9222  141.5985  156.6494 C   0  0  2  0  0  0  0  0  0  0  0  0
  148.7532  142.3628  156.8724 O   0  0  0  0  0  0  0  0  0  0  0  0
  151.1498  142.3023  157.2721 C   0  0  2  0  0  0  0  0  0  0  0  0
  151.2833  142.1848  158.7936 C   0  0  0  0  0  0  0  0  0  0  0  0
  152.1408  143.3878  159.1151 C   0  0  0  0  0  0  0  0  0  0  0  0
  151.5896  144.4257  158.1423 C   0  0  0  0  0  0  0  0  0  0  0  0
  151.2020  143.6975  156.9816 O   0  0  0  0  0  0  0  0  0  0  0  0
  144.9833  136.0875  153.8457 C   0  0  0  0  0  0  0  0  0  0  0  0
  145.7068  134.7450  153.5920 C   0  0  0  0  0  0  0  0  0  0  0  0
  145.1923  129.8396  152.4356 H   0  0  0  0  0  0  0  0  0  0  0  0
  146.4748  128.8468  151.7326 H   0  0  0  0  0  0  0  0  0  0  0  0
  145.5247  129.9047  150.6997 H   0  0  0  0  0  0  0  0  0  0  0  0
  147.0250  130.8848  154.0424 H   0  0  0  0  0  0  0  0  0  0  0  0
  148.5315  131.3988  153.2710 H   0  0  0  0  0  0  0  0  0  0  0  0
  148.0836  129.7093  153.2617 H   0  0  0  0  0  0  0  0  0  0  0  0
  146.0899  132.3939  150.7157 H   0  0  0  0  0  0  0  0  0  0  0  0
  145.3685  132.2802  152.2864 H   0  0  0  0  0  0  0  0  0  0  0  0
  147.7940  133.1317  153.0671 H   0  0  0  0  0  0  0  0  0  0  0  0
  148.0215  133.5659  151.3962 H   0  0  0  0  0  0  0  0  0  0  0  0
  146.1995  134.6798  150.2628 H   0  0  0  0  0  0  0  0  0  0  0  0
  144.7745  134.9940  151.2058 H   0  0  0  0  0  0  0  0  0  0  0  0
  147.1916  136.8771  150.9347 H   0  0  0  0  0  0  0  0  0  0  0  0
  145.7731  136.9837  149.9383 H   0  0  0  0  0  0  0  0  0  0  0  0
  145.6595  138.6703  151.7711 H   0  0  0  0  0  0  0  0  0  0  0  0
  144.3447  137.5613  151.8055 H   0  0  0  0  0  0  0  0  0  0  0  0
  149.2104  136.1944  155.7562 H   0  0  0  0  0  0  0  0  0  0  0  0
  147.8748  142.1028  153.5851 H   0  0  0  0  0  0  0  0  0  0  0  0
  150.9453  140.5885  155.0167 H   0  0  0  0  0  0  0  0  0  0  0  0
  150.2315  142.1123  154.5628 H   0  0  0  0  0  0  0  0  0  0  0  0
  149.7749  140.6694  157.2009 H   0  0  0  0  0  0  0  0  0  0  0  0
  148.9420  143.2678  156.6774 H   0  0  0  0  0  0  0  0  0  0  0  0
  152.0494  141.8726  156.8287 H   0  0  0  0  0  0  0  0  0  0  0  0
  150.3170  142.2838  159.2896 H   0  0  0  0  0  0  0  0  0  0  0  0
  151.7320  141.2427  159.1097 H   0  0  0  0  0  0  0  0  0  0  0  0
  152.0706  143.7007  160.1572 H   0  0  0  0  0  0  0  0  0  0  0  0
  153.1865  143.1760  158.8888 H   0  0  0  0  0  0  0  0  0  0  0  0
  150.7039  144.9053  158.5607 H   0  0  0  0  0  0  0  0  0  0  0  0
  152.3150  145.2034  157.9029 H   0  0  0  0  0  0  0  0  0  0  0  0
  144.7434  136.1998  154.9037 H   0  0  0  0  0  0  0  0  0  0  0  0
  144.0139  136.0540  153.3474 H   0  0  0  0  0  0  0  0  0  0  0  0
  144.9738  133.9378  153.5608 H   0  0  0  0  0  0  0  0  0  0  0  0
  146.3400  134.5466  154.4549 H   0  0  0  0  0  0  0  0  0  0  0  0
  147.6389  130.8282  151.1709 H   0  0  0  0  0  0  0  0  0  0  0  0
  147.2830  135.3996  152.5161 H   0  0  0  0  0  0  0  0  0  0  0  0
  1  2  1  0  0  0  0
  1 30  1  0  0  0  0
  1 31  1  0  0  0  0
  1 32  1  0  0  0  0
  2  3  1  0  0  0  0
  2  4  1  0  0  0  0
  2 63  1  0  0  0  0
  3 33  1  0  0  0  0
  3 34  1  0  0  0  0
  3 35  1  0  0  0  0
  4  5  1  0  0  0  0
  4 36  1  0  0  0  0
  4 37  1  0  0  0  0
  5  6  1  0  0  0  0
  5 38  1  0  0  0  0
  5 39  1  0  0  0  0
  6 29  1  0  0  0  0
  6  7  1  0  0  0  0
  6 64  1  0  0  0  0
  7  8  1  0  0  0  0
  7 40  1  0  0  0  0
  7 41  1  0  0  0  0
  8  9  1  0  0  0  0
  8 42  1  0  0  0  0
  8 43  1  0  0  0  0
  9 10  1  0  0  0  0
  9 44  1  0  0  0  0
  9 45  1  0  0  0  0
 10 11  1  0  0  0  0
 10 28  1  0  0  0  0
 11 16  1  0  0  0  0
 11 12  2  0  0  0  0
 12 13  1  0  0  0  0
 13 14  2  0  0  0  0
 13 46  1  0  0  0  0
 14 15  1  0  0  0  0
 15 19  1  0  0  0  0
 15 16  2  0  0  0  0
 16 17  1  0  0  0  0
 17 18  2  0  0  0  0
 18 19  1  0  0  0  0
 18 47  1  0  0  0  0
 19 20  1  0  0  0  0
 20 21  1  0  0  0  0
 20 48  1  0  0  0  0
 20 49  1  0  0  0  0
 21 22  1  0  0  0  0
 21 23  1  0  0  0  0
 21 50  1  0  0  0  0
 22 51  1  0  0  0  0
 23 27  1  0  0  0  0
 23 24  1  0  0  0  0
 23 52  1  0  0  0  0
 24 25  1  0  0  0  0
 24 53  1  0  0  0  0
 24 54  1  0  0  0  0
 25 26  1  0  0  0  0
 25 55  1  0  0  0  0
 25 56  1  0  0  0  0
 26 27  1  0  0  0  0
 26 57  1  0  0  0  0
 26 58  1  0  0  0  0
 28 29  1  0  0  0  0
 28 59  1  0  0  0  0
 28 60  1  0  0  0  0
 29 61  1  0  0  0  0
 29 62  1  0  0  0  0
M  CHG  1   2   1
M  CHG  1   6   1
M  END
> <s_m_source_file>
AV-unprocessed.smi

> <i_m_source_file_index>
155

> <i_lp_mmshare_version>
43012

> <i_f3d_flags>
0

> <s_epik_input>
W0NIM11OKFtDSDNdKVtDSDJdW0NIMl1OMVtDSDJdW0NIMl1bQ0gyXU4oW0NIMl1bQ0gyXTEpYyhuW2NIXW4yKWMoYzIzKW5bY0hdbjNbQ0gyXVtDQEhdKFtPSF0pW0NAQEhdNFtDSDJdW0NIMl1bQ0gyXU80

> <s_epik_cmdline>
J2VwaWtfcHl0aG9uJywgJy1waCcsICc3LjAnLCAnLXRuJywgJzgnLCAnLW1hJywgJzIwMCcsICctbWV0YWxfYmluZGluZycsICctaW1hZScsICc8aW5maWxlLm1hZT4nLCAnLW9tYWUnLCAnPG91dGZpbGUubWFlPic=

> <r_lp_tautomer_probability>
1

> <r_epik_Ionization_Penalty>
3.0333

> <r_epik_Ionization_Penalty_Charging>
3.03317

> <r_epik_Ionization_Penalty_Neutral>
0.000131872

> <r_epik_State_Penalty>
1.99939

> <r_epik_Charging_Adjusted_Penalty>
5.03256

> <i_epik_Tot_Q>
2

> <i_epik_Tot_abs_Q>
2

> <r_epik_Metal_State_Penalty>
2.00021

> <b_epik_Metal_Only>
0

> <s_lp_Force_Field>
OPLS_2005

> <r_lp_Energy>
60.5665

> <b_lp_Chiralities_Consistent>
1

> <s_lp_Variant>
AV-unprocessed.smi:155-14

> <Gold.Version>
5.8.1

> <Gold.Id.Protein>
6NUR|6NUR_protein|mol2

> <Gold.PLP.Fitness>
50.4126

> <Gold.PLP.PLP>
-41.2754

> <Gold.PLP.part.hbond>
-3.0000

> <Gold.PLP.part.metal>
0.0000

> <Gold.PLP.part.buried>
-0.6672

> <Gold.PLP.part.nonpolar>
-38.7777

> <Gold.PLP.part.repulsive>
1.0005

> <Gold.PLP.ligand.clash>
0.0000

> <Gold.PLP.ligand.torsion>
1.3753

> <Gold.PLP.Chemscore.Hbond>
3.8560

> <Gold.PLP.Chemscore.CHOScore>
0.0000

> <Gold.PLP.Chemscore.Metal>
0.0000

> <Gold.Chemscore.Hbonds>
donor molecule, donor type, donor heavy atom, donor atom, acceptor molecule, acceptor atom, score
      L1  H     2    63       P1 10747  1.00
      L1  H     6    64       P1  7948  1.86
      L1  H    22    51       P1  8028  1.00

> <Gold.PLP.Chemscore.Internal.Correction>
0.3198

> <Gold.Rescore>
     Score         DG    S(hbond)    S(metal)    S(lipo)     H(rot)  DE(clash)    DE(int)     intcor
     16.66     -20.71       2.79        0.00     110.59       2.75       1.30       2.76       ----

> <Gold.Chemscore.Fitness>
16.6557

> <Gold.Chemscore.DG>
-20.7138

> <Gold.Chemscore.ZeroCoef>
-5.4800

> <Gold.Chemscore.Hbond>
2.7942

> <Gold.Chemscore.Metal>
0.0000

> <Gold.Chemscore.Lipo>
110.5947

> <Gold.Chemscore.Internal_Hbond>
0.0000

> <Gold.Chemscore.DEClash>
1.2987

> <Gold.Chemscore.DEInternal>
2.7595

> <Gold.Chemscore.Rot>
2.7493

> <Gold.Chemscore.Internal.Correction>
   9.000000E+99

> <Gold.Chemscore.Hbonds>
donor molecule, donor type, donor heavy atom, donor atom, acceptor molecule, acceptor atom, score
      L1  H     2    63       P1 10747  0.99
      L1  H     6    64       P1  7948  0.88
      L1  H    22    51       P1  8028  0.90

> <Gold.Chemscore.Hbond.Weighted>
-9.3325

> <Gold.Chemscore.Metal.Weighted>
-0.0000

> <Gold.Chemscore.Lipo.Weighted>
-12.9396

> <Gold.Chemscore.Internal_Hbond.Weighted>
0.0000

> <Gold.Chemscore.DEClash.Weighted>
1.2987

> <Gold.Chemscore.DEInternal.Weighted>
2.7595

> <Gold.Chemscore.Rot.Weighted>
7.0383

> <Gold.Chemscore.Internal.Correction.Weighted>
   9.000000E+99

> <Gold.Protein.RotatedTorsions>
[ 6907 6896 6895 6894 ] final   17.56 input  -60.11 | X-H torsion
[ 7974 7965 7964 7962 ] final   70.88 input  175.53 | X-H torsion
[ 8008 7997 7996 7995 ] final  -73.32 input   59.86 | X-H torsion
[ 10167 10162 10161 10158 ] final  -32.58 input  -65.29 | X-H torsion
[ 10718 10713 10712 10709 ] final   13.03 input   66.30 | X-H torsion
[ 10763 10752 10751 10750 ] final  -58.13 input  -60.55 | X-H torsion
[ 11005 11000 10999 10996 ] final  -73.68 input  -57.11 | X-H torsion

> <Gold.Protein.ActiveResidues>
 VAL166  LYS551  ARG553  GLY616  TRP617  ASP618  TYR619  PRO620  LYS621  CYS622 
 ASP623  PHE694  ASN695  SER759  ASP760  ASP761  ALA762  ILE779  LEU786  VAL792 
 PHE793  MET794  SER795  GLU796  ALA797  LYS798  CYS799  TRP800  GLU811  SER814 

> <Gold.Protein.RotatedAtoms>
  151.8515  135.0556  160.0459 H   0  0  0  0  0  0  0  0  0  0  0  0  # atno 6907 bound_to 6896
  152.2732  133.5397  159.5460 H   0  0  0  0  0  0  0  0  0  0  0  0  # atno 6908 bound_to 6896
  150.7160  134.0584  159.3865 H   0  0  0  0  0  0  0  0  0  0  0  0  # atno 6909 bound_to 6896
  145.7727  139.2851  143.1311 H   0  0  0  0  0  0  0  0  0  0  0  0  # atno 7974 bound_to 7965
  154.5237  140.0781  156.8219 H   0  0  0  0  0  0  0  0  0  0  0  0  # atno 8008 bound_to 7997
  155.3521  140.3413  155.4221 H   0  0  0  0  0  0  0  0  0  0  0  0  # atno 8009 bound_to 7997
  156.1709  140.1619  156.8436 H   0  0  0  0  0  0  0  0  0  0  0  0  # atno 8010 bound_to 7997
  140.7219  143.3684  151.1826 H   0  0  0  0  0  0  0  0  0  0  0  0  # atno 10167 bound_to 10162
  157.0187  130.6146  149.5718 H   0  0  0  0  0  0  0  0  0  0  0  0  # atno 10718 bound_to 10713
  154.2333  135.6357  153.5182 H   0  0  0  0  0  0  0  0  0  0  0  0  # atno 10763 bound_to 10752
  152.9944  135.5524  154.5989 H   0  0  0  0  0  0  0  0  0  0  0  0  # atno 10764 bound_to 10752
  154.5477  135.2899  155.1012 H   0  0  0  0  0  0  0  0  0  0  0  0  # atno 10765 bound_to 10752
  141.1626  133.6886  156.7249 H   0  0  0  0  0  0  0  0  0  0  0  0  # atno 11005 bound_to 11000
  146.0153  140.8398  142.9950 LP  0  0  0  0  0  0  0  0  0  0  0  0  # atno 17320 bound_to 7965
  144.6810  140.2550  143.7326 LP  0  0  0  0  0  0  0  0  0  0  0  0  # atno 17321 bound_to 7965
  139.7250  143.9162  152.2999 LP  0  0  0  0  0  0  0  0  0  0  0  0  # atno 17342 bound_to 10162
  139.8932  144.6954  150.8747 LP  0  0  0  0  0  0  0  0  0  0  0  0  # atno 17343 bound_to 10162
  156.0110  130.5201  150.7987 LP  0  0  0  0  0  0  0  0  0  0  0  0  # atno 17370 bound_to 10713
  157.5266  131.0934  151.0010 LP  0  0  0  0  0  0  0  0  0  0  0  0  # atno 17371 bound_to 10713
  140.2788  134.8333  157.3915 LP  0  0  0  0  0  0  0  0  0  0  0  0  # atno 17394 bound_to 11000
  140.1452  134.4920  155.8001 LP  0  0  0  0  0  0  0  0  0  0  0  0  # atno 17395 bound_to 11000

$$$$
