AV-unprocessed.smi:2017|AV-procd|sdf|8168|dock5
  -GOLD-   2272010413D 1   1.00000     0.00000
 Structure written by MMmdl.
 44 45  0  0  0  0  0  0  0  0  2 V2000
  152.0977  136.1191  155.9295 O   0  0  0  0  0  0  0  0  0  0  0  0
  150.9426  136.5229  156.0726 C   0  0  0  0  0  0  0  0  0  0  0  0
  149.8634  135.6144  156.6774 C   0  0  0  0  0  0  0  0  0  0  0  0
  149.6926  134.3537  155.9372 N   0  0  0  0  0  0  0  0  0  0  0  0
  149.4262  134.4347  154.5591 C   0  0  0  0  0  0  0  0  0  0  0  0
  149.2597  133.3337  153.8017 C   0  0  0  0  0  0  0  0  0  0  0  0
  149.3619  132.0306  154.4467 C   0  0  0  0  0  0  0  0  0  0  0  0
  149.2071  131.0145  153.7721 O   0  0  0  0  0  0  0  0  0  0  0  0
  149.6270  132.0041  155.7856 N   0  5  0  0  0  0  0  0  0  0  0  0
  149.7968  133.1323  156.5427 C   0  0  0  0  0  0  0  0  0  0  0  0
  150.0386  133.0856  157.7495 O   0  0  0  0  0  0  0  0  0  0  0  0
  150.5402  137.7453  155.6935 N   0  0  0  0  0  0  0  0  0  0  0  0
  151.3968  138.7598  155.0910 C   0  0  0  0  0  0  0  0  0  0  0  0
  150.6902  140.1238  155.0124 C   0  0  0  0  0  0  0  0  0  0  0  0
  150.4317  140.7379  156.3932 C   0  0  0  0  0  0  0  0  0  0  0  0
  150.8263  142.1027  156.3786 O   0  0  0  0  0  0  0  0  0  0  0  0
  151.0622  142.6633  157.6637 C   0  0  0  0  0  0  0  0  0  0  0  0
  151.6528  144.0846  157.5471 C   0  0  0  0  0  0  0  0  0  0  0  0
  152.0375  144.6460  158.9262 C   0  0  0  0  0  0  0  0  0  0  0  0
  153.0054  143.7068  159.6629 C   0  0  0  0  0  0  0  0  0  0  0  0
  152.4231  142.2894  159.7784 C   0  0  0  0  0  0  0  0  0  0  0  0
  152.0430  141.7316  158.3974 C   0  0  0  0  0  0  0  0  0  0  0  0
  150.0981  135.4060  157.7231 H   0  0  0  0  0  0  0  0  0  0  0  0
  148.9261  136.1720  156.7003 H   0  0  0  0  0  0  0  0  0  0  0  0
  149.3733  135.4364  154.1590 H   0  0  0  0  0  0  0  0  0  0  0  0
  149.0587  133.4128  152.7435 H   0  0  0  0  0  0  0  0  0  0  0  0
  149.5733  137.9937  155.8445 H   0  0  0  0  0  0  0  0  0  0  0  0
  152.2987  138.8409  155.6982 H   0  0  0  0  0  0  0  0  0  0  0  0
  151.7196  138.4371  154.0996 H   0  0  0  0  0  0  0  0  0  0  0  0
  151.3013  140.8161  154.4321 H   0  0  0  0  0  0  0  0  0  0  0  0
  149.7458  140.0240  154.4758 H   0  0  0  0  0  0  0  0  0  0  0  0
  149.3783  140.6328  156.6531 H   0  0  0  0  0  0  0  0  0  0  0  0
  151.0088  140.1977  157.1451 H   0  0  0  0  0  0  0  0  0  0  0  0
  150.1308  142.6949  158.2323 H   0  0  0  0  0  0  0  0  0  0  0  0
  152.5339  144.0626  156.9048 H   0  0  0  0  0  0  0  0  0  0  0  0
  150.9424  144.7608  157.0727 H   0  0  0  0  0  0  0  0  0  0  0  0
  152.4902  145.6314  158.8130 H   0  0  0  0  0  0  0  0  0  0  0  0
  151.1379  144.7867  159.5265 H   0  0  0  0  0  0  0  0  0  0  0  0
  153.9557  143.6691  159.1286 H   0  0  0  0  0  0  0  0  0  0  0  0
  153.2236  144.1014  160.6556 H   0  0  0  0  0  0  0  0  0  0  0  0
  153.1439  141.6291  160.2611 H   0  0  0  0  0  0  0  0  0  0  0  0
  151.5415  142.3073  160.4205 H   0  0  0  0  0  0  0  0  0  0  0  0
  151.6012  140.7410  158.5086 H   0  0  0  0  0  0  0  0  0  0  0  0
  152.9449  141.6017  157.7975 H   0  0  0  0  0  0  0  0  0  0  0  0
  1  2  2  0  0  0  0
  2  3  1  0  0  0  0
  2 12  1  0  0  0  0
  3  4  1  0  0  0  0
  3 23  1  0  0  0  0
  3 24  1  0  0  0  0
  4 10  1  0  0  0  0
  4  5  1  0  0  0  0
  5  6  2  0  0  0  0
  5 25  1  0  0  0  0
  6  7  1  0  0  0  0
  6 26  1  0  0  0  0
  7  8  2  0  0  0  0
  7  9  1  0  0  0  0
  9 10  1  0  0  0  0
 10 11  2  0  0  0  0
 12 13  1  0  0  0  0
 12 27  1  0  0  0  0
 13 14  1  0  0  0  0
 13 28  1  0  0  0  0
 13 29  1  0  0  0  0
 14 15  1  0  0  0  0
 14 30  1  0  0  0  0
 14 31  1  0  0  0  0
 15 16  1  0  0  0  0
 15 32  1  0  0  0  0
 15 33  1  0  0  0  0
 16 17  1  0  0  0  0
 17 22  1  0  0  0  0
 17 18  1  0  0  0  0
 17 34  1  0  0  0  0
 18 19  1  0  0  0  0
 18 35  1  0  0  0  0
 18 36  1  0  0  0  0
 19 20  1  0  0  0  0
 19 37  1  0  0  0  0
 19 38  1  0  0  0  0
 20 21  1  0  0  0  0
 20 39  1  0  0  0  0
 20 40  1  0  0  0  0
 21 22  1  0  0  0  0
 21 41  1  0  0  0  0
 21 42  1  0  0  0  0
 22 43  1  0  0  0  0
 22 44  1  0  0  0  0
M  CHG  1   9  -1
M  END
> <s_m_source_file>
AV-unprocessed.smi

> <i_m_source_file_index>
2017

> <i_lp_mmshare_version>
43012

> <i_f3d_flags>
0

> <s_epik_input>
Tz1jMVtuSF1jKD1PKVtjSF1bY0hdbjFbQ0gyXUMoPU8pW05IXVtDSDJdW0NIMl1bQ0gyXU9bQ0hdMltDSDJdW0NIMl1bQ0gyXVtDSDJdW0NIMl0y

> <s_epik_cmdline>
J2VwaWtfcHl0aG9uJywgJy1waCcsICc3LjAnLCAnLXRuJywgJzgnLCAnLW1hJywgJzIwMCcsICctbWV0YWxfYmluZGluZycsICctaW1hZScsICc8aW5maWxlLm1hZT4nLCAnLW9tYWUnLCAnPG91dGZpbGUubWFlPic=

> <r_lp_tautomer_probability>
0.999537

> <r_epik_Ionization_Penalty>
3.07707

> <r_epik_Ionization_Penalty_Charging>
2.73667e-08

> <r_epik_Ionization_Penalty_Neutral>
3.07707

> <r_epik_State_Penalty>
3.07611

> <r_epik_Charging_Adjusted_Penalty>
3.07611

> <i_epik_Tot_Q>
-1

> <i_epik_Tot_abs_Q>
1

> <r_epik_Metal_State_Penalty>
0.459703

> <b_epik_Metal_Only>
1

> <s_lp_Force_Field>
OPLS_2005

> <r_lp_Energy>
18.9634

> <b_lp_Chiralities_Consistent>
1

> <s_lp_Variant>
AV-unprocessed.smi:2017-2

> <Gold.Version>
5.8.1

> <Gold.Id.Protein>
6NUR|6NUR_protein|mol2

> <Gold.PLP.Fitness>
50.0178

> <Gold.PLP.PLP>
-42.0409

> <Gold.PLP.part.hbond>
-1.9605

> <Gold.PLP.part.metal>
0.0000

> <Gold.PLP.part.buried>
-3.1653

> <Gold.PLP.part.nonpolar>
-37.9185

> <Gold.PLP.part.repulsive>
0.2339

> <Gold.PLP.ligand.clash>
0.0000

> <Gold.PLP.ligand.torsion>
0.5441

> <Gold.PLP.Chemscore.Hbond>
2.0000

> <Gold.PLP.Chemscore.CHOScore>
1.0000

> <Gold.PLP.Chemscore.Metal>
0.0000

> <Gold.Chemscore.Hbonds>
donor molecule, donor type, donor heavy atom, donor atom, acceptor molecule, acceptor atom, score
      P1  H  6896  6909       L1    11  1.00
      P1  H 10752 10765       L1     1  0.94
      L1  C     5    25       P1  7948  1.00

> <Gold.PLP.Chemscore.Internal.Correction>
0.0651

> <Gold.Rescore>
     Score         DG    S(hbond)    S(metal)    S(lipo)     H(rot)  DE(clash)    DE(int)     intcor
     15.85     -17.44       1.96        0.00     104.35       2.66       0.94       0.64       ----

> <Gold.Chemscore.Fitness>
15.8523

> <Gold.Chemscore.DG>
-17.4402

> <Gold.Chemscore.ZeroCoef>
-5.4800

> <Gold.Chemscore.Hbond>
1.9621

> <Gold.Chemscore.Metal>
0.0000

> <Gold.Chemscore.Lipo>
104.3531

> <Gold.Chemscore.Internal_Hbond>
0.0000

> <Gold.Chemscore.DEClash>
0.9442

> <Gold.Chemscore.DEInternal>
0.6437

> <Gold.Chemscore.Rot>
2.6572

> <Gold.Chemscore.Internal.Correction>
   9.000000E+99

> <Gold.Chemscore.Hbonds>
donor molecule, donor type, donor heavy atom, donor atom, acceptor molecule, acceptor atom, score
      P1  H  6896  6909       L1    11  1.00
      P1  H 10752 10765       L1     1  0.90

> <Gold.Chemscore.Hbond.Weighted>
-6.5534

> <Gold.Chemscore.Metal.Weighted>
-0.0000

> <Gold.Chemscore.Lipo.Weighted>
-12.2093

> <Gold.Chemscore.Internal_Hbond.Weighted>
0.0000

> <Gold.Chemscore.DEClash.Weighted>
0.9442

> <Gold.Chemscore.DEInternal.Weighted>
0.6437

> <Gold.Chemscore.Rot.Weighted>
6.8024

> <Gold.Chemscore.Internal.Correction.Weighted>
   9.000000E+99

> <Gold.Protein.RotatedTorsions>
[ 6907 6896 6895 6894 ] final  -13.54 input  -60.11 | X-H torsion
[ 7974 7965 7964 7962 ] final  122.29 input  175.53 | X-H torsion
[ 8008 7997 7996 7995 ] final  -53.67 input   59.86 | X-H torsion
[ 10167 10162 10161 10158 ] final   38.75 input  -65.29 | X-H torsion
[ 10718 10713 10712 10709 ] final  -71.84 input   66.30 | X-H torsion
[ 10763 10752 10751 10750 ] final -157.72 input  -60.55 | X-H torsion
[ 11005 11000 10999 10996 ] final -167.38 input  -57.11 | X-H torsion

> <Gold.Protein.ActiveResidues>
 VAL166  LYS551  ARG553  GLY616  TRP617  ASP618  TYR619  PRO620  LYS621  CYS622 
 ASP623  PHE694  ASN695  SER759  ASP760  ASP761  ALA762  ILE779  LEU786  VAL792 
 PHE793  MET794  SER795  GLU796  ALA797  LYS798  CYS799  TRP800  GLU811  SER814 

> <Gold.Protein.RotatedAtoms>
  151.3533  135.0889  159.9409 H   0  0  0  0  0  0  0  0  0  0  0  0  # atno 6907 bound_to 6896
  152.5181  133.9331  159.7600 H   0  0  0  0  0  0  0  0  0  0  0  0  # atno 6908 bound_to 6896
  150.9710  133.6290  159.2767 H   0  0  0  0  0  0  0  0  0  0  0  0  # atno 6909 bound_to 6896
  145.1093  139.3463  143.4771 H   0  0  0  0  0  0  0  0  0  0  0  0  # atno 7974 bound_to 7965
  154.4140  140.1194  156.5191 H   0  0  0  0  0  0  0  0  0  0  0  0  # atno 8008 bound_to 7997
  155.6721  140.3496  155.4803 H   0  0  0  0  0  0  0  0  0  0  0  0  # atno 8009 bound_to 7997
  155.9624  140.1125  157.0874 H   0  0  0  0  0  0  0  0  0  0  0  0  # atno 8010 bound_to 7997
  140.3906  144.1857  150.6131 H   0  0  0  0  0  0  0  0  0  0  0  0  # atno 10167 bound_to 10162
  156.0345  130.4360  150.2504 H   0  0  0  0  0  0  0  0  0  0  0  0  # atno 10718 bound_to 10713
  154.7613  135.3118  154.8372 H   0  0  0  0  0  0  0  0  0  0  0  0  # atno 10763 bound_to 10752
  153.9132  135.6803  153.4754 H   0  0  0  0  0  0  0  0  0  0  0  0  # atno 10764 bound_to 10752
  153.1214  135.4821  154.9133 H   0  0  0  0  0  0  0  0  0  0  0  0  # atno 10765 bound_to 10752
  140.5538  134.5401  157.5128 H   0  0  0  0  0  0  0  0  0  0  0  0  # atno 11005 bound_to 11000
  146.3527  140.1005  142.8608 LP  0  0  0  0  0  0  0  0  0  0  0  0  # atno 17320 bound_to 7965
  145.0865  140.9256  143.4794 LP  0  0  0  0  0  0  0  0  0  0  0  0  # atno 17321 bound_to 7965
  140.4843  143.2368  151.8910 LP  0  0  0  0  0  0  0  0  0  0  0  0  # atno 17342 bound_to 10162
  139.4789  144.5235  151.8768 LP  0  0  0  0  0  0  0  0  0  0  0  0  # atno 17343 bound_to 10162
  157.0605  131.0088  151.3224 LP  0  0  0  0  0  0  0  0  0  0  0  0  # atno 17370 bound_to 10713
  157.5074  130.7917  149.7669 LP  0  0  0  0  0  0  0  0  0  0  0  0  # atno 17371 bound_to 10713
  139.9442  134.7733  156.0604 LP  0  0  0  0  0  0  0  0  0  0  0  0  # atno 17394 bound_to 11000
  141.1155  133.6629  156.3084 LP  0  0  0  0  0  0  0  0  0  0  0  0  # atno 17395 bound_to 11000

$$$$
