AV-unprocessed.smi:2521|AV-procd|sdf|9915|dock9
  -GOLD-   2272013553D 1   1.00000     0.00000
 Structure written by MMmdl.
 36 37  0  0  0  0  0  0  0  0  1 V2000
  151.7059  140.5658  156.6199 C   0  0  0  0  0  0  0  0  0  0  0  0
  150.4716  141.3637  156.1753 C   0  0  0  0  0  0  0  0  0  0  0  0
  149.8252  142.1602  157.3179 C   0  0  0  0  0  0  0  0  0  0  0  0
  149.4790  140.5091  155.4502 C   0  0  0  0  0  0  0  0  0  0  0  0
  148.1665  140.5267  155.7199 N   0  0  0  0  0  0  0  0  0  0  0  0
  147.4511  139.6463  154.9211 N   0  0  0  0  0  0  0  0  0  0  0  0
  148.2466  138.9855  154.0691 C   0  0  0  0  0  0  0  0  0  0  0  0
  147.7789  138.0159  153.1431 N   0  0  0  0  0  0  0  0  0  0  0  0
  146.5101  137.6514  152.8875 C   0  0  0  0  0  0  0  0  0  0  0  0
  145.5096  138.1415  153.4114 O   0  0  0  0  0  0  0  0  0  0  0  0
  146.4627  136.6696  151.9752 N   0  0  0  0  0  0  0  0  0  0  0  0
  145.2465  136.0358  151.4745 C   0  0  0  0  0  0  0  0  0  0  0  0
  145.5394  134.6846  150.7949 C   0  0  2  0  0  0  0  0  0  0  0  0
  144.2956  133.8942  150.4436 C   0  0  0  0  0  0  0  0  0  0  0  0
  144.8550  132.4882  150.2446 C   0  0  0  0  0  0  0  0  0  0  0  0
  145.9902  132.3929  151.1001 O   0  0  0  0  0  0  0  0  0  0  0  0
  146.2892  133.6683  151.6586 C   0  0  0  0  0  0  0  0  0  0  0  0
  149.9506  139.3916  154.1740 S   0  0  0  0  0  0  0  0  0  0  0  0
  152.1875  140.0825  155.7693 H   0  0  0  0  0  0  0  0  0  0  0  0
  151.4393  139.7893  157.3376 H   0  0  0  0  0  0  0  0  0  0  0  0
  152.4439  141.2147  157.0920 H   0  0  0  0  0  0  0  0  0  0  0  0
  150.8275  142.0999  155.4536 H   0  0  0  0  0  0  0  0  0  0  0  0
  149.0058  142.7787  156.9505 H   0  0  0  0  0  0  0  0  0  0  0  0
  150.5495  142.8207  157.7950 H   0  0  0  0  0  0  0  0  0  0  0  0
  149.4243  141.4979  158.0859 H   0  0  0  0  0  0  0  0  0  0  0  0
  148.4967  137.5347  152.6218 H   0  0  0  0  0  0  0  0  0  0  0  0
  147.3358  136.3303  151.5990 H   0  0  0  0  0  0  0  0  0  0  0  0
  144.5128  135.9159  152.2735 H   0  0  0  0  0  0  0  0  0  0  0  0
  144.7969  136.7154  150.7500 H   0  0  0  0  0  0  0  0  0  0  0  0
  146.1089  134.8545  149.8795 H   0  0  0  0  0  0  0  0  0  0  0  0
  143.5919  133.9007  151.2774 H   0  0  0  0  0  0  0  0  0  0  0  0
  143.7810  134.2736  149.5603 H   0  0  0  0  0  0  0  0  0  0  0  0
  144.1207  131.7144  150.4687 H   0  0  0  0  0  0  0  0  0  0  0  0
  145.1867  132.3523  149.2146 H   0  0  0  0  0  0  0  0  0  0  0  0
  147.3641  133.8492  151.6817 H   0  0  0  0  0  0  0  0  0  0  0  0
  145.9207  133.6881  152.6852 H   0  0  0  0  0  0  0  0  0  0  0  0
  1  2  1  0  0  0  0
  1 19  1  0  0  0  0
  1 20  1  0  0  0  0
  1 21  1  0  0  0  0
  2  3  1  0  0  0  0
  2  4  1  0  0  0  0
  2 22  1  0  0  0  0
  3 23  1  0  0  0  0
  3 24  1  0  0  0  0
  3 25  1  0  0  0  0
  4 18  1  0  0  0  0
  4  5  2  0  0  0  0
  5  6  1  0  0  0  0
  6  7  2  0  0  0  0
  7  8  1  0  0  0  0
  7 18  1  0  0  0  0
  8  9  1  0  0  0  0
  8 26  1  0  0  0  0
  9 10  2  0  0  0  0
  9 11  1  0  0  0  0
 11 12  1  0  0  0  0
 11 27  1  0  0  0  0
 12 13  1  0  0  0  0
 12 28  1  0  0  0  0
 12 29  1  0  0  0  0
 13 17  1  0  0  0  0
 13 14  1  0  0  0  0
 13 30  1  0  0  0  0
 14 15  1  0  0  0  0
 14 31  1  0  0  0  0
 14 32  1  0  0  0  0
 15 16  1  0  0  0  0
 15 33  1  0  0  0  0
 15 34  1  0  0  0  0
 16 17  1  0  0  0  0
 17 35  1  0  0  0  0
 17 36  1  0  0  0  0
M  END
> <s_m_source_file>
AV-unprocessed.smi

> <i_m_source_file_index>
2521

> <i_lp_mmshare_version>
43012

> <i_f3d_flags>
0

> <s_epik_input>
W0NIM11bQ0hdKFtDSDNdKWMxbm5jKHMxKVtOSF1DKD1PKVtOSF1bQ0gyXVtDQEBIXTJbQ0gyXVtDSDJdT1tDSDJdMg==

> <s_epik_cmdline>
J2VwaWtfcHl0aG9uJywgJy1waCcsICc3LjAnLCAnLXRuJywgJzgnLCAnLW1hJywgJzIwMCcsICctbWV0YWxfYmluZGluZycsICctaW1hZScsICc8aW5maWxlLm1hZT4nLCAnLW9tYWUnLCAnPG91dGZpbGUubWFlPic=

> <r_lp_tautomer_probability>
1

> <r_epik_Ionization_Penalty>
0.000452582

> <r_epik_Ionization_Penalty_Charging>
0

> <r_epik_Ionization_Penalty_Neutral>
0.000452582

> <r_epik_State_Penalty>
-0

> <r_epik_Charging_Adjusted_Penalty>
0

> <i_epik_Tot_Q>
0

> <i_epik_Tot_abs_Q>
0

> <r_epik_Metal_State_Penalty>
0.207746

> <b_epik_Metal_Only>
0

> <s_lp_Force_Field>
OPLS_2005

> <r_lp_Energy>
11.692

> <b_lp_Chiralities_Consistent>
1

> <s_lp_Variant>
AV-unprocessed.smi:2521-1

> <Gold.Version>
5.8.1

> <Gold.Id.Protein>
6NUR|6NUR_protein|mol2

> <Gold.PLP.Fitness>
31.3930

> <Gold.PLP.PLP>
-26.1309

> <Gold.PLP.part.hbond>
-1.8873

> <Gold.PLP.part.metal>
0.0000

> <Gold.PLP.part.buried>
-3.1483

> <Gold.PLP.part.nonpolar>
-22.3018

> <Gold.PLP.part.repulsive>
0.4921

> <Gold.PLP.ligand.clash>
0.0000

> <Gold.PLP.ligand.torsion>
0.3258

> <Gold.PLP.Chemscore.Hbond>
1.9440

> <Gold.PLP.Chemscore.CHOScore>
0.0000

> <Gold.PLP.Chemscore.Metal>
0.0000

> <Gold.Chemscore.Hbonds>
donor molecule, donor type, donor heavy atom, donor atom, acceptor molecule, acceptor atom, score
      L1  H     8    26       P1  7948  0.99
      L1  H    11    27       P1  7948  0.93

> <Gold.PLP.Chemscore.Internal.Correction>
0.0818

> <Gold.Rescore>
     Score         DG    S(hbond)    S(metal)    S(lipo)     H(rot)  DE(clash)    DE(int)     intcor
     13.95     -15.43       1.91        0.00      62.28       1.45       0.00       1.48       ----

> <Gold.Chemscore.Fitness>
13.9472

> <Gold.Chemscore.DG>
-15.4280

> <Gold.Chemscore.ZeroCoef>
-5.4800

> <Gold.Chemscore.Hbond>
1.9052

> <Gold.Chemscore.Metal>
0.0000

> <Gold.Chemscore.Lipo>
62.2769

> <Gold.Chemscore.Internal_Hbond>
0.0000

> <Gold.Chemscore.DEClash>
0.0000

> <Gold.Chemscore.DEInternal>
1.4808

> <Gold.Chemscore.Rot>
1.4461

> <Gold.Chemscore.Internal.Correction>
   9.000000E+99

> <Gold.Chemscore.Hbonds>
donor molecule, donor type, donor heavy atom, donor atom, acceptor molecule, acceptor atom, score
      L1  H     8    26       P1  7948  0.91
      L1  H    11    27       P1  7948  0.89

> <Gold.Chemscore.Hbond.Weighted>
-6.3635

> <Gold.Chemscore.Metal.Weighted>
-0.0000

> <Gold.Chemscore.Lipo.Weighted>
-7.2864

> <Gold.Chemscore.Internal_Hbond.Weighted>
0.0000

> <Gold.Chemscore.DEClash.Weighted>
0.0000

> <Gold.Chemscore.DEInternal.Weighted>
1.4808

> <Gold.Chemscore.Rot.Weighted>
3.7019

> <Gold.Chemscore.Internal.Correction.Weighted>
   9.000000E+99

> <Gold.Protein.RotatedTorsions>
[ 6907 6896 6895 6894 ] final  141.40 input  -60.11 | X-H torsion
[ 7974 7965 7964 7962 ] final  172.08 input  175.53 | X-H torsion
[ 8008 7997 7996 7995 ] final -176.11 input   59.86 | X-H torsion
[ 10167 10162 10161 10158 ] final  -79.29 input  -65.29 | X-H torsion
[ 10718 10713 10712 10709 ] final   32.37 input   66.30 | X-H torsion
[ 10763 10752 10751 10750 ] final  -34.15 input  -60.55 | X-H torsion
[ 11005 11000 10999 10996 ] final  -44.88 input  -57.11 | X-H torsion

> <Gold.Protein.ActiveResidues>
 VAL166  LYS551  ARG553  GLY616  TRP617  ASP618  TYR619  PRO620  LYS621  CYS622 
 ASP623  PHE694  ASN695  SER759  ASP760  ASP761  ALA762  ILE779  LEU786  VAL792 
 PHE793  MET794  SER795  GLU796  ALA797  LYS798  CYS799  TRP800  GLU811  SER814 

> <Gold.Protein.RotatedAtoms>
  152.2314  133.5061  159.5217 H   0  0  0  0  0  0  0  0  0  0  0  0  # atno 6907 bound_to 6896
  150.7038  134.1211  159.4044 H   0  0  0  0  0  0  0  0  0  0  0  0  # atno 6908 bound_to 6896
  151.9133  135.0329  160.0567 H   0  0  0  0  0  0  0  0  0  0  0  0  # atno 6909 bound_to 6896
  144.7277  139.9445  143.6430 H   0  0  0  0  0  0  0  0  0  0  0  0  # atno 7974 bound_to 7965
  155.9909  140.1201  157.0639 H   0  0  0  0  0  0  0  0  0  0  0  0  # atno 8008 bound_to 7997
  154.4211  140.1126  156.5632 H   0  0  0  0  0  0  0  0  0  0  0  0  # atno 8009 bound_to 7997
  155.6344  140.3473  155.4696 H   0  0  0  0  0  0  0  0  0  0  0  0  # atno 8010 bound_to 7997
  140.4606  143.2455  151.8354 H   0  0  0  0  0  0  0  0  0  0  0  0  # atno 10167 bound_to 10162
  157.2843  130.7271  149.6574 H   0  0  0  0  0  0  0  0  0  0  0  0  # atno 10718 bound_to 10713
  153.8420  135.6857  153.4802 H   0  0  0  0  0  0  0  0  0  0  0  0  # atno 10763 bound_to 10752
  153.1448  135.4642  154.9547 H   0  0  0  0  0  0  0  0  0  0  0  0  # atno 10764 bound_to 10752
  154.7841  135.3278  154.7873 H   0  0  0  0  0  0  0  0  0  0  0  0  # atno 10765 bound_to 10752
  141.0479  133.6754  156.2935 H   0  0  0  0  0  0  0  0  0  0  0  0  # atno 11005 bound_to 11000
  146.0759  139.3747  143.0494 LP  0  0  0  0  0  0  0  0  0  0  0  0  # atno 17320 bound_to 7965
  145.7906  140.9816  143.1051 LP  0  0  0  0  0  0  0  0  0  0  0  0  # atno 17321 bound_to 7965
  139.4806  144.5012  151.9058 LP  0  0  0  0  0  0  0  0  0  0  0  0  # atno 17342 bound_to 10162
  140.4097  144.2385  150.5889 LP  0  0  0  0  0  0  0  0  0  0  0  0  # atno 17343 bound_to 10162
  155.9665  130.4328  150.4980 LP  0  0  0  0  0  0  0  0  0  0  0  0  # atno 17370 bound_to 10713
  157.2930  131.0630  151.2121 LP  0  0  0  0  0  0  0  0  0  0  0  0  # atno 17371 bound_to 10713
  140.6111  134.5457  157.5533 LP  0  0  0  0  0  0  0  0  0  0  0  0  # atno 17394 bound_to 11000
  139.9327  134.7934  156.0887 LP  0  0  0  0  0  0  0  0  0  0  0  0  # atno 17395 bound_to 11000

$$$$
