AV-unprocessed.smi:803|AV-procd|sdf|3793|dock2
  -GOLD-   22720 1233D 1   1.00000     0.00000
 Structure written by MMmdl.
 37 38  0  0  0  0  0  0  0  0  1 V2000
  145.7008  143.2156  153.9384 C   0  0  0  0  0  0  0  0  0  0  0  0
  146.9822  142.3850  154.0806 C   0  0  0  0  0  0  0  0  0  0  0  0
  146.7115  140.9614  154.0318 N   0  0  0  0  0  0  0  0  0  0  0  0
  147.1545  140.0395  153.1042 C   0  0  0  0  0  0  0  0  0  0  0  0
  146.6264  138.8411  153.4935 C   0  0  0  0  0  0  0  0  0  0  0  0
  146.7671  137.5609  152.9010 N   0  0  0  0  0  0  0  0  0  0  0  0
  145.8762  136.5559  152.9103 C   0  0  0  0  0  0  0  0  0  0  0  0
  144.7767  136.5898  153.4637 O   0  0  0  0  0  0  0  0  0  0  0  0
  146.3387  135.4913  152.2393 N   0  0  0  0  0  0  0  0  0  0  0  0
  145.6283  134.2275  152.0681 C   0  0  0  0  0  0  0  0  0  0  0  0
  146.3763  133.3198  151.0700 C   0  0  0  0  0  0  0  0  0  0  0  0
  145.6051  132.0160  150.8089 C   0  0  0  0  0  0  0  0  0  0  0  0
  144.1724  132.3004  150.3311 C   0  0  0  0  0  0  0  0  0  0  0  0
  143.4232  133.1981  151.3280 C   0  0  0  0  0  0  0  0  0  0  0  0
  144.1910  134.5042  151.5878 C   0  0  0  0  0  0  0  0  0  0  0  0
  145.8739  139.1116  154.6656 C   0  0  0  0  0  0  0  0  0  0  0  0
  145.9266  140.3964  154.9827 N   0  0  0  0  0  0  0  0  0  0  0  0
  145.9220  144.2815  153.9945 H   0  0  0  0  0  0  0  0  0  0  0  0
  144.9899  142.9804  154.7312 H   0  0  0  0  0  0  0  0  0  0  0  0
  145.2112  143.0286  152.9822 H   0  0  0  0  0  0  0  0  0  0  0  0
  147.6878  142.6339  153.2869 H   0  0  0  0  0  0  0  0  0  0  0  0
  147.4746  142.6147  155.0262 H   0  0  0  0  0  0  0  0  0  0  0  0
  147.7905  140.3177  152.2768 H   0  0  0  0  0  0  0  0  0  0  0  0
  147.6400  137.3914  152.4231 H   0  0  0  0  0  0  0  0  0  0  0  0
  147.2539  135.5568  151.8182 H   0  0  0  0  0  0  0  0  0  0  0  0
  145.5678  133.7154  153.0305 H   0  0  0  0  0  0  0  0  0  0  0  0
  146.5206  133.8483  150.1264 H   0  0  0  0  0  0  0  0  0  0  0  0
  147.3724  133.0855  151.4477 H   0  0  0  0  0  0  0  0  0  0  0  0
  146.1315  131.4150  150.0668 H   0  0  0  0  0  0  0  0  0  0  0  0
  145.5744  131.4216  151.7229 H   0  0  0  0  0  0  0  0  0  0  0  0
  144.2024  132.7848  149.3544 H   0  0  0  0  0  0  0  0  0  0  0  0
  143.6322  131.3630  150.1954 H   0  0  0  0  0  0  0  0  0  0  0  0
  142.4259  133.4223  150.9490 H   0  0  0  0  0  0  0  0  0  0  0  0
  143.2830  132.6630  152.2683 H   0  0  0  0  0  0  0  0  0  0  0  0
  143.6578  135.1008  152.3288 H   0  0  0  0  0  0  0  0  0  0  0  0
  144.2134  135.0968  150.6719 H   0  0  0  0  0  0  0  0  0  0  0  0
  145.3022  138.4347  155.2829 H   0  0  0  0  0  0  0  0  0  0  0  0
  1  2  1  0  0  0  0
  1 18  1  0  0  0  0
  1 19  1  0  0  0  0
  1 20  1  0  0  0  0
  2  3  1  0  0  0  0
  2 21  1  0  0  0  0
  2 22  1  0  0  0  0
  3 17  1  0  0  0  0
  3  4  1  0  0  0  0
  4  5  2  0  0  0  0
  4 23  1  0  0  0  0
  5  6  1  0  0  0  0
  5 16  1  0  0  0  0
  6  7  1  0  0  0  0
  6 24  1  0  0  0  0
  7  8  2  0  0  0  0
  7  9  1  0  0  0  0
  9 10  1  0  0  0  0
  9 25  1  0  0  0  0
 10 15  1  0  0  0  0
 10 11  1  0  0  0  0
 10 26  1  0  0  0  0
 11 12  1  0  0  0  0
 11 27  1  0  0  0  0
 11 28  1  0  0  0  0
 12 13  1  0  0  0  0
 12 29  1  0  0  0  0
 12 30  1  0  0  0  0
 13 14  1  0  0  0  0
 13 31  1  0  0  0  0
 13 32  1  0  0  0  0
 14 15  1  0  0  0  0
 14 33  1  0  0  0  0
 14 34  1  0  0  0  0
 15 35  1  0  0  0  0
 15 36  1  0  0  0  0
 16 17  2  0  0  0  0
 16 37  1  0  0  0  0
M  END
> <s_m_source_file>
AV-unprocessed.smi

> <i_m_source_file_index>
803

> <i_lp_mmshare_version>
43012

> <i_f3d_flags>
0

> <s_epik_input>
W0NIM11bQ0gyXW4xW2NIXWMoW2NIXW4xKVtOSF1DKD1PKVtOSF1bQ0hdMltDSDJdW0NIMl1bQ0gyXVtDSDJdW0NIMl0y

> <s_epik_cmdline>
J2VwaWtfcHl0aG9uJywgJy1waCcsICc3LjAnLCAnLXRuJywgJzgnLCAnLW1hJywgJzIwMCcsICctbWV0YWxfYmluZGluZycsICctaW1hZScsICc8aW5maWxlLm1hZT4nLCAnLW9tYWUnLCAnPG91dGZpbGUubWFlPic=

> <r_lp_tautomer_probability>
1

> <r_epik_Ionization_Penalty>
0.000191435

> <r_epik_Ionization_Penalty_Charging>
0

> <r_epik_Ionization_Penalty_Neutral>
0.000191435

> <r_epik_State_Penalty>
-0

> <r_epik_Charging_Adjusted_Penalty>
0

> <i_epik_Tot_Q>
0

> <i_epik_Tot_abs_Q>
0

> <r_epik_Metal_State_Penalty>
-0

> <b_epik_Metal_Only>
0

> <s_lp_Force_Field>
OPLS_2005

> <r_lp_Energy>
12.5011

> <b_lp_Chiralities_Consistent>
1

> <s_lp_Variant>
AV-unprocessed.smi:803-1

> <Gold.Version>
5.8.1

> <Gold.Id.Protein>
6NUR|6NUR_protein|mol2

> <Gold.PLP.Fitness>
39.6291

> <Gold.PLP.PLP>
-31.2021

> <Gold.PLP.part.hbond>
-2.0000

> <Gold.PLP.part.metal>
0.0000

> <Gold.PLP.part.buried>
-4.2261

> <Gold.PLP.part.nonpolar>
-25.7873

> <Gold.PLP.part.repulsive>
0.2467

> <Gold.PLP.ligand.clash>
0.0000

> <Gold.PLP.ligand.torsion>
0.2893

> <Gold.PLP.Chemscore.Hbond>
2.0000

> <Gold.PLP.Chemscore.CHOScore>
1.0000

> <Gold.PLP.Chemscore.Metal>
0.0000

> <Gold.Chemscore.Hbonds>
donor molecule, donor type, donor heavy atom, donor atom, acceptor molecule, acceptor atom, score
      L1  H     6    24       P1  7948  1.00
      L1  H     9    25       P1  7948  1.00
      L1  C     4    23       P1  7957  1.00

> <Gold.PLP.Chemscore.Internal.Correction>
0.0056

> <Gold.Rescore>
     Score         DG    S(hbond)    S(metal)    S(lipo)     H(rot)  DE(clash)    DE(int)     intcor
     15.14     -17.45       1.94        0.00      72.48       1.17       0.06       2.25       ----

> <Gold.Chemscore.Fitness>
15.1425

> <Gold.Chemscore.DG>
-17.4537

> <Gold.Chemscore.ZeroCoef>
-5.4800

> <Gold.Chemscore.Hbond>
1.9401

> <Gold.Chemscore.Metal>
0.0000

> <Gold.Chemscore.Lipo>
72.4825

> <Gold.Chemscore.Internal_Hbond>
0.0000

> <Gold.Chemscore.DEClash>
0.0576

> <Gold.Chemscore.DEInternal>
2.2535

> <Gold.Chemscore.Rot>
1.1667

> <Gold.Chemscore.Internal.Correction>
   9.000000E+99

> <Gold.Chemscore.Hbonds>
donor molecule, donor type, donor heavy atom, donor atom, acceptor molecule, acceptor atom, score
      L1  H     6    24       P1  7948  0.95
      L1  H     9    25       P1  7948  0.95

> <Gold.Chemscore.Hbond.Weighted>
-6.4799

> <Gold.Chemscore.Metal.Weighted>
-0.0000

> <Gold.Chemscore.Lipo.Weighted>
-8.4805

> <Gold.Chemscore.Internal_Hbond.Weighted>
0.0000

> <Gold.Chemscore.DEClash.Weighted>
0.0576

> <Gold.Chemscore.DEInternal.Weighted>
2.2535

> <Gold.Chemscore.Rot.Weighted>
2.9867

> <Gold.Chemscore.Internal.Correction.Weighted>
   9.000000E+99

> <Gold.Protein.RotatedTorsions>
[ 6907 6896 6895 6894 ] final  -92.30 input  -60.11 | X-H torsion
[ 7974 7965 7964 7962 ] final -161.68 input  175.53 | X-H torsion
[ 8008 7997 7996 7995 ] final -127.99 input   59.86 | X-H torsion
[ 10167 10162 10161 10158 ] final  146.20 input  -65.29 | X-H torsion
[ 10718 10713 10712 10709 ] final   36.72 input   66.30 | X-H torsion
[ 10763 10752 10751 10750 ] final   52.15 input  -60.55 | X-H torsion
[ 11005 11000 10999 10996 ] final  -14.89 input  -57.11 | X-H torsion

> <Gold.Protein.ActiveResidues>
 VAL166  LYS551  ARG553  GLY616  TRP617  ASP618  TYR619  PRO620  LYS621  CYS622 
 ASP623  PHE694  ASN695  SER759  ASP760  ASP761  ALA762  ILE779  LEU786  VAL792 
 PHE793  MET794  SER795  GLU796  ALA797  LYS798  CYS799  TRP800  GLU811  SER814 

> <Gold.Protein.RotatedAtoms>
  150.6904  134.2143  159.4371 H   0  0  0  0  0  0  0  0  0  0  0  0  # atno 6907 bound_to 6896
  152.0103  134.9877  160.0577 H   0  0  0  0  0  0  0  0  0  0  0  0  # atno 6908 bound_to 6896
  152.1495  133.4478  159.4843 H   0  0  0  0  0  0  0  0  0  0  0  0  # atno 6909 bound_to 6896
  144.7383  140.3363  143.6143 H   0  0  0  0  0  0  0  0  0  0  0  0  # atno 7974 bound_to 7965
  155.2553  140.0434  157.2991 H   0  0  0  0  0  0  0  0  0  0  0  0  # atno 8008 bound_to 7997
  154.5744  140.2383  155.8114 H   0  0  0  0  0  0  0  0  0  0  0  0  # atno 8009 bound_to 7997
  156.2146  140.2988  155.9819 H   0  0  0  0  0  0  0  0  0  0  0  0  # atno 8010 bound_to 7997
  139.4911  144.5847  151.6802 H   0  0  0  0  0  0  0  0  0  0  0  0  # atno 10167 bound_to 10162
  157.3383  130.7534  149.6894 H   0  0  0  0  0  0  0  0  0  0  0  0  # atno 10718 bound_to 10713
  152.9787  135.5822  154.4531 H   0  0  0  0  0  0  0  0  0  0  0  0  # atno 10763 bound_to 10752
  154.4117  135.2770  155.2034 H   0  0  0  0  0  0  0  0  0  0  0  0  # atno 10764 bound_to 10752
  154.3821  135.6144  153.5851 H   0  0  0  0  0  0  0  0  0  0  0  0  # atno 10765 bound_to 10752
  140.7910  133.8288  155.9379 H   0  0  0  0  0  0  0  0  0  0  0  0  # atno 11005 bound_to 11000
  145.7421  139.1767  143.2370 LP  0  0  0  0  0  0  0  0  0  0  0  0  # atno 17320 bound_to 7965
  146.1126  140.7409  142.9496 LP  0  0  0  0  0  0  0  0  0  0  0  0  # atno 17321 bound_to 7965
  140.5460  144.0502  150.6107 LP  0  0  0  0  0  0  0  0  0  0  0  0  # atno 17342 bound_to 10162
  140.3540  143.2946  152.0456 LP  0  0  0  0  0  0  0  0  0  0  0  0  # atno 17343 bound_to 10162
  155.9704  130.4175  150.4282 LP  0  0  0  0  0  0  0  0  0  0  0  0  # atno 17370 bound_to 10713
  157.2326  131.0507  151.2484 LP  0  0  0  0  0  0  0  0  0  0  0  0  # atno 17371 bound_to 10713
  140.9389  134.1926  157.4811 LP  0  0  0  0  0  0  0  0  0  0  0  0  # atno 17394 bound_to 11000
  139.8731  134.9864  156.5322 LP  0  0  0  0  0  0  0  0  0  0  0  0  # atno 17395 bound_to 11000

$$$$
