AV-unprocessed.smi:2564|AV-procd|sdf|10063|dock1
  -GOLD-   2272014103D 1   1.00000     0.00000
 Structure written by MMmdl.
 29 30  0  0  0  0  0  0  0  0  2 V2000
  152.3798  144.6890  158.5114 C   0  0  0  0  0  0  0  0  0  0  0  0
  152.5892  143.7861  159.5697 C   0  0  0  0  0  0  0  0  0  0  0  0
  152.1476  142.5088  159.5342 N   0  0  0  0  0  0  0  0  0  0  0  0
  151.4851  142.0594  158.4625 N   0  0  0  0  0  0  0  0  0  0  0  0
  151.2440  142.8756  157.4056 C   0  0  0  0  0  0  0  0  0  0  0  0
  150.5457  142.3782  156.2953 N   0  0  0  0  0  0  0  0  0  0  0  0
  150.4660  140.9491  156.0145 C   0  0  0  0  0  0  0  0  0  0  0  0
  149.6011  140.6384  154.7801 C   0  0  1  0  0  0  0  0  0  0  0  0
  149.6795  139.1473  154.3962 C   0  0  0  0  0  0  0  0  0  0  0  0
  148.7863  138.8643  153.2551 N   0  3  0  0  0  0  0  0  0  0  0  0
  147.4007  139.2915  153.5295 C   0  0  0  0  0  0  0  0  0  0  0  0
  147.3802  140.7688  153.9542 C   0  0  0  0  0  0  0  0  0  0  0  0
  148.2409  140.9500  155.0728 O   0  0  0  0  0  0  0  0  0  0  0  0
  151.6809  144.2151  157.3878 C   0  0  0  0  0  0  0  0  0  0  0  0
  152.7419  145.7052  158.5606 H   0  0  0  0  0  0  0  0  0  0  0  0
  153.1193  144.0913  160.4595 H   0  0  0  0  0  0  0  0  0  0  0  0
  149.9808  143.0097  155.7457 H   0  0  0  0  0  0  0  0  0  0  0  0
  151.4855  140.6101  155.8291 H   0  0  0  0  0  0  0  0  0  0  0  0
  150.1194  140.3921  156.8855 H   0  0  0  0  0  0  0  0  0  0  0  0
  149.9450  141.2462  153.9406 H   0  0  0  0  0  0  0  0  0  0  0  0
  150.6993  138.8727  154.1254 H   0  0  0  0  0  0  0  0  0  0  0  0
  149.3904  138.5202  155.2408 H   0  0  0  0  0  0  0  0  0  0  0  0
  149.1254  139.3686  152.4482 H   0  0  0  0  0  0  0  0  0  0  0  0
  146.7899  139.1382  152.6395 H   0  0  0  0  0  0  0  0  0  0  0  0
  146.9829  138.6661  154.3195 H   0  0  0  0  0  0  0  0  0  0  0  0
  147.6894  141.4176  153.1331 H   0  0  0  0  0  0  0  0  0  0  0  0
  146.3692  141.0667  154.2329 H   0  0  0  0  0  0  0  0  0  0  0  0
  151.4880  144.8600  156.5429 H   0  0  0  0  0  0  0  0  0  0  0  0
  148.7990  137.8744  153.0545 H   0  0  0  0  0  0  0  0  0  0  0  0
  1 14  1  0  0  0  0
  1  2  2  0  0  0  0
  1 15  1  0  0  0  0
  2  3  1  0  0  0  0
  2 16  1  0  0  0  0
  3  4  2  0  0  0  0
  4  5  1  0  0  0  0
  5  6  1  0  0  0  0
  5 14  2  0  0  0  0
  6  7  1  0  0  0  0
  6 17  1  0  0  0  0
  7  8  1  0  0  0  0
  7 18  1  0  0  0  0
  7 19  1  0  0  0  0
  8 13  1  0  0  0  0
  8  9  1  0  0  0  0
  8 20  1  0  0  0  0
  9 10  1  0  0  0  0
  9 21  1  0  0  0  0
  9 22  1  0  0  0  0
 10 11  1  0  0  0  0
 10 23  1  0  0  0  0
 10 29  1  0  0  0  0
 11 12  1  0  0  0  0
 11 24  1  0  0  0  0
 11 25  1  0  0  0  0
 12 13  1  0  0  0  0
 12 26  1  0  0  0  0
 12 27  1  0  0  0  0
 14 28  1  0  0  0  0
M  CHG  1  10   1
M  END
> <s_m_source_file>
AV-unprocessed.smi

> <i_m_source_file_index>
2564

> <i_lp_mmshare_version>
43012

> <i_f3d_flags>
0

> <s_epik_input>
W2NIXTFbY0hdW2NIXW5uYzFbTkhdW0NIMl1bQ0BASF0yW0NIMl1bTkhdW0NIMl1bQ0gyXU8y

> <s_epik_cmdline>
J2VwaWtfcHl0aG9uJywgJy1waCcsICc3LjAnLCAnLXRuJywgJzgnLCAnLW1hJywgJzIwMCcsICctbWV0YWxfYmluZGluZycsICctaW1hZScsICc8aW5maWxlLm1hZT4nLCAnLW9tYWUnLCAnPG91dGZpbGUubWFlPic=

> <r_lp_tautomer_probability>
0.999978

> <r_epik_Ionization_Penalty>
0.0278973

> <r_epik_Ionization_Penalty_Charging>
0.00959556

> <r_epik_Ionization_Penalty_Neutral>
0.0183017

> <r_epik_State_Penalty>
0.0323017

> <r_epik_Charging_Adjusted_Penalty>
0.0418973

> <i_epik_Tot_Q>
1

> <i_epik_Tot_abs_Q>
1

> <r_epik_Metal_State_Penalty>
0.0301524

> <b_epik_Metal_Only>
0

> <s_lp_Force_Field>
OPLS_2005

> <r_lp_Energy>
20.3405

> <b_lp_Chiralities_Consistent>
1

> <s_lp_Variant>
AV-unprocessed.smi:2564-2

> <Gold.Version>
5.8.1

> <Gold.Id.Protein>
6NUR|6NUR_protein|mol2

> <Gold.PLP.Fitness>
43.8869

> <Gold.PLP.PLP>
-32.2473

> <Gold.PLP.part.hbond>
-3.0000

> <Gold.PLP.part.metal>
0.0000

> <Gold.PLP.part.buried>
-5.1205

> <Gold.PLP.part.nonpolar>
-26.4518

> <Gold.PLP.part.repulsive>
0.2934

> <Gold.PLP.ligand.clash>
0.0000

> <Gold.PLP.ligand.torsion>
0.1335

> <Gold.PLP.Chemscore.Hbond>
3.9673

> <Gold.PLP.Chemscore.CHOScore>
0.0000

> <Gold.PLP.Chemscore.Metal>
0.0000

> <Gold.Chemscore.Hbonds>
donor molecule, donor type, donor heavy atom, donor atom, acceptor molecule, acceptor atom, score
      L1  H     6    17       P1  8028  0.98
      L1  H    10    23       P1  7957  0.99
      L1  H    10    29       P1  7948  2.00

> <Gold.PLP.Chemscore.Internal.Correction>
0.0047

> <Gold.Rescore>
     Score         DG    S(hbond)    S(metal)    S(lipo)     H(rot)  DE(clash)    DE(int)     intcor
     20.19     -20.40       2.88        0.00      74.37       1.33       0.11       0.10       ----

> <Gold.Chemscore.Fitness>
20.1922

> <Gold.Chemscore.DG>
-20.3966

> <Gold.Chemscore.ZeroCoef>
-5.4800

> <Gold.Chemscore.Hbond>
2.8767

> <Gold.Chemscore.Metal>
0.0000

> <Gold.Chemscore.Lipo>
74.3663

> <Gold.Chemscore.Internal_Hbond>
0.0000

> <Gold.Chemscore.DEClash>
0.1053

> <Gold.Chemscore.DEInternal>
0.0991

> <Gold.Chemscore.Rot>
1.3251

> <Gold.Chemscore.Internal.Correction>
   9.000000E+99

> <Gold.Chemscore.Hbonds>
donor molecule, donor type, donor heavy atom, donor atom, acceptor molecule, acceptor atom, score
      L1  H     6    17       P1  8028  0.87
      L1  H    10    23       P1  7957  0.92
      L1  H    10    29       P1  7948  0.93

> <Gold.Chemscore.Hbond.Weighted>
-9.6081

> <Gold.Chemscore.Metal.Weighted>
-0.0000

> <Gold.Chemscore.Lipo.Weighted>
-8.7009

> <Gold.Chemscore.Internal_Hbond.Weighted>
0.0000

> <Gold.Chemscore.DEClash.Weighted>
0.1053

> <Gold.Chemscore.DEInternal.Weighted>
0.0991

> <Gold.Chemscore.Rot.Weighted>
3.3924

> <Gold.Chemscore.Internal.Correction.Weighted>
   9.000000E+99

> <Gold.Protein.RotatedTorsions>
[ 6907 6896 6895 6894 ] final   65.66 input  -60.11 | X-H torsion
[ 7974 7965 7964 7962 ] final -172.59 input  175.53 | X-H torsion
[ 8008 7997 7996 7995 ] final    4.08 input   59.86 | X-H torsion
[ 10167 10162 10161 10158 ] final   11.57 input  -65.29 | X-H torsion
[ 10718 10713 10712 10709 ] final  155.70 input   66.30 | X-H torsion
[ 10763 10752 10751 10750 ] final    7.71 input  -60.55 | X-H torsion
[ 11005 11000 10999 10996 ] final   -7.99 input  -57.11 | X-H torsion

> <Gold.Protein.ActiveResidues>
 VAL166  LYS551  ARG553  GLY616  TRP617  ASP618  TYR619  PRO620  LYS621  CYS622 
 ASP623  PHE694  ASN695  SER759  ASP760  ASP761  ALA762  ILE779  LEU786  VAL792 
 PHE793  MET794  SER795  GLU796  ALA797  LYS798  CYS799  TRP800  GLU811  SER814 

> <Gold.Protein.RotatedAtoms>
  152.4424  134.5564  159.9881 H   0  0  0  0  0  0  0  0  0  0  0  0  # atno 6907 bound_to 6896
  151.5657  133.3391  159.2988 H   0  0  0  0  0  0  0  0  0  0  0  0  # atno 6908 bound_to 6896
  150.8333  134.7629  159.6935 H   0  0  0  0  0  0  0  0  0  0  0  0  # atno 6909 bound_to 6896
  144.7145  140.1749  143.6364 H   0  0  0  0  0  0  0  0  0  0  0  0  # atno 7974 bound_to 7965
  154.7115  140.2693  155.6625 H   0  0  0  0  0  0  0  0  0  0  0  0  # atno 8008 bound_to 7997
  156.2797  140.2752  156.1682 H   0  0  0  0  0  0  0  0  0  0  0  0  # atno 8009 bound_to 7997
  155.0628  140.0371  157.2572 H   0  0  0  0  0  0  0  0  0  0  0  0  # atno 8010 bound_to 7997
  140.6123  143.8381  150.7079 H   0  0  0  0  0  0  0  0  0  0  0  0  # atno 10167 bound_to 10162
  157.2148  131.0705  151.1948 H   0  0  0  0  0  0  0  0  0  0  0  0  # atno 10718 bound_to 10713
  153.2332  135.6895  153.7866 H   0  0  0  0  0  0  0  0  0  0  0  0  # atno 10763 bound_to 10752
  153.7022  135.3295  155.3228 H   0  0  0  0  0  0  0  0  0  0  0  0  # atno 10764 bound_to 10752
  154.8323  135.4570  154.1226 H   0  0  0  0  0  0  0  0  0  0  0  0  # atno 10765 bound_to 10752
  140.7186  133.8847  155.8804 H   0  0  0  0  0  0  0  0  0  0  0  0  # atno 11005 bound_to 11000
  145.8909  139.2375  143.1550 LP  0  0  0  0  0  0  0  0  0  0  0  0  # atno 17320 bound_to 7965
  145.9904  140.8607  143.0069 LP  0  0  0  0  0  0  0  0  0  0  0  0  # atno 17321 bound_to 7965
  140.1952  143.4004  152.1833 LP  0  0  0  0  0  0  0  0  0  0  0  0  # atno 17342 bound_to 10162
  139.5371  144.7220  151.4857 LP  0  0  0  0  0  0  0  0  0  0  0  0  # atno 17343 bound_to 10162
  157.3636  130.7144  149.6518 LP  0  0  0  0  0  0  0  0  0  0  0  0  # atno 17370 bound_to 10713
  155.9687  130.4218  150.4489 LP  0  0  0  0  0  0  0  0  0  0  0  0  # atno 17371 bound_to 10713
  141.0023  134.1134  157.4305 LP  0  0  0  0  0  0  0  0  0  0  0  0  # atno 17394 bound_to 11000
  139.8853  135.0071  156.6429 LP  0  0  0  0  0  0  0  0  0  0  0  0  # atno 17395 bound_to 11000

$$$$
