AV-unprocessed.smi:3079|AV-procd|sdf|11737|dock9
  -GOLD-   2272017133D 1   1.00000     0.00000
 Structure written by MMmdl.
 24 25  0  0  0  0  0  0  0  0  2 V2000
  148.9840  138.7447  153.3721 N   0  3  0  0  0  0  0  0  0  0  0  0
  149.8772  139.1841  154.4567 C   0  0  0  0  0  0  0  0  0  0  0  0
  149.6465  140.6594  154.8090 C   0  0  0  0  0  0  0  0  0  0  0  0
  150.4499  141.0940  155.9885 C   0  0  0  0  0  0  0  0  0  0  0  0
  150.4050  142.3296  156.4927 N   0  0  0  0  0  0  0  0  0  0  0  0
  151.2209  142.4822  157.6173 C   0  0  0  0  0  0  0  0  0  0  0  0
  151.3025  143.8139  158.2977 C   0  0  0  0  0  0  0  0  0  0  0  0
  152.5646  144.6435  158.2414 C   0  0  0  0  0  0  0  0  0  0  0  0
  152.1448  143.9956  159.5385 C   0  0  0  0  0  0  0  0  0  0  0  0
  151.8835  141.3314  157.9655 C   0  0  0  0  0  0  0  0  0  0  0  0
  151.4968  140.0104  156.8977 S   0  0  0  0  0  0  0  0  0  0  0  0
  149.1056  139.3483  152.5712 H   0  0  0  0  0  0  0  0  0  0  0  0
  148.0246  138.7906  153.6845 H   0  0  0  0  0  0  0  0  0  0  0  0
  149.7030  138.5540  155.3296 H   0  0  0  0  0  0  0  0  0  0  0  0
  150.9103  139.0258  154.1453 H   0  0  0  0  0  0  0  0  0  0  0  0
  149.9057  141.2954  153.9618 H   0  0  0  0  0  0  0  0  0  0  0  0
  148.5912  140.8367  155.0213 H   0  0  0  0  0  0  0  0  0  0  0  0
  150.3545  144.3464  158.2555 H   0  0  0  0  0  0  0  0  0  0  0  0
  153.4303  144.2244  157.7321 H   0  0  0  0  0  0  0  0  0  0  0  0
  152.4520  145.7225  158.1586 H   0  0  0  0  0  0  0  0  0  0  0  0
  151.7523  144.6424  160.3205 H   0  0  0  0  0  0  0  0  0  0  0  0
  152.7278  143.1445  159.8853 H   0  0  0  0  0  0  0  0  0  0  0  0
  152.5705  141.1805  158.7852 H   0  0  0  0  0  0  0  0  0  0  0  0
  149.2095  137.7947  153.1132 H   0  0  0  0  0  0  0  0  0  0  0  0
  1  2  1  0  0  0  0
  1 12  1  0  0  0  0
  1 13  1  0  0  0  0
  1 24  1  0  0  0  0
  2  3  1  0  0  0  0
  2 14  1  0  0  0  0
  2 15  1  0  0  0  0
  3  4  1  0  0  0  0
  3 16  1  0  0  0  0
  3 17  1  0  0  0  0
  4 11  1  0  0  0  0
  4  5  2  0  0  0  0
  5  6  1  0  0  0  0
  6  7  1  0  0  0  0
  6 10  2  0  0  0  0
  7  9  1  0  0  0  0
  7  8  1  0  0  0  0
  7 18  1  0  0  0  0
  8  9  1  0  0  0  0
  8 19  1  0  0  0  0
  8 20  1  0  0  0  0
  9 21  1  0  0  0  0
  9 22  1  0  0  0  0
 10 11  1  0  0  0  0
 10 23  1  0  0  0  0
M  CHG  1   1   1
M  END
> <s_m_source_file>
AV-unprocessed.smi

> <i_m_source_file_index>
3079

> <i_lp_mmshare_version>
43012

> <i_f3d_flags>
0

> <s_epik_input>
W05IMl1bQ0gyXVtDSDJdYzFuYyhbY0hdczEpW0NIXTJbQ0gyXVtDSDJdMg==

> <s_epik_cmdline>
J2VwaWtfcHl0aG9uJywgJy1waCcsICc3LjAnLCAnLXRuJywgJzgnLCAnLW1hJywgJzIwMCcsICctbWV0YWxfYmluZGluZycsICctaW1hZScsICc8aW5maWxlLm1hZT4nLCAnLW9tYWUnLCAnPG91dGZpbGUubWFlPic=

> <r_lp_tautomer_probability>
1

> <r_epik_Ionization_Penalty>
0.00466735

> <r_epik_Ionization_Penalty_Charging>
0.00465044

> <r_epik_Ionization_Penalty_Neutral>
1.6915e-05

> <r_epik_State_Penalty>
-0

> <r_epik_Charging_Adjusted_Penalty>
0.00465044

> <i_epik_Tot_Q>
1

> <i_epik_Tot_abs_Q>
1

> <r_epik_Metal_State_Penalty>
-0

> <b_epik_Metal_Only>
0

> <s_lp_Force_Field>
OPLS_2005

> <r_lp_Energy>
-1.43879

> <b_lp_Chiralities_Consistent>
1

> <s_lp_Variant>
AV-unprocessed.smi:3079-1

> <Gold.Version>
5.8.1

> <Gold.Id.Protein>
6NUR|6NUR_protein|mol2

> <Gold.PLP.Fitness>
37.3199

> <Gold.PLP.PLP>
-28.3751

> <Gold.PLP.part.hbond>
-2.0000

> <Gold.PLP.part.metal>
0.0000

> <Gold.PLP.part.buried>
-3.5023

> <Gold.PLP.part.nonpolar>
-24.7982

> <Gold.PLP.part.repulsive>
1.3039

> <Gold.PLP.ligand.clash>
0.0000

> <Gold.PLP.ligand.torsion>
0.0928

> <Gold.PLP.Chemscore.Hbond>
3.0000

> <Gold.PLP.Chemscore.CHOScore>
0.0000

> <Gold.PLP.Chemscore.Metal>
0.0000

> <Gold.Chemscore.Hbonds>
donor molecule, donor type, donor heavy atom, donor atom, acceptor molecule, acceptor atom, score
      L1  H     1    12       P1  7957  1.00
      L1  H     1    24       P1  7948  1.98

> <Gold.PLP.Chemscore.Internal.Correction>
0.1304

> <Gold.Rescore>
     Score         DG    S(hbond)    S(metal)    S(lipo)     H(rot)  DE(clash)    DE(int)     intcor
     17.87     -18.02       1.96        0.00      83.34       1.47       0.08       0.07       ----

> <Gold.Chemscore.Fitness>
17.8655

> <Gold.Chemscore.DG>
-18.0185

> <Gold.Chemscore.ZeroCoef>
-5.4800

> <Gold.Chemscore.Hbond>
1.9624

> <Gold.Chemscore.Metal>
0.0000

> <Gold.Chemscore.Lipo>
83.3407

> <Gold.Chemscore.Internal_Hbond>
0.0000

> <Gold.Chemscore.DEClash>
0.0786

> <Gold.Chemscore.DEInternal>
0.0745

> <Gold.Chemscore.Rot>
1.4714

> <Gold.Chemscore.Internal.Correction>
   9.000000E+99

> <Gold.Chemscore.Hbonds>
donor molecule, donor type, donor heavy atom, donor atom, acceptor molecule, acceptor atom, score
      L1  H     1    12       P1  7957  1.00
      L1  H     1    24       P1  7948  0.89

> <Gold.Chemscore.Hbond.Weighted>
-6.5544

> <Gold.Chemscore.Metal.Weighted>
-0.0000

> <Gold.Chemscore.Lipo.Weighted>
-9.7509

> <Gold.Chemscore.Internal_Hbond.Weighted>
0.0000

> <Gold.Chemscore.DEClash.Weighted>
0.0786

> <Gold.Chemscore.DEInternal.Weighted>
0.0745

> <Gold.Chemscore.Rot.Weighted>
3.7668

> <Gold.Chemscore.Internal.Correction.Weighted>
   9.000000E+99

> <Gold.Protein.RotatedTorsions>
[ 6907 6896 6895 6894 ] final   52.12 input  -60.11 | X-H torsion
[ 7974 7965 7964 7962 ] final   17.36 input  175.53 | X-H torsion
[ 8008 7997 7996 7995 ] final  -32.39 input   59.86 | X-H torsion
[ 10167 10162 10161 10158 ] final   67.27 input  -65.29 | X-H torsion
[ 10718 10713 10712 10709 ] final   59.54 input   66.30 | X-H torsion
[ 10763 10752 10751 10750 ] final  -84.35 input  -60.55 | X-H torsion
[ 11005 11000 10999 10996 ] final  -82.60 input  -57.11 | X-H torsion

> <Gold.Protein.ActiveResidues>
 VAL166  LYS551  ARG553  GLY616  TRP617  ASP618  TYR619  PRO620  LYS621  CYS622 
 ASP623  PHE694  ASN695  SER759  ASP760  ASP761  ALA762  ILE779  LEU786  VAL792 
 PHE793  MET794  SER795  GLU796  ALA797  LYS798  CYS799  TRP800  GLU811  SER814 

> <Gold.Protein.RotatedAtoms>
  152.3199  134.7393  160.0315 H   0  0  0  0  0  0  0  0  0  0  0  0  # atno 6907 bound_to 6896
  151.7845  133.3347  159.3489 H   0  0  0  0  0  0  0  0  0  0  0  0  # atno 6908 bound_to 6896
  150.7364  134.5831  159.5993 H   0  0  0  0  0  0  0  0  0  0  0  0  # atno 6909 bound_to 6896
  146.2221  139.8614  142.8604 H   0  0  0  0  0  0  0  0  0  0  0  0  # atno 7974 bound_to 7965
  154.4182  140.1739  156.1719 H   0  0  0  0  0  0  0  0  0  0  0  0  # atno 8008 bound_to 7997
  155.9753  140.3382  155.6589 H   0  0  0  0  0  0  0  0  0  0  0  0  # atno 8009 bound_to 7997
  155.6571  140.0697  157.2557 H   0  0  0  0  0  0  0  0  0  0  0  0  # atno 8010 bound_to 7997
  140.0914  144.4985  150.7096 H   0  0  0  0  0  0  0  0  0  0  0  0  # atno 10167 bound_to 10162
  157.5683  130.8888  149.9224 H   0  0  0  0  0  0  0  0  0  0  0  0  # atno 10718 bound_to 10713
  154.5985  135.5524  153.7350 H   0  0  0  0  0  0  0  0  0  0  0  0  # atno 10763 bound_to 10752
  153.0145  135.6360  154.1749 H   0  0  0  0  0  0  0  0  0  0  0  0  # atno 10764 bound_to 10752
  154.1689  135.2893  155.3067 H   0  0  0  0  0  0  0  0  0  0  0  0  # atno 10765 bound_to 10752
  141.1662  133.7252  156.8595 H   0  0  0  0  0  0  0  0  0  0  0  0  # atno 11005 bound_to 11000
  145.2701  141.0106  143.3777 LP  0  0  0  0  0  0  0  0  0  0  0  0  # atno 17320 bound_to 7965
  144.9230  139.4388  143.6532 LP  0  0  0  0  0  0  0  0  0  0  0  0  # atno 17321 bound_to 7965
  140.7026  143.2446  151.4818 LP  0  0  0  0  0  0  0  0  0  0  0  0  # atno 17342 bound_to 10162
  139.5723  144.1900  152.1853 LP  0  0  0  0  0  0  0  0  0  0  0  0  # atno 17343 bound_to 10162
  156.0730  130.3682  150.0736 LP  0  0  0  0  0  0  0  0  0  0  0  0  # atno 17370 bound_to 10713
  156.8892  130.9583  151.3590 LP  0  0  0  0  0  0  0  0  0  0  0  0  # atno 17371 bound_to 10713
  140.1858  134.9001  157.3003 LP  0  0  0  0  0  0  0  0  0  0  0  0  # atno 17394 bound_to 11000
  140.2344  134.3870  155.7507 LP  0  0  0  0  0  0  0  0  0  0  0  0  # atno 17395 bound_to 11000

$$$$
