AV-unprocessed.smi:1005|AV-procd|sdf|4366|dock10
  -GOLD-   22720 2273D 1   1.00000     0.00000
 Structure written by MMmdl.
 57 59  0  0  0  0  0  0  0  0  3 V2000
  152.7462  143.5606  161.5041 C   0  0  0  0  0  0  0  0  0  0  0  0
  152.2101  143.0108  160.1939 C   0  0  0  0  0  0  0  0  0  0  0  0
  152.7684  141.8244  159.6668 C   0  0  0  0  0  0  0  0  0  0  0  0
  152.2999  141.2819  158.4505 C   0  0  0  0  0  0  0  0  0  0  0  0
  152.6966  140.1500  157.7590 N   0  0  0  0  0  0  0  0  0  0  0  0
  151.8883  140.1829  156.7041 C   0  0  0  0  0  0  0  0  0  0  0  0
  151.0162  141.2066  156.6269 N   0  0  0  0  0  0  0  0  0  0  0  0
  150.0498  141.4520  155.5713 C   0  0  0  0  0  0  0  0  0  0  0  0
  149.3864  140.1550  155.0707 C   0  0  2  0  0  0  0  0  0  0  0  0
  149.9766  139.7673  153.8442 O   0  0  0  0  0  0  0  0  0  0  0  0
  147.8721  140.3344  154.8483 C   0  0  0  0  0  0  0  0  0  0  0  0
  147.0865  139.1806  155.3554 N   0  3  1  0  0  0  0  0  0  0  0  0
  147.2039  138.9787  156.8202 C   0  0  0  0  0  0  0  0  0  0  0  0
  146.4067  137.7378  157.2521 C   0  0  0  0  0  0  0  0  0  0  0  0
  145.0495  137.8802  156.8504 O   0  0  0  0  0  0  0  0  0  0  0  0
  144.9077  137.9807  155.4366 C   0  0  1  0  0  0  0  0  0  0  0  0
  143.4039  138.0600  155.1107 C   0  0  0  0  0  0  0  0  0  0  0  0
  143.1292  138.1464  153.6529 N   0  3  0  0  0  0  0  0  0  0  0  0
  141.6853  138.2008  153.3254 C   0  0  0  0  0  0  0  0  0  0  0  0
  143.8140  137.0752  152.8953 C   0  0  0  0  0  0  0  0  0  0  0  0
  145.6601  139.2386  154.9562 C   0  0  0  0  0  0  0  0  0  0  0  0
  151.2493  141.9641  157.7699 C   0  0  0  0  0  0  0  0  0  0  0  0
  150.6851  143.1446  158.2846 C   0  0  0  0  0  0  0  0  0  0  0  0
  151.1643  143.6726  159.5016 C   0  0  0  0  0  0  0  0  0  0  0  0
  150.5472  144.9467  160.0503 C   0  0  0  0  0  0  0  0  0  0  0  0
  153.5513  142.9392  161.8974 H   0  0  0  0  0  0  0  0  0  0  0  0
  151.9561  143.5989  162.2543 H   0  0  0  0  0  0  0  0  0  0  0  0
  153.1400  144.5674  161.3632 H   0  0  0  0  0  0  0  0  0  0  0  0
  153.5649  141.3200  160.1940 H   0  0  0  0  0  0  0  0  0  0  0  0
  151.9357  139.4210  155.9394 H   0  0  0  0  0  0  0  0  0  0  0  0
  149.2933  142.1373  155.9566 H   0  0  0  0  0  0  0  0  0  0  0  0
  150.5494  141.9705  154.7518 H   0  0  0  0  0  0  0  0  0  0  0  0
  149.5730  139.3686  155.8017 H   0  0  0  0  0  0  0  0  0  0  0  0
  149.3147  139.7989  153.1692 H   0  0  0  0  0  0  0  0  0  0  0  0
  147.5186  141.2499  155.3252 H   0  0  0  0  0  0  0  0  0  0  0  0
  147.6930  140.4615  153.7793 H   0  0  0  0  0  0  0  0  0  0  0  0
  148.2474  138.8568  157.1086 H   0  0  0  0  0  0  0  0  0  0  0  0
  146.8292  139.8602  157.3434 H   0  0  0  0  0  0  0  0  0  0  0  0
  146.8345  136.8298  156.8237 H   0  0  0  0  0  0  0  0  0  0  0  0
  146.4442  137.6266  158.3359 H   0  0  0  0  0  0  0  0  0  0  0  0
  145.3492  137.1041  154.9614 H   0  0  0  0  0  0  0  0  0  0  0  0
  142.9205  137.1701  155.5172 H   0  0  0  0  0  0  0  0  0  0  0  0
  142.9467  138.9131  155.6147 H   0  0  0  0  0  0  0  0  0  0  0  0
  141.1716  137.3015  153.6684 H   0  0  0  0  0  0  0  0  0  0  0  0
  141.5407  138.2811  152.2473 H   0  0  0  0  0  0  0  0  0  0  0  0
  141.2015  139.0652  153.7783 H   0  0  0  0  0  0  0  0  0  0  0  0
  143.4439  136.0916  153.1876 H   0  0  0  0  0  0  0  0  0  0  0  0
  144.8902  137.1024  153.0698 H   0  0  0  0  0  0  0  0  0  0  0  0
  143.6530  137.1966  151.8234 H   0  0  0  0  0  0  0  0  0  0  0  0
  145.2033  140.1383  155.3724 H   0  0  0  0  0  0  0  0  0  0  0  0
  145.5875  139.3143  153.8704 H   0  0  0  0  0  0  0  0  0  0  0  0
  149.8902  143.6404  157.7472 H   0  0  0  0  0  0  0  0  0  0  0  0
  149.7578  145.3198  159.3972 H   0  0  0  0  0  0  0  0  0  0  0  0
  151.3018  145.7280  160.1430 H   0  0  0  0  0  0  0  0  0  0  0  0
  150.1111  144.7673  161.0331 H   0  0  0  0  0  0  0  0  0  0  0  0
  143.5363  139.0140  153.3329 H   0  0  0  0  0  0  0  0  0  0  0  0
  147.4736  138.3610  154.9082 H   0  0  0  0  0  0  0  0  0  0  0  0
  1  2  1  0  0  0  0
  1 26  1  0  0  0  0
  1 27  1  0  0  0  0
  1 28  1  0  0  0  0
  2 24  1  0  0  0  0
  2  3  2  0  0  0  0
  3  4  1  0  0  0  0
  3 29  1  0  0  0  0
  4 22  2  0  0  0  0
  4  5  1  0  0  0  0
  5  6  2  0  0  0  0
  6  7  1  0  0  0  0
  6 30  1  0  0  0  0
  7  8  1  0  0  0  0
  7 22  1  0  0  0  0
  8  9  1  0  0  0  0
  8 31  1  0  0  0  0
  8 32  1  0  0  0  0
  9 10  1  0  0  0  0
  9 11  1  0  0  0  0
  9 33  1  0  0  0  0
 10 34  1  0  0  0  0
 11 12  1  0  0  0  0
 11 35  1  0  0  0  0
 11 36  1  0  0  0  0
 12 21  1  0  0  0  0
 12 13  1  0  0  0  0
 12 57  1  0  0  0  0
 13 14  1  0  0  0  0
 13 37  1  0  0  0  0
 13 38  1  0  0  0  0
 14 15  1  0  0  0  0
 14 39  1  0  0  0  0
 14 40  1  0  0  0  0
 15 16  1  0  0  0  0
 16 17  1  0  0  0  0
 16 21  1  0  0  0  0
 16 41  1  0  0  0  0
 17 18  1  0  0  0  0
 17 42  1  0  0  0  0
 17 43  1  0  0  0  0
 18 19  1  0  0  0  0
 18 20  1  0  0  0  0
 18 56  1  0  0  0  0
 19 44  1  0  0  0  0
 19 45  1  0  0  0  0
 19 46  1  0  0  0  0
 20 47  1  0  0  0  0
 20 48  1  0  0  0  0
 20 49  1  0  0  0  0
 21 50  1  0  0  0  0
 21 51  1  0  0  0  0
 22 23  1  0  0  0  0
 23 24  2  0  0  0  0
 23 52  1  0  0  0  0
 24 25  1  0  0  0  0
 25 53  1  0  0  0  0
 25 54  1  0  0  0  0
 25 55  1  0  0  0  0
M  CHG  1  12   1
M  CHG  1  18   1
M  END
> <s_m_source_file>
AV-unprocessed.smi

> <i_m_source_file_index>
1005

> <i_lp_mmshare_version>
43012

> <i_f3d_flags>
0

> <s_epik_input>
W0NIM11jKFtjSF0xKWMoW0NIM10pW2NIXWMoYzEyKW4oW2NIXW4yKVtDSDJdW0NASF0oW09IXSlbQ0gyXU4zW0NIMl1bQ0gyXU9bQ0BIXShbQ0gyXTMpW0NIMl1OKFtDSDNdKVtDSDNd

> <s_epik_cmdline>
J2VwaWtfcHl0aG9uJywgJy1waCcsICc3LjAnLCAnLXRuJywgJzgnLCAnLW1hJywgJzIwMCcsICctbWV0YWxfYmluZGluZycsICctaW1hZScsICc8aW5maWxlLm1hZT4nLCAnLW9tYWUnLCAnPG91dGZpbGUubWFlPic=

> <r_epik_Ionization_Penalty>
1.0968

> <r_epik_Ionization_Penalty_Charging>
1.0096

> <r_epik_Ionization_Penalty_Neutral>
0.0871956

> <r_epik_State_Penalty>
1.31185

> <r_epik_Charging_Adjusted_Penalty>
2.32145

> <i_epik_Tot_Q>
2

> <i_epik_Tot_abs_Q>
2

> <r_epik_Metal_State_Penalty>
1.22442

> <b_epik_Metal_Only>
0

> <s_lp_Force_Field>
OPLS_2005

> <r_lp_Energy>
32.7622

> <b_lp_Chiralities_Consistent>
1

> <s_lp_Variant>
AV-unprocessed.smi:1005-5

> <Gold.Version>
5.8.1

> <Gold.Id.Protein>
6NUR|6NUR_protein|mol2

> <Gold.PLP.Fitness>
51.5772

> <Gold.PLP.PLP>
-40.9676

> <Gold.PLP.part.hbond>
-4.0000

> <Gold.PLP.part.metal>
0.0000

> <Gold.PLP.part.buried>
-4.9339

> <Gold.PLP.part.nonpolar>
-31.5659

> <Gold.PLP.part.repulsive>
0.0000

> <Gold.PLP.ligand.clash>
0.0000

> <Gold.PLP.ligand.torsion>
1.5297

> <Gold.PLP.Chemscore.Hbond>
4.4880

> <Gold.PLP.Chemscore.CHOScore>
0.0000

> <Gold.PLP.Chemscore.Metal>
0.0000

> <Gold.Chemscore.Hbonds>
donor molecule, donor type, donor heavy atom, donor atom, acceptor molecule, acceptor atom, score
      L1  H    10    34       P1  7957  0.52
      L1  H    18    56       P1 10175  2.00
      P1  H  7989  7998       L1    10  0.90
      P1  H  7997  8009       L1     5  1.00

> <Gold.PLP.Chemscore.Internal.Correction>
0.2050

> <Gold.Rescore>
     Score         DG    S(hbond)    S(metal)    S(lipo)     H(rot)  DE(clash)    DE(int)     intcor
     17.94     -19.61       2.45        0.00     105.03       2.48       0.12       1.55       ----

> <Gold.Chemscore.Fitness>
17.9435

> <Gold.Chemscore.DG>
-19.6080

> <Gold.Chemscore.ZeroCoef>
-5.4800

> <Gold.Chemscore.Hbond>
2.4527

> <Gold.Chemscore.Metal>
0.0000

> <Gold.Chemscore.Lipo>
105.0272

> <Gold.Chemscore.Internal_Hbond>
0.0000

> <Gold.Chemscore.DEClash>
0.1190

> <Gold.Chemscore.DEInternal>
1.5455

> <Gold.Chemscore.Rot>
2.4814

> <Gold.Chemscore.Internal.Correction>
   9.000000E+99

> <Gold.Chemscore.Hbonds>
donor molecule, donor type, donor heavy atom, donor atom, acceptor molecule, acceptor atom, score
      L1  H    10    34       P1  7957  0.49
      L1  H    18    56       P1 10175  0.99
      P1  H  7989  7998       L1    10  0.59
      P1  H  7997  8009       L1     5  0.24

> <Gold.Chemscore.Hbond.Weighted>
-8.1921

> <Gold.Chemscore.Metal.Weighted>
-0.0000

> <Gold.Chemscore.Lipo.Weighted>
-12.2882

> <Gold.Chemscore.Internal_Hbond.Weighted>
0.0000

> <Gold.Chemscore.DEClash.Weighted>
0.1190

> <Gold.Chemscore.DEInternal.Weighted>
1.5455

> <Gold.Chemscore.Rot.Weighted>
6.3524

> <Gold.Chemscore.Internal.Correction.Weighted>
   9.000000E+99

> <Gold.Protein.RotatedTorsions>
[ 6907 6896 6895 6894 ] final -167.82 input  -60.11 | X-H torsion
[ 7974 7965 7964 7962 ] final  -43.00 input  175.53 | X-H torsion
[ 8008 7997 7996 7995 ] final  168.21 input   59.86 | X-H torsion
[ 10167 10162 10161 10158 ] final -139.73 input  -65.29 | X-H torsion
[ 10718 10713 10712 10709 ] final  -68.10 input   66.30 | X-H torsion
[ 10763 10752 10751 10750 ] final -106.13 input  -60.55 | X-H torsion
[ 11005 11000 10999 10996 ] final  -43.04 input  -57.11 | X-H torsion

> <Gold.Protein.ActiveResidues>
 VAL166  LYS551  ARG553  GLY616  TRP617  ASP618  TYR619  PRO620  LYS621  CYS622 
 ASP623  PHE694  ASN695  SER759  ASP760  ASP761  ALA762  ILE779  LEU786  VAL792 
 PHE793  MET794  SER795  GLU796  ALA797  LYS798  CYS799  TRP800  GLU811  SER814 

> <Gold.Protein.RotatedAtoms>
  151.4657  133.3581  159.2815 H   0  0  0  0  0  0  0  0  0  0  0  0  # atno 6907 bound_to 6896
  150.8995  134.8407  159.7360 H   0  0  0  0  0  0  0  0  0  0  0  0  # atno 6908 bound_to 6896
  152.4871  134.4576  159.9647 H   0  0  0  0  0  0  0  0  0  0  0  0  # atno 6909 bound_to 6896
  146.0061  140.7018  142.9247 H   0  0  0  0  0  0  0  0  0  0  0  0  # atno 7974 bound_to 7965
  156.1566  140.1596  156.8682 H   0  0  0  0  0  0  0  0  0  0  0  0  # atno 8008 bound_to 7997
  154.5121  140.0798  156.8046 H   0  0  0  0  0  0  0  0  0  0  0  0  # atno 8009 bound_to 7997
  155.3790  140.3404  155.4248 H   0  0  0  0  0  0  0  0  0  0  0  0  # atno 8010 bound_to 7997
  139.8351  143.7395  152.2665 H   0  0  0  0  0  0  0  0  0  0  0  0  # atno 10167 bound_to 10162
  156.0522  130.4289  150.1952 H   0  0  0  0  0  0  0  0  0  0  0  0  # atno 10718 bound_to 10713
  154.7992  135.4723  154.0234 H   0  0  0  0  0  0  0  0  0  0  0  0  # atno 10763 bound_to 10752
  153.1753  135.6832  153.8558 H   0  0  0  0  0  0  0  0  0  0  0  0  # atno 10764 bound_to 10752
  153.8127  135.3215  155.3380 H   0  0  0  0  0  0  0  0  0  0  0  0  # atno 10765 bound_to 10752
  141.0356  133.6801  156.2677 H   0  0  0  0  0  0  0  0  0  0  0  0  # atno 11005 bound_to 11000
  144.6936  140.3318  143.7215 LP  0  0  0  0  0  0  0  0  0  0  0  0  # atno 17320 bound_to 7965
  145.7413  139.1765  143.2374 LP  0  0  0  0  0  0  0  0  0  0  0  0  # atno 17321 bound_to 7965
  139.7615  144.7505  151.0357 LP  0  0  0  0  0  0  0  0  0  0  0  0  # atno 17342 bound_to 10162
  140.7803  143.4745  151.0100 LP  0  0  0  0  0  0  0  0  0  0  0  0  # atno 17343 bound_to 10162
  157.0033  130.9929  151.3385 LP  0  0  0  0  0  0  0  0  0  0  0  0  # atno 17370 bound_to 10713
  157.5460  130.8151  149.8086 LP  0  0  0  0  0  0  0  0  0  0  0  0  # atno 17371 bound_to 10713
  140.6327  134.5247  157.5561 LP  0  0  0  0  0  0  0  0  0  0  0  0  # atno 17394 bound_to 11000
  139.9239  134.8095  156.1128 LP  0  0  0  0  0  0  0  0  0  0  0  0  # atno 17395 bound_to 11000

$$$$
