#       Name:                AV-unprocessed.smi:1937
#       Creating user name   scv26
#       Creation time:       Fri Mar 27 09:58:08 2020


#       File generated by GOLD software.
#

@<TRIPOS>MOLECULE
AV-unprocessed.smi:1937
    45    46     1
SMALL
NO_CHARGES


@<TRIPOS>ATOM
      1 ****        -1.5308   1.4083   0.3882 O.2            1 S1                 0.0000
      2 ****        -2.0664   0.3007   0.4241 C.2            1 S1                 0.0000
      3 ****        -1.3794  -0.8500   0.4508 N.am           1 S1                 0.0000
      4 ****         0.0742  -0.9551   0.4230 C.3            1 S1                 0.0000
      5 ****         0.6230  -0.8070  -1.0086 C.3            1 S1                 0.0000
      6 ****         2.0888  -0.8889  -1.0266 N.am           1 S1                 0.0000
      7 ****         2.8141   0.3922  -1.0625 C.3            1 S1                 0.0000
      8 ****         3.5645   0.7217   0.2493 C.3            1 S1                 0.0000
      9 ****         4.0629  -0.4819   1.0730 C.3            1 S1                 0.0000
     10 ****         4.9057  -1.5071   0.2859 C.3            1 S1                 0.0000
     11 ****         4.2692  -2.0801  -1.0028 C.3            1 S1                 0.0000
     12 ****         2.7318  -2.0825  -1.0045 C.2            1 S1                 0.0000
     13 ****         2.1412  -3.1628  -0.9824 O.2            1 S1                 0.0000
     14 ****        -3.3911   0.0752   0.4558 N.am           1 S1                 0.0000
     15 ****        -4.4557   1.0165   0.4237 C.ar           1 S1                 0.0000
     16 ****        -4.3309   2.3527  -0.0289 C.ar           1 S1                 0.0000
     17 ****        -5.4697   3.1812  -0.0234 C.ar           1 S1                 0.0000
     18 ****        -6.6913   2.6435   0.4260 C.ar           1 S1                 0.0000
     19 ****        -6.8281   1.3685   0.8466 N.ar           1 S1                 0.0000
     20 ****        -5.7320   0.5802   0.8388 C.ar           1 S1                 0.0000
     21 ****        -1.8978  -1.7156   0.4873 H              1 S1                 0.0000
     22 ****         0.5154  -0.2048   1.0816 H              1 S1                 0.0000
     23 ****         0.3484  -1.9265   0.8352 H              1 S1                 0.0000
     24 ****         0.1971  -1.5788  -1.6522 H              1 S1                 0.0000
     25 ****         0.2875   0.1358  -1.4413 H              1 S1                 0.0000
     26 ****         3.5168   0.3805  -1.8959 H              1 S1                 0.0000
     27 ****         2.1453   1.2214  -1.2946 H              1 S1                 0.0000
     28 ****         4.4029   1.3797   0.0188 H              1 S1                 0.0000
     29 ****         2.9018   1.3061   0.8886 H              1 S1                 0.0000
     30 ****         4.6530  -0.1120   1.9121 H              1 S1                 0.0000
     31 ****         3.2097  -0.9857   1.5298 H              1 S1                 0.0000
     32 ****         5.8629  -1.0536   0.0266 H              1 S1                 0.0000
     33 ****         5.1470  -2.3339   0.9547 H              1 S1                 0.0000
     34 ****         4.6227  -1.5279  -1.8733 H              1 S1                 0.0000
     35 ****         4.6283  -3.0987  -1.1559 H              1 S1                 0.0000
     36 ****        -3.6725  -0.8888   0.5596 H              1 S1                 0.0000
     37 ****        -3.3976   2.7549  -0.3903 H              1 S1                 0.0000
     38 ****        -5.4080   4.2055  -0.3602 H              1 S1                 0.0000
     39 ****        -7.5834   3.2522   0.4427 H              1 S1                 0.0000
     40 ****        -5.8799  -0.4341   1.1799 H              1 S1                 0.0000
     41 ****        -0.5335   1.4813   0.3777 LP             1 S1                 0.0000
     42 ****        -2.0929   2.2351   0.3696 LP             1 S1                 0.0000
     43 ****         1.1415  -3.1862  -0.9801 LP             1 S1                 0.0000
     44 ****         2.6613  -4.0168  -0.9667 LP             1 S1                 0.0000
     45 ****        -7.7130   1.0187   1.1542 LP             1 S1                 0.0000
@<TRIPOS>BOND
    1    1    2 2     
    2    2    3 am    
    3    2   14 am    
    4    3    4 1     
    5    3   21 1     
    6    4    5 1     
    7    4   22 1     
    8    4   23 1     
    9    5    6 1     
   10    5   24 1     
   11    5   25 1     
   12    6   12 am    
   13    6    7 1     
   14    7    8 1     
   15    7   26 1     
   16    7   27 1     
   17    8    9 1     
   18    8   28 1     
   19    8   29 1     
   20    9   10 1     
   21    9   30 1     
   22    9   31 1     
   23   10   11 1     
   24   10   32 1     
   25   10   33 1     
   26   11   12 1     
   27   11   34 1     
   28   11   35 1     
   29   12   13 2     
   30   14   15 1     
   31   14   36 1     
   32   15   20 ar    
   33   15   16 ar    
   34   16   17 ar    
   35   16   37 1     
   36   17   18 ar    
   37   17   38 1     
   38   18   19 ar    
   39   18   39 1     
   40   19   20 ar    
   41   20   40 1     
   42    1   41 1     
   43    1   42 1     
   44   13   43 1     
   45   13   44 1     
   46   19   45 1     
@<TRIPOS>SUBSTRUCTURE
      1 S1             1
@<TRIPOS>SET
LONE_PAIRS      STATIC     ATOMS    <user>   **** ""
5 41 42 43 44 45
DONOR_HYDROGENS      STATIC     ATOMS    <user>   **** ""
2 21 36
ATOM$BLUE        STATIC     ATOMS    COLORGROUP SYSTEM
5 41 42 43 44 45
ATOM$RED        STATIC     ATOMS    COLORGROUP SYSTEM
2 21 36
