AV-unprocessed.smi:40|AV-procd|sdf|374|dock2
  -GOLD-   2262016223D 1   1.00000     0.00000
 Structure written by MMmdl.
 47 48  0  0  0  0  0  0  0  0  1 V2000
  150.6376  144.5891  160.1680 C   0  0  0  0  0  0  0  0  0  0  0  0
  152.0608  144.5495  159.5957 C   0  0  0  0  0  0  0  0  0  0  0  0
  152.7863  143.2139  159.8266 C   0  0  0  0  0  0  0  0  0  0  0  0
  152.1651  142.0302  159.0640 C   0  0  0  0  0  0  0  0  0  0  0  0
  152.8965  140.7051  159.3173 C   0  0  0  0  0  0  0  0  0  0  0  0
  152.6794  139.8331  158.2207 O   0  0  0  0  0  0  0  0  0  0  0  0
  151.7021  138.9102  158.2643 C   0  0  0  0  0  0  0  0  0  0  0  0
  150.9034  138.7972  159.1939 O   0  0  0  0  0  0  0  0  0  0  0  0
  151.6871  138.0896  157.0635 N   0  0  0  0  0  0  0  0  0  0  0  0
  150.8619  137.0650  156.7346 C   0  0  0  0  0  0  0  0  0  0  0  0
  150.3262  136.2582  157.6381 N   0  0  0  0  0  0  0  0  0  0  0  0
  149.4798  135.2245  157.3400 C   0  0  0  0  0  0  0  0  0  0  0  0
  149.0382  134.4991  158.2298 O   0  0  0  0  0  0  0  0  0  0  0  0
  149.1538  135.0292  155.9775 N   0  0  0  0  0  0  0  0  0  0  0  0
  148.2083  133.9175  155.5792 C   0  0  1  0  0  0  0  0  0  0  0  0
  147.2368  134.4666  154.7434 O   0  0  0  0  0  0  0  0  0  0  0  0
  146.9478  133.5498  153.7000 C   0  0  1  0  0  0  0  0  0  0  0  0
  146.3669  134.2942  152.4925 C   0  0  0  0  0  0  0  0  0  0  0  0
  148.2889  132.8644  153.4292 C   0  0  2  0  0  0  0  0  0  0  0  0
  148.0817  131.5822  152.8715 O   0  0  0  0  0  0  0  0  0  0  0  0
  148.9045  132.7629  154.8203 C   0  0  1  0  0  0  0  0  0  0  0  0
  150.3165  132.8623  154.7587 O   0  0  0  0  0  0  0  0  0  0  0  0
  149.6877  135.8727  155.0156 C   0  0  0  0  0  0  0  0  0  0  0  0
  150.5246  136.8816  155.3389 C   0  0  0  0  0  0  0  0  0  0  0  0
  151.0291  137.6865  154.3876 F   0  0  0  0  0  0  0  0  0  0  0  0
  147.7107  133.5725  156.4860 H   0  0  0  0  0  0  0  0  0  0  0  0
  146.2238  132.8279  154.0829 H   0  0  0  0  0  0  0  0  0  0  0  0
  148.9053  133.4792  152.7709 H   0  0  0  0  0  0  0  0  0  0  0  0
  148.6231  131.8290  155.3092 H   0  0  0  0  0  0  0  0  0  0  0  0
  150.1967  145.5772  160.0354 H   0  0  0  0  0  0  0  0  0  0  0  0
  150.6358  144.3657  161.2351 H   0  0  0  0  0  0  0  0  0  0  0  0
  149.9850  143.8715  159.6717 H   0  0  0  0  0  0  0  0  0  0  0  0
  152.0366  144.7781  158.5296 H   0  0  0  0  0  0  0  0  0  0  0  0
  152.6423  145.3458  160.0612 H   0  0  0  0  0  0  0  0  0  0  0  0
  153.8241  143.3337  159.5138 H   0  0  0  0  0  0  0  0  0  0  0  0
  152.8179  142.9918  160.8937 H   0  0  0  0  0  0  0  0  0  0  0  0
  151.1240  141.9106  159.3627 H   0  0  0  0  0  0  0  0  0  0  0  0
  152.1558  142.2409  157.9939 H   0  0  0  0  0  0  0  0  0  0  0  0
  153.9643  140.8810  159.4544 H   0  0  0  0  0  0  0  0  0  0  0  0
  152.5192  140.2407  160.2291 H   0  0  0  0  0  0  0  0  0  0  0  0
  152.4173  138.3141  156.4034 H   0  0  0  0  0  0  0  0  0  0  0  0
  146.1557  133.6064  151.6736 H   0  0  0  0  0  0  0  0  0  0  0  0
  147.0590  135.0521  152.1245 H   0  0  0  0  0  0  0  0  0  0  0  0
  145.4351  134.7946  152.7563 H   0  0  0  0  0  0  0  0  0  0  0  0
  148.2524  131.6267  151.9432 H   0  0  0  0  0  0  0  0  0  0  0  0
  150.5438  133.4700  154.0719 H   0  0  0  0  0  0  0  0  0  0  0  0
  149.4353  135.7251  153.9753 H   0  0  0  0  0  0  0  0  0  0  0  0
  1  2  1  0  0  0  0
  1 30  1  0  0  0  0
  1 31  1  0  0  0  0
  1 32  1  0  0  0  0
  2  3  1  0  0  0  0
  2 33  1  0  0  0  0
  2 34  1  0  0  0  0
  3  4  1  0  0  0  0
  3 35  1  0  0  0  0
  3 36  1  0  0  0  0
  4  5  1  0  0  0  0
  4 37  1  0  0  0  0
  4 38  1  0  0  0  0
  5  6  1  0  0  0  0
  5 39  1  0  0  0  0
  5 40  1  0  0  0  0
  6  7  1  0  0  0  0
  7  8  2  0  0  0  0
  7  9  1  0  0  0  0
  9 10  1  0  0  0  0
  9 41  1  0  0  0  0
 10 24  1  0  0  0  0
 10 11  2  0  0  0  0
 11 12  1  0  0  0  0
 12 13  2  0  0  0  0
 12 14  1  0  0  0  0
 14 15  1  0  0  0  0
 14 23  1  0  0  0  0
 15 26  1  0  0  0  0
 15 21  1  0  0  0  0
 15 16  1  0  0  0  0
 16 17  1  0  0  0  0
 17 27  1  0  0  0  0
 17 18  1  0  0  0  0
 17 19  1  0  0  0  0
 18 42  1  0  0  0  0
 18 43  1  0  0  0  0
 18 44  1  0  0  0  0
 19 28  1  0  0  0  0
 19 20  1  0  0  0  0
 19 21  1  0  0  0  0
 20 45  1  0  0  0  0
 21 29  1  0  0  0  0
 21 22  1  0  0  0  0
 22 46  1  0  0  0  0
 23 24  2  0  0  0  0
 23 47  1  0  0  0  0
 24 25  1  0  0  0  0
M  END
> <s_m_source_file>
AV-unprocessed.smi

> <i_m_source_file_index>
40

> <i_lp_mmshare_version>
43012

> <i_f3d_flags>
0

> <s_epik_input>
W0NIM11bQ0gyXVtDSDJdW0NIMl1bQ0gyXU9DKD1PKVtOSF1jMW5jKD1PKW4oW2NIXWMxRilbQ0BASF0yT1tDQEhdKFtDSDNdKVtDQEBIXShbT0hdKVtDQEhdMltPSF0=

> <s_epik_cmdline>
J2VwaWtfcHl0aG9uJywgJy1waCcsICc3LjAnLCAnLXRuJywgJzgnLCAnLW1hJywgJzIwMCcsICctbWV0YWxfYmluZGluZycsICctaW1hZScsICc8aW5maWxlLm1hZT4nLCAnLW9tYWUnLCAnPG91dGZpbGUubWFlPic=

> <r_lp_tautomer_probability>
1

> <r_epik_Ionization_Penalty>
2.29506e-06

> <r_epik_Ionization_Penalty_Charging>
8.26867e-09

> <r_epik_Ionization_Penalty_Neutral>
2.2868e-06

> <r_epik_State_Penalty>
-0

> <r_epik_Charging_Adjusted_Penalty>
8.26867e-09

> <i_epik_Tot_Q>
0

> <i_epik_Tot_abs_Q>
0

> <r_epik_Metal_State_Penalty>
-0

> <b_epik_Metal_Only>
0

> <s_epik_Chemistry_Notes>
This compound has an ester and may undergo hydrolysis at high or low pH. This compound contains an acetal/aminal-like group ( X-CH(R)-Y where X, Y are N, S, or O) that may be acid/base labile, releasing an aldehyde.

> <s_lp_Force_Field>
OPLS_2005

> <r_lp_Energy>
36.5799

> <b_lp_Chiralities_Consistent>
1

> <s_lp_Variant>
AV-unprocessed.smi:40-8

> <Gold.Version>
5.8.1

> <Gold.Id.Protein>
6NUR|6NUR_protein|mol2

> <Gold.PLP.Fitness>
43.8779

> <Gold.PLP.PLP>
-36.2007

> <Gold.PLP.part.hbond>
-3.3063

> <Gold.PLP.part.metal>
0.0000

> <Gold.PLP.part.buried>
-3.2885

> <Gold.PLP.part.nonpolar>
-30.5495

> <Gold.PLP.part.repulsive>
0.1374

> <Gold.PLP.ligand.clash>
0.0000

> <Gold.PLP.ligand.torsion>
0.8164

> <Gold.PLP.Chemscore.Hbond>
2.0000

> <Gold.PLP.Chemscore.CHOScore>
0.9989

> <Gold.PLP.Chemscore.Metal>
0.0000

> <Gold.Chemscore.Hbonds>
donor molecule, donor type, donor heavy atom, donor atom, acceptor molecule, acceptor atom, score
      L1  H    20    45       P1 10747  1.00
      P1  H  6896  6908       L1    13  1.00
      L1  C    23    47       P1  7948  1.00

> <Gold.PLP.Chemscore.Internal.Correction>
0.3131

> <Gold.Rescore>
     Score         DG    S(hbond)    S(metal)    S(lipo)     H(rot)  DE(clash)    DE(int)     intcor
      7.85     -10.37       1.30        0.00      85.48       3.70       0.65       1.87       ----

> <Gold.Chemscore.Fitness>
7.8470

> <Gold.Chemscore.DG>
-10.3706

> <Gold.Chemscore.ZeroCoef>
-5.4800

> <Gold.Chemscore.Hbond>
1.3025

> <Gold.Chemscore.Metal>
0.0000

> <Gold.Chemscore.Lipo>
85.4814

> <Gold.Chemscore.Internal_Hbond>
0.0000

> <Gold.Chemscore.DEClash>
0.6544

> <Gold.Chemscore.DEInternal>
1.8692

> <Gold.Chemscore.Rot>
3.6957

> <Gold.Chemscore.Internal.Correction>
   9.000000E+99

> <Gold.Chemscore.Hbonds>
donor molecule, donor type, donor heavy atom, donor atom, acceptor molecule, acceptor atom, score
      L1  H    20    45       P1 10747  0.94
      P1  H  6896  6908       L1    13  0.28

> <Gold.Chemscore.Hbond.Weighted>
-4.3503

> <Gold.Chemscore.Metal.Weighted>
-0.0000

> <Gold.Chemscore.Lipo.Weighted>
-10.0013

> <Gold.Chemscore.Internal_Hbond.Weighted>
0.0000

> <Gold.Chemscore.DEClash.Weighted>
0.6544

> <Gold.Chemscore.DEInternal.Weighted>
1.8692

> <Gold.Chemscore.Rot.Weighted>
9.4610

> <Gold.Chemscore.Internal.Correction.Weighted>
   9.000000E+99

> <Gold.Protein.RotatedTorsions>
[ 6907 6896 6895 6894 ] final  160.21 input  -60.11 | X-H torsion
[ 7974 7965 7964 7962 ] final  103.97 input  175.53 | X-H torsion
[ 8008 7997 7996 7995 ] final  -44.15 input   59.86 | X-H torsion
[ 10167 10162 10161 10158 ] final  137.13 input  -65.29 | X-H torsion
[ 10718 10713 10712 10709 ] final   85.05 input   66.30 | X-H torsion
[ 10763 10752 10751 10750 ] final -170.83 input  -60.55 | X-H torsion
[ 11005 11000 10999 10996 ] final   -3.46 input  -57.11 | X-H torsion

> <Gold.Protein.ActiveResidues>
 VAL166  LYS551  ARG553  GLY616  TRP617  ASP618  TYR619  PRO620  LYS621  CYS622 
 ASP623  PHE694  ASN695  SER759  ASP760  ASP761  ALA762  ILE779  LEU786  VAL792 
 PHE793  MET794  SER795  GLU796  ALA797  LYS798  CYS799  TRP800  GLU811  SER814 

> <Gold.Protein.RotatedAtoms>
  151.9741  133.3735  159.4082 H   0  0  0  0  0  0  0  0  0  0  0  0  # atno 6907 bound_to 6896
  150.6944  134.4109  159.5170 H   0  0  0  0  0  0  0  0  0  0  0  0  # atno 6908 bound_to 6896
  152.1817  134.8748  160.0576 H   0  0  0  0  0  0  0  0  0  0  0  0  # atno 6909 bound_to 6896
  145.3389  139.2467  143.3620 H   0  0  0  0  0  0  0  0  0  0  0  0  # atno 7974 bound_to 7965
  154.3997  140.1429  156.3636 H   0  0  0  0  0  0  0  0  0  0  0  0  # atno 8008 bound_to 7997
  155.8158  140.3471  155.5464 H   0  0  0  0  0  0  0  0  0  0  0  0  # atno 8009 bound_to 7997
  155.8339  140.0916  157.1766 H   0  0  0  0  0  0  0  0  0  0  0  0  # atno 8010 bound_to 7997
  139.5155  144.6427  151.5525 H   0  0  0  0  0  0  0  0  0  0  0  0  # atno 10167 bound_to 10162
  157.6908  131.0159  150.2765 H   0  0  0  0  0  0  0  0  0  0  0  0  # atno 10718 bound_to 10713
  154.6372  135.2894  155.0147 H   0  0  0  0  0  0  0  0  0  0  0  0  # atno 10763 bound_to 10752
  154.1286  135.6537  153.4921 H   0  0  0  0  0  0  0  0  0  0  0  0  # atno 10764 bound_to 10752
  153.0308  135.5305  154.7224 H   0  0  0  0  0  0  0  0  0  0  0  0  # atno 10765 bound_to 10752
  140.6696  133.9249  155.8486 H   0  0  0  0  0  0  0  0  0  0  0  0  # atno 11005 bound_to 11000
  146.3015  140.3982  142.8702 LP  0  0  0  0  0  0  0  0  0  0  0  0  # atno 17320 bound_to 7965
  144.8806  140.7395  143.5989 LP  0  0  0  0  0  0  0  0  0  0  0  0  # atno 17321 bound_to 7965
  140.6200  143.9276  150.6518 LP  0  0  0  0  0  0  0  0  0  0  0  0  # atno 17342 bound_to 10162
  140.2547  143.3567  152.1375 LP  0  0  0  0  0  0  0  0  0  0  0  0  # atno 17343 bound_to 10162
  156.3319  130.3801  149.7484 LP  0  0  0  0  0  0  0  0  0  0  0  0  # atno 17370 bound_to 10713
  156.5021  130.8133  151.3136 LP  0  0  0  0  0  0  0  0  0  0  0  0  # atno 17371 bound_to 10713
  141.0403  134.0631  157.3910 LP  0  0  0  0  0  0  0  0  0  0  0  0  # atno 17394 bound_to 11000
  139.8986  135.0155  156.7156 LP  0  0  0  0  0  0  0  0  0  0  0  0  # atno 17395 bound_to 11000

$$$$
