AV-unprocessed.smi:1352|AV-procd|sdf|5529|dock9
  -GOLD-   22720 5123D 1   1.00000     0.00000
 Structure written by MMmdl.
 47 48  0  0  0  0  0  0  0  0  2 V2000
  144.4857  132.6350  150.0245 C   0  0  0  0  0  0  0  0  0  0  0  0
  145.2685  132.8760  151.3230 C   0  0  1  0  0  0  0  0  0  0  0  0
  146.1386  131.6594  151.6855 C   0  0  0  0  0  0  0  0  0  0  0  0
  146.9581  131.9257  152.9601 C   0  0  1  0  0  0  0  0  0  0  0  0
  147.8488  130.7263  153.3132 C   0  0  0  0  0  0  0  0  0  0  0  0
  147.7904  133.2143  152.7929 C   0  0  0  0  0  0  0  0  0  0  0  0
  146.9432  134.3882  152.4550 N   0  3  2  0  0  0  0  0  0  0  0  0
  146.1761  134.9194  153.6134 C   0  0  0  0  0  0  0  0  0  0  0  0
  145.2751  136.1072  153.2248 C   0  0  0  0  0  0  0  0  0  0  0  0
  146.0596  137.2946  152.9068 N   0  0  0  0  0  0  0  0  0  0  0  0
  146.8631  137.9383  153.7669 C   0  0  0  0  0  0  0  0  0  0  0  0
  147.0019  137.5942  154.9415 O   0  0  0  0  0  0  0  0  0  0  0  0
  147.5990  139.1661  153.2106 C   0  0  0  0  0  0  0  0  0  0  0  0
  148.7044  139.6242  154.0687 N   0  0  0  0  0  0  0  0  0  0  0  0
  149.7418  138.7054  154.3247 C   0  0  0  0  0  0  0  0  0  0  0  0
  150.7962  139.0210  155.0933 C   0  0  0  0  0  0  0  0  0  0  0  0
  150.8514  140.3452  155.6660 C   0  0  0  0  0  0  0  0  0  0  0  0
  149.8663  141.2330  155.4246 C   0  0  0  0  0  0  0  0  0  0  0  0
  148.7135  140.8933  154.5825 C   0  0  0  0  0  0  0  0  0  0  0  0
  147.8116  141.6995  154.3520 O   0  0  0  0  0  0  0  0  0  0  0  0
  146.1379  134.1494  151.2257 C   0  0  0  0  0  0  0  0  0  0  0  0
  145.1564  132.4845  149.1778 H   0  0  0  0  0  0  0  0  0  0  0  0
  143.8409  133.4828  149.7915 H   0  0  0  0  0  0  0  0  0  0  0  0
  143.8509  131.7523  150.1069 H   0  0  0  0  0  0  0  0  0  0  0  0
  144.5329  133.0135  152.1158 H   0  0  0  0  0  0  0  0  0  0  0  0
  145.5075  130.7808  151.8261 H   0  0  0  0  0  0  0  0  0  0  0  0
  146.8111  131.4277  150.8581 H   0  0  0  0  0  0  0  0  0  0  0  0
  146.2633  132.0668  153.7890 H   0  0  0  0  0  0  0  0  0  0  0  0
  148.5740  130.5238  152.5243 H   0  0  0  0  0  0  0  0  0  0  0  0
  147.2535  129.8241  153.4571 H   0  0  0  0  0  0  0  0  0  0  0  0
  148.4019  130.9056  154.2359 H   0  0  0  0  0  0  0  0  0  0  0  0
  148.3715  133.4186  153.6931 H   0  0  0  0  0  0  0  0  0  0  0  0
  148.5179  133.0774  151.9915 H   0  0  0  0  0  0  0  0  0  0  0  0
  145.5892  134.1317  154.0851 H   0  0  0  0  0  0  0  0  0  0  0  0
  146.8827  135.2613  154.3704 H   0  0  0  0  0  0  0  0  0  0  0  0
  144.6391  135.8442  152.3777 H   0  0  0  0  0  0  0  0  0  0  0  0
  144.6076  136.3730  154.0434 H   0  0  0  0  0  0  0  0  0  0  0  0
  146.0004  137.6439  151.9609 H   0  0  0  0  0  0  0  0  0  0  0  0
  147.9723  138.9417  152.2095 H   0  0  0  0  0  0  0  0  0  0  0  0
  146.8683  139.9638  153.0701 H   0  0  0  0  0  0  0  0  0  0  0  0
  149.6288  137.7391  153.8550 H   0  0  0  0  0  0  0  0  0  0  0  0
  151.5838  138.3046  155.2758 H   0  0  0  0  0  0  0  0  0  0  0  0
  151.6869  140.6260  156.2900 H   0  0  0  0  0  0  0  0  0  0  0  0
  149.9251  142.2194  155.8609 H   0  0  0  0  0  0  0  0  0  0  0  0
  146.8301  134.0498  150.3885 H   0  0  0  0  0  0  0  0  0  0  0  0
  145.5195  135.0162  150.9963 H   0  0  0  0  0  0  0  0  0  0  0  0
  147.5950  135.1241  152.2225 H   0  0  0  0  0  0  0  0  0  0  0  0
  1  2  1  0  0  0  0
  1 22  1  0  0  0  0
  1 23  1  0  0  0  0
  1 24  1  0  0  0  0
  2 21  1  0  0  0  0
  2  3  1  0  0  0  0
  2 25  1  0  0  0  0
  3  4  1  0  0  0  0
  3 26  1  0  0  0  0
  3 27  1  0  0  0  0
  4  5  1  0  0  0  0
  4  6  1  0  0  0  0
  4 28  1  0  0  0  0
  5 29  1  0  0  0  0
  5 30  1  0  0  0  0
  5 31  1  0  0  0  0
  6  7  1  0  0  0  0
  6 32  1  0  0  0  0
  6 33  1  0  0  0  0
  7  8  1  0  0  0  0
  7 21  1  0  0  0  0
  7 47  1  0  0  0  0
  8  9  1  0  0  0  0
  8 34  1  0  0  0  0
  8 35  1  0  0  0  0
  9 10  1  0  0  0  0
  9 36  1  0  0  0  0
  9 37  1  0  0  0  0
 10 11  1  0  0  0  0
 10 38  1  0  0  0  0
 11 12  2  0  0  0  0
 11 13  1  0  0  0  0
 13 14  1  0  0  0  0
 13 39  1  0  0  0  0
 13 40  1  0  0  0  0
 14 19  1  0  0  0  0
 14 15  1  0  0  0  0
 15 16  2  0  0  0  0
 15 41  1  0  0  0  0
 16 17  1  0  0  0  0
 16 42  1  0  0  0  0
 17 18  2  0  0  0  0
 17 43  1  0  0  0  0
 18 19  1  0  0  0  0
 18 44  1  0  0  0  0
 19 20  2  0  0  0  0
 21 45  1  0  0  0  0
 21 46  1  0  0  0  0
M  CHG  1   7   1
M  END
> <s_m_source_file>
AV-unprocessed.smi

> <i_m_source_file_index>
1352

> <i_lp_mmshare_version>
43012

> <i_f3d_flags>
0

> <s_epik_input>
W0NIM11bQ0BASF0xW0NIMl1bQ0BASF0oW0NIM10pW0NIMl1OKFtDSDJdMSlbQ0gyXVtDSDJdW05IXUMoPU8pW0NIMl1uMltjSF1bY0hdW2NIXVtjSF1jMj1P

> <s_epik_cmdline>
J2VwaWtfcHl0aG9uJywgJy1waCcsICc3LjAnLCAnLXRuJywgJzgnLCAnLW1hJywgJzIwMCcsICctbWV0YWxfYmluZGluZycsICctaW1hZScsICc8aW5maWxlLm1hZT4nLCAnLW9tYWUnLCAnPG91dGZpbGUubWFlPic=

> <r_lp_tautomer_probability>
1

> <r_epik_Ionization_Penalty>
0.00156146

> <r_epik_Ionization_Penalty_Charging>
0.00156138

> <r_epik_Ionization_Penalty_Neutral>
8.12891e-08

> <r_epik_State_Penalty>
0.00104868

> <r_epik_Charging_Adjusted_Penalty>
0.00261006

> <i_epik_Tot_Q>
1

> <i_epik_Tot_abs_Q>
1

> <r_epik_Metal_State_Penalty>
-0

> <b_epik_Metal_Only>
0

> <s_lp_Force_Field>
OPLS_2005

> <r_lp_Energy>
27.4422

> <b_lp_Chiralities_Consistent>
1

> <s_lp_Variant>
AV-unprocessed.smi:1352-2

> <Gold.Version>
5.8.1

> <Gold.Id.Protein>
6NUR|6NUR_protein|mol2

> <Gold.PLP.Fitness>
43.4000

> <Gold.PLP.PLP>
-34.8492

> <Gold.PLP.part.hbond>
-1.1312

> <Gold.PLP.part.metal>
0.0000

> <Gold.PLP.part.buried>
-0.7824

> <Gold.PLP.part.nonpolar>
-32.9072

> <Gold.PLP.part.repulsive>
0.2344

> <Gold.PLP.ligand.clash>
0.0000

> <Gold.PLP.ligand.torsion>
0.2518

> <Gold.PLP.Chemscore.Hbond>
2.0000

> <Gold.PLP.Chemscore.CHOScore>
1.0000

> <Gold.PLP.Chemscore.Metal>
0.0000

> <Gold.Chemscore.Hbonds>
donor molecule, donor type, donor heavy atom, donor atom, acceptor molecule, acceptor atom, score
      L1  H     7    47       P1  7948  2.00
      L1  C    15    41       P1  7948  0.93

> <Gold.PLP.Chemscore.Internal.Correction>
0.0544

> <Gold.Rescore>
     Score         DG    S(hbond)    S(metal)    S(lipo)     H(rot)  DE(clash)    DE(int)     intcor
     13.63     -13.93       0.97        0.00      84.66       1.83       0.03       0.27       ----

> <Gold.Chemscore.Fitness>
13.6279

> <Gold.Chemscore.DG>
-13.9284

> <Gold.Chemscore.ZeroCoef>
-5.4800

> <Gold.Chemscore.Hbond>
0.9686

> <Gold.Chemscore.Metal>
0.0000

> <Gold.Chemscore.Lipo>
84.6619

> <Gold.Chemscore.Internal_Hbond>
0.0000

> <Gold.Chemscore.DEClash>
0.0277

> <Gold.Chemscore.DEInternal>
0.2728

> <Gold.Chemscore.Rot>
1.8329

> <Gold.Chemscore.Internal.Correction>
   9.000000E+99

> <Gold.Chemscore.Hbonds>
donor molecule, donor type, donor heavy atom, donor atom, acceptor molecule, acceptor atom, score
      L1  H     7    47       P1  7948  0.98

> <Gold.Chemscore.Hbond.Weighted>
-3.2352

> <Gold.Chemscore.Metal.Weighted>
-0.0000

> <Gold.Chemscore.Lipo.Weighted>
-9.9054

> <Gold.Chemscore.Internal_Hbond.Weighted>
0.0000

> <Gold.Chemscore.DEClash.Weighted>
0.0277

> <Gold.Chemscore.DEInternal.Weighted>
0.2728

> <Gold.Chemscore.Rot.Weighted>
4.6922

> <Gold.Chemscore.Internal.Correction.Weighted>
   9.000000E+99

> <Gold.Protein.RotatedTorsions>
[ 6907 6896 6895 6894 ] final  -27.96 input  -60.11 | X-H torsion
[ 7974 7965 7964 7962 ] final -164.88 input  175.53 | X-H torsion
[ 8008 7997 7996 7995 ] final   63.04 input   59.86 | X-H torsion
[ 10167 10162 10161 10158 ] final   53.90 input  -65.29 | X-H torsion
[ 10718 10713 10712 10709 ] final   76.40 input   66.30 | X-H torsion
[ 10763 10752 10751 10750 ] final    0.76 input  -60.55 | X-H torsion
[ 11005 11000 10999 10996 ] final  -48.98 input  -57.11 | X-H torsion

> <Gold.Protein.ActiveResidues>
 VAL166  LYS551  ARG553  GLY616  TRP617  ASP618  TYR619  PRO620  LYS621  CYS622 
 ASP623  PHE694  ASN695  SER759  ASP760  ASP761  ALA762  ILE779  LEU786  VAL792 
 PHE793  MET794  SER795  GLU796  ALA797  LYS798  CYS799  TRP800  GLU811  SER814 

> <Gold.Protein.RotatedAtoms>
  151.1396  135.0172  159.8619 H   0  0  0  0  0  0  0  0  0  0  0  0  # atno 6907 bound_to 6896
  152.5452  134.1515  159.8530 H   0  0  0  0  0  0  0  0  0  0  0  0  # atno 6908 bound_to 6896
  151.1589  133.4812  159.2627 H   0  0  0  0  0  0  0  0  0  0  0  0  # atno 6909 bound_to 6896
  144.7284  140.2895  143.6223 H   0  0  0  0  0  0  0  0  0  0  0  0  # atno 7974 bound_to 7965
  155.6239  140.3496  155.4661 H   0  0  0  0  0  0  0  0  0  0  0  0  # atno 8008 bound_to 7997
  156.0057  140.1222  157.0527 H   0  0  0  0  0  0  0  0  0  0  0  0  # atno 8009 bound_to 7997
  154.4263  140.1091  156.5745 H   0  0  0  0  0  0  0  0  0  0  0  0  # atno 8010 bound_to 7997
  140.2358  144.3637  150.6397 H   0  0  0  0  0  0  0  0  0  0  0  0  # atno 10167 bound_to 10162
  157.6672  130.9772  150.1491 H   0  0  0  0  0  0  0  0  0  0  0  0  # atno 10718 bound_to 10713
  153.3166  135.6966  153.7068 H   0  0  0  0  0  0  0  0  0  0  0  0  # atno 10763 bound_to 10752
  153.5924  135.3477  155.2916 H   0  0  0  0  0  0  0  0  0  0  0  0  # atno 10764 bound_to 10752
  154.8588  135.4321  154.2319 H   0  0  0  0  0  0  0  0  0  0  0  0  # atno 10765 bound_to 10752
  141.0732  133.6673  156.3519 H   0  0  0  0  0  0  0  0  0  0  0  0  # atno 11005 bound_to 11000
  145.7869  139.1912  143.2125 LP  0  0  0  0  0  0  0  0  0  0  0  0  # atno 17320 bound_to 7965
  146.0788  140.7787  142.9652 LP  0  0  0  0  0  0  0  0  0  0  0  0  # atno 17321 bound_to 7965
  140.6150  143.2172  151.6809 LP  0  0  0  0  0  0  0  0  0  0  0  0  # atno 17342 bound_to 10162
  139.5094  144.3578  152.0591 LP  0  0  0  0  0  0  0  0  0  0  0  0  # atno 17343 bound_to 10162
  156.2295  130.3681  149.8462 LP  0  0  0  0  0  0  0  0  0  0  0  0  # atno 17370 bound_to 10713
  156.6292  130.8659  151.3492 LP  0  0  0  0  0  0  0  0  0  0  0  0  # atno 17371 bound_to 10713
  140.5628  134.5917  157.5438 LP  0  0  0  0  0  0  0  0  0  0  0  0  # atno 17394 bound_to 11000
  139.9545  134.7559  156.0373 LP  0  0  0  0  0  0  0  0  0  0  0  0  # atno 17395 bound_to 11000

$$$$
