AV-unprocessed.smi:2079|AV-procd|sdf|8481|dock1
  -GOLD-   2272011183D 1   1.00000     0.00000
 Structure written by MMmdl.
 41 42  0  0  0  0  0  0  0  0  3 V2000
  152.3563  141.0779  159.0680 C   0  0  0  0  0  0  0  0  0  0  0  0
  152.0590  140.7143  157.6535 C   0  0  0  0  0  0  0  0  0  0  0  0
  151.0076  140.9885  156.8255 C   0  0  0  0  0  0  0  0  0  0  0  0
  151.3700  140.3382  155.6145 C   0  0  0  0  0  0  0  0  0  0  0  0
  150.6418  140.3053  154.4880 N   0  5  0  0  0  0  0  0  0  0  0  0
  149.2928  140.2388  154.5512 C   0  0  0  0  0  0  0  0  0  0  0  0
  148.5944  140.4406  155.5474 O   0  0  0  0  0  0  0  0  0  0  0  0
  148.7156  139.9122  153.3862 N   0  0  0  0  0  0  0  0  0  0  0  0
  147.2840  139.7607  153.1586 C   0  0  0  0  0  0  0  0  0  0  0  0
  146.7496  138.4665  153.8010 C   0  0  0  0  0  0  0  0  0  0  0  0
  146.5137  137.3751  152.8179 N   0  3  2  0  0  0  0  0  0  0  0  0
  145.9116  137.8836  151.5558 C   0  0  0  0  0  0  0  0  0  0  0  0
  145.8788  136.7951  150.4709 C   0  0  0  0  0  0  0  0  0  0  0  0
  145.1412  135.5456  150.9640 C   0  0  0  0  0  0  0  0  0  0  0  0
  145.7694  135.0533  152.2750 C   0  0  0  0  0  0  0  0  0  0  0  0
  145.8191  136.1599  153.3502 C   0  0  2  0  0  0  0  0  0  0  0  0
  144.4265  136.4541  153.9482 C   0  0  0  0  0  0  0  0  0  0  0  0
  152.5314  139.7124  155.7043 N   0  0  0  0  0  0  0  0  0  0  0  0
  152.9826  139.9533  157.0074 O   0  0  0  0  0  0  0  0  0  0  0  0
  151.8047  140.4352  159.7541 H   0  0  0  0  0  0  0  0  0  0  0  0
  152.0728  142.1111  159.2686 H   0  0  0  0  0  0  0  0  0  0  0  0
  153.4193  140.9717  159.2851 H   0  0  0  0  0  0  0  0  0  0  0  0
  150.1218  141.5637  157.0483 H   0  0  0  0  0  0  0  0  0  0  0  0
  149.3247  139.7604  152.5951 H   0  0  0  0  0  0  0  0  0  0  0  0
  146.7482  140.6324  153.5378 H   0  0  0  0  0  0  0  0  0  0  0  0
  147.1404  139.7473  152.0791 H   0  0  0  0  0  0  0  0  0  0  0  0
  147.4142  138.1280  154.5960 H   0  0  0  0  0  0  0  0  0  0  0  0
  145.7988  138.6927  154.2855 H   0  0  0  0  0  0  0  0  0  0  0  0
  144.9073  138.2636  151.7459 H   0  0  0  0  0  0  0  0  0  0  0  0
  146.4954  138.7275  151.1864 H   0  0  0  0  0  0  0  0  0  0  0  0
  145.3988  137.1799  149.5706 H   0  0  0  0  0  0  0  0  0  0  0  0
  146.8986  136.5302  150.1883 H   0  0  0  0  0  0  0  0  0  0  0  0
  144.0847  135.7706  151.1131 H   0  0  0  0  0  0  0  0  0  0  0  0
  145.1867  134.7610  150.2082 H   0  0  0  0  0  0  0  0  0  0  0  0
  145.2241  134.1858  152.6482 H   0  0  0  0  0  0  0  0  0  0  0  0
  146.7834  134.7061  152.0723 H   0  0  0  0  0  0  0  0  0  0  0  0
  146.4297  135.7545  154.1562 H   0  0  0  0  0  0  0  0  0  0  0  0
  143.9584  135.5348  154.3010 H   0  0  0  0  0  0  0  0  0  0  0  0
  143.7492  136.9036  153.2227 H   0  0  0  0  0  0  0  0  0  0  0  0
  144.4871  137.1224  154.8068 H   0  0  0  0  0  0  0  0  0  0  0  0
  147.4366  137.0588  152.5562 H   0  0  0  0  0  0  0  0  0  0  0  0
  1  2  1  0  0  0  0
  1 20  1  0  0  0  0
  1 21  1  0  0  0  0
  1 22  1  0  0  0  0
  2 19  1  0  0  0  0
  2  3  2  0  0  0  0
  3  4  1  0  0  0  0
  3 23  1  0  0  0  0
  4  5  1  0  0  0  0
  4 18  2  0  0  0  0
  5  6  1  0  0  0  0
  6  7  2  0  0  0  0
  6  8  1  0  0  0  0
  8  9  1  0  0  0  0
  8 24  1  0  0  0  0
  9 10  1  0  0  0  0
  9 25  1  0  0  0  0
  9 26  1  0  0  0  0
 10 11  1  0  0  0  0
 10 27  1  0  0  0  0
 10 28  1  0  0  0  0
 11 16  1  0  0  0  0
 11 12  1  0  0  0  0
 11 41  1  0  0  0  0
 12 13  1  0  0  0  0
 12 29  1  0  0  0  0
 12 30  1  0  0  0  0
 13 14  1  0  0  0  0
 13 31  1  0  0  0  0
 13 32  1  0  0  0  0
 14 15  1  0  0  0  0
 14 33  1  0  0  0  0
 14 34  1  0  0  0  0
 15 16  1  0  0  0  0
 15 35  1  0  0  0  0
 15 36  1  0  0  0  0
 16 17  1  0  0  0  0
 16 37  1  0  0  0  0
 17 38  1  0  0  0  0
 17 39  1  0  0  0  0
 17 40  1  0  0  0  0
 18 19  1  0  0  0  0
M  CHG  1   5  -1
M  CHG  1  11   1
M  END
> <s_m_source_file>
AV-unprocessed.smi

> <i_m_source_file_index>
2079

> <i_lp_mmshare_version>
43012

> <i_f3d_flags>
0

> <s_epik_input>
W0NIM11jMVtjSF1jKG5vMSlbTkhdQyg9TylbTkhdW0NIMl1bQ0gyXU4yW0NIMl1bQ0gyXVtDSDJdW0NIMl1bQ0BIXTJbQ0gzXQ==

> <s_epik_cmdline>
J2VwaWtfcHl0aG9uJywgJy1waCcsICc3LjAnLCAnLXRuJywgJzgnLCAnLW1hJywgJzIwMCcsICctbWV0YWxfYmluZGluZycsICctaW1hZScsICc8aW5maWxlLm1hZT4nLCAnLW9tYWUnLCAnPG91dGZpbGUubWFlPic=

> <r_epik_Ionization_Penalty>
6.22371

> <r_epik_Ionization_Penalty_Charging>
6.22362

> <r_epik_Ionization_Penalty_Neutral>
9.40454e-05

> <r_epik_State_Penalty>
6.22363

> <r_epik_Charging_Adjusted_Penalty>
12.4472

> <i_epik_Tot_Q>
0

> <i_epik_Tot_abs_Q>
2

> <r_epik_Metal_State_Penalty>
2.16675

> <b_epik_Metal_Only>
1

> <s_lp_Force_Field>
OPLS_2005

> <r_lp_Energy>
7.26358

> <b_lp_Chiralities_Consistent>
1

> <s_lp_Variant>
AV-unprocessed.smi:2079-7

> <Gold.Version>
5.8.1

> <Gold.Id.Protein>
6NUR|6NUR_protein|mol2

> <Gold.PLP.Fitness>
42.0886

> <Gold.PLP.PLP>
-28.5379

> <Gold.PLP.part.hbond>
-5.0000

> <Gold.PLP.part.metal>
0.0000

> <Gold.PLP.part.buried>
0.6010

> <Gold.PLP.part.nonpolar>
-25.8133

> <Gold.PLP.part.repulsive>
0.2571

> <Gold.PLP.ligand.clash>
0.0000

> <Gold.PLP.ligand.torsion>
0.7950

> <Gold.PLP.Chemscore.Hbond>
4.9920

> <Gold.PLP.Chemscore.CHOScore>
0.0000

> <Gold.PLP.Chemscore.Metal>
0.0000

> <Gold.Chemscore.Hbonds>
donor molecule, donor type, donor heavy atom, donor atom, acceptor molecule, acceptor atom, score
      L1  H     8    24       P1  7957  0.84
      L1  H    11    41       P1  7948  2.00
      P1  H  7989  7998       L1     5  0.94
      P1  H  7997  8008       L1    19  0.86

> <Gold.PLP.Chemscore.Internal.Correction>
0.1646

> <Gold.Rescore>
     Score         DG    S(hbond)    S(metal)    S(lipo)     H(rot)  DE(clash)    DE(int)     intcor
     15.56     -19.11       3.07        0.00      62.63       1.54       1.26       2.30       ----

> <Gold.Chemscore.Fitness>
15.5582

> <Gold.Chemscore.DG>
-19.1099

> <Gold.Chemscore.ZeroCoef>
-5.4800

> <Gold.Chemscore.Hbond>
3.0679

> <Gold.Chemscore.Metal>
0.0000

> <Gold.Chemscore.Lipo>
62.6316

> <Gold.Chemscore.Internal_Hbond>
0.0000

> <Gold.Chemscore.DEClash>
1.2551

> <Gold.Chemscore.DEInternal>
2.2967

> <Gold.Chemscore.Rot>
1.5409

> <Gold.Chemscore.Internal.Correction>
   9.000000E+99

> <Gold.Chemscore.Hbonds>
donor molecule, donor type, donor heavy atom, donor atom, acceptor molecule, acceptor atom, score
      L1  H     8    24       P1  7957  0.80
      L1  H    11    41       P1  7948  1.00
      P1  H  7989  7998       L1     5  0.27
      P1  H  7997  8008       L1    19  0.44

> <Gold.Chemscore.Hbond.Weighted>
-10.2467

> <Gold.Chemscore.Metal.Weighted>
-0.0000

> <Gold.Chemscore.Lipo.Weighted>
-7.3279

> <Gold.Chemscore.Internal_Hbond.Weighted>
0.0000

> <Gold.Chemscore.DEClash.Weighted>
1.2551

> <Gold.Chemscore.DEInternal.Weighted>
2.2967

> <Gold.Chemscore.Rot.Weighted>
3.9446

> <Gold.Chemscore.Internal.Correction.Weighted>
   9.000000E+99

> <Gold.Protein.RotatedTorsions>
[ 6907 6896 6895 6894 ] final  -58.57 input  -60.11 | X-H torsion
[ 7974 7965 7964 7962 ] final   32.52 input  175.53 | X-H torsion
[ 8008 7997 7996 7995 ] final  -79.82 input   59.86 | X-H torsion
[ 10167 10162 10161 10158 ] final    6.86 input  -65.29 | X-H torsion
[ 10718 10713 10712 10709 ] final   51.62 input   66.30 | X-H torsion
[ 10763 10752 10751 10750 ] final   85.39 input  -60.55 | X-H torsion
[ 11005 11000 10999 10996 ] final   79.84 input  -57.11 | X-H torsion

> <Gold.Protein.ActiveResidues>
 VAL166  LYS551  ARG553  GLY616  TRP617  ASP618  TYR619  PRO620  LYS621  CYS622 
 ASP623  PHE694  ASN695  SER759  ASP760  ASP761  ALA762  ILE779  LEU786  VAL792 
 PHE793  MET794  SER795  GLU796  ALA797  LYS798  CYS799  TRP800  GLU811  SER814 

> <Gold.Protein.RotatedAtoms>
  150.7997  134.7081  159.6587 H   0  0  0  0  0  0  0  0  0  0  0  0  # atno 6907 bound_to 6896
  152.4112  134.6117  160.0037 H   0  0  0  0  0  0  0  0  0  0  0  0  # atno 6908 bound_to 6896
  151.6359  133.3292  159.3155 H   0  0  0  0  0  0  0  0  0  0  0  0  # atno 6909 bound_to 6896
  146.1481  139.6515  142.9118 H   0  0  0  0  0  0  0  0  0  0  0  0  # atno 7974 bound_to 7965
  154.5822  140.0672  156.9121 H   0  0  0  0  0  0  0  0  0  0  0  0  # atno 8008 bound_to 7997
  155.2442  140.3347  155.4271 H   0  0  0  0  0  0  0  0  0  0  0  0  # atno 8009 bound_to 7997
  156.2198  140.1793  156.7489 H   0  0  0  0  0  0  0  0  0  0  0  0  # atno 8010 bound_to 7997
  140.6404  143.7787  150.7420 H   0  0  0  0  0  0  0  0  0  0  0  0  # atno 10167 bound_to 10162
  157.4998  130.8430  149.8303 H   0  0  0  0  0  0  0  0  0  0  0  0  # atno 10718 bound_to 10713
  153.1471  135.4619  154.9582 H   0  0  0  0  0  0  0  0  0  0  0  0  # atno 10763 bound_to 10752
  154.7795  135.3184  154.8023 H   0  0  0  0  0  0  0  0  0  0  0  0  # atno 10764 bound_to 10752
  153.8535  135.6919  153.4844 H   0  0  0  0  0  0  0  0  0  0  0  0  # atno 10765 bound_to 10752
  139.9157  134.7874  156.1832 H   0  0  0  0  0  0  0  0  0  0  0  0  # atno 11005 bound_to 11000
  145.4890  141.0438  143.2604 LP  0  0  0  0  0  0  0  0  0  0  0  0  # atno 17320 bound_to 7965
  144.7870  139.6406  143.7130 LP  0  0  0  0  0  0  0  0  0  0  0  0  # atno 17321 bound_to 7965
  140.1418  143.4435  152.2189 LP  0  0  0  0  0  0  0  0  0  0  0  0  # atno 17342 bound_to 10162
  139.5613  144.7407  151.4146 LP  0  0  0  0  0  0  0  0  0  0  0  0  # atno 17343 bound_to 10162
  156.0222  130.3791  150.1927 LP  0  0  0  0  0  0  0  0  0  0  0  0  # atno 17370 bound_to 10713
  157.0117  130.9953  151.3364 LP  0  0  0  0  0  0  0  0  0  0  0  0  # atno 17371 bound_to 10713
  141.0630  133.6833  156.1989 LP  0  0  0  0  0  0  0  0  0  0  0  0  # atno 17394 bound_to 11000
  140.6631  134.4947  157.5584 LP  0  0  0  0  0  0  0  0  0  0  0  0  # atno 17395 bound_to 11000

$$$$
