AV-unprocessed.smi:658|AV-procd|sdf|3230|dock3
  -GOLD-   22720 0173D 1   1.00000     0.00000
 Structure written by MMmdl.
 38 38  0  0  0  0  0  0  0  0  2 V2000
  152.0659  139.7855  158.8270 C   0  0  0  0  0  0  0  0  0  0  0  0
  151.6227  141.2480  158.6541 C   0  0  2  0  0  0  0  0  0  0  0  0
  151.3686  141.4903  157.2142 N   0  3  0  0  0  0  0  0  0  0  0  0
  150.3357  140.6286  156.6029 C   0  0  0  0  0  0  0  0  0  0  0  0
  149.9845  141.1143  155.1920 C   0  0  0  0  0  0  0  0  0  0  0  0
  148.6202  140.5961  154.7161 C   0  0  0  0  0  0  0  0  0  0  0  0
  148.6071  138.7580  154.5646 S   0  0  0  0  0  0  0  0  0  0  0  0
  149.8552  138.4808  153.4149 N   0  0  0  0  0  0  0  0  0  0  0  0
  149.0420  138.1638  155.8379 O   0  0  0  0  0  0  0  0  0  0  0  0
  147.3418  138.3512  153.9358 O   0  0  0  0  0  0  0  0  0  0  0  0
  152.6687  142.2565  159.2042 C   0  0  2  0  0  0  0  0  0  0  0  0
  153.2822  141.8320  160.5524 C   0  0  0  0  0  0  0  0  0  0  0  0
  152.1053  143.5971  159.3190 N   0  0  0  0  0  0  0  0  0  0  0  0
  152.2036  144.4946  160.3646 C   0  0  0  0  0  0  0  0  0  0  0  0
  151.4793  145.6006  160.0240 C   0  0  0  0  0  0  0  0  0  0  0  0
  150.9575  145.2807  158.7402 C   0  0  0  0  0  0  0  0  0  0  0  0
  151.3245  144.0786  158.3262 N   0  0  0  0  0  0  0  0  0  0  0  0
  152.1413  139.5071  159.8780 H   0  0  0  0  0  0  0  0  0  0  0  0
  153.0355  139.6051  158.3613 H   0  0  0  0  0  0  0  0  0  0  0  0
  151.3475  139.1034  158.3710 H   0  0  0  0  0  0  0  0  0  0  0  0
  150.6883  141.3706  159.2054 H   0  0  0  0  0  0  0  0  0  0  0  0
  151.0974  142.4568  157.0997 H   0  0  0  0  0  0  0  0  0  0  0  0
  150.7027  139.6021  156.5681 H   0  0  0  0  0  0  0  0  0  0  0  0
  149.4391  140.6285  157.2225 H   0  0  0  0  0  0  0  0  0  0  0  0
  149.9807  142.2050  155.1762 H   0  0  0  0  0  0  0  0  0  0  0  0
  150.7597  140.7953  154.4945 H   0  0  0  0  0  0  0  0  0  0  0  0
  147.8490  140.8705  155.4365 H   0  0  0  0  0  0  0  0  0  0  0  0
  148.3360  141.0230  153.7539 H   0  0  0  0  0  0  0  0  0  0  0  0
  149.9440  139.2320  152.7307 H   0  0  0  0  0  0  0  0  0  0  0  0
  149.8392  137.5394  153.0233 H   0  0  0  0  0  0  0  0  0  0  0  0
  153.4915  142.3110  158.4882 H   0  0  0  0  0  0  0  0  0  0  0  0
  153.8772  140.9244  160.4560 H   0  0  0  0  0  0  0  0  0  0  0  0
  152.5145  141.6482  161.3044 H   0  0  0  0  0  0  0  0  0  0  0  0
  153.9477  142.6051  160.9387 H   0  0  0  0  0  0  0  0  0  0  0  0
  152.7736  144.2756  161.2557 H   0  0  0  0  0  0  0  0  0  0  0  0
  151.3416  146.5010  160.6043 H   0  0  0  0  0  0  0  0  0  0  0  0
  150.3237  145.8803  158.1034 H   0  0  0  0  0  0  0  0  0  0  0  0
  152.2315  141.3391  156.7112 H   0  0  0  0  0  0  0  0  0  0  0  0
  1  2  1  0  0  0  0
  1 18  1  0  0  0  0
  1 19  1  0  0  0  0
  1 20  1  0  0  0  0
  2  3  1  0  0  0  0
  2 11  1  0  0  0  0
  2 21  1  0  0  0  0
  3  4  1  0  0  0  0
  3 22  1  0  0  0  0
  3 38  1  0  0  0  0
  4  5  1  0  0  0  0
  4 23  1  0  0  0  0
  4 24  1  0  0  0  0
  5  6  1  0  0  0  0
  5 25  1  0  0  0  0
  5 26  1  0  0  0  0
  6  7  1  0  0  0  0
  6 27  1  0  0  0  0
  6 28  1  0  0  0  0
  7  8  1  0  0  0  0
  7  9  2  0  0  0  0
  7 10  2  0  0  0  0
  8 29  1  0  0  0  0
  8 30  1  0  0  0  0
 11 12  1  0  0  0  0
 11 13  1  0  0  0  0
 11 31  1  0  0  0  0
 12 32  1  0  0  0  0
 12 33  1  0  0  0  0
 12 34  1  0  0  0  0
 13 17  1  0  0  0  0
 13 14  1  0  0  0  0
 14 15  2  0  0  0  0
 14 35  1  0  0  0  0
 15 16  1  0  0  0  0
 15 36  1  0  0  0  0
 16 17  2  0  0  0  0
 16 37  1  0  0  0  0
M  CHG  1   3   1
M  END
> <s_m_source_file>
AV-unprocessed.smi

> <i_m_source_file_index>
658

> <i_lp_mmshare_version>
43012

> <i_f3d_flags>
0

> <s_epik_input>
bjFbY0hdW2NIXVtjSF1uMVtDQEBIXShbQ0gzXSlbQ0BIXShbQ0gzXSlbTkhdW0NIMl1bQ0gyXVtDSDJdUyg9TykoPU8pW05IMl0=

> <s_epik_cmdline>
J2VwaWtfcHl0aG9uJywgJy1waCcsICc3LjAnLCAnLXRuJywgJzgnLCAnLW1hJywgJzIwMCcsICctbWV0YWxfYmluZGluZycsICctaW1hZScsICc8aW5maWxlLm1hZT4nLCAnLW9tYWUnLCAnPG91dGZpbGUubWFlPic=

> <r_lp_tautomer_probability>
1

> <r_epik_Ionization_Penalty>
0.00535781

> <r_epik_Ionization_Penalty_Charging>
0.00511015

> <r_epik_Ionization_Penalty_Neutral>
0.000247661

> <r_epik_State_Penalty>
-0

> <r_epik_Charging_Adjusted_Penalty>
0.00511015

> <i_epik_Tot_Q>
1

> <i_epik_Tot_abs_Q>
1

> <r_epik_Metal_State_Penalty>
0.149106

> <b_epik_Metal_Only>
0

> <s_lp_Force_Field>
OPLS_2005

> <r_lp_Energy>
8.18413

> <b_lp_Chiralities_Consistent>
1

> <s_lp_Variant>
AV-unprocessed.smi:658-1

> <Gold.Version>
5.8.1

> <Gold.Id.Protein>
6NUR|6NUR_protein|mol2

> <Gold.PLP.Fitness>
44.3542

> <Gold.PLP.PLP>
-36.6199

> <Gold.PLP.part.hbond>
-2.0000

> <Gold.PLP.part.metal>
0.0000

> <Gold.PLP.part.buried>
-4.9594

> <Gold.PLP.part.nonpolar>
-30.1842

> <Gold.PLP.part.repulsive>
0.3977

> <Gold.PLP.ligand.clash>
0.0000

> <Gold.PLP.ligand.torsion>
0.6848

> <Gold.PLP.Chemscore.Hbond>
2.0000

> <Gold.PLP.Chemscore.CHOScore>
0.9487

> <Gold.PLP.Chemscore.Metal>
0.0000

> <Gold.Chemscore.Hbonds>
donor molecule, donor type, donor heavy atom, donor atom, acceptor molecule, acceptor atom, score
      L1  H     8    29       P1  7957  1.00
      L1  H     8    30       P1  7948  0.98
      L1  C    16    37       P1  8029  0.98

> <Gold.PLP.Chemscore.Internal.Correction>
0.2578

> <Gold.Rescore>
     Score         DG    S(hbond)    S(metal)    S(lipo)     H(rot)  DE(clash)    DE(int)     intcor
     12.25     -14.23       1.98        0.00      86.91       3.13       0.01       1.97       ----

> <Gold.Chemscore.Fitness>
12.2517

> <Gold.Chemscore.DG>
-14.2313

> <Gold.Chemscore.ZeroCoef>
-5.4800

> <Gold.Chemscore.Hbond>
1.9757

> <Gold.Chemscore.Metal>
0.0000

> <Gold.Chemscore.Lipo>
86.9090

> <Gold.Chemscore.Internal_Hbond>
0.0000

> <Gold.Chemscore.DEClash>
0.0089

> <Gold.Chemscore.DEInternal>
1.9707

> <Gold.Chemscore.Rot>
3.1312

> <Gold.Chemscore.Internal.Correction>
   9.000000E+99

> <Gold.Chemscore.Hbonds>
donor molecule, donor type, donor heavy atom, donor atom, acceptor molecule, acceptor atom, score
      L1  H     8    29       P1  7957  0.88
      L1  H     8    30       P1  7948  0.37

> <Gold.Chemscore.Hbond.Weighted>
-6.5989

> <Gold.Chemscore.Metal.Weighted>
-0.0000

> <Gold.Chemscore.Lipo.Weighted>
-10.1684

> <Gold.Chemscore.Internal_Hbond.Weighted>
0.0000

> <Gold.Chemscore.DEClash.Weighted>
0.0089

> <Gold.Chemscore.DEInternal.Weighted>
1.9707

> <Gold.Chemscore.Rot.Weighted>
8.0160

> <Gold.Chemscore.Internal.Correction.Weighted>
   9.000000E+99

> <Gold.Protein.RotatedTorsions>
[ 6907 6896 6895 6894 ] final  163.16 input  -60.11 | X-H torsion
[ 7974 7965 7964 7962 ] final  168.69 input  175.53 | X-H torsion
[ 8008 7997 7996 7995 ] final  137.15 input   59.86 | X-H torsion
[ 10167 10162 10161 10158 ] final   68.33 input  -65.29 | X-H torsion
[ 10718 10713 10712 10709 ] final  115.75 input   66.30 | X-H torsion
[ 10763 10752 10751 10750 ] final  -53.12 input  -60.55 | X-H torsion
[ 11005 11000 10999 10996 ] final   85.53 input  -57.11 | X-H torsion

> <Gold.Protein.ActiveResidues>
 VAL166  LYS551  ARG553  GLY616  TRP617  ASP618  TYR619  PRO620  LYS621  CYS622 
 ASP623  PHE694  ASN695  SER759  ASP760  ASP761  ALA762  ILE779  LEU786  VAL792 
 PHE793  MET794  SER795  GLU796  ALA797  LYS798  CYS799  TRP800  GLU811  SER814 

> <Gold.Protein.RotatedAtoms>
  151.9294  133.3607  159.3925 H   0  0  0  0  0  0  0  0  0  0  0  0  # atno 6907 bound_to 6896
  150.7020  134.4553  159.5364 H   0  0  0  0  0  0  0  0  0  0  0  0  # atno 6908 bound_to 6896
  152.2191  134.8430  160.0539 H   0  0  0  0  0  0  0  0  0  0  0  0  # atno 6909 bound_to 6896
  144.7380  139.8945  143.6405 H   0  0  0  0  0  0  0  0  0  0  0  0  # atno 7974 bound_to 7965
  156.3003  140.2427  156.3862 H   0  0  0  0  0  0  0  0  0  0  0  0  # atno 8008 bound_to 7997
  154.8656  140.0418  157.1712 H   0  0  0  0  0  0  0  0  0  0  0  0  # atno 8009 bound_to 7997
  154.8850  140.2955  155.5407 H   0  0  0  0  0  0  0  0  0  0  0  0  # atno 8010 bound_to 7997
  140.0798  144.5081  150.7170 H   0  0  0  0  0  0  0  0  0  0  0  0  # atno 10167 bound_to 10162
  157.6203  131.1016  150.7375 H   0  0  0  0  0  0  0  0  0  0  0  0  # atno 10718 bound_to 10713
  154.1538  135.6486  153.4969 H   0  0  0  0  0  0  0  0  0  0  0  0  # atno 10763 bound_to 10752
  153.0130  135.5344  154.6781 H   0  0  0  0  0  0  0  0  0  0  0  0  # atno 10764 bound_to 10752
  154.6076  135.2950  155.0439 H   0  0  0  0  0  0  0  0  0  0  0  0  # atno 10765 bound_to 10752
  139.8969  134.8293  156.2595 H   0  0  0  0  0  0  0  0  0  0  0  0  # atno 11005 bound_to 11000
  146.1118  139.4123  143.0283 LP  0  0  0  0  0  0  0  0  0  0  0  0  # atno 17320 bound_to 7965
  145.7433  141.0000  143.1289 LP  0  0  0  0  0  0  0  0  0  0  0  0  # atno 17321 bound_to 7965
  140.7083  143.2485  151.4658 LP  0  0  0  0  0  0  0  0  0  0  0  0  # atno 17342 bound_to 10162
  139.5786  144.1761  152.1938 LP  0  0  0  0  0  0  0  0  0  0  0  0  # atno 17343 bound_to 10162
  156.7734  130.4836  149.5414 LP  0  0  0  0  0  0  0  0  0  0  0  0  # atno 17370 bound_to 10713
  156.1344  130.6201  151.0380 LP  0  0  0  0  0  0  0  0  0  0  0  0  # atno 17371 bound_to 10713
  141.0172  133.7062  156.1207 LP  0  0  0  0  0  0  0  0  0  0  0  0  # atno 17394 bound_to 11000
  140.7285  134.4280  157.5568 LP  0  0  0  0  0  0  0  0  0  0  0  0  # atno 17395 bound_to 11000

$$$$
