AV-unprocessed.smi:1863|AV-procd|sdf|7550|dock9
  -GOLD-   22720 9263D 1   1.00000     0.00000
 Structure written by MMmdl.
 37 38  0  0  0  0  0  0  0  0  1 V2000
  146.8586  139.6194  151.4188 C   0  0  0  0  0  0  0  0  0  0  0  0
  146.4830  138.6461  152.5448 C   0  0  2  0  0  0  0  0  0  0  0  0
  147.3242  138.9108  153.8127 C   0  0  0  0  0  0  0  0  0  0  0  0
  147.2967  140.3171  154.2124 N   0  0  0  0  0  0  0  0  0  0  0  0
  146.0483  140.9532  154.5986 C   0  0  0  0  0  0  0  0  0  0  0  0
  146.4572  142.3287  155.1427 C   0  0  0  0  0  0  0  0  0  0  0  0
  147.8958  142.5515  154.6651 C   0  0  0  0  0  0  0  0  0  0  0  0
  148.3275  141.1713  154.2001 C   0  0  0  0  0  0  0  0  0  0  0  0
  149.4827  140.9116  153.8654 O   0  0  0  0  0  0  0  0  0  0  0  0
  146.6947  137.2832  152.0600 N   0  0  0  0  0  0  0  0  0  0  0  0
  145.7328  136.3757  151.8364 C   0  0  0  0  0  0  0  0  0  0  0  0
  144.5340  136.5971  152.0065 O   0  0  0  0  0  0  0  0  0  0  0  0
  146.2568  135.2027  151.4425 N   0  0  0  0  0  0  0  0  0  0  0  0
  145.5754  133.9967  151.1278 C   0  0  0  0  0  0  0  0  0  0  0  0
  144.1728  133.9714  151.2700 C   0  0  0  0  0  0  0  0  0  0  0  0
  143.4754  132.7832  150.9805 C   0  0  0  0  0  0  0  0  0  0  0  0
  144.2137  131.6572  150.5679 C   0  0  0  0  0  0  0  0  0  0  0  0
  145.5574  131.6587  150.4421 N   0  0  0  0  0  0  0  0  0  0  0  0
  146.2199  132.8029  150.7187 C   0  0  0  0  0  0  0  0  0  0  0  0
  146.6877  140.6532  151.7205 H   0  0  0  0  0  0  0  0  0  0  0  0
  146.2605  139.4368  150.5253 H   0  0  0  0  0  0  0  0  0  0  0  0
  147.9094  139.5228  151.1426 H   0  0  0  0  0  0  0  0  0  0  0  0
  145.4293  138.8137  152.7753 H   0  0  0  0  0  0  0  0  0  0  0  0
  146.9990  138.2707  154.6349 H   0  0  0  0  0  0  0  0  0  0  0  0
  148.3647  138.6436  153.6229 H   0  0  0  0  0  0  0  0  0  0  0  0
  145.4092  141.0541  153.7204 H   0  0  0  0  0  0  0  0  0  0  0  0
  145.5138  140.3653  155.3460 H   0  0  0  0  0  0  0  0  0  0  0  0
  145.7842  143.1157  154.8007 H   0  0  0  0  0  0  0  0  0  0  0  0
  146.4285  142.3222  156.2333 H   0  0  0  0  0  0  0  0  0  0  0  0
  147.9339  143.2455  153.8251 H   0  0  0  0  0  0  0  0  0  0  0  0
  148.5417  142.9248  155.4604 H   0  0  0  0  0  0  0  0  0  0  0  0
  147.6520  137.0042  151.9026 H   0  0  0  0  0  0  0  0  0  0  0  0
  147.2647  135.1463  151.4365 H   0  0  0  0  0  0  0  0  0  0  0  0
  143.6345  134.8513  151.5911 H   0  0  0  0  0  0  0  0  0  0  0  0
  142.4005  132.7361  151.0725 H   0  0  0  0  0  0  0  0  0  0  0  0
  143.7122  130.7287  150.3380 H   0  0  0  0  0  0  0  0  0  0  0  0
  147.2926  132.7362  150.6255 H   0  0  0  0  0  0  0  0  0  0  0  0
  1  2  1  0  0  0  0
  1 20  1  0  0  0  0
  1 21  1  0  0  0  0
  1 22  1  0  0  0  0
  2  3  1  0  0  0  0
  2 10  1  0  0  0  0
  2 23  1  0  0  0  0
  3  4  1  0  0  0  0
  3 24  1  0  0  0  0
  3 25  1  0  0  0  0
  4  8  1  0  0  0  0
  4  5  1  0  0  0  0
  5  6  1  0  0  0  0
  5 26  1  0  0  0  0
  5 27  1  0  0  0  0
  6  7  1  0  0  0  0
  6 28  1  0  0  0  0
  6 29  1  0  0  0  0
  7  8  1  0  0  0  0
  7 30  1  0  0  0  0
  7 31  1  0  0  0  0
  8  9  2  0  0  0  0
 10 11  1  0  0  0  0
 10 32  1  0  0  0  0
 11 12  2  0  0  0  0
 11 13  1  0  0  0  0
 13 14  1  0  0  0  0
 13 33  1  0  0  0  0
 14 19  1  0  0  0  0
 14 15  2  0  0  0  0
 15 16  1  0  0  0  0
 15 34  1  0  0  0  0
 16 17  2  0  0  0  0
 16 35  1  0  0  0  0
 17 18  1  0  0  0  0
 17 36  1  0  0  0  0
 18 19  2  0  0  0  0
 19 37  1  0  0  0  0
M  END
> <s_m_source_file>
AV-unprocessed.smi

> <i_m_source_file_index>
1863

> <i_lp_mmshare_version>
43012

> <i_f3d_flags>
0

> <s_epik_input>
Tz1DMVtDSDJdW0NIMl1bQ0gyXU4xW0NIMl1bQ0BASF0oW0NIM10pW05IXUMoPU8pW05IXWMyW2NIXVtjSF1bY0hdbltjSF0y

> <s_epik_cmdline>
J2VwaWtfcHl0aG9uJywgJy1waCcsICc3LjAnLCAnLXRuJywgJzgnLCAnLW1hJywgJzIwMCcsICctbWV0YWxfYmluZGluZycsICctaW1hZScsICc8aW5maWxlLm1hZT4nLCAnLW9tYWUnLCAnPG91dGZpbGUubWFlPic=

> <r_epik_Ionization_Penalty>
0.0047799

> <r_epik_Ionization_Penalty_Charging>
0

> <r_epik_Ionization_Penalty_Neutral>
0.0047799

> <r_epik_State_Penalty>
0.0034394

> <r_epik_Charging_Adjusted_Penalty>
0.0034394

> <i_epik_Tot_Q>
0

> <i_epik_Tot_abs_Q>
0

> <r_epik_Metal_State_Penalty>
-0

> <b_epik_Metal_Only>
0

> <s_lp_Force_Field>
OPLS_2005

> <r_lp_Energy>
22.2943

> <b_lp_Chiralities_Consistent>
1

> <s_lp_Variant>
AV-unprocessed.smi:1863-1

> <Gold.Version>
5.8.1

> <Gold.Id.Protein>
6NUR|6NUR_protein|mol2

> <Gold.PLP.Fitness>
43.5873

> <Gold.PLP.PLP>
-31.5389

> <Gold.PLP.part.hbond>
-3.8345

> <Gold.PLP.part.metal>
0.0000

> <Gold.PLP.part.buried>
0.3887

> <Gold.PLP.part.nonpolar>
-31.5990

> <Gold.PLP.part.repulsive>
3.2320

> <Gold.PLP.ligand.clash>
0.0000

> <Gold.PLP.ligand.torsion>
0.1003

> <Gold.PLP.Chemscore.Hbond>
3.0865

> <Gold.PLP.Chemscore.CHOScore>
0.9903

> <Gold.PLP.Chemscore.Metal>
0.0000

> <Gold.Chemscore.Hbonds>
donor molecule, donor type, donor heavy atom, donor atom, acceptor molecule, acceptor atom, score
      L1  H    10    32       P1  7948  0.91
      L1  H    13    33       P1  7948  0.88
      P1  H  7989  7998       L1     9  0.29
      P1  H  8011  8017       L1     9  0.62
      L1  C    19    37       P1 10747  0.98

> <Gold.PLP.Chemscore.Internal.Correction>
0.0186

> <Gold.Rescore>
     Score         DG    S(hbond)    S(metal)    S(lipo)     H(rot)  DE(clash)    DE(int)     intcor
     14.28     -19.24       2.72        0.00      73.83       1.54       3.29       1.67       ----

> <Gold.Chemscore.Fitness>
14.2798

> <Gold.Chemscore.DG>
-19.2442

> <Gold.Chemscore.ZeroCoef>
-5.4800

> <Gold.Chemscore.Hbond>
2.7174

> <Gold.Chemscore.Metal>
0.0000

> <Gold.Chemscore.Lipo>
73.8264

> <Gold.Chemscore.Internal_Hbond>
0.0000

> <Gold.Chemscore.DEClash>
3.2921

> <Gold.Chemscore.DEInternal>
1.6723

> <Gold.Chemscore.Rot>
1.5428

> <Gold.Chemscore.Internal.Correction>
   9.000000E+99

> <Gold.Chemscore.Hbonds>
donor molecule, donor type, donor heavy atom, donor atom, acceptor molecule, acceptor atom, score
      L1  H    10    32       P1  7948  0.87
      L1  H    13    33       P1  7948  0.65
      P1  H  7989  7998       L1     9  0.29
      P1  H  8011  8017       L1     9  0.18

> <Gold.Chemscore.Hbond.Weighted>
-9.0762

> <Gold.Chemscore.Metal.Weighted>
-0.0000

> <Gold.Chemscore.Lipo.Weighted>
-8.6377

> <Gold.Chemscore.Internal_Hbond.Weighted>
0.0000

> <Gold.Chemscore.DEClash.Weighted>
3.2921

> <Gold.Chemscore.DEInternal.Weighted>
1.6723

> <Gold.Chemscore.Rot.Weighted>
3.9497

> <Gold.Chemscore.Internal.Correction.Weighted>
   9.000000E+99

> <Gold.Protein.RotatedTorsions>
[ 6907 6896 6895 6894 ] final   31.03 input  -60.11 | X-H torsion
[ 7974 7965 7964 7962 ] final -175.44 input  175.53 | X-H torsion
[ 8008 7997 7996 7995 ] final  142.13 input   59.86 | X-H torsion
[ 10167 10162 10161 10158 ] final -102.14 input  -65.29 | X-H torsion
[ 10718 10713 10712 10709 ] final   46.40 input   66.30 | X-H torsion
[ 10763 10752 10751 10750 ] final  174.75 input  -60.55 | X-H torsion
[ 11005 11000 10999 10996 ] final  -90.98 input  -57.11 | X-H torsion

> <Gold.Protein.ActiveResidues>
 VAL166  LYS551  ARG553  GLY616  TRP617  ASP618  TYR619  PRO620  LYS621  CYS622 
 ASP623  PHE694  ASN695  SER759  ASP760  ASP761  ALA762  ILE779  LEU786  VAL792 
 PHE793  MET794  SER795  GLU796  ALA797  LYS798  CYS799  TRP800  GLU811  SER814 

> <Gold.Protein.RotatedAtoms>
  152.0545  134.9633  160.0574 H   0  0  0  0  0  0  0  0  0  0  0  0  # atno 6907 bound_to 6896
  152.1021  133.4250  159.4600 H   0  0  0  0  0  0  0  0  0  0  0  0  # atno 6908 bound_to 6896
  150.6840  134.2667  159.4615 H   0  0  0  0  0  0  0  0  0  0  0  0  # atno 6909 bound_to 6896
  144.7128  140.1320  143.6398 H   0  0  0  0  0  0  0  0  0  0  0  0  # atno 7974 bound_to 7965
  156.2954  140.2297  156.4678 H   0  0  0  0  0  0  0  0  0  0  0  0  # atno 8008 bound_to 7997
  154.7962  140.0451  157.1259 H   0  0  0  0  0  0  0  0  0  0  0  0  # atno 8009 bound_to 7997
  154.9587  140.3051  155.5044 H   0  0  0  0  0  0  0  0  0  0  0  0  # atno 8010 bound_to 7997
  140.2338  143.3587  152.0863 H   0  0  0  0  0  0  0  0  0  0  0  0  # atno 10167 bound_to 10162
  157.4477  130.8119  149.7757 H   0  0  0  0  0  0  0  0  0  0  0  0  # atno 10718 bound_to 10713
  154.4581  135.2767  155.1732 H   0  0  0  0  0  0  0  0  0  0  0  0  # atno 10763 bound_to 10752
  154.3531  135.6145  153.5656 H   0  0  0  0  0  0  0  0  0  0  0  0  # atno 10764 bound_to 10752
  152.9852  135.5816  154.4938 H   0  0  0  0  0  0  0  0  0  0  0  0  # atno 10765 bound_to 10752
  141.1554  133.7726  156.9814 H   0  0  0  0  0  0  0  0  0  0  0  0  # atno 11005 bound_to 11000
  145.9278  139.2586  143.1343 LP  0  0  0  0  0  0  0  0  0  0  0  0  # atno 17320 bound_to 7965
  145.9554  140.8876  143.0238 LP  0  0  0  0  0  0  0  0  0  0  0  0  # atno 17321 bound_to 7965
  139.5101  144.6878  151.5841 LP  0  0  0  0  0  0  0  0  0  0  0  0  # atno 17342 bound_to 10162
  140.6165  143.9338  150.6493 LP  0  0  0  0  0  0  0  0  0  0  0  0  # atno 17343 bound_to 10162
  155.9974  130.3900  150.2742 LP  0  0  0  0  0  0  0  0  0  0  0  0  # atno 17370 bound_to 10713
  157.0911  131.0170  151.3121 LP  0  0  0  0  0  0  0  0  0  0  0  0  # atno 17371 bound_to 10713
  140.1063  134.9504  157.1999 LP  0  0  0  0  0  0  0  0  0  0  0  0  # atno 17394 bound_to 11000
  140.3251  134.2872  155.7238 LP  0  0  0  0  0  0  0  0  0  0  0  0  # atno 17395 bound_to 11000

$$$$
