AV-unprocessed.smi:33|AV-procd|sdf|210|dock9
  -GOLD-   2262015513D 1   1.00000     0.00000
 Structure written by MMmdl.
 67 72  0  0  0  0  0  0  0  0  1 V2000
  151.9415  144.1303  157.4918 O   0  0  0  0  0  0  0  0  0  0  0  0
  151.8310  143.1133  158.1794 C   0  0  0  0  0  0  0  0  0  0  0  0
  151.2768  141.9697  157.7351 O   0  0  0  0  0  0  0  0  0  0  0  0
  150.3760  141.9929  156.6405 C   0  0  0  0  0  0  0  0  0  0  0  0
  150.2607  140.5761  156.0675 C   0  0  1  0  0  0  0  0  0  0  0  0
  149.1481  139.8864  156.6364 O   0  0  0  0  0  0  0  0  0  0  0  0
  148.6434  138.9523  155.7256 C   0  0  2  0  0  0  0  0  0  0  0  0
  148.7983  137.5846  156.3137 N   0  0  0  0  0  0  0  0  0  0  0  0
  149.9483  136.8268  156.3505 C   0  0  0  0  0  0  0  0  0  0  0  0
  149.8345  135.6580  156.9205 N   0  0  0  0  0  0  0  0  0  0  0  0
  148.4991  135.5975  157.2938 C   0  0  0  0  0  0  0  0  0  0  0  0
  147.7029  134.6225  157.9531 C   0  0  0  0  0  0  0  0  0  0  0  0
  148.1976  133.4367  158.3790 N   0  0  0  0  0  0  0  0  0  0  0  0
  148.9499  132.6377  157.4017 C   0  0  0  0  0  0  0  0  0  0  0  0
  149.8029  131.8399  157.7953 O   0  0  0  0  0  0  0  0  0  0  0  0
  148.7155  132.8214  155.9291 C   0  0  0  0  0  0  0  0  0  0  0  0
  149.7963  132.7391  155.0243 C   0  0  0  0  0  0  0  0  0  0  0  0
  149.5777  132.8945  153.6416 C   0  0  0  0  0  0  0  0  0  0  0  0
  148.2754  133.1136  153.1536 C   0  0  0  0  0  0  0  0  0  0  0  0
  147.1896  133.1691  154.0479 C   0  0  0  0  0  0  0  0  0  0  0  0
  147.4073  133.0152  155.4306 C   0  0  0  0  0  0  0  0  0  0  0  0
  147.9419  133.0603  159.7774 C   0  0  0  0  0  0  0  0  0  0  0  0
  147.9512  131.8699  160.0971 O   0  0  0  0  0  0  0  0  0  0  0  0
  147.6137  134.1089  160.8026 C   0  0  0  0  0  0  0  0  0  0  0  0
  146.6666  133.8357  161.8140 C   0  0  0  0  0  0  0  0  0  0  0  0
  146.3649  134.8089  162.7861 C   0  0  0  0  0  0  0  0  0  0  0  0
  147.0211  136.0542  162.7645 C   0  0  0  0  0  0  0  0  0  0  0  0
  147.9868  136.3229  161.7761 C   0  0  0  0  0  0  0  0  0  0  0  0
  148.2889  135.3504  160.8034 C   0  0  0  0  0  0  0  0  0  0  0  0
  146.3914  134.9048  158.1627 N   0  0  0  0  0  0  0  0  0  0  0  0
  145.8916  136.0732  157.7509 C   0  0  0  0  0  0  0  0  0  0  0  0
  146.5169  137.0755  157.1295 N   0  0  0  0  0  0  0  0  0  0  0  0
  147.8353  136.7971  156.9154 C   0  0  0  0  0  0  0  0  0  0  0  0
  149.4440  139.1001  154.4239 C   0  0  1  0  0  0  0  0  0  0  0  0
  148.6584  138.9784  153.2553 O   0  0  0  0  0  0  0  0  0  0  0  0
  149.9794  140.5157  154.5679 C   0  0  1  0  0  0  0  0  0  0  0  0
  149.0376  141.4153  154.2672 F   0  0  0  0  0  0  0  0  0  0  0  0
  152.2976  143.0195  159.5930 C   0  0  0  0  0  0  0  0  0  0  0  0
  152.0458  144.0932  160.4787 C   0  0  0  0  0  0  0  0  0  0  0  0
  152.4727  144.0319  161.8196 C   0  0  0  0  0  0  0  0  0  0  0  0
  153.1561  142.8959  162.2910 C   0  0  0  0  0  0  0  0  0  0  0  0
  153.4128  141.8211  161.4199 C   0  0  0  0  0  0  0  0  0  0  0  0
  152.9870  141.8805  160.0786 C   0  0  0  0  0  0  0  0  0  0  0  0
  149.3993  142.3644  156.9539 H   0  0  0  0  0  0  0  0  0  0  0  0
  150.7608  142.6715  155.8779 H   0  0  0  0  0  0  0  0  0  0  0  0
  151.1793  140.0271  156.2717 H   0  0  0  0  0  0  0  0  0  0  0  0
  147.5692  139.0995  155.6040 H   0  0  0  0  0  0  0  0  0  0  0  0
  150.8865  137.1739  155.9430 H   0  0  0  0  0  0  0  0  0  0  0  0
  150.8001  132.5709  155.3875 H   0  0  0  0  0  0  0  0  0  0  0  0
  150.4099  132.8439  152.9551 H   0  0  0  0  0  0  0  0  0  0  0  0
  148.1084  133.2320  152.0932 H   0  0  0  0  0  0  0  0  0  0  0  0
  146.1890  133.3277  153.6738 H   0  0  0  0  0  0  0  0  0  0  0  0
  146.5658  133.0534  156.1073 H   0  0  0  0  0  0  0  0  0  0  0  0
  146.1563  132.8837  161.8406 H   0  0  0  0  0  0  0  0  0  0  0  0
  145.6302  134.5993  163.5494 H   0  0  0  0  0  0  0  0  0  0  0  0
  146.7885  136.8004  163.5100 H   0  0  0  0  0  0  0  0  0  0  0  0
  148.4974  137.2745  161.7641 H   0  0  0  0  0  0  0  0  0  0  0  0
  149.0357  135.5662  160.0528 H   0  0  0  0  0  0  0  0  0  0  0  0
  144.8417  136.2288  157.9502 H   0  0  0  0  0  0  0  0  0  0  0  0
  150.2696  138.3877  154.4013 H   0  0  0  0  0  0  0  0  0  0  0  0
  149.2283  139.0384  152.5037 H   0  0  0  0  0  0  0  0  0  0  0  0
  150.8541  140.7185  153.9493 H   0  0  0  0  0  0  0  0  0  0  0  0
  151.5225  144.9757  160.1395 H   0  0  0  0  0  0  0  0  0  0  0  0
  152.2744  144.8579  162.4866 H   0  0  0  0  0  0  0  0  0  0  0  0
  153.4829  142.8487  163.3194 H   0  0  0  0  0  0  0  0  0  0  0  0
  153.9369  140.9483  161.7808 H   0  0  0  0  0  0  0  0  0  0  0  0
  153.1993  141.0374  159.4374 H   0  0  0  0  0  0  0  0  0  0  0  0
  1  2  2  0  0  0  0
  2  3  1  0  0  0  0
  2 38  1  0  0  0  0
  3  4  1  0  0  0  0
  4  5  1  0  0  0  0
  4 44  1  0  0  0  0
  4 45  1  0  0  0  0
  5 36  1  0  0  0  0
  5  6  1  0  0  0  0
  5 46  1  0  0  0  0
  6  7  1  0  0  0  0
  7  8  1  0  0  0  0
  7 34  1  0  0  0  0
  7 47  1  0  0  0  0
  8 33  1  0  0  0  0
  8  9  1  0  0  0  0
  9 10  2  0  0  0  0
  9 48  1  0  0  0  0
 10 11  1  0  0  0  0
 11 33  2  0  0  0  0
 11 12  1  0  0  0  0
 12 13  1  0  0  0  0
 12 30  2  0  0  0  0
 13 14  1  0  0  0  0
 13 22  1  0  0  0  0
 14 15  2  0  0  0  0
 14 16  1  0  0  0  0
 16 21  1  0  0  0  0
 16 17  2  0  0  0  0
 17 18  1  0  0  0  0
 17 49  1  0  0  0  0
 18 19  2  0  0  0  0
 18 50  1  0  0  0  0
 19 20  1  0  0  0  0
 19 51  1  0  0  0  0
 20 21  2  0  0  0  0
 20 52  1  0  0  0  0
 21 53  1  0  0  0  0
 22 23  2  0  0  0  0
 22 24  1  0  0  0  0
 24 29  1  0  0  0  0
 24 25  2  0  0  0  0
 25 26  1  0  0  0  0
 25 54  1  0  0  0  0
 26 27  2  0  0  0  0
 26 55  1  0  0  0  0
 27 28  1  0  0  0  0
 27 56  1  0  0  0  0
 28 29  2  0  0  0  0
 28 57  1  0  0  0  0
 29 58  1  0  0  0  0
 30 31  1  0  0  0  0
 31 32  2  0  0  0  0
 31 59  1  0  0  0  0
 32 33  1  0  0  0  0
 34 35  1  0  0  0  0
 34 36  1  0  0  0  0
 34 60  1  0  0  0  0
 35 61  1  0  0  0  0
 36 37  1  0  0  0  0
 36 62  1  0  0  0  0
 38 43  1  0  0  0  0
 38 39  2  0  0  0  0
 39 40  1  0  0  0  0
 39 63  1  0  0  0  0
 40 41  2  0  0  0  0
 40 64  1  0  0  0  0
 41 42  1  0  0  0  0
 41 65  1  0  0  0  0
 42 43  2  0  0  0  0
 42 66  1  0  0  0  0
 43 67  1  0  0  0  0
M  END
> <s_m_source_file>
AV-unprocessed.smi

> <i_m_source_file_index>
33

> <i_lp_mmshare_version>
43012

> <i_f3d_flags>
0

> <s_epik_input>
W2NIXTFbY0hdW2NIXVtjSF1bY0hdYzFDKD1PKU9bQ0gyXVtDQEBIXTJPW0NASF0oW0NAQEhdKFtPSF0pW0NAQEhdMkYpbihbY0hdbjMpYyhjMzQpbltjSF1uYzROKEMoPU8pYzVbY0hdW2NIXVtjSF1bY0hdW2NIXTUpQyg9TyljNltjSF1bY0hdW2NIXVtjSF1bY0hdNg==

> <s_epik_cmdline>
J2VwaWtfcHl0aG9uJywgJy1waCcsICc3LjAnLCAnLXRuJywgJzgnLCAnLW1hJywgJzIwMCcsICctbWV0YWxfYmluZGluZycsICctaW1hZScsICc8aW5maWxlLm1hZT4nLCAnLW9tYWUnLCAnPG91dGZpbGUubWFlPic=

> <r_lp_tautomer_probability>
1

> <r_epik_Ionization_Penalty>
0.00067664

> <r_epik_Ionization_Penalty_Charging>
0

> <r_epik_Ionization_Penalty_Neutral>
0.00067664

> <r_epik_State_Penalty>
0.000428095

> <r_epik_Charging_Adjusted_Penalty>
0.000428095

> <i_epik_Tot_Q>
0

> <i_epik_Tot_abs_Q>
0

> <r_epik_Metal_State_Penalty>
-0

> <b_epik_Metal_Only>
0

> <s_epik_Chemistry_Notes>
This compound has an ester and may undergo hydrolysis at high or low pH. This compound contains an acetal/aminal-like group ( X-CH(R)-Y where X, Y are N, S, or O) that may be acid/base labile, releasing an aldehyde.

> <s_lp_Force_Field>
OPLS_2005

> <r_lp_Energy>
69.9903

> <b_lp_Chiralities_Consistent>
1

> <s_lp_Variant>
AV-unprocessed.smi:33-12

> <Gold.Version>
5.8.1

> <Gold.Id.Protein>
6NUR|6NUR_protein|mol2

> <Gold.PLP.Fitness>
66.3237

> <Gold.PLP.PLP>
-67.7977

> <Gold.PLP.part.hbond>
-1.5315

> <Gold.PLP.part.metal>
0.0000

> <Gold.PLP.part.buried>
-6.2759

> <Gold.PLP.part.nonpolar>
-58.4247

> <Gold.PLP.part.repulsive>
0.1438

> <Gold.PLP.ligand.clash>
0.0139

> <Gold.PLP.ligand.torsion>
4.5898

> <Gold.PLP.Chemscore.Hbond>
0.9920

> <Gold.PLP.Chemscore.CHOScore>
0.0000

> <Gold.PLP.Chemscore.Metal>
0.0000

> <Gold.Chemscore.Hbonds>
donor molecule, donor type, donor heavy atom, donor atom, acceptor molecule, acceptor atom, score
      L1  H    35    61       P1  7957  0.86

> <Gold.PLP.Chemscore.Internal.Correction>
4.7435

> <Gold.Rescore>
     Score         DG    S(hbond)    S(metal)    S(lipo)     H(rot)  DE(clash)    DE(int)     intcor
     12.75     -22.41       1.00        0.00     171.42       2.52       0.13       9.53       ----

> <Gold.Chemscore.Fitness>
12.7456

> <Gold.Chemscore.DG>
-22.4068

> <Gold.Chemscore.ZeroCoef>
-5.4800

> <Gold.Chemscore.Hbond>
0.9983

> <Gold.Chemscore.Metal>
0.0000

> <Gold.Chemscore.Lipo>
171.4175

> <Gold.Chemscore.Internal_Hbond>
0.0000

> <Gold.Chemscore.DEClash>
0.1289

> <Gold.Chemscore.DEInternal>
9.5323

> <Gold.Chemscore.Rot>
2.5247

> <Gold.Chemscore.Internal.Correction>
   9.000000E+99

> <Gold.Chemscore.Hbonds>
donor molecule, donor type, donor heavy atom, donor atom, acceptor molecule, acceptor atom, score
      L1  H    35    61       P1  7957  0.83

> <Gold.Chemscore.Hbond.Weighted>
-3.3342

> <Gold.Chemscore.Metal.Weighted>
-0.0000

> <Gold.Chemscore.Lipo.Weighted>
-20.0559

> <Gold.Chemscore.Internal_Hbond.Weighted>
0.0000

> <Gold.Chemscore.DEClash.Weighted>
0.1289

> <Gold.Chemscore.DEInternal.Weighted>
9.5323

> <Gold.Chemscore.Rot.Weighted>
6.4633

> <Gold.Chemscore.Internal.Correction.Weighted>
   9.000000E+99

> <Gold.Protein.RotatedTorsions>
[ 6907 6896 6895 6894 ] final -171.68 input  -60.11 | X-H torsion
[ 7974 7965 7964 7962 ] final   63.89 input  175.53 | X-H torsion
[ 8008 7997 7996 7995 ] final   13.20 input   59.86 | X-H torsion
[ 10167 10162 10161 10158 ] final    9.71 input  -65.29 | X-H torsion
[ 10718 10713 10712 10709 ] final -110.80 input   66.30 | X-H torsion
[ 10763 10752 10751 10750 ] final  -75.68 input  -60.55 | X-H torsion
[ 11005 11000 10999 10996 ] final -171.53 input  -57.11 | X-H torsion

> <Gold.Protein.ActiveResidues>
 VAL166  LYS551  ARG553  GLY616  TRP617  ASP618  TYR619  PRO620  LYS621  CYS622 
 ASP623  PHE694  ASN695  SER759  ASP760  ASP761  ALA762  ILE779  LEU786  VAL792 
 PHE793  MET794  SER795  GLU796  ALA797  LYS798  CYS799  TRP800  GLU811  SER814 

> <Gold.Protein.RotatedAtoms>
  151.5278  133.3454  159.2912 H   0  0  0  0  0  0  0  0  0  0  0  0  # atno 6907 bound_to 6896
  150.8612  134.7967  159.7095 H   0  0  0  0  0  0  0  0  0  0  0  0  # atno 6908 bound_to 6896
  152.4631  134.5147  159.9816 H   0  0  0  0  0  0  0  0  0  0  0  0  # atno 6909 bound_to 6896
  145.8566  139.3287  143.0844 H   0  0  0  0  0  0  0  0  0  0  0  0  # atno 7974 bound_to 7965
  154.8311  140.2899  155.5721 H   0  0  0  0  0  0  0  0  0  0  0  0  # atno 8008 bound_to 7997
  156.3005  140.2532  156.3168 H   0  0  0  0  0  0  0  0  0  0  0  0  # atno 8009 bound_to 7997
  154.9230  140.0385  157.1997 H   0  0  0  0  0  0  0  0  0  0  0  0  # atno 8010 bound_to 7997
  140.6239  143.8145  150.7208 H   0  0  0  0  0  0  0  0  0  0  0  0  # atno 10167 bound_to 10162
  156.0611  130.5834  150.8287 H   0  0  0  0  0  0  0  0  0  0  0  0  # atno 10718 bound_to 10713
  154.4898  135.5823  153.6451 H   0  0  0  0  0  0  0  0  0  0  0  0  # atno 10763 bound_to 10752
  152.9860  135.6110  154.3139 H   0  0  0  0  0  0  0  0  0  0  0  0  # atno 10764 bound_to 10752
  154.3038  135.2846  155.2578 H   0  0  0  0  0  0  0  0  0  0  0  0  # atno 10765 bound_to 10752
  140.5072  134.5836  157.5007 H   0  0  0  0  0  0  0  0  0  0  0  0  # atno 11005 bound_to 11000
  145.9297  140.9057  143.0363 LP  0  0  0  0  0  0  0  0  0  0  0  0  # atno 17320 bound_to 7965
  144.6727  140.1401  143.7437 LP  0  0  0  0  0  0  0  0  0  0  0  0  # atno 17321 bound_to 7965
  140.1741  143.4170  152.1980 LP  0  0  0  0  0  0  0  0  0  0  0  0  # atno 17342 bound_to 10162
  139.5462  144.7300  151.4575 LP  0  0  0  0  0  0  0  0  0  0  0  0  # atno 17343 bound_to 10162
  157.5620  131.0946  150.9545 LP  0  0  0  0  0  0  0  0  0  0  0  0  # atno 17370 bound_to 10713
  156.9781  130.5516  149.5294 LP  0  0  0  0  0  0  0  0  0  0  0  0  # atno 17371 bound_to 10713
  139.9679  134.7342  156.0100 LP  0  0  0  0  0  0  0  0  0  0  0  0  # atno 17394 bound_to 11000
  141.1404  133.6566  156.3715 LP  0  0  0  0  0  0  0  0  0  0  0  0  # atno 17395 bound_to 11000

$$$$
