AV-unprocessed.smi:2540|AV-procd|sdf|9988|dock5
  -GOLD-   2272014 33D 1   1.00000     0.00000
 Structure written by MMmdl.
 27 28  0  0  0  0  0  0  0  0  1 V2000
  149.9380  139.2303  154.3966 C   0  0  0  0  0  0  0  0  0  0  0  0
  151.0613  140.0362  154.7039 O   0  0  0  0  0  0  0  0  0  0  0  0
  151.9203  139.4344  155.6593 C   0  0  0  0  0  0  0  0  0  0  0  0
  151.3063  139.5645  157.0601 C   0  0  0  0  0  0  0  0  0  0  0  0
  151.3742  140.9295  157.5632 N   0  0  0  0  0  0  0  0  0  0  0  0
  150.7470  142.0317  157.0888 C   0  0  0  0  0  0  0  0  0  0  0  0
  149.9162  141.9334  155.9823 N   0  0  0  0  0  0  0  0  0  0  0  0
  150.9769  143.1730  157.7330 N   0  0  0  0  0  0  0  0  0  0  0  0
  151.8511  142.7752  158.7278 C   0  0  0  0  0  0  0  0  0  0  0  0
  152.4773  143.5226  159.7510 C   0  0  0  0  0  0  0  0  0  0  0  0
  153.3492  142.8931  160.6635 C   0  0  0  0  0  0  0  0  0  0  0  0
  153.6066  141.5100  160.5675 C   0  0  0  0  0  0  0  0  0  0  0  0
  152.9916  140.7454  159.5574 C   0  0  0  0  0  0  0  0  0  0  0  0
  152.1218  141.3777  158.6487 C   0  0  0  0  0  0  0  0  0  0  0  0
  149.3128  139.7396  153.6635 H   0  0  0  0  0  0  0  0  0  0  0  0
  149.3321  139.0415  155.2838 H   0  0  0  0  0  0  0  0  0  0  0  0
  150.2445  138.2739  153.9708 H   0  0  0  0  0  0  0  0  0  0  0  0
  152.0735  138.3822  155.4139 H   0  0  0  0  0  0  0  0  0  0  0  0
  152.8972  139.9195  155.6398 H   0  0  0  0  0  0  0  0  0  0  0  0
  150.2671  139.2345  157.0530 H   0  0  0  0  0  0  0  0  0  0  0  0
  151.8290  138.9099  157.7583 H   0  0  0  0  0  0  0  0  0  0  0  0
  149.7655  141.0501  155.5163 H   0  0  0  0  0  0  0  0  0  0  0  0
  149.4374  142.7390  155.6065 H   0  0  0  0  0  0  0  0  0  0  0  0
  152.2879  144.5826  159.8322 H   0  0  0  0  0  0  0  0  0  0  0  0
  153.8242  143.4746  161.4398 H   0  0  0  0  0  0  0  0  0  0  0  0
  154.2772  141.0361  161.2693 H   0  0  0  0  0  0  0  0  0  0  0  0
  153.1892  139.6868  159.4790 H   0  0  0  0  0  0  0  0  0  0  0  0
  1  2  1  0  0  0  0
  1 15  1  0  0  0  0
  1 16  1  0  0  0  0
  1 17  1  0  0  0  0
  2  3  1  0  0  0  0
  3  4  1  0  0  0  0
  3 18  1  0  0  0  0
  3 19  1  0  0  0  0
  4  5  1  0  0  0  0
  4 20  1  0  0  0  0
  4 21  1  0  0  0  0
  5 14  1  0  0  0  0
  5  6  1  0  0  0  0
  6  7  1  0  0  0  0
  6  8  2  0  0  0  0
  7 22  1  0  0  0  0
  7 23  1  0  0  0  0
  8  9  1  0  0  0  0
  9 14  2  0  0  0  0
  9 10  1  0  0  0  0
 10 11  2  0  0  0  0
 10 24  1  0  0  0  0
 11 12  1  0  0  0  0
 11 25  1  0  0  0  0
 12 13  2  0  0  0  0
 12 26  1  0  0  0  0
 13 14  1  0  0  0  0
 13 27  1  0  0  0  0
M  END
> <s_m_source_file>
AV-unprocessed.smi

> <i_m_source_file_index>
2540

> <i_lp_mmshare_version>
43012

> <i_f3d_flags>
0

> <s_epik_input>
W0NIM11PW0NIMl1bQ0gyXW4oYyhuMSlbTkgyXSljKGMxMilbY0hdW2NIXVtjSF1bY0hdMg==

> <s_epik_cmdline>
J2VwaWtfcHl0aG9uJywgJy1waCcsICc3LjAnLCAnLXRuJywgJzgnLCAnLW1hJywgJzIwMCcsICctbWV0YWxfYmluZGluZycsICctaW1hZScsICc8aW5maWxlLm1hZT4nLCAnLW9tYWUnLCAnPG91dGZpbGUubWFlPic=

> <r_epik_Ionization_Penalty>
0.602407

> <r_epik_Ionization_Penalty_Charging>
0

> <r_epik_Ionization_Penalty_Neutral>
0.602407

> <r_epik_State_Penalty>
0.616889

> <r_epik_Charging_Adjusted_Penalty>
0.616889

> <i_epik_Tot_Q>
0

> <i_epik_Tot_abs_Q>
0

> <r_epik_Metal_State_Penalty>
0.00108478

> <b_epik_Metal_Only>
0

> <s_lp_Force_Field>
OPLS_2005

> <r_lp_Energy>
6.7443

> <b_lp_Chiralities_Consistent>
1

> <s_lp_Variant>
AV-unprocessed.smi:2540-2

> <Gold.Version>
5.8.1

> <Gold.Id.Protein>
6NUR|6NUR_protein|mol2

> <Gold.PLP.Fitness>
37.6951

> <Gold.PLP.PLP>
-31.9753

> <Gold.PLP.part.hbond>
-2.0000

> <Gold.PLP.part.metal>
0.0000

> <Gold.PLP.part.buried>
-5.3434

> <Gold.PLP.part.nonpolar>
-25.0939

> <Gold.PLP.part.repulsive>
0.3248

> <Gold.PLP.ligand.clash>
0.0000

> <Gold.PLP.ligand.torsion>
0.1405

> <Gold.PLP.Chemscore.Hbond>
2.0000

> <Gold.PLP.Chemscore.CHOScore>
0.0000

> <Gold.PLP.Chemscore.Metal>
0.0000

> <Gold.Chemscore.Hbonds>
donor molecule, donor type, donor heavy atom, donor atom, acceptor molecule, acceptor atom, score
      L1  H     7    23       P1  8028  0.94
      P1  H  7989  7998       L1     2  1.00

> <Gold.PLP.Chemscore.Internal.Correction>
0.0009

> <Gold.Rescore>
     Score         DG    S(hbond)    S(metal)    S(lipo)     H(rot)  DE(clash)    DE(int)     intcor
     17.02     -17.28       1.93        0.00      77.70       1.46       0.01       0.25       ----

> <Gold.Chemscore.Fitness>
17.0240

> <Gold.Chemscore.DG>
-17.2752

> <Gold.Chemscore.ZeroCoef>
-5.4800

> <Gold.Chemscore.Hbond>
1.9284

> <Gold.Chemscore.Metal>
0.0000

> <Gold.Chemscore.Lipo>
77.7042

> <Gold.Chemscore.Internal_Hbond>
0.0000

> <Gold.Chemscore.DEClash>
0.0060

> <Gold.Chemscore.DEInternal>
0.2452

> <Gold.Chemscore.Rot>
1.4598

> <Gold.Chemscore.Internal.Correction>
   9.000000E+99

> <Gold.Chemscore.Hbonds>
donor molecule, donor type, donor heavy atom, donor atom, acceptor molecule, acceptor atom, score
      L1  H     7    23       P1  8028  0.87
      P1  H  7989  7998       L1     2  0.87

> <Gold.Chemscore.Hbond.Weighted>
-6.4409

> <Gold.Chemscore.Metal.Weighted>
-0.0000

> <Gold.Chemscore.Lipo.Weighted>
-9.0914

> <Gold.Chemscore.Internal_Hbond.Weighted>
0.0000

> <Gold.Chemscore.DEClash.Weighted>
0.0060

> <Gold.Chemscore.DEInternal.Weighted>
0.2452

> <Gold.Chemscore.Rot.Weighted>
3.7371

> <Gold.Chemscore.Internal.Correction.Weighted>
   9.000000E+99

> <Gold.Protein.RotatedTorsions>
[ 6907 6896 6895 6894 ] final  -30.63 input  -60.11 | X-H torsion
[ 7974 7965 7964 7962 ] final  -28.21 input  175.53 | X-H torsion
[ 8008 7997 7996 7995 ] final   41.27 input   59.86 | X-H torsion
[ 10167 10162 10161 10158 ] final -161.14 input  -65.29 | X-H torsion
[ 10718 10713 10712 10709 ] final   67.73 input   66.30 | X-H torsion
[ 10763 10752 10751 10750 ] final  114.15 input  -60.55 | X-H torsion
[ 11005 11000 10999 10996 ] final   -7.70 input  -57.11 | X-H torsion

> <Gold.Protein.ActiveResidues>
 VAL166  LYS551  ARG553  GLY616  TRP617  ASP618  TYR619  PRO620  LYS621  CYS622 
 ASP623  PHE694  ASN695  SER759  ASP760  ASP761  ALA762  ILE779  LEU786  VAL792 
 PHE793  MET794  SER795  GLU796  ALA797  LYS798  CYS799  TRP800  GLU811  SER814 

> <Gold.Protein.RotatedAtoms>
  151.1029  134.9983  159.8457 H   0  0  0  0  0  0  0  0  0  0  0  0  # atno 6907 bound_to 6896
  152.5438  134.1928  159.8691 H   0  0  0  0  0  0  0  0  0  0  0  0  # atno 6908 bound_to 6896
  151.1972  133.4588  159.2629 H   0  0  0  0  0  0  0  0  0  0  0  0  # atno 6909 bound_to 6896
  146.1304  140.5253  142.8696 H   0  0  0  0  0  0  0  0  0  0  0  0  # atno 7974 bound_to 7965
  155.2669  140.3363  155.4268 H   0  0  0  0  0  0  0  0  0  0  0  0  # atno 8008 bound_to 7997
  156.2150  140.1785  156.7652 H   0  0  0  0  0  0  0  0  0  0  0  0  # atno 8009 bound_to 7997
  154.5740  140.0665  156.8991 H   0  0  0  0  0  0  0  0  0  0  0  0  # atno 8010 bound_to 7997
  139.6487  144.0124  152.2146 H   0  0  0  0  0  0  0  0  0  0  0  0  # atno 10167 bound_to 10162
  157.6248  130.9336  150.0282 H   0  0  0  0  0  0  0  0  0  0  0  0  # atno 10718 bound_to 10713
  153.5030  135.3634  155.2549 H   0  0  0  0  0  0  0  0  0  0  0  0  # atno 10763 bound_to 10752
  154.8746  135.4004  154.3457 H   0  0  0  0  0  0  0  0  0  0  0  0  # atno 10764 bound_to 10752
  153.4096  135.7077  153.6434 H   0  0  0  0  0  0  0  0  0  0  0  0  # atno 10765 bound_to 10752
  140.7156  133.8872  155.8782 H   0  0  0  0  0  0  0  0  0  0  0  0  # atno 11005 bound_to 11000
  144.7684  140.5583  143.6687 LP  0  0  0  0  0  0  0  0  0  0  0  0  # atno 17320 bound_to 7965
  145.5274  139.1475  143.3519 LP  0  0  0  0  0  0  0  0  0  0  0  0  # atno 17321 bound_to 7965
  139.9833  144.6413  150.7881 LP  0  0  0  0  0  0  0  0  0  0  0  0  # atno 17342 bound_to 10162
  140.7527  143.2995  151.3117 LP  0  0  0  0  0  0  0  0  0  0  0  0  # atno 17343 bound_to 10162
  156.1413  130.3642  149.9577 LP  0  0  0  0  0  0  0  0  0  0  0  0  # atno 17370 bound_to 10713
  156.7618  130.9153  151.3641 LP  0  0  0  0  0  0  0  0  0  0  0  0  # atno 17371 bound_to 10713
  141.0048  134.1101  157.4282 LP  0  0  0  0  0  0  0  0  0  0  0  0  # atno 17394 bound_to 11000
  139.8861  135.0078  156.6475 LP  0  0  0  0  0  0  0  0  0  0  0  0  # atno 17395 bound_to 11000

$$$$
