#       Name:                AV-unprocessed.smi:1578
#       Creating user name   scv26
#       Creation time:       Fri Mar 27 06:56:57 2020


#       File generated by GOLD software.
#

@<TRIPOS>MOLECULE
AV-unprocessed.smi:1578
    51    52     1
SMALL
NO_CHARGES


@<TRIPOS>ATOM
      1 ****        -1.8823  -1.1883   2.8362 C.3            1 S1                 0.0000
      2 ****        -1.5764  -0.1417   1.7522 C.3            1 S1                 0.0000
      3 ****        -2.1372  -0.5769   0.3803 C.3            1 S1                 0.0000
      4 ****        -2.5197   0.5090  -0.5252 N.3            1 S1                 0.0000
      5 ****        -1.3786   1.3039  -0.9763 C.3            1 S1                 0.0000
      6 ****        -1.7922   2.4078  -1.9643 C.3            1 S1                 0.0000
      7 ****        -2.4813   1.8311  -3.0682 O.3            1 S1                 0.0000
      8 ****        -3.6352   1.0997  -2.6688 C.3            1 S1                 0.0000
      9 ****        -3.2220  -0.0149  -1.6925 C.3            1 S1                 0.0000
     10 ****        -0.1317   0.0416   1.6523 N.am           1 S1                 0.0000
     11 ****         0.6170   0.8511   2.4207 C.2            1 S1                 0.0000
     12 ****         0.1531   1.4979   3.3586 O.2            1 S1                 0.0000
     13 ****         2.1140   0.9786   2.0895 C.3            1 S1                 0.0000
     14 ****         2.5095   0.3894   0.7968 N.am           1 S1                 0.0000
     15 ****         3.0093  -0.9277   0.8181 C.2            1 S1                 0.0000
     16 ****         3.3733  -1.5915  -0.2958 C.2            1 S1                 0.0000
     17 ****         3.9532  -2.9960  -0.2355 C.3            1 S1                 0.0000
     18 ****         4.7723  -3.2225  -1.2627 F              1 S1                 0.0000
     19 ****         4.6352  -3.1868   0.8945 F              1 S1                 0.0000
     20 ****         2.9696  -3.8934  -0.2826 F              1 S1                 0.0000
     21 ****         3.2607  -0.8653  -1.5455 C.2            1 S1                 0.0000
     22 ****         2.7923   0.3974  -1.5828 C.2            1 S1                 0.0000
     23 ****         2.3758   1.0968  -0.3655 C.2            1 S1                 0.0000
     24 ****         1.9268   2.2428  -0.3900 O.2            1 S1                 0.0000
     25 ****        -2.9569  -1.3361   2.9465 H              1 S1                 0.0000
     26 ****        -1.4967  -0.8783   3.8080 H              1 S1                 0.0000
     27 ****        -1.4365  -2.1536   2.5935 H              1 S1                 0.0000
     28 ****        -2.0508   0.7970   2.0453 H              1 S1                 0.0000
     29 ****        -1.4398  -1.2550  -0.1148 H              1 S1                 0.0000
     30 ****        -3.0306  -1.1736   0.5700 H              1 S1                 0.0000
     31 ****        -0.8896   1.7773  -0.1262 H              1 S1                 0.0000
     32 ****        -0.6381   0.6556  -1.4473 H              1 S1                 0.0000
     33 ****        -2.4293   3.1455  -1.4740 H              1 S1                 0.0000
     34 ****        -0.9118   2.9369  -2.3295 H              1 S1                 0.0000
     35 ****        -4.3602   1.7715  -2.2064 H              1 S1                 0.0000
     36 ****        -4.1105   0.6734  -3.5523 H              1 S1                 0.0000
     37 ****        -2.5861  -0.7310  -2.2155 H              1 S1                 0.0000
     38 ****        -4.1110  -0.5614  -1.3756 H              1 S1                 0.0000
     39 ****         0.3326  -0.4565   0.9070 H              1 S1                 0.0000
     40 ****         2.3888   2.0344   2.1231 H              1 S1                 0.0000
     41 ****         2.6774   0.5177   2.9018 H              1 S1                 0.0000
     42 ****         3.0716  -1.3683   1.8027 H              1 S1                 0.0000
     43 ****         3.5527  -1.3428  -2.4692 H              1 S1                 0.0000
     44 ****         2.7194   0.9073  -2.5323 H              1 S1                 0.0000
     45 ****        -3.1226   1.1077   0.0021 LP             1 S1                 0.0000
     46 ****        -1.8588   1.2117  -3.5467 LP             1 S1                 0.0000
     47 ****        -2.7643   2.5634  -3.6875 LP             1 S1                 0.0000
     48 ****        -0.8207   1.4339   3.5769 LP             1 S1                 0.0000
     49 ****         0.7498   2.0876   3.9028 LP             1 S1                 0.0000
     50 ****         1.6450   2.6876   0.4601 LP             1 S1                 0.0000
     51 ****         1.8439   2.7288  -1.2600 LP             1 S1                 0.0000
@<TRIPOS>BOND
    1    1    2 1     
    2    1   25 1     
    3    1   26 1     
    4    1   27 1     
    5    2    3 1     
    6    2   10 1     
    7    2   28 1     
    8    3    4 1     
    9    3   29 1     
   10    3   30 1     
   11    4    9 1     
   12    4    5 1     
   13    5    6 1     
   14    5   31 1     
   15    5   32 1     
   16    6    7 1     
   17    6   33 1     
   18    6   34 1     
   19    7    8 1     
   20    8    9 1     
   21    8   35 1     
   22    8   36 1     
   23    9   37 1     
   24    9   38 1     
   25   10   11 am    
   26   10   39 1     
   27   11   12 2     
   28   11   13 1     
   29   13   14 1     
   30   13   40 1     
   31   13   41 1     
   32   14   23 am    
   33   14   15 1     
   34   15   16 2     
   35   15   42 1     
   36   16   17 1     
   37   16   21 1     
   38   17   18 1     
   39   17   19 1     
   40   17   20 1     
   41   21   22 2     
   42   21   43 1     
   43   22   23 1     
   44   22   44 1     
   45   23   24 2     
   46    4   45 1     
   47    7   46 1     
   48    7   47 1     
   49   12   48 1     
   50   12   49 1     
   51   24   50 1     
   52   24   51 1     
@<TRIPOS>SUBSTRUCTURE
      1 S1             1
@<TRIPOS>SET
LONE_PAIRS      STATIC     ATOMS    <user>   **** ""
7 45 46 47 48 49 50 51
DONOR_HYDROGENS      STATIC     ATOMS    <user>   **** ""
1 39
ATOM$BLUE        STATIC     ATOMS    COLORGROUP SYSTEM
7 45 46 47 48 49 50 51
ATOM$RED        STATIC     ATOMS    COLORGROUP SYSTEM
1 39
