AV-unprocessed.smi:2442|AV-procd|sdf|9623|dock3
  -GOLD-   2272013253D 1   1.00000     0.00000
 Structure written by MMmdl.
 46 47  0  0  0  0  0  0  0  0  1 V2000
  150.7543  135.7550  156.0616 C   0  0  0  0  0  0  0  0  0  0  0  0
  151.1541  136.1842  154.7699 O   0  0  0  0  0  0  0  0  0  0  0  0
  151.2185  137.5979  154.6225 C   0  0  2  0  0  0  0  0  0  0  0  0
  152.2597  138.1826  155.6004 C   0  0  0  0  0  0  0  0  0  0  0  0
  152.2602  139.7199  155.5706 C   0  0  0  0  0  0  0  0  0  0  0  0
  150.8626  140.2863  155.8670 C   0  0  0  0  0  0  0  0  0  0  0  0
  149.8174  139.7181  154.8952 C   0  0  0  0  0  0  0  0  0  0  0  0
  149.8145  138.1740  154.9256 C   0  0  1  0  0  0  0  0  0  0  0  0
  148.7698  137.6149  154.0641 N   0  0  0  0  0  0  0  0  0  0  0  0
  147.4606  137.5078  154.3378 C   0  0  0  0  0  0  0  0  0  0  0  0
  146.9283  137.9159  155.3701 O   0  0  0  0  0  0  0  0  0  0  0  0
  146.8025  136.8698  153.3588 N   0  0  0  0  0  0  0  0  0  0  0  0
  145.3844  136.5185  153.3863 C   0  0  0  0  0  0  0  0  0  0  0  0
  145.1485  135.0030  153.5646 C   0  0  0  0  0  0  0  0  0  0  0  0
  145.0408  134.2238  152.2581 C   0  0  0  0  0  0  0  0  0  0  0  0
  143.9004  134.3931  151.4437 C   0  0  0  0  0  0  0  0  0  0  0  0
  143.8281  133.6976  150.2216 C   0  0  0  0  0  0  0  0  0  0  0  0
  144.7957  132.8663  149.7847 N   0  0  0  0  0  0  0  0  0  0  0  0
  145.8818  132.6986  150.5679 C   0  0  0  0  0  0  0  0  0  0  0  0
  146.0589  133.3444  151.8110 C   0  0  0  0  0  0  0  0  0  0  0  0
  147.3234  133.0927  152.6123 C   0  0  0  0  0  0  0  0  0  0  0  0
  150.7378  134.6658  156.0930 H   0  0  0  0  0  0  0  0  0  0  0  0
  149.7563  136.1102  156.3166 H   0  0  0  0  0  0  0  0  0  0  0  0
  151.4549  136.0993  156.8236 H   0  0  0  0  0  0  0  0  0  0  0  0
  151.5054  137.8596  153.6030 H   0  0  0  0  0  0  0  0  0  0  0  0
  152.0435  137.8398  156.6132 H   0  0  0  0  0  0  0  0  0  0  0  0
  153.2582  137.8192  155.3594 H   0  0  0  0  0  0  0  0  0  0  0  0
  152.9775  140.1047  156.2961 H   0  0  0  0  0  0  0  0  0  0  0  0
  152.5945  140.0657  154.5917 H   0  0  0  0  0  0  0  0  0  0  0  0
  150.5797  140.0444  156.8922 H   0  0  0  0  0  0  0  0  0  0  0  0
  150.8802  141.3744  155.7991 H   0  0  0  0  0  0  0  0  0  0  0  0
  148.8295  140.1002  155.1548 H   0  0  0  0  0  0  0  0  0  0  0  0
  150.0329  140.0806  153.8896 H   0  0  0  0  0  0  0  0  0  0  0  0
  149.5446  137.8685  155.9374 H   0  0  0  0  0  0  0  0  0  0  0  0
  149.0849  137.2473  153.1785 H   0  0  0  0  0  0  0  0  0  0  0  0
  147.3280  136.5746  152.5491 H   0  0  0  0  0  0  0  0  0  0  0  0
  144.8732  137.0791  154.1693 H   0  0  0  0  0  0  0  0  0  0  0  0
  144.9367  136.8456  152.4478 H   0  0  0  0  0  0  0  0  0  0  0  0
  145.9380  134.5755  154.1820 H   0  0  0  0  0  0  0  0  0  0  0  0
  144.2288  134.8533  154.1316 H   0  0  0  0  0  0  0  0  0  0  0  0
  143.1001  135.0552  151.7395 H   0  0  0  0  0  0  0  0  0  0  0  0
  142.9706  133.8154  149.5758 H   0  0  0  0  0  0  0  0  0  0  0  0
  146.6360  132.0263  150.1858 H   0  0  0  0  0  0  0  0  0  0  0  0
  147.9128  132.2882  152.1713 H   0  0  0  0  0  0  0  0  0  0  0  0
  147.0861  132.8038  153.6358 H   0  0  0  0  0  0  0  0  0  0  0  0
  147.9465  133.9862  152.6343 H   0  0  0  0  0  0  0  0  0  0  0  0
  1  2  1  0  0  0  0
  1 22  1  0  0  0  0
  1 23  1  0  0  0  0
  1 24  1  0  0  0  0
  2  3  1  0  0  0  0
  3  8  1  0  0  0  0
  3  4  1  0  0  0  0
  3 25  1  0  0  0  0
  4  5  1  0  0  0  0
  4 26  1  0  0  0  0
  4 27  1  0  0  0  0
  5  6  1  0  0  0  0
  5 28  1  0  0  0  0
  5 29  1  0  0  0  0
  6  7  1  0  0  0  0
  6 30  1  0  0  0  0
  6 31  1  0  0  0  0
  7  8  1  0  0  0  0
  7 32  1  0  0  0  0
  7 33  1  0  0  0  0
  8  9  1  0  0  0  0
  8 34  1  0  0  0  0
  9 10  1  0  0  0  0
  9 35  1  0  0  0  0
 10 11  2  0  0  0  0
 10 12  1  0  0  0  0
 12 13  1  0  0  0  0
 12 36  1  0  0  0  0
 13 14  1  0  0  0  0
 13 37  1  0  0  0  0
 13 38  1  0  0  0  0
 14 15  1  0  0  0  0
 14 39  1  0  0  0  0
 14 40  1  0  0  0  0
 15 20  1  0  0  0  0
 15 16  2  0  0  0  0
 16 17  1  0  0  0  0
 16 41  1  0  0  0  0
 17 18  2  0  0  0  0
 17 42  1  0  0  0  0
 18 19  1  0  0  0  0
 19 20  2  0  0  0  0
 19 43  1  0  0  0  0
 20 21  1  0  0  0  0
 21 44  1  0  0  0  0
 21 45  1  0  0  0  0
 21 46  1  0  0  0  0
M  END
> <s_m_source_file>
AV-unprocessed.smi

> <i_m_source_file_index>
2442

> <i_lp_mmshare_version>
43012

> <i_f3d_flags>
0

> <s_epik_input>
W0NIM11PW0NAQEhdMVtDSDJdW0NIMl1bQ0gyXVtDSDJdW0NASF0xW05IXUMoPU8pW05IXVtDSDJdW0NIMl1jMltjSF1bY0hdbltjSF1jMltDSDNd

> <s_epik_cmdline>
J2VwaWtfcHl0aG9uJywgJy1waCcsICc3LjAnLCAnLXRuJywgJzgnLCAnLW1hJywgJzIwMCcsICctbWV0YWxfYmluZGluZycsICctaW1hZScsICc8aW5maWxlLm1hZT4nLCAnLW9tYWUnLCAnPG91dGZpbGUubWFlPic=

> <r_epik_Ionization_Penalty>
0.106136

> <r_epik_Ionization_Penalty_Charging>
0

> <r_epik_Ionization_Penalty_Neutral>
0.106136

> <r_epik_State_Penalty>
0.0959393

> <r_epik_Charging_Adjusted_Penalty>
0.0959393

> <i_epik_Tot_Q>
0

> <i_epik_Tot_abs_Q>
0

> <r_epik_Metal_State_Penalty>
0.0812517

> <b_epik_Metal_Only>
0

> <s_lp_Force_Field>
OPLS_2005

> <r_lp_Energy>
10.1716

> <b_lp_Chiralities_Consistent>
1

> <s_lp_Variant>
AV-unprocessed.smi:2442-1

> <Gold.Version>
5.8.1

> <Gold.Id.Protein>
6NUR|6NUR_protein|mol2

> <Gold.PLP.Fitness>
46.8184

> <Gold.PLP.PLP>
-33.1657

> <Gold.PLP.part.hbond>
-3.0000

> <Gold.PLP.part.metal>
0.0000

> <Gold.PLP.part.buried>
-3.6080

> <Gold.PLP.part.nonpolar>
-27.2670

> <Gold.PLP.part.repulsive>
0.3610

> <Gold.PLP.ligand.clash>
0.0000

> <Gold.PLP.ligand.torsion>
0.6885

> <Gold.PLP.Chemscore.Hbond>
2.9920

> <Gold.PLP.Chemscore.CHOScore>
2.0000

> <Gold.PLP.Chemscore.Metal>
0.0000

> <Gold.Chemscore.Hbonds>
donor molecule, donor type, donor heavy atom, donor atom, acceptor molecule, acceptor atom, score
      L1  H     9    35       P1  7948  1.00
      L1  H    12    36       P1  7948  0.94
      P1  H 10752 10763       L1     2  0.96
      L1  C    17    42       P1 10186  1.00
      L1  C    19    43       P1 10747  0.80

> <Gold.PLP.Chemscore.Internal.Correction>
0.0537

> <Gold.Rescore>
     Score         DG    S(hbond)    S(metal)    S(lipo)     H(rot)  DE(clash)    DE(int)     intcor
     19.67     -20.37       2.68        0.00      86.58       1.64       0.09       0.62       ----

> <Gold.Chemscore.Fitness>
19.6664

> <Gold.Chemscore.DG>
-20.3710

> <Gold.Chemscore.ZeroCoef>
-5.4800

> <Gold.Chemscore.Hbond>
2.6811

> <Gold.Chemscore.Metal>
0.0000

> <Gold.Chemscore.Lipo>
86.5764

> <Gold.Chemscore.Internal_Hbond>
0.0000

> <Gold.Chemscore.DEClash>
0.0868

> <Gold.Chemscore.DEInternal>
0.6178

> <Gold.Chemscore.Rot>
1.6380

> <Gold.Chemscore.Internal.Correction>
   9.000000E+99

> <Gold.Chemscore.Hbonds>
donor molecule, donor type, donor heavy atom, donor atom, acceptor molecule, acceptor atom, score
      L1  H     9    35       P1  7948  0.98
      L1  H    12    36       P1  7948  0.91
      P1  H 10752 10763       L1     2  0.26

> <Gold.Chemscore.Hbond.Weighted>
-8.9550

> <Gold.Chemscore.Metal.Weighted>
-0.0000

> <Gold.Chemscore.Lipo.Weighted>
-10.1294

> <Gold.Chemscore.Internal_Hbond.Weighted>
0.0000

> <Gold.Chemscore.DEClash.Weighted>
0.0868

> <Gold.Chemscore.DEInternal.Weighted>
0.6178

> <Gold.Chemscore.Rot.Weighted>
4.1934

> <Gold.Chemscore.Internal.Correction.Weighted>
   9.000000E+99

> <Gold.Protein.RotatedTorsions>
[ 6907 6896 6895 6894 ] final  -35.09 input  -60.11 | X-H torsion
[ 7974 7965 7964 7962 ] final  173.23 input  175.53 | X-H torsion
[ 8008 7997 7996 7995 ] final    7.19 input   59.86 | X-H torsion
[ 10167 10162 10161 10158 ] final -158.62 input  -65.29 | X-H torsion
[ 10718 10713 10712 10709 ] final  149.33 input   66.30 | X-H torsion
[ 10763 10752 10751 10750 ] final   32.95 input  -60.55 | X-H torsion
[ 11005 11000 10999 10996 ] final   61.68 input  -57.11 | X-H torsion

> <Gold.Protein.ActiveResidues>
 VAL166  LYS551  ARG553  GLY616  TRP617  ASP618  TYR619  PRO620  LYS621  CYS622 
 ASP623  PHE694  ASN695  SER759  ASP760  ASP761  ALA762  ILE779  LEU786  VAL792 
 PHE793  MET794  SER795  GLU796  ALA797  LYS798  CYS799  TRP800  GLU811  SER814 

> <Gold.Protein.RotatedAtoms>
  151.0442  134.9628  159.8177 H   0  0  0  0  0  0  0  0  0  0  0  0  # atno 6907 bound_to 6896
  152.5369  134.2619  159.8948 H   0  0  0  0  0  0  0  0  0  0  0  0  # atno 6908 bound_to 6896
  151.2632  133.4249  159.2651 H   0  0  0  0  0  0  0  0  0  0  0  0  # atno 6909 bound_to 6896
  144.7248  139.9617  143.6435 H   0  0  0  0  0  0  0  0  0  0  0  0  # atno 7974 bound_to 7965
  154.7507  140.2766  155.6295 H   0  0  0  0  0  0  0  0  0  0  0  0  # atno 8008 bound_to 7997
  156.2895  140.2679  156.2186 H   0  0  0  0  0  0  0  0  0  0  0  0  # atno 8009 bound_to 7997
  155.0140  140.0372  157.2401 H   0  0  0  0  0  0  0  0  0  0  0  0  # atno 8010 bound_to 7997
  139.6678  143.9799  152.2265 H   0  0  0  0  0  0  0  0  0  0  0  0  # atno 10167 bound_to 10162
  157.2975  131.0864  151.1415 H   0  0  0  0  0  0  0  0  0  0  0  0  # atno 10718 bound_to 10713
  153.0236  135.6400  154.1435 H   0  0  0  0  0  0  0  0  0  0  0  0  # atno 10763 bound_to 10752
  154.1166  135.2849  155.3220 H   0  0  0  0  0  0  0  0  0  0  0  0  # atno 10764 bound_to 10752
  154.6293  135.5498  153.7725 H   0  0  0  0  0  0  0  0  0  0  0  0  # atno 10765 bound_to 10752
  140.0144  134.6247  155.9732 H   0  0  0  0  0  0  0  0  0  0  0  0  # atno 11005 bound_to 11000
  146.0632  139.3624  143.0568 LP  0  0  0  0  0  0  0  0  0  0  0  0  # atno 17320 bound_to 7965
  145.8065  140.9746  143.0971 LP  0  0  0  0  0  0  0  0  0  0  0  0  # atno 17321 bound_to 7965
  139.9555  144.6592  150.8130 LP  0  0  0  0  0  0  0  0  0  0  0  0  # atno 17342 bound_to 10162
  140.7606  143.3155  151.2743 LP  0  0  0  0  0  0  0  0  0  0  0  0  # atno 17343 bound_to 10162
  157.2787  130.6739  149.6055 LP  0  0  0  0  0  0  0  0  0  0  0  0  # atno 17370 bound_to 10713
  155.9670  130.4456  150.5509 LP  0  0  0  0  0  0  0  0  0  0  0  0  # atno 17371 bound_to 10713
  141.1733  133.6538  156.4732 LP  0  0  0  0  0  0  0  0  0  0  0  0  # atno 17394 bound_to 11000
  140.4497  134.6940  157.5033 LP  0  0  0  0  0  0  0  0  0  0  0  0  # atno 17395 bound_to 11000

$$$$
