AV-unprocessed.smi:2975|AV-procd|sdf|11356|dock1
  -GOLD-   2272016273D 1   1.00000     0.00000
 Structure written by MMmdl.
 39 41  0  0  0  0  0  0  0  0  1 V2000
  150.9964  136.3317  155.3229 C   0  0  0  0  0  0  0  0  0  0  0  0
  151.5284  137.6702  154.7911 C   0  0  1  0  0  0  0  0  0  0  0  0
  152.2675  137.4240  153.6131 O   0  0  0  0  0  0  0  0  0  0  0  0
  150.4217  138.6618  154.5585 C   0  0  0  0  0  0  0  0  0  0  0  0
  149.3598  138.3446  153.8134 N   0  0  0  0  0  0  0  0  0  0  0  0
  148.5963  139.4924  153.8579 C   0  0  0  0  0  0  0  0  0  0  0  0
  147.3426  139.7840  153.2744 C   0  0  0  0  0  0  0  0  0  0  0  0
  146.7452  141.0475  153.4613 C   0  0  0  0  0  0  0  0  0  0  0  0
  147.3918  142.0351  154.2321 C   0  0  0  0  0  0  0  0  0  0  0  0
  148.6423  141.7649  154.8204 C   0  0  0  0  0  0  0  0  0  0  0  0
  149.2347  140.5014  154.6311 C   0  0  0  0  0  0  0  0  0  0  0  0
  150.4292  139.9273  155.0580 N   0  0  0  0  0  0  0  0  0  0  0  0
  151.4386  140.5995  155.8664 C   0  0  0  0  0  0  0  0  0  0  0  0
  150.8258  141.4114  157.0162 C   0  0  0  0  0  0  0  0  0  0  0  0
  151.7901  141.6067  158.0417 O   0  0  0  0  0  0  0  0  0  0  0  0
  151.7369  142.7763  158.7709 C   0  0  0  0  0  0  0  0  0  0  0  0
  151.0778  143.9541  158.3338 C   0  0  0  0  0  0  0  0  0  0  0  0
  151.0622  145.1066  159.1433 C   0  0  0  0  0  0  0  0  0  0  0  0
  151.7047  145.1002  160.3946 C   0  0  0  0  0  0  0  0  0  0  0  0
  152.3636  143.9383  160.8360 C   0  0  0  0  0  0  0  0  0  0  0  0
  152.3792  142.7848  160.0281 C   0  0  0  0  0  0  0  0  0  0  0  0
  153.0266  141.6781  160.4637 F   0  0  0  0  0  0  0  0  0  0  0  0
  150.4273  136.4749  156.2414 H   0  0  0  0  0  0  0  0  0  0  0  0
  151.8129  135.6432  155.5424 H   0  0  0  0  0  0  0  0  0  0  0  0
  150.3379  135.8468  154.6015 H   0  0  0  0  0  0  0  0  0  0  0  0
  152.2336  138.0580  155.5224 H   0  0  0  0  0  0  0  0  0  0  0  0
  151.6713  137.1076  152.9516 H   0  0  0  0  0  0  0  0  0  0  0  0
  146.8396  139.0335  152.6829 H   0  0  0  0  0  0  0  0  0  0  0  0
  145.7864  141.2597  153.0113 H   0  0  0  0  0  0  0  0  0  0  0  0
  146.9274  143.0004  154.3711 H   0  0  0  0  0  0  0  0  0  0  0  0
  149.1391  142.5200  155.4111 H   0  0  0  0  0  0  0  0  0  0  0  0
  152.1691  139.8798  156.2335 H   0  0  0  0  0  0  0  0  0  0  0  0
  151.9978  141.2711  155.2144 H   0  0  0  0  0  0  0  0  0  0  0  0
  150.4964  142.3792  156.6352 H   0  0  0  0  0  0  0  0  0  0  0  0
  149.9506  140.8877  157.4041 H   0  0  0  0  0  0  0  0  0  0  0  0
  150.5717  143.9994  157.3819 H   0  0  0  0  0  0  0  0  0  0  0  0
  150.5545  145.9973  158.8031 H   0  0  0  0  0  0  0  0  0  0  0  0
  151.6924  145.9847  161.0145 H   0  0  0  0  0  0  0  0  0  0  0  0
  152.8596  143.9312  161.7954 H   0  0  0  0  0  0  0  0  0  0  0  0
  1  2  1  0  0  0  0
  1 23  1  0  0  0  0
  1 24  1  0  0  0  0
  1 25  1  0  0  0  0
  2  3  1  0  0  0  0
  2  4  1  0  0  0  0
  2 26  1  0  0  0  0
  3 27  1  0  0  0  0
  4 12  1  0  0  0  0
  4  5  2  0  0  0  0
  5  6  1  0  0  0  0
  6 11  2  0  0  0  0
  6  7  1  0  0  0  0
  7  8  2  0  0  0  0
  7 28  1  0  0  0  0
  8  9  1  0  0  0  0
  8 29  1  0  0  0  0
  9 10  2  0  0  0  0
  9 30  1  0  0  0  0
 10 11  1  0  0  0  0
 10 31  1  0  0  0  0
 11 12  1  0  0  0  0
 12 13  1  0  0  0  0
 13 14  1  0  0  0  0
 13 32  1  0  0  0  0
 13 33  1  0  0  0  0
 14 15  1  0  0  0  0
 14 34  1  0  0  0  0
 14 35  1  0  0  0  0
 15 16  1  0  0  0  0
 16 21  1  0  0  0  0
 16 17  2  0  0  0  0
 17 18  1  0  0  0  0
 17 36  1  0  0  0  0
 18 19  2  0  0  0  0
 18 37  1  0  0  0  0
 19 20  1  0  0  0  0
 19 38  1  0  0  0  0
 20 21  2  0  0  0  0
 20 39  1  0  0  0  0
 21 22  1  0  0  0  0
M  END
> <s_m_source_file>
AV-unprocessed.smi

> <i_m_source_file_index>
2975

> <i_lp_mmshare_version>
43012

> <i_f3d_flags>
0

> <s_epik_input>
W2NIXTFbY0hdW2NIXVtjSF1jKGMxMiluKGMobjIpW0NASF0oW0NIM10pW09IXSlbQ0gyXVtDSDJdT2MzW2NIXVtjSF1bY0hdW2NIXWMzRg==

> <s_epik_cmdline>
J2VwaWtfcHl0aG9uJywgJy1waCcsICc3LjAnLCAnLXRuJywgJzgnLCAnLW1hJywgJzIwMCcsICctbWV0YWxfYmluZGluZycsICctaW1hZScsICc8aW5maWxlLm1hZT4nLCAnLW9tYWUnLCAnPG91dGZpbGUubWFlPic=

> <r_lp_tautomer_probability>
1

> <r_epik_Ionization_Penalty>
0.0404035

> <r_epik_Ionization_Penalty_Charging>
0

> <r_epik_Ionization_Penalty_Neutral>
0.0404035

> <r_epik_State_Penalty>
0.0340039

> <r_epik_Charging_Adjusted_Penalty>
0.0340039

> <i_epik_Tot_Q>
0

> <i_epik_Tot_abs_Q>
0

> <r_epik_Metal_State_Penalty>
3.49976e-05

> <b_epik_Metal_Only>
0

> <s_lp_Force_Field>
OPLS_2005

> <r_lp_Energy>
14.7518

> <b_lp_Chiralities_Consistent>
1

> <s_lp_Variant>
AV-unprocessed.smi:2975-2

> <Gold.Version>
5.8.1

> <Gold.Id.Protein>
6NUR|6NUR_protein|mol2

> <Gold.PLP.Fitness>
57.9722

> <Gold.PLP.PLP>
-53.9216

> <Gold.PLP.part.hbond>
-2.0000

> <Gold.PLP.part.metal>
0.0000

> <Gold.PLP.part.buried>
-3.5306

> <Gold.PLP.part.nonpolar>
-49.9434

> <Gold.PLP.part.repulsive>
1.6629

> <Gold.PLP.ligand.clash>
0.0000

> <Gold.PLP.ligand.torsion>
0.9846

> <Gold.PLP.Chemscore.Hbond>
1.9840

> <Gold.PLP.Chemscore.CHOScore>
0.0000

> <Gold.PLP.Chemscore.Metal>
0.0000

> <Gold.Chemscore.Hbonds>
donor molecule, donor type, donor heavy atom, donor atom, acceptor molecule, acceptor atom, score
      L1  H     3    27       P1  7949  1.00
      P1  H 10752 10764       L1     3  0.59

> <Gold.PLP.Chemscore.Internal.Correction>
0.0679

> <Gold.Rescore>
     Score         DG    S(hbond)    S(metal)    S(lipo)     H(rot)  DE(clash)    DE(int)     intcor
     17.77     -19.92       1.36        0.00     133.03       2.21       1.28       0.88       ----

> <Gold.Chemscore.Fitness>
17.7655

> <Gold.Chemscore.DG>
-19.9245

> <Gold.Chemscore.ZeroCoef>
-5.4800

> <Gold.Chemscore.Hbond>
1.3554

> <Gold.Chemscore.Metal>
0.0000

> <Gold.Chemscore.Lipo>
133.0317

> <Gold.Chemscore.Internal_Hbond>
0.0000

> <Gold.Chemscore.DEClash>
1.2754

> <Gold.Chemscore.DEInternal>
0.8836

> <Gold.Chemscore.Rot>
2.2060

> <Gold.Chemscore.Internal.Correction>
   9.000000E+99

> <Gold.Chemscore.Hbonds>
donor molecule, donor type, donor heavy atom, donor atom, acceptor molecule, acceptor atom, score
      L1  H     3    27       P1  7949  0.95
      P1  H 10752 10764       L1     3  0.02

> <Gold.Chemscore.Hbond.Weighted>
-4.5271

> <Gold.Chemscore.Metal.Weighted>
-0.0000

> <Gold.Chemscore.Lipo.Weighted>
-15.5647

> <Gold.Chemscore.Internal_Hbond.Weighted>
0.0000

> <Gold.Chemscore.DEClash.Weighted>
1.2754

> <Gold.Chemscore.DEInternal.Weighted>
0.8836

> <Gold.Chemscore.Rot.Weighted>
5.6473

> <Gold.Chemscore.Internal.Correction.Weighted>
   9.000000E+99

> <Gold.Protein.RotatedTorsions>
[ 6907 6896 6895 6894 ] final -145.01 input  -60.11 | X-H torsion
[ 7974 7965 7964 7962 ] final  -93.42 input  175.53 | X-H torsion
[ 8008 7997 7996 7995 ] final  132.37 input   59.86 | X-H torsion
[ 10167 10162 10161 10158 ] final -132.04 input  -65.29 | X-H torsion
[ 10718 10713 10712 10709 ] final  -20.35 input   66.30 | X-H torsion
[ 10763 10752 10751 10750 ] final  -83.15 input  -60.55 | X-H torsion
[ 11005 11000 10999 10996 ] final   33.18 input  -57.11 | X-H torsion

> <Gold.Protein.ActiveResidues>
 VAL166  LYS551  ARG553  GLY616  TRP617  ASP618  TYR619  PRO620  LYS621  CYS622 
 ASP623  PHE694  ASN695  SER759  ASP760  ASP761  ALA762  ILE779  LEU786  VAL792 
 PHE793  MET794  SER795  GLU796  ALA797  LYS798  CYS799  TRP800  GLU811  SER814 

> <Gold.Protein.RotatedAtoms>
  151.1218  133.5098  159.2601 H   0  0  0  0  0  0  0  0  0  0  0  0  # atno 6907 bound_to 6896
  151.1853  135.0378  159.8819 H   0  0  0  0  0  0  0  0  0  0  0  0  # atno 6908 bound_to 6896
  152.5456  134.1065  159.8394 H   0  0  0  0  0  0  0  0  0  0  0  0  # atno 6909 bound_to 6896
  145.3867  140.9524  143.2363 H   0  0  0  0  0  0  0  0  0  0  0  0  # atno 7974 bound_to 7965
  156.2981  140.2548  156.3078 H   0  0  0  0  0  0  0  0  0  0  0  0  # atno 8008 bound_to 7997
  154.9355  140.0397  157.2089 H   0  0  0  0  0  0  0  0  0  0  0  0  # atno 8009 bound_to 7997
  154.8176  140.2855  155.5813 H   0  0  0  0  0  0  0  0  0  0  0  0  # atno 8010 bound_to 7997
  139.9126  143.6476  152.2572 H   0  0  0  0  0  0  0  0  0  0  0  0  # atno 10167 bound_to 10162
  156.5331  130.4660  149.6537 H   0  0  0  0  0  0  0  0  0  0  0  0  # atno 10718 bound_to 10713
  154.5843  135.5566  153.7215 H   0  0  0  0  0  0  0  0  0  0  0  0  # atno 10763 bound_to 10752
  153.0093  135.6327  154.1939 H   0  0  0  0  0  0  0  0  0  0  0  0  # atno 10764 bound_to 10752
  154.1880  135.2884  155.3011 H   0  0  0  0  0  0  0  0  0  0  0  0  # atno 10765 bound_to 10752
  140.2658  134.3139  155.7843 H   0  0  0  0  0  0  0  0  0  0  0  0  # atno 11005 bound_to 11000
  144.8469  139.5383  143.6874 LP  0  0  0  0  0  0  0  0  0  0  0  0  # atno 17320 bound_to 7965
  146.2817  139.6894  142.9224 LP  0  0  0  0  0  0  0  0  0  0  0  0  # atno 17321 bound_to 7965
  139.6929  144.7645  151.1406 LP  0  0  0  0  0  0  0  0  0  0  0  0  # atno 17342 bound_to 10162
  140.7681  143.5564  150.9148 LP  0  0  0  0  0  0  0  0  0  0  0  0  # atno 17343 bound_to 10162
  156.3041  130.7193  151.2071 LP  0  0  0  0  0  0  0  0  0  0  0  0  # atno 17370 bound_to 10713
  157.7418  131.0498  150.5068 LP  0  0  0  0  0  0  0  0  0  0  0  0  # atno 17371 bound_to 10713
  141.2184  133.7437  156.9258 LP  0  0  0  0  0  0  0  0  0  0  0  0  # atno 17394 bound_to 11000
  140.1421  134.9287  157.2480 LP  0  0  0  0  0  0  0  0  0  0  0  0  # atno 17395 bound_to 11000

$$$$
