#       Name:                AV-unprocessed.smi:399
#       Creating user name   scv26
#       Creation time:       Thu Mar 26 22:43:30 2020


#       File generated by GOLD software.
#

@<TRIPOS>MOLECULE
AV-unprocessed.smi:399
    55    56     1
SMALL
NO_CHARGES


@<TRIPOS>ATOM
      1 ****        -2.9359  -0.9379   0.5315 C.3            1 S1                 0.0000
      2 ****        -2.2436  -0.3714  -0.7350 C.3            1 S1                 0.0000
      3 ****        -2.6617   1.1207  -0.7977 C.3            1 S1                 0.0000
      4 ****        -0.6986  -0.4549  -0.5476 C.3            1 S1                 0.0000
      5 ****        -0.2294   0.2484   0.6426 N.am           1 S1                 0.0000
      6 ****         1.0588   0.4782   0.9314 C.2            1 S1                 0.0000
      7 ****         1.9855   0.1157   0.2050 O.2            1 S1                 0.0000
      8 ****         1.3276   1.2494   2.2317 C.3            1 S1                 0.0000
      9 ****         2.7376   1.2079   2.6555 N.am           1 S1                 0.0000
     10 ****         3.5525   2.2914   2.2725 C.2            1 S1                 0.0000
     11 ****         4.8587   2.3550   2.5976 C.2            1 S1                 0.0000
     12 ****         5.6824   3.4719   2.1897 N.pl3          1 S1                 1.0000
     13 ****         6.8709   3.4684   2.4937 O.2            1 S1                 0.0000
     14 ****         5.1703   4.3887   1.5540 O.2            1 S1                -1.0000
     15 ****         5.4154   1.2604   3.3686 C.2            1 S1                 0.0000
     16 ****         4.6424   0.2188   3.7340 C.2            1 S1                 0.0000
     17 ****         3.2225   0.1491   3.3739 C.2            1 S1                 0.0000
     18 ****         2.5126  -0.8032   3.6981 O.2            1 S1                 0.0000
     19 ****        -2.7167  -1.0927  -1.9487 N.3            1 S1                 0.0000
     20 ****        -2.2251  -0.5532  -3.2227 C.3            1 S1                 0.0000
     21 ****        -2.8539  -1.2636  -4.4337 C.3            1 S1                 0.0000
     22 ****        -2.6014  -2.6610  -4.3535 O.3            1 S1                 0.0000
     23 ****        -3.1160  -3.2372  -3.1592 C.3            1 S1                 0.0000
     24 ****        -2.4902  -2.5433  -1.9371 C.3            1 S1                 0.0000
     25 ****        -2.7714  -0.3092   1.4071 H              1 S1                 0.0000
     26 ****        -2.5654  -1.9284   0.7954 H              1 S1                 0.0000
     27 ****        -4.0153  -1.0117   0.3924 H              1 S1                 0.0000
     28 ****        -2.5105   1.6310   0.1540 H              1 S1                 0.0000
     29 ****        -3.7179   1.2249  -1.0495 H              1 S1                 0.0000
     30 ****        -2.0866   1.6800  -1.5355 H              1 S1                 0.0000
     31 ****        -0.3731  -1.4920  -0.4638 H              1 S1                 0.0000
     32 ****        -0.1867  -0.0342  -1.4136 H              1 S1                 0.0000
     33 ****        -0.9328   0.5780   1.2878 H              1 S1                 0.0000
     34 ****         1.0040   2.2814   2.0881 H              1 S1                 0.0000
     35 ****         0.6832   0.8570   3.0207 H              1 S1                 0.0000
     36 ****         3.0454   3.0507   1.6947 H              1 S1                 0.0000
     37 ****         6.4558   1.2671   3.6584 H              1 S1                 0.0000
     38 ****         5.0782  -0.5861   4.3076 H              1 S1                 0.0000
     39 ****        -2.4483   0.5086  -3.3089 H              1 S1                 0.0000
     40 ****        -1.1417  -0.6559  -3.2843 H              1 S1                 0.0000
     41 ****        -3.9291  -1.0816  -4.4733 H              1 S1                 0.0000
     42 ****        -2.4294  -0.8783  -5.3609 H              1 S1                 0.0000
     43 ****        -4.2032  -3.1462  -3.1410 H              1 S1                 0.0000
     44 ****        -2.8836  -4.3021  -3.1497 H              1 S1                 0.0000
     45 ****        -1.4220  -2.7595  -1.9237 H              1 S1                 0.0000
     46 ****        -2.9164  -2.9977  -1.0446 H              1 S1                 0.0000
     47 ****         1.7923  -0.3745  -0.6450 LP             1 S1                 0.0000
     48 ****         2.9310   0.3116   0.4653 LP             1 S1                 0.0000
     49 ****         7.2519   2.7035   3.0132 LP             1 S1                 0.0000
     50 ****         7.4588   4.2304   2.2220 LP             1 S1                 0.0000
     51 ****         1.5477  -0.8196   3.4360 LP             1 S1                 0.0000
     52 ****         2.9010  -1.5603   4.2234 LP             1 S1                 0.0000
     53 ****        -3.7012  -0.9266  -1.8942 LP             1 S1                 0.0000
     54 ****        -1.6131  -2.8110  -4.3826 LP             1 S1                 0.0000
     55 ****        -3.0299  -3.1103  -5.1375 LP             1 S1                 0.0000
@<TRIPOS>BOND
    1    1    2 1     
    2    1   25 1     
    3    1   26 1     
    4    1   27 1     
    5    2    3 1     
    6    2    4 1     
    7    2   19 1     
    8    3   28 1     
    9    3   29 1     
   10    3   30 1     
   11    4    5 1     
   12    4   31 1     
   13    4   32 1     
   14    5    6 am    
   15    5   33 1     
   16    6    7 2     
   17    6    8 1     
   18    8    9 1     
   19    8   34 1     
   20    8   35 1     
   21    9   17 am    
   22    9   10 1     
   23   10   11 2     
   24   10   36 1     
   25   11   12 1     
   26   11   15 1     
   27   12   13 2     
   28   12   14 1     
   29   15   16 2     
   30   15   37 1     
   31   16   17 1     
   32   16   38 1     
   33   17   18 2     
   34   19   24 1     
   35   19   20 1     
   36   20   21 1     
   37   20   39 1     
   38   20   40 1     
   39   21   22 1     
   40   21   41 1     
   41   21   42 1     
   42   22   23 1     
   43   23   24 1     
   44   23   43 1     
   45   23   44 1     
   46   24   45 1     
   47   24   46 1     
   48    7   47 1     
   49    7   48 1     
   50   13   49 1     
   51   13   50 1     
   52   18   51 1     
   53   18   52 1     
   54   19   53 1     
   55   22   54 1     
   56   22   55 1     
@<TRIPOS>SUBSTRUCTURE
      1 S1             1
@<TRIPOS>SET
LONE_PAIRS      STATIC     ATOMS    <user>   **** ""
10 47 48 49 50 14 51 52 53 54 55
DONOR_HYDROGENS      STATIC     ATOMS    <user>   **** ""
1 33
ATOM$BLUE        STATIC     ATOMS    COLORGROUP SYSTEM
10 47 48 49 50 14 51 52 53 54 55
ATOM$RED        STATIC     ATOMS    COLORGROUP SYSTEM
1 33
