AV-unprocessed.smi:1536|AV-procd|sdf|6186|dock6
  -GOLD-   22720 6353D 1   1.00000     0.00000
 Structure written by MMmdl.
 48 49  0  0  0  0  0  0  0  0  2 V2000
  151.8163  144.8545  159.1166 C   0  0  0  0  0  0  0  0  0  0  0  0
  151.2993  143.5922  158.4124 C   0  0  2  0  0  0  0  0  0  0  0  0
  151.5561  143.6405  156.8968 C   0  0  0  0  0  0  0  0  0  0  0  0
  151.0110  142.3820  156.2035 C   0  0  0  0  0  0  0  0  0  0  0  0
  149.5537  142.2202  156.4678 N   0  3  1  0  0  0  0  0  0  0  0  0
  148.8465  141.1741  155.6627 C   0  0  2  0  0  0  0  0  0  0  0  0
  149.8030  140.1571  154.9807 C   0  0  0  0  0  0  0  0  0  0  0  0
  150.5928  139.4205  155.9622 N   0  0  0  0  0  0  0  0  0  0  0  0
  151.9205  139.2268  155.9152 C   0  0  0  0  0  0  0  0  0  0  0  0
  152.6605  139.7553  155.0865 O   0  0  0  0  0  0  0  0  0  0  0  0
  152.4940  138.2441  156.9346 C   0  0  0  0  0  0  0  0  0  0  0  0
  151.5588  137.1583  157.1601 N   0  0  0  0  0  0  0  0  0  0  0  0
  151.0424  136.2577  156.3216 C   0  0  0  0  0  0  0  0  0  0  0  0
  150.1806  135.4595  156.9329 N   0  0  0  0  0  0  0  0  0  0  0  0
  150.1906  135.9242  158.2372 N   0  0  0  0  0  0  0  0  0  0  0  0
  151.0060  136.9324  158.3783 N   0  0  0  0  0  0  0  0  0  0  0  0
  147.7816  141.8121  154.7227 C   0  0  0  0  0  0  0  0  0  0  0  0
  146.5325  142.3509  155.4406 C   0  0  0  0  0  0  0  0  0  0  0  0
  147.3867  140.8634  153.5778 C   0  0  0  0  0  0  0  0  0  0  0  0
  149.2766  142.1281  157.9256 C   0  0  0  0  0  0  0  0  0  0  0  0
  149.7985  143.3715  158.6665 C   0  0  0  0  0  0  0  0  0  0  0  0
  151.3124  145.7492  158.7498 H   0  0  0  0  0  0  0  0  0  0  0  0
  152.8864  144.9848  158.9529 H   0  0  0  0  0  0  0  0  0  0  0  0
  151.6532  144.7983  160.1932 H   0  0  0  0  0  0  0  0  0  0  0  0
  151.8417  142.7387  158.8224 H   0  0  0  0  0  0  0  0  0  0  0  0
  151.0876  144.5268  156.4659 H   0  0  0  0  0  0  0  0  0  0  0  0
  152.6255  143.7309  156.7025 H   0  0  0  0  0  0  0  0  0  0  0  0
  151.2034  142.4543  155.1343 H   0  0  0  0  0  0  0  0  0  0  0  0
  151.5558  141.5085  156.5645 H   0  0  0  0  0  0  0  0  0  0  0  0
  148.2611  140.5758  156.3628 H   0  0  0  0  0  0  0  0  0  0  0  0
  149.2583  139.4656  154.3374 H   0  0  0  0  0  0  0  0  0  0  0  0
  150.5025  140.6874  154.3337 H   0  0  0  0  0  0  0  0  0  0  0  0
  150.0785  138.9467  156.6913 H   0  0  0  0  0  0  0  0  0  0  0  0
  153.4352  137.8298  156.5711 H   0  0  0  0  0  0  0  0  0  0  0  0
  152.7025  138.7502  157.8785 H   0  0  0  0  0  0  0  0  0  0  0  0
  151.2857  136.1964  155.2712 H   0  0  0  0  0  0  0  0  0  0  0  0
  148.2463  142.6683  154.2339 H   0  0  0  0  0  0  0  0  0  0  0  0
  145.9259  141.5449  155.8532 H   0  0  0  0  0  0  0  0  0  0  0  0
  145.8997  142.9056  154.7470 H   0  0  0  0  0  0  0  0  0  0  0  0
  146.7922  143.0304  156.2517 H   0  0  0  0  0  0  0  0  0  0  0  0
  146.8715  139.9765  153.9474 H   0  0  0  0  0  0  0  0  0  0  0  0
  148.2628  140.5325  153.0190 H   0  0  0  0  0  0  0  0  0  0  0  0
  146.7205  141.3600  152.8717 H   0  0  0  0  0  0  0  0  0  0  0  0
  148.2025  142.0489  158.0979 H   0  0  0  0  0  0  0  0  0  0  0  0
  149.7326  141.2227  158.3289 H   0  0  0  0  0  0  0  0  0  0  0  0
  149.6120  143.2659  159.7358 H   0  0  0  0  0  0  0  0  0  0  0  0
  149.2364  144.2483  158.3412 H   0  0  0  0  0  0  0  0  0  0  0  0
  149.1265  143.0896  156.1811 H   0  0  0  0  0  0  0  0  0  0  0  0
  1  2  1  0  0  0  0
  1 22  1  0  0  0  0
  1 23  1  0  0  0  0
  1 24  1  0  0  0  0
  2 21  1  0  0  0  0
  2  3  1  0  0  0  0
  2 25  1  0  0  0  0
  3  4  1  0  0  0  0
  3 26  1  0  0  0  0
  3 27  1  0  0  0  0
  4  5  1  0  0  0  0
  4 28  1  0  0  0  0
  4 29  1  0  0  0  0
  5  6  1  0  0  0  0
  5 20  1  0  0  0  0
  5 48  1  0  0  0  0
  6  7  1  0  0  0  0
  6 17  1  0  0  0  0
  6 30  1  0  0  0  0
  7  8  1  0  0  0  0
  7 31  1  0  0  0  0
  7 32  1  0  0  0  0
  8  9  1  0  0  0  0
  8 33  1  0  0  0  0
  9 10  2  0  0  0  0
  9 11  1  0  0  0  0
 11 12  1  0  0  0  0
 11 34  1  0  0  0  0
 11 35  1  0  0  0  0
 12 16  1  0  0  0  0
 12 13  1  0  0  0  0
 13 14  2  0  0  0  0
 13 36  1  0  0  0  0
 14 15  1  0  0  0  0
 15 16  2  0  0  0  0
 17 18  1  0  0  0  0
 17 19  1  0  0  0  0
 17 37  1  0  0  0  0
 18 38  1  0  0  0  0
 18 39  1  0  0  0  0
 18 40  1  0  0  0  0
 19 41  1  0  0  0  0
 19 42  1  0  0  0  0
 19 43  1  0  0  0  0
 20 21  1  0  0  0  0
 20 44  1  0  0  0  0
 20 45  1  0  0  0  0
 21 46  1  0  0  0  0
 21 47  1  0  0  0  0
M  CHG  1   5   1
M  END
> <s_m_source_file>
AV-unprocessed.smi

> <i_m_source_file_index>
1536

> <i_lp_mmshare_version>
43012

> <i_f3d_flags>
0

> <s_epik_input>
W0NIM11bQ0hdMVtDSDJdW0NIMl1OKFtDSDJdW0NIMl0xKVtDQEBIXShbQ0hdKFtDSDNdKVtDSDNdKVtDSDJdW05IXUMoPU8pW0NIMl1uMltjSF1ubm4y

> <s_epik_cmdline>
J2VwaWtfcHl0aG9uJywgJy1waCcsICc3LjAnLCAnLXRuJywgJzgnLCAnLW1hJywgJzIwMCcsICctbWV0YWxfYmluZGluZycsICctaW1hZScsICc8aW5maWxlLm1hZT4nLCAnLW9tYWUnLCAnPG91dGZpbGUubWFlPic=

> <r_lp_tautomer_probability>
1

> <r_epik_Ionization_Penalty>
0.00109671

> <r_epik_Ionization_Penalty_Charging>
0.00109273

> <r_epik_Ionization_Penalty_Neutral>
3.97951e-06

> <r_epik_State_Penalty>
0.000716588

> <r_epik_Charging_Adjusted_Penalty>
0.00180932

> <i_epik_Tot_Q>
1

> <i_epik_Tot_abs_Q>
1

> <r_epik_Metal_State_Penalty>
-0

> <b_epik_Metal_Only>
0

> <s_lp_Force_Field>
OPLS_2005

> <r_lp_Energy>
28.917

> <b_lp_Chiralities_Consistent>
1

> <s_lp_Variant>
AV-unprocessed.smi:1536-1

> <Gold.Version>
5.8.1

> <Gold.Id.Protein>
6NUR|6NUR_protein|mol2

> <Gold.PLP.Fitness>
41.9952

> <Gold.PLP.PLP>
-33.0950

> <Gold.PLP.part.hbond>
-4.3616

> <Gold.PLP.part.metal>
0.0000

> <Gold.PLP.part.buried>
-4.8462

> <Gold.PLP.part.nonpolar>
-24.5263

> <Gold.PLP.part.repulsive>
0.1174

> <Gold.PLP.ligand.clash>
0.0000

> <Gold.PLP.ligand.torsion>
2.2699

> <Gold.PLP.Chemscore.Hbond>
4.2985

> <Gold.PLP.Chemscore.CHOScore>
0.0000

> <Gold.PLP.Chemscore.Metal>
0.0000

> <Gold.Chemscore.Hbonds>
donor molecule, donor type, donor heavy atom, donor atom, acceptor molecule, acceptor atom, score
      L1  H     5    48       P1  8028  2.00
      P1  H  6896  6907       L1    15  0.91
      P1  H  7989  7998       L1    10  0.37
      P1  H  7997  8010       L1    10  1.00

> <Gold.PLP.Chemscore.Internal.Correction>
0.5446

> <Gold.Rescore>
     Score         DG    S(hbond)    S(metal)    S(lipo)     H(rot)  DE(clash)    DE(int)     intcor
     13.95     -18.21       2.87        0.00      87.41       2.77       0.98       3.27       ----

> <Gold.Chemscore.Fitness>
13.9518

> <Gold.Chemscore.DG>
-18.2075

> <Gold.Chemscore.ZeroCoef>
-5.4800

> <Gold.Chemscore.Hbond>
2.8724

> <Gold.Chemscore.Metal>
0.0000

> <Gold.Chemscore.Lipo>
87.4118

> <Gold.Chemscore.Internal_Hbond>
0.0000

> <Gold.Chemscore.DEClash>
0.9817

> <Gold.Chemscore.DEInternal>
3.2740

> <Gold.Chemscore.Rot>
2.7709

> <Gold.Chemscore.Internal.Correction>
   9.000000E+99

> <Gold.Chemscore.Hbonds>
donor molecule, donor type, donor heavy atom, donor atom, acceptor molecule, acceptor atom, score
      L1  H     5    48       P1  8028  1.00
      P1  H  6896  6907       L1    15  0.22
      P1  H  7989  7998       L1    10  0.35
      P1  H  7997  8010       L1    10  0.78

> <Gold.Chemscore.Hbond.Weighted>
-9.5938

> <Gold.Chemscore.Metal.Weighted>
-0.0000

> <Gold.Chemscore.Lipo.Weighted>
-10.2272

> <Gold.Chemscore.Internal_Hbond.Weighted>
0.0000

> <Gold.Chemscore.DEClash.Weighted>
0.9817

> <Gold.Chemscore.DEInternal.Weighted>
3.2740

> <Gold.Chemscore.Rot.Weighted>
7.0935

> <Gold.Chemscore.Internal.Correction.Weighted>
   9.000000E+99

> <Gold.Protein.RotatedTorsions>
[ 6907 6896 6895 6894 ] final  -54.64 input  -60.11 | X-H torsion
[ 7974 7965 7964 7962 ] final   80.01 input  175.53 | X-H torsion
[ 8008 7997 7996 7995 ] final  106.22 input   59.86 | X-H torsion
[ 10167 10162 10161 10158 ] final   20.55 input  -65.29 | X-H torsion
[ 10718 10713 10712 10709 ] final -146.83 input   66.30 | X-H torsion
[ 10763 10752 10751 10750 ] final    7.26 input  -60.55 | X-H torsion
[ 11005 11000 10999 10996 ] final -138.53 input  -57.11 | X-H torsion

> <Gold.Protein.ActiveResidues>
 VAL166  LYS551  ARG553  GLY616  TRP617  ASP618  TYR619  PRO620  LYS621  CYS622 
 ASP623  PHE694  ASN695  SER759  ASP760  ASP761  ALA762  ILE779  LEU786  VAL792 
 PHE793  MET794  SER795  GLU796  ALA797  LYS798  CYS799  TRP800  GLU811  SER814 

> <Gold.Protein.RotatedAtoms>
  150.8321  134.7578  159.6861 H   0  0  0  0  0  0  0  0  0  0  0  0  # atno 6907 bound_to 6896
  152.4423  134.5562  159.9891 H   0  0  0  0  0  0  0  0  0  0  0  0  # atno 6908 bound_to 6896
  151.5720  133.3351  159.3027 H   0  0  0  0  0  0  0  0  0  0  0  0  # atno 6909 bound_to 6896
  145.6567  139.2461  143.1946 H   0  0  0  0  0  0  0  0  0  0  0  0  # atno 7974 bound_to 7965
  156.1725  140.3116  155.8999 H   0  0  0  0  0  0  0  0  0  0  0  0  # atno 8008 bound_to 7997
  155.3557  140.0473  157.3063 H   0  0  0  0  0  0  0  0  0  0  0  0  # atno 8009 bound_to 7997
  154.5255  140.2213  155.8908 H   0  0  0  0  0  0  0  0  0  0  0  0  # atno 8010 bound_to 7997
  140.5495  143.9535  150.6569 H   0  0  0  0  0  0  0  0  0  0  0  0  # atno 10167 bound_to 10162
  156.3999  130.7928  151.2138 H   0  0  0  0  0  0  0  0  0  0  0  0  # atno 10718 bound_to 10713
  153.2383  135.6900  153.7812 H   0  0  0  0  0  0  0  0  0  0  0  0  # atno 10763 bound_to 10752
  153.6951  135.3306  155.3212 H   0  0  0  0  0  0  0  0  0  0  0  0  # atno 10764 bound_to 10752
  154.8344  135.4554  154.1295 H   0  0  0  0  0  0  0  0  0  0  0  0  # atno 10765 bound_to 10752
  140.8607  134.2172  157.4709 H   0  0  0  0  0  0  0  0  0  0  0  0  # atno 11005 bound_to 11000
  146.1159  140.7370  142.9481 LP  0  0  0  0  0  0  0  0  0  0  0  0  # atno 17320 bound_to 7965
  144.7103  140.4014  143.7085 LP  0  0  0  0  0  0  0  0  0  0  0  0  # atno 17321 bound_to 7965
  140.2957  143.3294  152.1020 LP  0  0  0  0  0  0  0  0  0  0  0  0  # atno 17342 bound_to 10162
  139.5021  144.6728  151.6202 LP  0  0  0  0  0  0  0  0  0  0  0  0  # atno 17343 bound_to 10162
  157.7503  131.0290  150.4073 LP  0  0  0  0  0  0  0  0  0  0  0  0  # atno 17370 bound_to 10713
  156.4351  130.3980  149.6734 LP  0  0  0  0  0  0  0  0  0  0  0  0  # atno 17371 bound_to 10713
  139.8707  134.9728  156.4787 LP  0  0  0  0  0  0  0  0  0  0  0  0  # atno 17394 bound_to 11000
  140.8686  133.8006  155.9340 LP  0  0  0  0  0  0  0  0  0  0  0  0  # atno 17395 bound_to 11000

$$$$
