AV-unprocessed.smi:1357|AV-procd|sdf|5548|dock7
  -GOLD-   22720 5143D 1   1.00000     0.00000
 Structure written by MMmdl.
 43 44  0  0  0  0  0  0  0  0  1 V2000
  150.3740  144.2901  159.0615 C   0  0  0  0  0  0  0  0  0  0  0  0
  151.6339  143.5242  158.6066 C   0  0  0  0  0  0  0  0  0  0  0  0
  152.5065  144.4593  157.7448 C   0  0  0  0  0  0  0  0  0  0  0  0
  152.4371  143.0966  159.8577 C   0  0  0  0  0  0  0  0  0  0  0  0
  151.1943  142.3181  157.7411 C   0  0  0  0  0  0  0  0  0  0  0  0
  151.5284  141.1793  158.0719 O   0  0  0  0  0  0  0  0  0  0  0  0
  150.4577  142.5560  156.6422 N   0  0  0  0  0  0  0  0  0  0  0  0
  150.0084  141.5448  155.6934 C   0  0  0  0  0  0  0  0  0  0  0  0
  148.4980  141.5237  155.5543 C   0  0  0  0  0  0  0  0  0  0  0  0
  147.8917  141.4117  154.2869 C   0  0  0  0  0  0  0  0  0  0  0  0
  146.4857  141.4202  154.2134 C   0  0  0  0  0  0  0  0  0  0  0  0
  145.6880  141.5297  155.2971 N   0  0  0  0  0  0  0  0  0  0  0  0
  146.2710  141.6385  156.5152 C   0  0  0  0  0  0  0  0  0  0  0  0
  145.4456  141.7415  157.6440 N   0  0  0  0  0  0  0  0  0  0  0  0
  145.8885  142.7674  158.5797 C   0  0  0  0  0  0  0  0  0  0  0  0
  144.8685  142.9153  159.7221 C   0  0  0  0  0  0  0  0  0  0  0  0
  144.6690  141.6533  160.3529 O   0  0  0  0  0  0  0  0  0  0  0  0
  144.1655  140.6756  159.4467 C   0  0  0  0  0  0  0  0  0  0  0  0
  145.1710  140.4690  158.3007 C   0  0  0  0  0  0  0  0  0  0  0  0
  147.6710  141.6403  156.6902 C   0  0  0  0  0  0  0  0  0  0  0  0
  150.6365  145.1532  159.6744 H   0  0  0  0  0  0  0  0  0  0  0  0
  149.7151  143.6566  159.6570 H   0  0  0  0  0  0  0  0  0  0  0  0
  149.7956  144.6624  158.2147 H   0  0  0  0  0  0  0  0  0  0  0  0
  151.9722  144.8168  156.8633 H   0  0  0  0  0  0  0  0  0  0  0  0
  153.4106  143.9556  157.4001 H   0  0  0  0  0  0  0  0  0  0  0  0
  152.8189  145.3383  158.3099 H   0  0  0  0  0  0  0  0  0  0  0  0
  152.7295  143.9642  160.4501 H   0  0  0  0  0  0  0  0  0  0  0  0
  153.3546  142.5702  159.5905 H   0  0  0  0  0  0  0  0  0  0  0  0
  151.8535  142.4458  160.5107 H   0  0  0  0  0  0  0  0  0  0  0  0
  150.2184  143.5143  156.4328 H   0  0  0  0  0  0  0  0  0  0  0  0
  150.4709  141.6953  154.7164 H   0  0  0  0  0  0  0  0  0  0  0  0
  150.3494  140.5702  156.0441 H   0  0  0  0  0  0  0  0  0  0  0  0
  148.4882  141.3282  153.3902 H   0  0  0  0  0  0  0  0  0  0  0  0
  145.9883  141.3387  153.2585 H   0  0  0  0  0  0  0  0  0  0  0  0
  146.8639  142.4966  158.9869 H   0  0  0  0  0  0  0  0  0  0  0  0
  146.0083  143.7181  158.0588 H   0  0  0  0  0  0  0  0  0  0  0  0
  145.2332  143.6284  160.4611 H   0  0  0  0  0  0  0  0  0  0  0  0
  143.9184  143.3008  159.3486 H   0  0  0  0  0  0  0  0  0  0  0  0
  144.0096  139.7400  159.9838 H   0  0  0  0  0  0  0  0  0  0  0  0
  143.1935  140.9883  159.0613 H   0  0  0  0  0  0  0  0  0  0  0  0
  144.7726  139.7582  157.5757 H   0  0  0  0  0  0  0  0  0  0  0  0
  146.0962  140.0460  158.6949 H   0  0  0  0  0  0  0  0  0  0  0  0
  148.1020  141.7317  157.6768 H   0  0  0  0  0  0  0  0  0  0  0  0
  1  2  1  0  0  0  0
  1 21  1  0  0  0  0
  1 22  1  0  0  0  0
  1 23  1  0  0  0  0
  2  3  1  0  0  0  0
  2  4  1  0  0  0  0
  2  5  1  0  0  0  0
  3 24  1  0  0  0  0
  3 25  1  0  0  0  0
  3 26  1  0  0  0  0
  4 27  1  0  0  0  0
  4 28  1  0  0  0  0
  4 29  1  0  0  0  0
  5  6  2  0  0  0  0
  5  7  1  0  0  0  0
  7  8  1  0  0  0  0
  7 30  1  0  0  0  0
  8  9  1  0  0  0  0
  8 31  1  0  0  0  0
  8 32  1  0  0  0  0
  9 20  1  0  0  0  0
  9 10  2  0  0  0  0
 10 11  1  0  0  0  0
 10 33  1  0  0  0  0
 11 12  2  0  0  0  0
 11 34  1  0  0  0  0
 12 13  1  0  0  0  0
 13 14  1  0  0  0  0
 13 20  2  0  0  0  0
 14 19  1  0  0  0  0
 14 15  1  0  0  0  0
 15 16  1  0  0  0  0
 15 35  1  0  0  0  0
 15 36  1  0  0  0  0
 16 17  1  0  0  0  0
 16 37  1  0  0  0  0
 16 38  1  0  0  0  0
 17 18  1  0  0  0  0
 18 19  1  0  0  0  0
 18 39  1  0  0  0  0
 18 40  1  0  0  0  0
 19 41  1  0  0  0  0
 19 42  1  0  0  0  0
 20 43  1  0  0  0  0
M  END
> <s_m_source_file>
AV-unprocessed.smi

> <i_m_source_file_index>
1357

> <i_lp_mmshare_version>
43012

> <i_f3d_flags>
0

> <s_epik_input>
W0NIM11DKFtDSDNdKShbQ0gzXSlDKD1PKVtOSF1bQ0gyXWMxW2NIXVtjSF1uYyhbY0hdMSlOMltDSDJdW0NIMl1PW0NIMl1bQ0gyXTI=

> <s_epik_cmdline>
J2VwaWtfcHl0aG9uJywgJy1waCcsICc3LjAnLCAnLXRuJywgJzgnLCAnLW1hJywgJzIwMCcsICctbWV0YWxfYmluZGluZycsICctaW1hZScsICc8aW5maWxlLm1hZT4nLCAnLW9tYWUnLCAnPG91dGZpbGUubWFlPic=

> <r_lp_tautomer_probability>
1

> <r_epik_Ionization_Penalty>
0.00576178

> <r_epik_Ionization_Penalty_Charging>
0

> <r_epik_Ionization_Penalty_Neutral>
0.00576178

> <r_epik_State_Penalty>
0.00422935

> <r_epik_Charging_Adjusted_Penalty>
0.00422935

> <i_epik_Tot_Q>
0

> <i_epik_Tot_abs_Q>
0

> <r_epik_Metal_State_Penalty>
-0

> <b_epik_Metal_Only>
0

> <s_lp_Force_Field>
OPLS_2005

> <r_lp_Energy>
22.6538

> <b_lp_Chiralities_Consistent>
1

> <s_lp_Variant>
AV-unprocessed.smi:1357-1

> <Gold.Version>
5.8.1

> <Gold.Id.Protein>
6NUR|6NUR_protein|mol2

> <Gold.PLP.Fitness>
38.5415

> <Gold.PLP.PLP>
-32.0402

> <Gold.PLP.part.hbond>
-2.0000

> <Gold.PLP.part.metal>
0.0000

> <Gold.PLP.part.buried>
-6.1704

> <Gold.PLP.part.nonpolar>
-25.3613

> <Gold.PLP.part.repulsive>
0.1763

> <Gold.PLP.ligand.clash>
0.0000

> <Gold.PLP.ligand.torsion>
0.7972

> <Gold.PLP.Chemscore.Hbond>
1.7371

> <Gold.PLP.Chemscore.CHOScore>
0.9252

> <Gold.PLP.Chemscore.Metal>
0.0000

> <Gold.Chemscore.Hbonds>
donor molecule, donor type, donor heavy atom, donor atom, acceptor molecule, acceptor atom, score
      L1  H     7    30       P1  8028  0.94
      P1  H  6934  6946       L1    17  0.11
      L1  C    11    34       P1 10175  0.84

> <Gold.PLP.Chemscore.Internal.Correction>
0.1088

> <Gold.Rescore>
     Score         DG    S(hbond)    S(metal)    S(lipo)     H(rot)  DE(clash)    DE(int)     intcor
     13.95     -14.59       1.05        0.00      81.23       1.52       0.10       0.54       ----

> <Gold.Chemscore.Fitness>
13.9509

> <Gold.Chemscore.DG>
-14.5910

> <Gold.Chemscore.ZeroCoef>
-5.4800

> <Gold.Chemscore.Hbond>
1.0453

> <Gold.Chemscore.Metal>
0.0000

> <Gold.Chemscore.Lipo>
81.2301

> <Gold.Chemscore.Internal_Hbond>
0.0000

> <Gold.Chemscore.DEClash>
0.1020

> <Gold.Chemscore.DEInternal>
0.5381

> <Gold.Chemscore.Rot>
1.5173

> <Gold.Chemscore.Internal.Correction>
   9.000000E+99

> <Gold.Chemscore.Hbonds>
donor molecule, donor type, donor heavy atom, donor atom, acceptor molecule, acceptor atom, score
      L1  H     7    30       P1  8028  0.90
      P1  H  6934  6946       L1    17  0.02

> <Gold.Chemscore.Hbond.Weighted>
-3.4914

> <Gold.Chemscore.Metal.Weighted>
-0.0000

> <Gold.Chemscore.Lipo.Weighted>
-9.5039

> <Gold.Chemscore.Internal_Hbond.Weighted>
0.0000

> <Gold.Chemscore.DEClash.Weighted>
0.1020

> <Gold.Chemscore.DEInternal.Weighted>
0.5381

> <Gold.Chemscore.Rot.Weighted>
3.8843

> <Gold.Chemscore.Internal.Correction.Weighted>
   9.000000E+99

> <Gold.Protein.RotatedTorsions>
[ 6907 6896 6895 6894 ] final  -21.58 input  -60.11 | X-H torsion
[ 7974 7965 7964 7962 ] final   13.59 input  175.53 | X-H torsion
[ 8008 7997 7996 7995 ] final   29.99 input   59.86 | X-H torsion
[ 10167 10162 10161 10158 ] final   82.24 input  -65.29 | X-H torsion
[ 10718 10713 10712 10709 ] final   57.83 input   66.30 | X-H torsion
[ 10763 10752 10751 10750 ] final  170.89 input  -60.55 | X-H torsion
[ 11005 11000 10999 10996 ] final   86.76 input  -57.11 | X-H torsion

> <Gold.Protein.ActiveResidues>
 VAL166  LYS551  ARG553  GLY616  TRP617  ASP618  TYR619  PRO620  LYS621  CYS622 
 ASP623  PHE694  ASN695  SER759  ASP760  ASP761  ALA762  ILE779  LEU786  VAL792 
 PHE793  MET794  SER795  GLU796  ALA797  LYS798  CYS799  TRP800  GLU811  SER814 

> <Gold.Protein.RotatedAtoms>
  151.2313  135.0555  159.8988 H   0  0  0  0  0  0  0  0  0  0  0  0  # atno 6907 bound_to 6896
  152.5404  134.0534  159.8130 H   0  0  0  0  0  0  0  0  0  0  0  0  # atno 6908 bound_to 6896
  151.0714  133.5414  159.2658 H   0  0  0  0  0  0  0  0  0  0  0  0  # atno 6909 bound_to 6896
  146.2325  139.9165  142.8516 H   0  0  0  0  0  0  0  0  0  0  0  0  # atno 7974 bound_to 7965
  155.0833  140.3212  155.4595 H   0  0  0  0  0  0  0  0  0  0  0  0  # atno 8008 bound_to 7997
  156.2761  140.2091  156.5907 H   0  0  0  0  0  0  0  0  0  0  0  0  # atno 8009 bound_to 7997
  154.6961  140.0511  157.0399 H   0  0  0  0  0  0  0  0  0  0  0  0  # atno 8010 bound_to 7997
  139.9309  144.6152  150.8346 H   0  0  0  0  0  0  0  0  0  0  0  0  # atno 10167 bound_to 10162
  157.5547  130.8791  149.9017 H   0  0  0  0  0  0  0  0  0  0  0  0  # atno 10718 bound_to 10713
  154.4041  135.2755  155.2078 H   0  0  0  0  0  0  0  0  0  0  0  0  # atno 10763 bound_to 10752
  154.4091  135.6026  153.5946 H   0  0  0  0  0  0  0  0  0  0  0  0  # atno 10764 bound_to 10752
  152.9831  135.5945  154.4313 H   0  0  0  0  0  0  0  0  0  0  0  0  # atno 10765 bound_to 10752
  139.8936  134.8377  156.2765 H   0  0  0  0  0  0  0  0  0  0  0  0  # atno 11005 bound_to 11000
  145.2178  140.9922  143.4063 LP  0  0  0  0  0  0  0  0  0  0  0  0  # atno 17320 bound_to 7965
  144.9636  139.3954  143.6343 LP  0  0  0  0  0  0  0  0  0  0  0  0  # atno 17321 bound_to 7965
  140.7637  143.3231  151.2577 LP  0  0  0  0  0  0  0  0  0  0  0  0  # atno 17342 bound_to 10162
  139.6783  143.9899  152.2794 LP  0  0  0  0  0  0  0  0  0  0  0  0  # atno 17343 bound_to 10162
  156.0608  130.3700  150.0987 LP  0  0  0  0  0  0  0  0  0  0  0  0  # atno 17370 bound_to 10713
  156.9157  130.9666  151.3556 LP  0  0  0  0  0  0  0  0  0  0  0  0  # atno 17371 bound_to 10713
  141.0067  133.7120  156.1045 LP  0  0  0  0  0  0  0  0  0  0  0  0  # atno 17394 bound_to 11000
  140.7424  134.4135  157.5553 LP  0  0  0  0  0  0  0  0  0  0  0  0  # atno 17395 bound_to 11000

$$$$
