AV-unprocessed.smi:1854|AV-procd|sdf|7529|dock6
  -GOLD-   22720 9243D 1   1.00000     0.00000
 Structure written by MMmdl.
 39 41  0  0  0  0  0  0  0  0  1 V2000
  153.7506  137.8917  158.0350 O   0  0  0  0  0  0  0  0  0  0  0  0
  152.5775  137.5410  157.9195 C   0  0  0  0  0  0  0  0  0  0  0  0
  151.7040  138.0811  157.0578 N   0  0  0  0  0  0  0  0  0  0  0  0
  152.0023  139.1692  156.1320 C   0  0  0  0  0  0  0  0  0  0  0  0
  150.7319  139.6137  155.4675 C   0  0  0  0  0  0  0  0  0  0  0  0
  150.0274  138.8033  154.6765 N   0  0  0  0  0  0  0  0  0  0  0  0
  148.9625  139.5971  154.2979 C   0  0  0  0  0  0  0  0  0  0  0  0
  147.8591  139.3159  153.4608 C   0  0  0  0  0  0  0  0  0  0  0  0
  146.8762  140.2987  153.2216 C   0  0  0  0  0  0  0  0  0  0  0  0
  146.9824  141.5737  153.8141 C   0  0  0  0  0  0  0  0  0  0  0  0
  148.0749  141.8751  154.6498 C   0  0  0  0  0  0  0  0  0  0  0  0
  149.0536  140.8910  154.8845 C   0  0  0  0  0  0  0  0  0  0  0  0
  150.2231  140.8604  155.6365 N   0  0  0  0  0  0  0  0  0  0  0  0
  150.7556  141.9509  156.4377 C   0  0  0  0  0  0  0  0  0  0  0  0
  150.2896  141.8559  157.8951 C   0  0  0  0  0  0  0  0  0  0  0  0
  151.1958  142.5880  158.7072 O   0  0  0  0  0  0  0  0  0  0  0  0
  152.1487  141.8905  159.4205 C   0  0  0  0  0  0  0  0  0  0  0  0
  152.4309  140.5138  159.2258 C   0  0  0  0  0  0  0  0  0  0  0  0
  153.4211  139.8710  159.9937 C   0  0  0  0  0  0  0  0  0  0  0  0
  154.1412  140.5910  160.9638 C   0  0  0  0  0  0  0  0  0  0  0  0
  153.8688  141.9562  161.1661 C   0  0  0  0  0  0  0  0  0  0  0  0
  152.8787  142.6018  160.3993 C   0  0  0  0  0  0  0  0  0  0  0  0
  152.5661  144.2794  160.6676 Cl  0  0  0  0  0  0  0  0  0  0  0  0
  152.1030  136.7411  158.5085 H   0  0  0  0  0  0  0  0  0  0  0  0
  150.7620  137.7176  157.0467 H   0  0  0  0  0  0  0  0  0  0  0  0
  152.4653  140.0111  156.6499 H   0  0  0  0  0  0  0  0  0  0  0  0
  152.7186  138.8288  155.3844 H   0  0  0  0  0  0  0  0  0  0  0  0
  147.7683  138.3419  153.0031 H   0  0  0  0  0  0  0  0  0  0  0  0
  146.0361  140.0730  152.5811 H   0  0  0  0  0  0  0  0  0  0  0  0
  146.2248  142.3205  153.6266 H   0  0  0  0  0  0  0  0  0  0  0  0
  148.1591  142.8504  155.1056 H   0  0  0  0  0  0  0  0  0  0  0  0
  151.8439  141.9473  156.3814 H   0  0  0  0  0  0  0  0  0  0  0  0
  150.4302  142.8953  156.0007 H   0  0  0  0  0  0  0  0  0  0  0  0
  149.2828  142.2667  157.9868 H   0  0  0  0  0  0  0  0  0  0  0  0
  150.2626  140.8109  158.2083 H   0  0  0  0  0  0  0  0  0  0  0  0
  151.9006  139.9258  158.4925 H   0  0  0  0  0  0  0  0  0  0  0  0
  153.6278  138.8224  159.8375 H   0  0  0  0  0  0  0  0  0  0  0  0
  154.9008  140.0973  161.5519 H   0  0  0  0  0  0  0  0  0  0  0  0
  154.4214  142.5088  161.9117 H   0  0  0  0  0  0  0  0  0  0  0  0
  1  2  2  0  0  0  0
  2  3  1  0  0  0  0
  2 24  1  0  0  0  0
  3  4  1  0  0  0  0
  3 25  1  0  0  0  0
  4  5  1  0  0  0  0
  4 26  1  0  0  0  0
  4 27  1  0  0  0  0
  5 13  1  0  0  0  0
  5  6  2  0  0  0  0
  6  7  1  0  0  0  0
  7 12  2  0  0  0  0
  7  8  1  0  0  0  0
  8  9  2  0  0  0  0
  8 28  1  0  0  0  0
  9 10  1  0  0  0  0
  9 29  1  0  0  0  0
 10 11  2  0  0  0  0
 10 30  1  0  0  0  0
 11 12  1  0  0  0  0
 11 31  1  0  0  0  0
 12 13  1  0  0  0  0
 13 14  1  0  0  0  0
 14 15  1  0  0  0  0
 14 32  1  0  0  0  0
 14 33  1  0  0  0  0
 15 16  1  0  0  0  0
 15 34  1  0  0  0  0
 15 35  1  0  0  0  0
 16 17  1  0  0  0  0
 17 22  1  0  0  0  0
 17 18  2  0  0  0  0
 18 19  1  0  0  0  0
 18 36  1  0  0  0  0
 19 20  2  0  0  0  0
 19 37  1  0  0  0  0
 20 21  1  0  0  0  0
 20 38  1  0  0  0  0
 21 22  2  0  0  0  0
 21 39  1  0  0  0  0
 22 23  1  0  0  0  0
M  END
> <s_m_source_file>
AV-unprocessed.smi

> <i_m_source_file_index>
1854

> <i_lp_mmshare_version>
43012

> <i_f3d_flags>
0

> <s_epik_input>
Tz1bQ0hdW05IXVtDSDJdYyhuMSluKGMoYzEyKVtjSF1bY0hdW2NIXVtjSF0yKVtDSDJdW0NIMl1PYzNbY0hdW2NIXVtjSF1bY0hdYzNDbA==

> <s_epik_cmdline>
J2VwaWtfcHl0aG9uJywgJy1waCcsICc3LjAnLCAnLXRuJywgJzgnLCAnLW1hJywgJzIwMCcsICctbWV0YWxfYmluZGluZycsICctaW1hZScsICc8aW5maWxlLm1hZT4nLCAnLW9tYWUnLCAnPG91dGZpbGUubWFlPic=

> <r_lp_tautomer_probability>
1

> <r_epik_Ionization_Penalty>
0.0546265

> <r_epik_Ionization_Penalty_Charging>
0

> <r_epik_Ionization_Penalty_Neutral>
0.0546265

> <r_epik_State_Penalty>
0.0470049

> <r_epik_Charging_Adjusted_Penalty>
0.0470049

> <i_epik_Tot_Q>
0

> <i_epik_Tot_abs_Q>
0

> <r_epik_Metal_State_Penalty>
0.0430103

> <b_epik_Metal_Only>
0

> <s_lp_Force_Field>
OPLS_2005

> <r_lp_Energy>
13.3616

> <b_lp_Chiralities_Consistent>
1

> <s_lp_Variant>
AV-unprocessed.smi:1854-1

> <Gold.Version>
5.8.1

> <Gold.Id.Protein>
6NUR|6NUR_protein|mol2

> <Gold.PLP.Fitness>
48.0875

> <Gold.PLP.PLP>
-46.8675

> <Gold.PLP.part.hbond>
-1.0000

> <Gold.PLP.part.metal>
0.0000

> <Gold.PLP.part.buried>
1.5666

> <Gold.PLP.part.nonpolar>
-46.7227

> <Gold.PLP.part.repulsive>
0.2783

> <Gold.PLP.ligand.clash>
0.0000

> <Gold.PLP.ligand.torsion>
0.9146

> <Gold.PLP.Chemscore.Hbond>
1.0000

> <Gold.PLP.Chemscore.CHOScore>
0.0000

> <Gold.PLP.Chemscore.Metal>
0.0000

> <Gold.PLP.Chemscore.Internal.Correction>
0.0491

> <Gold.Rescore>
     Score         DG    S(hbond)    S(metal)    S(lipo)     H(rot)  DE(clash)    DE(int)     intcor
     16.42     -17.41       0.97        0.00     127.27       2.42       0.15       0.85       ----

> <Gold.Chemscore.Fitness>
16.4167

> <Gold.Chemscore.DG>
-17.4111

> <Gold.Chemscore.ZeroCoef>
-5.4800

> <Gold.Chemscore.Hbond>
0.9693

> <Gold.Chemscore.Metal>
0.0000

> <Gold.Chemscore.Lipo>
127.2674

> <Gold.Chemscore.Internal_Hbond>
0.0000

> <Gold.Chemscore.DEClash>
0.1467

> <Gold.Chemscore.DEInternal>
0.8477

> <Gold.Chemscore.Rot>
2.4205

> <Gold.Chemscore.Internal.Correction>
   9.000000E+99

> <Gold.Chemscore.Hbonds>
donor molecule, donor type, donor heavy atom, donor atom, acceptor molecule, acceptor atom, score
      P1  H  7997  8010       L1     1  0.02

> <Gold.Chemscore.Hbond.Weighted>
-3.2373

> <Gold.Chemscore.Metal.Weighted>
-0.0000

> <Gold.Chemscore.Lipo.Weighted>
-14.8903

> <Gold.Chemscore.Internal_Hbond.Weighted>
0.0000

> <Gold.Chemscore.DEClash.Weighted>
0.1467

> <Gold.Chemscore.DEInternal.Weighted>
0.8477

> <Gold.Chemscore.Rot.Weighted>
6.1965

> <Gold.Chemscore.Internal.Correction.Weighted>
   9.000000E+99

> <Gold.Protein.RotatedTorsions>
[ 6907 6896 6895 6894 ] final  -10.97 input  -60.11 | X-H torsion
[ 7974 7965 7964 7962 ] final   77.65 input  175.53 | X-H torsion
[ 8008 7997 7996 7995 ] final   22.06 input   59.86 | X-H torsion
[ 10167 10162 10161 10158 ] final  148.92 input  -65.29 | X-H torsion
[ 10718 10713 10712 10709 ] final -134.05 input   66.30 | X-H torsion
[ 10763 10752 10751 10750 ] final   84.85 input  -60.55 | X-H torsion
[ 11005 11000 10999 10996 ] final  169.76 input  -57.11 | X-H torsion

> <Gold.Protein.ActiveResidues>
 VAL166  LYS551  ARG553  GLY616  TRP617  ASP618  TYR619  PRO620  LYS621  CYS622 
 ASP623  PHE694  ASN695  SER759  ASP760  ASP761  ALA762  ILE779  LEU786  VAL792 
 PHE793  MET794  SER795  GLU796  ALA797  LYS798  CYS799  TRP800  GLU811  SER814 

> <Gold.Protein.RotatedAtoms>
  151.3936  135.0960  159.9533 H   0  0  0  0  0  0  0  0  0  0  0  0  # atno 6907 bound_to 6896
  152.5072  133.8956  159.7426 H   0  0  0  0  0  0  0  0  0  0  0  0  # atno 6908 bound_to 6896
  150.9415  133.6595  159.2818 H   0  0  0  0  0  0  0  0  0  0  0  0  # atno 6909 bound_to 6896
  145.6872  139.2541  143.1780 H   0  0  0  0  0  0  0  0  0  0  0  0  # atno 7974 bound_to 7965
  154.9600  140.3077  155.5035 H   0  0  0  0  0  0  0  0  0  0  0  0  # atno 8008 bound_to 7997
  156.2978  140.2303  156.4624 H   0  0  0  0  0  0  0  0  0  0  0  0  # atno 8009 bound_to 7997
  154.7973  140.0436  157.1235 H   0  0  0  0  0  0  0  0  0  0  0  0  # atno 8010 bound_to 7997
  139.4868  144.5642  151.7175 H   0  0  0  0  0  0  0  0  0  0  0  0  # atno 10167 bound_to 10162
  156.2513  130.7155  151.1055 H   0  0  0  0  0  0  0  0  0  0  0  0  # atno 10718 bound_to 10713
  153.1420  135.4639  154.9509 H   0  0  0  0  0  0  0  0  0  0  0  0  # atno 10763 bound_to 10752
  154.7755  135.3172  154.8104 H   0  0  0  0  0  0  0  0  0  0  0  0  # atno 10764 bound_to 10752
  153.8625  135.6911  153.4835 H   0  0  0  0  0  0  0  0  0  0  0  0  # atno 10765 bound_to 10752
  140.3011  134.7594  157.3917 H   0  0  0  0  0  0  0  0  0  0  0  0  # atno 11005 bound_to 11000
  146.0913  140.7652  142.9594 LP  0  0  0  0  0  0  0  0  0  0  0  0  # atno 17320 bound_to 7965
  144.7007  140.3641  143.7158 LP  0  0  0  0  0  0  0  0  0  0  0  0  # atno 17321 bound_to 7965
  140.5217  144.0868  150.6025 LP  0  0  0  0  0  0  0  0  0  0  0  0  # atno 17342 bound_to 10162
  140.3828  143.2793  152.0150 LP  0  0  0  0  0  0  0  0  0  0  0  0  # atno 17343 bound_to 10162
  157.7215  131.0678  150.6113 LP  0  0  0  0  0  0  0  0  0  0  0  0  # atno 17370 bound_to 10713
  156.6194  130.4401  149.5828 LP  0  0  0  0  0  0  0  0  0  0  0  0  # atno 17371 bound_to 10713
  140.1108  134.5348  155.8268 LP  0  0  0  0  0  0  0  0  0  0  0  0  # atno 17394 bound_to 11000
  141.2128  133.6724  156.6686 LP  0  0  0  0  0  0  0  0  0  0  0  0  # atno 17395 bound_to 11000

$$$$
