AV-unprocessed.smi:3235|AV-procd|sdf|12360|dock6
  -GOLD-   2272018223D 1   1.00000     0.00000
 Structure written by MMmdl.
 41 42  0  0  0  0  0  0  0  0  2 V2000
  145.8301  132.2793  151.5760 C   0  0  0  0  0  0  0  0  0  0  0  0
  145.5800  133.7082  151.1882 C   0  0  0  0  0  0  0  0  0  0  0  0
  144.4577  134.2391  150.4911 C   0  0  0  0  0  0  0  0  0  0  0  0
  144.5408  135.5462  150.3028 N   0  0  0  0  0  0  0  0  0  0  0  0
  145.7157  135.8944  150.8685 N   0  0  0  0  0  0  0  0  0  0  0  0
  146.1408  137.2804  150.8463 C   0  0  0  0  0  0  0  0  0  0  0  0
  146.2507  137.8628  152.2628 C   0  0  0  0  0  0  0  0  0  0  0  0
  147.5949  138.4205  152.5069 N   0  3  0  0  0  0  0  0  0  0  0  0
  147.6860  139.2449  153.7274 C   0  0  0  0  0  0  0  0  0  0  0  0
  149.1373  139.6483  154.0167 C   0  0  0  0  0  0  0  0  0  0  0  0
  149.2385  141.0444  154.6544 C   0  0  0  0  0  0  0  0  0  0  0  0
  150.1425  141.0538  155.8017 N   0  0  0  0  0  0  0  0  0  0  0  0
  149.7450  141.6720  157.0554 C   0  0  0  0  0  0  0  0  0  0  0  0
  151.0035  141.6363  157.9346 C   0  0  0  0  0  0  0  0  0  0  0  0
  151.9702  140.6704  157.2404 C   0  0  0  0  0  0  0  0  0  0  0  0
  151.3477  140.4754  155.8683 C   0  0  0  0  0  0  0  0  0  0  0  0
  151.9071  139.8597  154.9621 O   0  0  0  0  0  0  0  0  0  0  0  0
  146.3620  134.8056  151.4147 C   0  0  0  0  0  0  0  0  0  0  0  0
  145.5478  131.5908  150.7793 H   0  0  0  0  0  0  0  0  0  0  0  0
  145.2600  131.9980  152.4613 H   0  0  0  0  0  0  0  0  0  0  0  0
  146.8816  132.0972  151.7987 H   0  0  0  0  0  0  0  0  0  0  0  0
  143.5901  133.7151  150.1177 H   0  0  0  0  0  0  0  0  0  0  0  0
  147.1006  137.3398  150.3306 H   0  0  0  0  0  0  0  0  0  0  0  0
  145.4259  137.8532  150.2539 H   0  0  0  0  0  0  0  0  0  0  0  0
  145.5049  138.6468  152.4026 H   0  0  0  0  0  0  0  0  0  0  0  0
  146.0476  137.0889  153.0045 H   0  0  0  0  0  0  0  0  0  0  0  0
  148.2490  137.6551  152.5880 H   0  0  0  0  0  0  0  0  0  0  0  0
  147.0680  140.1355  153.6066 H   0  0  0  0  0  0  0  0  0  0  0  0
  147.2810  138.6823  154.5698 H   0  0  0  0  0  0  0  0  0  0  0  0
  149.5905  138.9076  154.6770 H   0  0  0  0  0  0  0  0  0  0  0  0
  149.7128  139.6305  153.0903 H   0  0  0  0  0  0  0  0  0  0  0  0
  149.5885  141.7657  153.9146 H   0  0  0  0  0  0  0  0  0  0  0  0
  148.2525  141.3861  154.9732 H   0  0  0  0  0  0  0  0  0  0  0  0
  149.3882  142.6911  156.9007 H   0  0  0  0  0  0  0  0  0  0  0  0
  148.9383  141.0908  157.5045 H   0  0  0  0  0  0  0  0  0  0  0  0
  151.4497  142.6301  157.9910 H   0  0  0  0  0  0  0  0  0  0  0  0
  150.7747  141.3220  158.9535 H   0  0  0  0  0  0  0  0  0  0  0  0
  152.9788  141.0782  157.1669 H   0  0  0  0  0  0  0  0  0  0  0  0
  152.0153  139.7118  157.7579 H   0  0  0  0  0  0  0  0  0  0  0  0
  147.3162  134.8987  151.9121 H   0  0  0  0  0  0  0  0  0  0  0  0
  147.8576  138.9881  151.7139 H   0  0  0  0  0  0  0  0  0  0  0  0
  1  2  1  0  0  0  0
  1 19  1  0  0  0  0
  1 20  1  0  0  0  0
  1 21  1  0  0  0  0
  2 18  2  0  0  0  0
  2  3  1  0  0  0  0
  3  4  2  0  0  0  0
  3 22  1  0  0  0  0
  4  5  1  0  0  0  0
  5  6  1  0  0  0  0
  5 18  1  0  0  0  0
  6  7  1  0  0  0  0
  6 23  1  0  0  0  0
  6 24  1  0  0  0  0
  7  8  1  0  0  0  0
  7 25  1  0  0  0  0
  7 26  1  0  0  0  0
  8  9  1  0  0  0  0
  8 27  1  0  0  0  0
  8 41  1  0  0  0  0
  9 10  1  0  0  0  0
  9 28  1  0  0  0  0
  9 29  1  0  0  0  0
 10 11  1  0  0  0  0
 10 30  1  0  0  0  0
 10 31  1  0  0  0  0
 11 12  1  0  0  0  0
 11 32  1  0  0  0  0
 11 33  1  0  0  0  0
 12 16  1  0  0  0  0
 12 13  1  0  0  0  0
 13 14  1  0  0  0  0
 13 34  1  0  0  0  0
 13 35  1  0  0  0  0
 14 15  1  0  0  0  0
 14 36  1  0  0  0  0
 14 37  1  0  0  0  0
 15 16  1  0  0  0  0
 15 38  1  0  0  0  0
 15 39  1  0  0  0  0
 16 17  2  0  0  0  0
 18 40  1  0  0  0  0
M  CHG  1   8   1
M  END
> <s_m_source_file>
AV-unprocessed.smi

> <i_m_source_file_index>
3235

> <i_lp_mmshare_version>
43012

> <i_f3d_flags>
0

> <s_epik_input>
W0NIM11jMVtjSF1ubihbY0hdMSlbQ0gyXVtDSDJdW05IXVtDSDJdW0NIMl1bQ0gyXU4yW0NIMl1bQ0gyXVtDSDJdQzI9Tw==

> <s_epik_cmdline>
J2VwaWtfcHl0aG9uJywgJy1waCcsICc3LjAnLCAnLXRuJywgJzgnLCAnLW1hJywgJzIwMCcsICctbWV0YWxfYmluZGluZycsICctaW1hZScsICc8aW5maWxlLm1hZT4nLCAnLW9tYWUnLCAnPG91dGZpbGUubWFlPic=

> <r_lp_tautomer_probability>
1

> <r_epik_Ionization_Penalty>
0.00490609

> <r_epik_Ionization_Penalty_Charging>
0.00490019

> <r_epik_Ionization_Penalty_Neutral>
5.89696e-06

> <r_epik_State_Penalty>
-0

> <r_epik_Charging_Adjusted_Penalty>
0.00490019

> <i_epik_Tot_Q>
1

> <i_epik_Tot_abs_Q>
1

> <r_epik_Metal_State_Penalty>
-0

> <b_epik_Metal_Only>
0

> <s_lp_Force_Field>
OPLS_2005

> <r_lp_Energy>
17.6896

> <b_lp_Chiralities_Consistent>
1

> <s_lp_Variant>
AV-unprocessed.smi:3235-1

> <Gold.Version>
5.8.1

> <Gold.Id.Protein>
6NUR|6NUR_protein|mol2

> <Gold.PLP.Fitness>
49.7974

> <Gold.PLP.PLP>
-35.0251

> <Gold.PLP.part.hbond>
-3.0000

> <Gold.PLP.part.metal>
0.0000

> <Gold.PLP.part.buried>
3.1263

> <Gold.PLP.part.nonpolar>
-35.8732

> <Gold.PLP.part.repulsive>
1.4487

> <Gold.PLP.ligand.clash>
0.0000

> <Gold.PLP.ligand.torsion>
1.1496

> <Gold.PLP.Chemscore.Hbond>
3.6417

> <Gold.PLP.Chemscore.CHOScore>
2.0000

> <Gold.PLP.Chemscore.Metal>
0.0000

> <Gold.Chemscore.Hbonds>
donor molecule, donor type, donor heavy atom, donor atom, acceptor molecule, acceptor atom, score
      L1  H     8    27       P1  7948  1.89
      L1  H     8    41       P1  7957  0.63
      P1  H  7989  7998       L1    17  0.93
      L1  C     3    22       P1 10186  0.49
      L1  C    18    40       P1  7948  1.00

> <Gold.PLP.Chemscore.Internal.Correction>
0.1465

> <Gold.Rescore>
     Score         DG    S(hbond)    S(metal)    S(lipo)     H(rot)  DE(clash)    DE(int)     intcor
     12.27     -16.88       2.36        0.00      77.15       2.16       2.80       1.80       ----

> <Gold.Chemscore.Fitness>
12.2724

> <Gold.Chemscore.DG>
-16.8756

> <Gold.Chemscore.ZeroCoef>
-5.4800

> <Gold.Chemscore.Hbond>
2.3646

> <Gold.Chemscore.Metal>
0.0000

> <Gold.Chemscore.Lipo>
77.1526

> <Gold.Chemscore.Internal_Hbond>
0.0000

> <Gold.Chemscore.DEClash>
2.8017

> <Gold.Chemscore.DEInternal>
1.8015

> <Gold.Chemscore.Rot>
2.1598

> <Gold.Chemscore.Internal.Correction>
   9.000000E+99

> <Gold.Chemscore.Hbonds>
donor molecule, donor type, donor heavy atom, donor atom, acceptor molecule, acceptor atom, score
      L1  H     8    27       P1  7948  0.91
      L1  H     8    41       P1  7957  0.57
      P1  H  7989  7998       L1    17  0.45

> <Gold.Chemscore.Hbond.Weighted>
-7.8978

> <Gold.Chemscore.Metal.Weighted>
-0.0000

> <Gold.Chemscore.Lipo.Weighted>
-9.0269

> <Gold.Chemscore.Internal_Hbond.Weighted>
0.0000

> <Gold.Chemscore.DEClash.Weighted>
2.8017

> <Gold.Chemscore.DEInternal.Weighted>
1.8015

> <Gold.Chemscore.Rot.Weighted>
5.5291

> <Gold.Chemscore.Internal.Correction.Weighted>
   9.000000E+99

> <Gold.Protein.RotatedTorsions>
[ 6907 6896 6895 6894 ] final  -11.27 input  -60.11 | X-H torsion
[ 7974 7965 7964 7962 ] final  140.27 input  175.53 | X-H torsion
[ 8008 7997 7996 7995 ] final  135.96 input   59.86 | X-H torsion
[ 10167 10162 10161 10158 ] final  -67.95 input  -65.29 | X-H torsion
[ 10718 10713 10712 10709 ] final   89.12 input   66.30 | X-H torsion
[ 10763 10752 10751 10750 ] final   76.80 input  -60.55 | X-H torsion
[ 11005 11000 10999 10996 ] final  143.79 input  -57.11 | X-H torsion

> <Gold.Protein.ActiveResidues>
 VAL166  LYS551  ARG553  GLY616  TRP617  ASP618  TYR619  PRO620  LYS621  CYS622 
 ASP623  PHE694  ASN695  SER759  ASP760  ASP761  ALA762  ILE779  LEU786  VAL792 
 PHE793  MET794  SER795  GLU796  ALA797  LYS798  CYS799  TRP800  GLU811  SER814 

> <Gold.Protein.RotatedAtoms>
  151.3889  135.0952  159.9519 H   0  0  0  0  0  0  0  0  0  0  0  0  # atno 6907 bound_to 6896
  152.5086  133.8999  159.7446 H   0  0  0  0  0  0  0  0  0  0  0  0  # atno 6908 bound_to 6896
  150.9449  133.6559  159.2812 H   0  0  0  0  0  0  0  0  0  0  0  0  # atno 6909 bound_to 6896
  144.9202  139.5178  143.5667 H   0  0  0  0  0  0  0  0  0  0  0  0  # atno 7974 bound_to 7965
  156.3004  140.2457  156.3666 H   0  0  0  0  0  0  0  0  0  0  0  0  # atno 8008 bound_to 7997
  154.8827  140.0412  157.1811 H   0  0  0  0  0  0  0  0  0  0  0  0  # atno 8009 bound_to 7997
  154.8679  140.2930  155.5503 H   0  0  0  0  0  0  0  0  0  0  0  0  # atno 8010 bound_to 7997
  140.5544  143.2312  151.6849 H   0  0  0  0  0  0  0  0  0  0  0  0  # atno 10167 bound_to 10162
  157.6953  131.0321  150.3377 H   0  0  0  0  0  0  0  0  0  0  0  0  # atno 10718 bound_to 10713
  153.0751  135.4938  154.8388 H   0  0  0  0  0  0  0  0  0  0  0  0  # atno 10763 bound_to 10752
  154.7077  135.3014  154.9248 H   0  0  0  0  0  0  0  0  0  0  0  0  # atno 10764 bound_to 10752
  153.9952  135.6773  153.4809 H   0  0  0  0  0  0  0  0  0  0  0  0  # atno 10765 bound_to 10752
  140.0581  134.9219  157.1136 H   0  0  0  0  0  0  0  0  0  0  0  0  # atno 11005 bound_to 11000
  146.3201  139.8075  142.8952 LP  0  0  0  0  0  0  0  0  0  0  0  0  # atno 17320 bound_to 7965
  145.3309  141.0266  143.3447 LP  0  0  0  0  0  0  0  0  0  0  0  0  # atno 17321 bound_to 7965
  139.5041  144.3764  152.0419 LP  0  0  0  0  0  0  0  0  0  0  0  0  # atno 17342 bound_to 10162
  140.2885  144.3781  150.6096 LP  0  0  0  0  0  0  0  0  0  0  0  0  # atno 17343 bound_to 10162
  156.3842  130.3886  149.7078 LP  0  0  0  0  0  0  0  0  0  0  0  0  # atno 17370 bound_to 10713
  156.4450  130.7879  151.2901 LP  0  0  0  0  0  0  0  0  0  0  0  0  # atno 17371 bound_to 10713
  140.3813  134.2284  155.7171 LP  0  0  0  0  0  0  0  0  0  0  0  0  # atno 17394 bound_to 11000
  141.1961  133.8090  157.0686 LP  0  0  0  0  0  0  0  0  0  0  0  0  # atno 17395 bound_to 11000

$$$$
