#       Name:                AV-unprocessed.smi:1011
#       Creating user name   scv26
#       Creation time:       Fri Mar 27 02:36:46 2020


#       File generated by GOLD software.
#

@<TRIPOS>MOLECULE
AV-unprocessed.smi:1011
    48    50     1
SMALL
NO_CHARGES


@<TRIPOS>ATOM
      1 ****        -3.5365   1.5957  -3.6412 C.3            1 S1                 0.0000
      2 ****        -3.2523   1.3951  -2.1804 C.2            1 S1                 0.0000
      3 ****        -3.0121   0.1683  -1.4990 C.2            1 S1                 0.0000
      4 ****        -2.7886   0.3343  -0.2056 N.2            1 S1                 0.0000
      5 ****        -2.8809   1.6680  -0.0152 N.pl3          1 S1                 0.0000
      6 ****        -2.6709   2.2264   1.3094 C.3            1 S1                 0.0000
      7 ****        -1.1794   2.4495   1.6047 C.3            1 S1                 0.0000
      8 ****        -0.4552   1.1669   1.6892 N.4            1 S1                 1.0000
      9 ****         1.0126   1.2912   1.6393 C.3            1 S1                 0.0000
     10 ****         1.4680  -0.1317   1.5302 C.2            1 S1                 0.0000
     11 ****         1.9259  -0.8032   2.5869 N.2            1 S1                 0.0000
     12 ****         2.2260  -2.0420   2.0540 C.ar           1 S1                 0.0000
     13 ****         2.7538  -3.2014   2.6655 C.ar           1 S1                 0.0000
     14 ****         2.9791  -4.3692   1.9071 C.ar           1 S1                 0.0000
     15 ****         3.6251  -5.7756   2.6693 Cl             1 S1                 0.0000
     16 ****         2.6793  -4.3933   0.5293 C.ar           1 S1                 0.0000
     17 ****         2.1515  -3.2491  -0.0995 C.ar           1 S1                 0.0000
     18 ****         1.9294  -2.0866   0.6622 C.ar           1 S1                 0.0000
     19 ****         1.4345  -0.8217   0.3603 N.pl3          1 S1                 0.0000
     20 ****         0.9831  -0.3735  -0.9521 C.3            1 S1                 0.0000
     21 ****         2.1499   0.0136  -1.8750 C.3            1 S1                 0.0000
     22 ****         2.8946   1.0825  -1.3299 O.3            1 S1                 0.0000
     23 ****        -3.1596   2.3323  -1.1907 C.2            1 S1                 0.0000
     24 ****        -4.1761   0.8077  -4.0392 H              1 S1                 0.0000
     25 ****        -2.6202   1.5954  -4.2317 H              1 S1                 0.0000
     26 ****        -4.0411   2.5434  -3.8304 H              1 S1                 0.0000
     27 ****        -2.9917  -0.8325  -1.9048 H              1 S1                 0.0000
     28 ****        -3.2057   3.1752   1.3669 H              1 S1                 0.0000
     29 ****        -3.1218   1.5671   2.0528 H              1 S1                 0.0000
     30 ****        -0.7434   3.0703   0.8206 H              1 S1                 0.0000
     31 ****        -1.0543   2.9876   2.5447 H              1 S1                 0.0000
     32 ****        -0.7200   0.6851   2.5366 H              1 S1                 0.0000
     33 ****         1.3444   1.8723   0.7789 H              1 S1                 0.0000
     34 ****         1.3976   1.7565   2.5476 H              1 S1                 0.0000
     35 ****         2.9863  -3.1917   3.7202 H              1 S1                 0.0000
     36 ****         2.8547  -5.2909  -0.0459 H              1 S1                 0.0000
     37 ****         1.9224  -3.2657  -1.1547 H              1 S1                 0.0000
     38 ****         0.4086  -1.1813  -1.4069 H              1 S1                 0.0000
     39 ****         0.2909   0.4612  -0.8454 H              1 S1                 0.0000
     40 ****         2.8134  -0.8372  -2.0328 H              1 S1                 0.0000
     41 ****         1.7718   0.3113  -2.8533 H              1 S1                 0.0000
     42 ****         3.6087   1.2807  -1.9169 H              1 S1                 0.0000
     43 ****        -3.2645   3.4069  -1.2267 H              1 S1                 0.0000
     44 ****        -0.7391   0.6031   0.9001 H              1 S1                 0.0000
     45 ****        -2.5948  -0.3698   0.4776 LP             1 S1                 0.0000
     46 ****         2.0271  -0.4885   3.5307 LP             1 S1                 0.0000
     47 ****         3.2563   0.8200  -0.4353 LP             1 S1                 0.0000
     48 ****         2.3077   1.8858  -1.2294 LP             1 S1                 0.0000
@<TRIPOS>BOND
    1    1    2 1     
    2    1   24 1     
    3    1   25 1     
    4    1   26 1     
    5    2   23 2     
    6    2    3 1     
    7    3    4 2     
    8    3   27 1     
    9    4    5 1     
   10    5    6 1     
   11    5   23 1     
   12    6    7 1     
   13    6   28 1     
   14    6   29 1     
   15    7    8 1     
   16    7   30 1     
   17    7   31 1     
   18    8    9 1     
   19    8   32 1     
   20    8   44 1     
   21    9   10 1     
   22    9   33 1     
   23    9   34 1     
   24   10   19 1     
   25   10   11 2     
   26   11   12 1     
   27   12   18 ar    
   28   12   13 ar    
   29   13   14 ar    
   30   13   35 1     
   31   14   15 1     
   32   14   16 ar    
   33   16   17 ar    
   34   16   36 1     
   35   17   18 ar    
   36   17   37 1     
   37   18   19 1     
   38   19   20 1     
   39   20   21 1     
   40   20   38 1     
   41   20   39 1     
   42   21   22 1     
   43   21   40 1     
   44   21   41 1     
   45   22   42 1     
   46   23   43 1     
   47    4   45 1     
   48   11   46 1     
   49   22   47 1     
   50   22   48 1     
@<TRIPOS>SUBSTRUCTURE
      1 S1             1
@<TRIPOS>SET
LONE_PAIRS      STATIC     ATOMS    <user>   **** ""
4 45 46 47 48
DONOR_HYDROGENS      STATIC     ATOMS    <user>   **** ""
3 32 44 42
ATOM$BLUE        STATIC     ATOMS    COLORGROUP SYSTEM
4 45 46 47 48
ATOM$RED        STATIC     ATOMS    COLORGROUP SYSTEM
3 32 44 42
