AV-unprocessed.smi:1005|AV-procd|sdf|4383|dock10
  -GOLD-   22720 2303D 1   1.00000     0.00000
 Structure written by MMmdl.
 58 60  0  0  0  0  0  0  0  0  4 V2000
  152.1871  143.7788  160.4156 C   0  0  0  0  0  0  0  0  0  0  0  0
  151.9756  142.8188  159.2571 C   0  0  0  0  0  0  0  0  0  0  0  0
  151.0309  143.1588  158.2629 C   0  0  0  0  0  0  0  0  0  0  0  0
  150.8612  142.2615  157.2155 C   0  0  0  0  0  0  0  0  0  0  0  0
  150.0242  142.3092  156.0992 N   0  3  0  0  0  0  0  0  0  0  0  0
  150.2117  141.1931  155.3422 C   0  0  0  0  0  0  0  0  0  0  0  0
  151.1574  140.4318  155.9576 N   0  0  0  0  0  0  0  0  0  0  0  0
  151.7247  139.1355  155.5559 C   0  0  0  0  0  0  0  0  0  0  0  0
  150.8953  138.4311  154.4629 C   0  0  1  0  0  0  0  0  0  0  0  0
  151.5764  137.2724  154.0217 O   0  0  0  0  0  0  0  0  0  0  0  0
  149.4986  138.0203  154.9724 C   0  0  0  0  0  0  0  0  0  0  0  0
  148.4778  138.0213  153.8891 N   0  3  1  0  0  0  0  0  0  0  0  0
  147.2113  137.3438  154.2580 C   0  0  0  0  0  0  0  0  0  0  0  0
  146.3257  138.2552  155.1241 C   0  0  0  0  0  0  0  0  0  0  0  0
  146.0729  139.4660  154.4219 O   0  0  0  0  0  0  0  0  0  0  0  0
  147.2614  140.2069  154.1630 C   0  0  2  0  0  0  0  0  0  0  0  0
  146.8613  141.5127  153.4488 C   0  0  0  0  0  0  0  0  0  0  0  0
  146.3124  142.5397  154.3722 N   0  3  0  0  0  0  0  0  0  0  0  0
  145.3311  141.9647  155.3192 C   0  0  0  0  0  0  0  0  0  0  0  0
  145.7630  143.7283  153.6795 C   0  0  0  0  0  0  0  0  0  0  0  0
  148.2040  139.3512  153.2848 C   0  0  0  0  0  0  0  0  0  0  0  0
  151.5899  141.0585  157.1338 C   0  0  0  0  0  0  0  0  0  0  0  0
  152.5231  140.7078  158.1074 C   0  0  0  0  0  0  0  0  0  0  0  0
  152.7125  141.6088  159.1797 C   0  0  0  0  0  0  0  0  0  0  0  0
  153.7273  141.2542  160.2533 C   0  0  0  0  0  0  0  0  0  0  0  0
  151.5532  144.6613  160.3237 H   0  0  0  0  0  0  0  0  0  0  0  0
  153.2233  144.1161  160.4507 H   0  0  0  0  0  0  0  0  0  0  0  0
  151.9480  143.2942  161.3625 H   0  0  0  0  0  0  0  0  0  0  0  0
  150.4662  144.0784  158.3148 H   0  0  0  0  0  0  0  0  0  0  0  0
  149.7017  140.9571  154.4195 H   0  0  0  0  0  0  0  0  0  0  0  0
  152.7601  139.2753  155.2449 H   0  0  0  0  0  0  0  0  0  0  0  0
  151.7585  138.5135  156.4512 H   0  0  0  0  0  0  0  0  0  0  0  0
  150.8023  139.1080  153.6141 H   0  0  0  0  0  0  0  0  0  0  0  0
  151.3707  137.1257  153.1109 H   0  0  0  0  0  0  0  0  0  0  0  0
  149.5739  137.0215  155.4054 H   0  0  0  0  0  0  0  0  0  0  0  0
  149.1825  138.6750  155.7846 H   0  0  0  0  0  0  0  0  0  0  0  0
  146.6778  137.0922  153.3403 H   0  0  0  0  0  0  0  0  0  0  0  0
  147.4091  136.3977  154.7630 H   0  0  0  0  0  0  0  0  0  0  0  0
  145.3747  137.7642  155.3315 H   0  0  0  0  0  0  0  0  0  0  0  0
  146.7921  138.4634  156.0882 H   0  0  0  0  0  0  0  0  0  0  0  0
  147.7577  140.4399  155.1045 H   0  0  0  0  0  0  0  0  0  0  0  0
  147.7124  141.9303  152.9088 H   0  0  0  0  0  0  0  0  0  0  0  0
  146.1094  141.2719  152.6956 H   0  0  0  0  0  0  0  0  0  0  0  0
  144.4564  141.5824  154.7916 H   0  0  0  0  0  0  0  0  0  0  0  0
  144.9969  142.7168  156.0345 H   0  0  0  0  0  0  0  0  0  0  0  0
  145.7731  141.1462  155.8882 H   0  0  0  0  0  0  0  0  0  0  0  0
  144.9454  143.4510  153.0131 H   0  0  0  0  0  0  0  0  0  0  0  0
  146.5250  144.2400  153.0937 H   0  0  0  0  0  0  0  0  0  0  0  0
  145.3790  144.4487  154.4027 H   0  0  0  0  0  0  0  0  0  0  0  0
  149.1307  139.8871  153.0826 H   0  0  0  0  0  0  0  0  0  0  0  0
  147.7364  139.1814  152.3138 H   0  0  0  0  0  0  0  0  0  0  0  0
  153.0871  139.7892  158.0517 H   0  0  0  0  0  0  0  0  0  0  0  0
  154.2105  140.2990  160.0464 H   0  0  0  0  0  0  0  0  0  0  0  0
  153.2434  141.1785  161.2273 H   0  0  0  0  0  0  0  0  0  0  0  0
  154.5061  142.0148  160.3110 H   0  0  0  0  0  0  0  0  0  0  0  0
  147.0852  142.8610  154.9382 H   0  0  0  0  0  0  0  0  0  0  0  0
  148.8852  137.4536  153.1588 H   0  0  0  0  0  0  0  0  0  0  0  0
  149.3723  143.0486  155.8689 H   0  0  0  0  0  0  0  0  0  0  0  0
  1  2  1  0  0  0  0
  1 26  1  0  0  0  0
  1 27  1  0  0  0  0
  1 28  1  0  0  0  0
  2 24  1  0  0  0  0
  2  3  2  0  0  0  0
  3  4  1  0  0  0  0
  3 29  1  0  0  0  0
  4 22  2  0  0  0  0
  4  5  1  0  0  0  0
  5  6  2  0  0  0  0
  5 58  1  0  0  0  0
  6  7  1  0  0  0  0
  6 30  1  0  0  0  0
  7  8  1  0  0  0  0
  7 22  1  0  0  0  0
  8  9  1  0  0  0  0
  8 31  1  0  0  0  0
  8 32  1  0  0  0  0
  9 10  1  0  0  0  0
  9 11  1  0  0  0  0
  9 33  1  0  0  0  0
 10 34  1  0  0  0  0
 11 12  1  0  0  0  0
 11 35  1  0  0  0  0
 11 36  1  0  0  0  0
 12 21  1  0  0  0  0
 12 13  1  0  0  0  0
 12 57  1  0  0  0  0
 13 14  1  0  0  0  0
 13 37  1  0  0  0  0
 13 38  1  0  0  0  0
 14 15  1  0  0  0  0
 14 39  1  0  0  0  0
 14 40  1  0  0  0  0
 15 16  1  0  0  0  0
 16 17  1  0  0  0  0
 16 21  1  0  0  0  0
 16 41  1  0  0  0  0
 17 18  1  0  0  0  0
 17 42  1  0  0  0  0
 17 43  1  0  0  0  0
 18 19  1  0  0  0  0
 18 20  1  0  0  0  0
 18 56  1  0  0  0  0
 19 44  1  0  0  0  0
 19 45  1  0  0  0  0
 19 46  1  0  0  0  0
 20 47  1  0  0  0  0
 20 48  1  0  0  0  0
 20 49  1  0  0  0  0
 21 50  1  0  0  0  0
 21 51  1  0  0  0  0
 22 23  1  0  0  0  0
 23 24  2  0  0  0  0
 23 52  1  0  0  0  0
 24 25  1  0  0  0  0
 25 53  1  0  0  0  0
 25 54  1  0  0  0  0
 25 55  1  0  0  0  0
M  CHG  1   5   1
M  CHG  1  12   1
M  CHG  1  18   1
M  END
> <s_m_source_file>
AV-unprocessed.smi

> <i_m_source_file_index>
1005

> <i_lp_mmshare_version>
43012

> <i_f3d_flags>
0

> <s_epik_input>
W0NIM11jKFtjSF0xKWMoW0NIM10pW2NIXWMoYzEyKW4oW2NIXW4yKVtDSDJdW0NASF0oW09IXSlbQ0gyXU4zW0NIMl1bQ0gyXU9bQ0BIXShbQ0gyXTMpW0NIMl1OKFtDSDNdKVtDSDNd

> <s_epik_cmdline>
J2VwaWtfcHl0aG9uJywgJy1waCcsICc3LjAnLCAnLXRuJywgJzgnLCAnLW1hJywgJzIwMCcsICctbWV0YWxfYmluZGluZycsICctaW1hZScsICc8aW5maWxlLm1hZT4nLCAnLW9tYWUnLCAnPG91dGZpbGUubWFlPic=

> <r_epik_Ionization_Penalty>
2.30802

> <r_epik_Ionization_Penalty_Charging>
2.30798

> <r_epik_Ionization_Penalty_Neutral>
3.4851e-05

> <r_epik_State_Penalty>
2.52618

> <r_epik_Charging_Adjusted_Penalty>
4.83416

> <i_epik_Tot_Q>
3

> <i_epik_Tot_abs_Q>
3

> <r_epik_Metal_State_Penalty>
6.53149

> <b_epik_Metal_Only>
0

> <s_lp_Force_Field>
OPLS_2005

> <r_lp_Energy>
46.6994

> <b_lp_Chiralities_Consistent>
1

> <s_lp_Variant>
AV-unprocessed.smi:1005-22

> <Gold.Version>
5.8.1

> <Gold.Id.Protein>
6NUR|6NUR_protein|mol2

> <Gold.PLP.Fitness>
62.5635

> <Gold.PLP.PLP>
-46.9340

> <Gold.PLP.part.hbond>
-3.8487

> <Gold.PLP.part.metal>
0.0000

> <Gold.PLP.part.buried>
-3.7621

> <Gold.PLP.part.nonpolar>
-38.8821

> <Gold.PLP.part.repulsive>
0.2912

> <Gold.PLP.ligand.clash>
0.0000

> <Gold.PLP.ligand.torsion>
0.8278

> <Gold.PLP.Chemscore.Hbond>
5.7020

> <Gold.PLP.Chemscore.CHOScore>
0.0000

> <Gold.PLP.Chemscore.Metal>
0.0000

> <Gold.Chemscore.Hbonds>
donor molecule, donor type, donor heavy atom, donor atom, acceptor molecule, acceptor atom, score
      L1  H     5    58       P1  8028  2.00
      L1  H    10    34       P1  7949  1.00
      L1  H    12    57       P1  7948  2.00
      P1  H 10752 10765       L1    10  0.73

> <Gold.PLP.Chemscore.Internal.Correction>
0.1790

> <Gold.Rescore>
     Score         DG    S(hbond)    S(metal)    S(lipo)     H(rot)  DE(clash)    DE(int)     intcor
     18.79     -21.15       2.52        0.00     117.96       2.56       0.06       2.31       ----

> <Gold.Chemscore.Fitness>
18.7874

> <Gold.Chemscore.DG>
-21.1532

> <Gold.Chemscore.ZeroCoef>
-5.4800

> <Gold.Chemscore.Hbond>
2.5199

> <Gold.Chemscore.Metal>
0.0000

> <Gold.Chemscore.Lipo>
117.9625

> <Gold.Chemscore.Internal_Hbond>
0.0000

> <Gold.Chemscore.DEClash>
0.0575

> <Gold.Chemscore.DEInternal>
2.3082

> <Gold.Chemscore.Rot>
2.5566

> <Gold.Chemscore.Internal.Correction>
   9.000000E+99

> <Gold.Chemscore.Hbonds>
donor molecule, donor type, donor heavy atom, donor atom, acceptor molecule, acceptor atom, score
      L1  H     5    58       P1  8028  0.98
      L1  H    10    34       P1  7949  0.74
      L1  H    12    57       P1  7948  0.99
      P1  H 10752 10765       L1    10  0.18

> <Gold.Chemscore.Hbond.Weighted>
-8.4165

> <Gold.Chemscore.Metal.Weighted>
-0.0000

> <Gold.Chemscore.Lipo.Weighted>
-13.8016

> <Gold.Chemscore.Internal_Hbond.Weighted>
0.0000

> <Gold.Chemscore.DEClash.Weighted>
0.0575

> <Gold.Chemscore.DEInternal.Weighted>
2.3082

> <Gold.Chemscore.Rot.Weighted>
6.5450

> <Gold.Chemscore.Internal.Correction.Weighted>
   9.000000E+99

> <Gold.Protein.RotatedTorsions>
[ 6907 6896 6895 6894 ] final  -58.31 input  -60.11 | X-H torsion
[ 7974 7965 7964 7962 ] final  -85.30 input  175.53 | X-H torsion
[ 8008 7997 7996 7995 ] final  -82.96 input   59.86 | X-H torsion
[ 10167 10162 10161 10158 ] final -112.00 input  -65.29 | X-H torsion
[ 10718 10713 10712 10709 ] final  -96.20 input   66.30 | X-H torsion
[ 10763 10752 10751 10750 ] final  166.96 input  -60.55 | X-H torsion
[ 11005 11000 10999 10996 ] final   50.68 input  -57.11 | X-H torsion

> <Gold.Protein.ActiveResidues>
 VAL166  LYS551  ARG553  GLY616  TRP617  ASP618  TYR619  PRO620  LYS621  CYS622 
 ASP623  PHE694  ASN695  SER759  ASP760  ASP761  ALA762  ILE779  LEU786  VAL792 
 PHE793  MET794  SER795  GLU796  ALA797  LYS798  CYS799  TRP800  GLU811  SER814 

> <Gold.Protein.RotatedAtoms>
  150.8017  134.7115  159.6606 H   0  0  0  0  0  0  0  0  0  0  0  0  # atno 6907 bound_to 6896
  152.4134  134.6081  160.0028 H   0  0  0  0  0  0  0  0  0  0  0  0  # atno 6908 bound_to 6896
  151.6317  133.3294  159.3146 H   0  0  0  0  0  0  0  0  0  0  0  0  # atno 6909 bound_to 6896
  145.4951  140.9550  143.1790 H   0  0  0  0  0  0  0  0  0  0  0  0  # atno 7974 bound_to 7965
  154.6140  140.0626  156.9530 H   0  0  0  0  0  0  0  0  0  0  0  0  # atno 8008 bound_to 7997
  155.1926  140.3308  155.4338 H   0  0  0  0  0  0  0  0  0  0  0  0  # atno 8009 bound_to 7997
  156.2393  140.1878  156.7015 H   0  0  0  0  0  0  0  0  0  0  0  0  # atno 8010 bound_to 7997
  140.1275  143.4389  152.1650 H   0  0  0  0  0  0  0  0  0  0  0  0  # atno 10167 bound_to 10162
  156.0057  130.5141  150.6190 H   0  0  0  0  0  0  0  0  0  0  0  0  # atno 10718 bound_to 10713
  154.3468  135.2753  155.2393 H   0  0  0  0  0  0  0  0  0  0  0  0  # atno 10763 bound_to 10752
  154.4640  135.5900  153.6278 H   0  0  0  0  0  0  0  0  0  0  0  0  # atno 10764 bound_to 10752
  152.9853  135.6072  154.3675 H   0  0  0  0  0  0  0  0  0  0  0  0  # atno 10765 bound_to 10752
  140.0997  134.5098  155.8774 H   0  0  0  0  0  0  0  0  0  0  0  0  # atno 11005 bound_to 11000
  144.7811  139.6523  143.7154 LP  0  0  0  0  0  0  0  0  0  0  0  0  # atno 17320 bound_to 7965
  146.2260  139.5724  142.9587 LP  0  0  0  0  0  0  0  0  0  0  0  0  # atno 17321 bound_to 7965
  139.5536  144.7356  151.4359 LP  0  0  0  0  0  0  0  0  0  0  0  0  # atno 17342 bound_to 10162
  140.6836  143.8025  150.7155 LP  0  0  0  0  0  0  0  0  0  0  0  0  # atno 17343 bound_to 10162
  157.4009  131.0810  151.1309 LP  0  0  0  0  0  0  0  0  0  0  0  0  # atno 17370 bound_to 10713
  157.1971  130.6378  149.5725 LP  0  0  0  0  0  0  0  0  0  0  0  0  # atno 17371 bound_to 10713
  141.2102  133.6692  156.6493 LP  0  0  0  0  0  0  0  0  0  0  0  0  # atno 17394 bound_to 11000
  140.3237  134.7986  157.4272 LP  0  0  0  0  0  0  0  0  0  0  0  0  # atno 17395 bound_to 11000

$$$$
