AV-unprocessed.smi:1734|AV-procd|sdf|6983|dock10
  -GOLD-   22720 8193D 1   1.00000     0.00000
 Structure written by MMmdl.
 50 52  0  0  0  0  0  0  0  0  1 V2000
  147.6838  133.0204  152.5094 C   0  0  0  0  0  0  0  0  0  0  0  0
  146.2621  133.3872  152.1158 C   0  0  0  0  0  0  0  0  0  0  0  0
  145.3987  132.3810  151.6324 C   0  0  0  0  0  0  0  0  0  0  0  0
  144.0847  132.7214  151.2692 C   0  0  0  0  0  0  0  0  0  0  0  0
  143.6869  134.0622  151.4055 C   0  0  0  0  0  0  0  0  0  0  0  0
  144.5055  135.0301  151.8656 N   0  0  0  0  0  0  0  0  0  0  0  0
  145.7776  134.7188  152.2207 C   0  0  0  0  0  0  0  0  0  0  0  0
  146.6978  135.6885  152.7103 N   0  0  0  0  0  0  0  0  0  0  0  0
  146.4812  136.6740  153.5992 C   0  0  0  0  0  0  0  0  0  0  0  0
  145.4170  136.8877  154.1808 O   0  0  0  0  0  0  0  0  0  0  0  0
  147.5838  137.4176  153.7721 N   0  0  0  0  0  0  0  0  0  0  0  0
  147.6919  138.5975  154.6265 C   0  0  0  0  0  0  0  0  0  0  0  0
  148.6729  139.6502  154.0415 C   0  0  1  0  0  0  0  0  0  0  0  0
  148.1331  141.1097  154.1522 C   0  0  1  0  0  0  0  0  0  0  0  0
  146.8730  141.4788  153.3637 C   0  0  0  0  0  0  0  0  0  0  0  0
  146.0280  142.2719  154.3620 C   0  0  0  0  0  0  0  0  0  0  0  0
  146.9558  142.7026  155.3456 O   0  0  0  0  0  0  0  0  0  0  0  0
  147.8416  141.6186  155.5700 C   0  0  0  0  0  0  0  0  0  0  0  0
  150.0824  139.4783  154.4463 N   0  0  0  0  0  0  0  0  0  0  0  0
  150.3899  139.8337  155.8304 C   0  0  0  0  0  0  0  0  0  0  0  0
  151.8954  139.7181  156.1271 C   0  0  0  0  0  0  0  0  0  0  0  0
  152.3563  138.4099  155.8053 O   0  0  0  0  0  0  0  0  0  0  0  0
  152.1231  138.0662  154.4436 C   0  0  0  0  0  0  0  0  0  0  0  0
  150.6169  138.1516  154.1475 C   0  0  0  0  0  0  0  0  0  0  0  0
  147.8777  131.9587  152.3537 H   0  0  0  0  0  0  0  0  0  0  0  0
  147.8569  133.2418  153.5630 H   0  0  0  0  0  0  0  0  0  0  0  0
  148.4024  133.5833  151.9130 H   0  0  0  0  0  0  0  0  0  0  0  0
  145.7363  131.3592  151.5394 H   0  0  0  0  0  0  0  0  0  0  0  0
  143.3995  131.9744  150.8963 H   0  0  0  0  0  0  0  0  0  0  0  0
  142.6858  134.3669  151.1381 H   0  0  0  0  0  0  0  0  0  0  0  0
  147.6268  135.6360  152.3199 H   0  0  0  0  0  0  0  0  0  0  0  0
  148.4112  137.1617  153.2532 H   0  0  0  0  0  0  0  0  0  0  0  0
  146.7138  139.0426  154.8115 H   0  0  0  0  0  0  0  0  0  0  0  0
  148.0428  138.2394  155.5931 H   0  0  0  0  0  0  0  0  0  0  0  0
  148.6661  139.4663  152.9659 H   0  0  0  0  0  0  0  0  0  0  0  0
  148.9168  141.7644  153.7674 H   0  0  0  0  0  0  0  0  0  0  0  0
  147.1405  142.1098  152.5152 H   0  0  0  0  0  0  0  0  0  0  0  0
  146.3263  140.6266  152.9636 H   0  0  0  0  0  0  0  0  0  0  0  0
  145.5129  143.1146  153.9003 H   0  0  0  0  0  0  0  0  0  0  0  0
  145.2796  141.6299  154.8294 H   0  0  0  0  0  0  0  0  0  0  0  0
  147.3325  140.8776  156.1873 H   0  0  0  0  0  0  0  0  0  0  0  0
  148.7423  141.9381  156.0945 H   0  0  0  0  0  0  0  0  0  0  0  0
  150.0887  140.8581  156.0358 H   0  0  0  0  0  0  0  0  0  0  0  0
  149.8379  139.1911  156.5166 H   0  0  0  0  0  0  0  0  0  0  0  0
  152.4567  140.4579  155.5543 H   0  0  0  0  0  0  0  0  0  0  0  0
  152.0898  139.9160  157.1812 H   0  0  0  0  0  0  0  0  0  0  0  0
  152.6853  138.7336  153.7887 H   0  0  0  0  0  0  0  0  0  0  0  0
  152.4889  137.0554  154.2629 H   0  0  0  0  0  0  0  0  0  0  0  0
  150.1060  137.3940  154.7413 H   0  0  0  0  0  0  0  0  0  0  0  0
  150.4408  137.9051  153.1001 H   0  0  0  0  0  0  0  0  0  0  0  0
  1  2  1  0  0  0  0
  1 25  1  0  0  0  0
  1 26  1  0  0  0  0
  1 27  1  0  0  0  0
  2  7  1  0  0  0  0
  2  3  2  0  0  0  0
  3  4  1  0  0  0  0
  3 28  1  0  0  0  0
  4  5  2  0  0  0  0
  4 29  1  0  0  0  0
  5  6  1  0  0  0  0
  5 30  1  0  0  0  0
  6  7  2  0  0  0  0
  7  8  1  0  0  0  0
  8  9  1  0  0  0  0
  8 31  1  0  0  0  0
  9 10  2  0  0  0  0
  9 11  1  0  0  0  0
 11 12  1  0  0  0  0
 11 32  1  0  0  0  0
 12 13  1  0  0  0  0
 12 33  1  0  0  0  0
 12 34  1  0  0  0  0
 13 14  1  0  0  0  0
 13 19  1  0  0  0  0
 13 35  1  0  0  0  0
 14 18  1  0  0  0  0
 14 15  1  0  0  0  0
 14 36  1  0  0  0  0
 15 16  1  0  0  0  0
 15 37  1  0  0  0  0
 15 38  1  0  0  0  0
 16 17  1  0  0  0  0
 16 39  1  0  0  0  0
 16 40  1  0  0  0  0
 17 18  1  0  0  0  0
 18 41  1  0  0  0  0
 18 42  1  0  0  0  0
 19 24  1  0  0  0  0
 19 20  1  0  0  0  0
 20 21  1  0  0  0  0
 20 43  1  0  0  0  0
 20 44  1  0  0  0  0
 21 22  1  0  0  0  0
 21 45  1  0  0  0  0
 21 46  1  0  0  0  0
 22 23  1  0  0  0  0
 23 24  1  0  0  0  0
 23 47  1  0  0  0  0
 23 48  1  0  0  0  0
 24 49  1  0  0  0  0
 24 50  1  0  0  0  0
M  END
> <s_m_source_file>
AV-unprocessed.smi

> <i_m_source_file_index>
1734

> <i_lp_mmshare_version>
43012

> <i_f3d_flags>
0

> <s_epik_input>
W0NIM11jMVtjSF1bY0hdW2NIXW5jMVtOSF1DKD1PKVtOSF1bQ0gyXVtDQEhdKFtDQEBIXTJbQ0gyXVtDSDJdT1tDSDJdMilOM1tDSDJdW0NIMl1PW0NIMl1bQ0gyXTM=

> <s_epik_cmdline>
J2VwaWtfcHl0aG9uJywgJy1waCcsICc3LjAnLCAnLXRuJywgJzgnLCAnLW1hJywgJzIwMCcsICctbWV0YWxfYmluZGluZycsICctaW1hZScsICc8aW5maWxlLm1hZT4nLCAnLW9tYWUnLCAnPG91dGZpbGUubWFlPic=

> <r_epik_Ionization_Penalty>
0.125073

> <r_epik_Ionization_Penalty_Charging>
0

> <r_epik_Ionization_Penalty_Neutral>
0.125073

> <r_epik_State_Penalty>
0.114484

> <r_epik_Charging_Adjusted_Penalty>
0.114484

> <i_epik_Tot_Q>
0

> <i_epik_Tot_abs_Q>
0

> <r_epik_Metal_State_Penalty>
0.114483

> <b_epik_Metal_Only>
0

> <s_lp_Force_Field>
OPLS_2005

> <r_lp_Energy>
55.6911

> <b_lp_Chiralities_Consistent>
1

> <s_lp_Variant>
AV-unprocessed.smi:1734-4

> <Gold.Version>
5.8.1

> <Gold.Id.Protein>
6NUR|6NUR_protein|mol2

> <Gold.PLP.Fitness>
43.5157

> <Gold.PLP.PLP>
-36.3735

> <Gold.PLP.part.hbond>
-1.9604

> <Gold.PLP.part.metal>
0.0000

> <Gold.PLP.part.buried>
-4.9542

> <Gold.PLP.part.nonpolar>
-32.0145

> <Gold.PLP.part.repulsive>
1.9730

> <Gold.PLP.ligand.clash>
0.0000

> <Gold.PLP.ligand.torsion>
1.2167

> <Gold.PLP.Chemscore.Hbond>
2.0538

> <Gold.PLP.Chemscore.CHOScore>
0.9975

> <Gold.PLP.Chemscore.Metal>
0.0000

> <Gold.Chemscore.Hbonds>
donor molecule, donor type, donor heavy atom, donor atom, acceptor molecule, acceptor atom, score
      L1  H     8    31       P1  7948  0.93
      L1  H    11    32       P1  7948  0.86
      P1  H  7989  7998       L1    19  0.32
      L1  C     5    30       P1 10186  0.85

> <Gold.PLP.Chemscore.Internal.Correction>
0.4220

> <Gold.Rescore>
     Score         DG    S(hbond)    S(metal)    S(lipo)     H(rot)  DE(clash)    DE(int)     intcor
     16.87     -18.21       1.93        0.00      89.68       1.65       0.07       1.26       ----

> <Gold.Chemscore.Fitness>
16.8712

> <Gold.Chemscore.DG>
-18.2058

> <Gold.Chemscore.ZeroCoef>
-5.4800

> <Gold.Chemscore.Hbond>
1.9316

> <Gold.Chemscore.Metal>
0.0000

> <Gold.Chemscore.Lipo>
89.6844

> <Gold.Chemscore.Internal_Hbond>
0.0000

> <Gold.Chemscore.DEClash>
0.0707

> <Gold.Chemscore.DEInternal>
1.2639

> <Gold.Chemscore.Rot>
1.6480

> <Gold.Chemscore.Internal.Correction>
   9.000000E+99

> <Gold.Chemscore.Hbonds>
donor molecule, donor type, donor heavy atom, donor atom, acceptor molecule, acceptor atom, score
      L1  H     8    31       P1  7948  0.87
      L1  H    11    32       P1  7948  0.85
      P1  H  7989  7998       L1    19  0.02

> <Gold.Chemscore.Hbond.Weighted>
-6.4516

> <Gold.Chemscore.Metal.Weighted>
-0.0000

> <Gold.Chemscore.Lipo.Weighted>
-10.4931

> <Gold.Chemscore.Internal_Hbond.Weighted>
0.0000

> <Gold.Chemscore.DEClash.Weighted>
0.0707

> <Gold.Chemscore.DEInternal.Weighted>
1.2639

> <Gold.Chemscore.Rot.Weighted>
4.2188

> <Gold.Chemscore.Internal.Correction.Weighted>
   9.000000E+99

> <Gold.Protein.RotatedTorsions>
[ 6907 6896 6895 6894 ] final -144.83 input  -60.11 | X-H torsion
[ 7974 7965 7964 7962 ] final  -64.90 input  175.53 | X-H torsion
[ 8008 7997 7996 7995 ] final -173.18 input   59.86 | X-H torsion
[ 10167 10162 10161 10158 ] final  -26.98 input  -65.29 | X-H torsion
[ 10718 10713 10712 10709 ] final  -65.94 input   66.30 | X-H torsion
[ 10763 10752 10751 10750 ] final  -17.56 input  -60.55 | X-H torsion
[ 11005 11000 10999 10996 ] final   81.70 input  -57.11 | X-H torsion

> <Gold.Protein.ActiveResidues>
 VAL166  LYS551  ARG553  GLY616  TRP617  ASP618  TYR619  PRO620  LYS621  CYS622 
 ASP623  PHE694  ASN695  SER759  ASP760  ASP761  ALA762  ILE779  LEU786  VAL792 
 PHE793  MET794  SER795  GLU796  ALA797  LYS798  CYS799  TRP800  GLU811  SER814 

> <Gold.Protein.RotatedAtoms>
  151.1195  133.5114  159.2602 H   0  0  0  0  0  0  0  0  0  0  0  0  # atno 6907 bound_to 6896
  151.1878  135.0389  159.8829 H   0  0  0  0  0  0  0  0  0  0  0  0  # atno 6908 bound_to 6896
  152.5455  134.1039  159.8383 H   0  0  0  0  0  0  0  0  0  0  0  0  # atno 6909 bound_to 6896
  145.7609  140.8862  143.0430 H   0  0  0  0  0  0  0  0  0  0  0  0  # atno 7974 bound_to 7965
  155.9542  140.1132  157.0951 H   0  0  0  0  0  0  0  0  0  0  0  0  # atno 8008 bound_to 7997
  154.4116  140.1194  156.5159 H   0  0  0  0  0  0  0  0  0  0  0  0  # atno 8009 bound_to 7997
  155.6803  140.3473  155.4855 H   0  0  0  0  0  0  0  0  0  0  0  0  # atno 8010 bound_to 7997
  140.7280  143.4132  151.1071 H   0  0  0  0  0  0  0  0  0  0  0  0  # atno 10167 bound_to 10162
  156.0640  130.4254  150.1637 H   0  0  0  0  0  0  0  0  0  0  0  0  # atno 10718 bound_to 10713
  153.5757  135.7006  153.5485 H   0  0  0  0  0  0  0  0  0  0  0  0  # atno 10763 bound_to 10752
  153.3305  135.4048  155.1491 H   0  0  0  0  0  0  0  0  0  0  0  0  # atno 10764 bound_to 10752
  154.8626  135.3717  154.5282 H   0  0  0  0  0  0  0  0  0  0  0  0  # atno 10765 bound_to 10752
  139.9089  134.8016  156.2076 H   0  0  0  0  0  0  0  0  0  0  0  0  # atno 11005 bound_to 11000
  144.6830  139.9722  143.7482 LP  0  0  0  0  0  0  0  0  0  0  0  0  # atno 17320 bound_to 7965
  146.0265  139.3296  143.0781 LP  0  0  0  0  0  0  0  0  0  0  0  0  # atno 17321 bound_to 7965
  139.7768  143.8414  152.3130 LP  0  0  0  0  0  0  0  0  0  0  0  0  # atno 17342 bound_to 10162
  139.8351  144.7236  150.9401 LP  0  0  0  0  0  0  0  0  0  0  0  0  # atno 17343 bound_to 10162
  156.9700  130.9831  151.3461 LP  0  0  0  0  0  0  0  0  0  0  0  0  # atno 17370 bound_to 10713
  157.5670  130.8284  149.8340 LP  0  0  0  0  0  0  0  0  0  0  0  0  # atno 17371 bound_to 10713
  141.0486  133.6900  156.1729 LP  0  0  0  0  0  0  0  0  0  0  0  0  # atno 17394 bound_to 11000
  140.6846  134.4731  157.5589 LP  0  0  0  0  0  0  0  0  0  0  0  0  # atno 17395 bound_to 11000

$$$$
