AV-unprocessed.smi:2119|AV-procd|sdf|8634|dock3
  -GOLD-   2272011383D 1   1.00000     0.00000
 Structure written by MMmdl.
 48 50  0  0  0  0  0  0  0  0  2 V2000
  151.6625  140.6804  156.4059 O   0  0  0  0  0  0  0  0  0  0  0  0
  150.7620  141.4721  156.1278 C   0  0  0  0  0  0  0  0  0  0  0  0
  149.8792  141.2656  155.1410 N   0  0  0  0  0  0  0  0  0  0  0  0
  149.8726  140.1025  154.2615 C   0  0  0  0  0  0  0  0  0  0  0  0
  149.0773  138.8915  154.8286 C   0  0  2  0  0  0  0  0  0  0  0  0
  149.9758  137.7186  155.3142 C   0  0  2  0  0  0  0  0  0  0  0  0
  150.7838  138.0311  156.5644 C   0  0  0  0  0  0  0  0  0  0  0  0
  151.8487  136.9421  156.5441 C   0  0  0  0  0  0  0  0  0  0  0  0
  152.1220  136.7112  155.1684 O   0  0  0  0  0  0  0  0  0  0  0  0
  151.1077  137.3042  154.3638 C   0  0  0  0  0  0  0  0  0  0  0  0
  148.0666  138.3880  153.8510 N   0  3  0  0  0  0  0  0  0  0  0  0
  147.0741  137.4515  154.4324 C   0  0  0  0  0  0  0  0  0  0  0  0
  146.2126  136.8388  153.3156 C   0  0  0  0  0  0  0  0  0  0  0  0
  145.5837  137.8755  152.5707 O   0  0  0  0  0  0  0  0  0  0  0  0
  146.5287  138.7356  151.9445 C   0  0  0  0  0  0  0  0  0  0  0  0
  147.3941  139.4166  153.0175 C   0  0  0  0  0  0  0  0  0  0  0  0
  150.5224  142.6334  156.7595 N   0  0  0  0  0  0  0  0  0  0  0  0
  151.2622  143.2313  157.8147 C   0  0  0  0  0  0  0  0  0  0  0  0
  152.5217  142.7665  158.2651 C   0  0  0  0  0  0  0  0  0  0  0  0
  153.1685  143.4589  159.3067 C   0  0  0  0  0  0  0  0  0  0  0  0
  152.5377  144.5927  159.8541 C   0  0  0  0  0  0  0  0  0  0  0  0
  151.3445  145.0551  159.4252 N   0  0  0  0  0  0  0  0  0  0  0  0
  150.7305  144.3868  158.4256 C   0  0  0  0  0  0  0  0  0  0  0  0
  149.1649  141.9621  154.9850 H   0  0  0  0  0  0  0  0  0  0  0  0
  149.4787  140.4099  153.2922 H   0  0  0  0  0  0  0  0  0  0  0  0
  150.9135  139.8259  154.0938 H   0  0  0  0  0  0  0  0  0  0  0  0
  148.5138  139.2305  155.6990 H   0  0  0  0  0  0  0  0  0  0  0  0
  149.3614  136.8399  155.5138 H   0  0  0  0  0  0  0  0  0  0  0  0
  151.2529  139.0128  156.4810 H   0  0  0  0  0  0  0  0  0  0  0  0
  150.1899  138.0127  157.4788 H   0  0  0  0  0  0  0  0  0  0  0  0
  152.7486  137.2257  157.0903 H   0  0  0  0  0  0  0  0  0  0  0  0
  151.4603  136.0217  156.9820 H   0  0  0  0  0  0  0  0  0  0  0  0
  150.7752  136.6062  153.5954 H   0  0  0  0  0  0  0  0  0  0  0  0
  151.5383  138.1746  153.8670 H   0  0  0  0  0  0  0  0  0  0  0  0
  147.5829  136.6554  154.9770 H   0  0  0  0  0  0  0  0  0  0  0  0
  146.4356  137.9719  155.1469 H   0  0  0  0  0  0  0  0  0  0  0  0
  146.8185  136.2169  152.6546 H   0  0  0  0  0  0  0  0  0  0  0  0
  145.4448  136.1940  153.7435 H   0  0  0  0  0  0  0  0  0  0  0  0
  147.1473  138.1708  151.2451 H   0  0  0  0  0  0  0  0  0  0  0  0
  145.9927  139.4853  151.3622 H   0  0  0  0  0  0  0  0  0  0  0  0
  146.7611  140.0533  153.6365 H   0  0  0  0  0  0  0  0  0  0  0  0
  148.1299  140.0602  152.5361 H   0  0  0  0  0  0  0  0  0  0  0  0
  149.6893  143.1305  156.4803 H   0  0  0  0  0  0  0  0  0  0  0  0
  153.0080  141.9091  157.8262 H   0  0  0  0  0  0  0  0  0  0  0  0
  154.1295  143.1304  159.6742 H   0  0  0  0  0  0  0  0  0  0  0  0
  153.0075  145.1468  160.6534 H   0  0  0  0  0  0  0  0  0  0  0  0
  149.7794  144.7873  158.1059 H   0  0  0  0  0  0  0  0  0  0  0  0
  148.6003  137.8244  153.2045 H   0  0  0  0  0  0  0  0  0  0  0  0
  1  2  2  0  0  0  0
  2  3  1  0  0  0  0
  2 17  1  0  0  0  0
  3  4  1  0  0  0  0
  3 24  1  0  0  0  0
  4  5  1  0  0  0  0
  4 25  1  0  0  0  0
  4 26  1  0  0  0  0
  5  6  1  0  0  0  0
  5 11  1  0  0  0  0
  5 27  1  0  0  0  0
  6 10  1  0  0  0  0
  6  7  1  0  0  0  0
  6 28  1  0  0  0  0
  7  8  1  0  0  0  0
  7 29  1  0  0  0  0
  7 30  1  0  0  0  0
  8  9  1  0  0  0  0
  8 31  1  0  0  0  0
  8 32  1  0  0  0  0
  9 10  1  0  0  0  0
 10 33  1  0  0  0  0
 10 34  1  0  0  0  0
 11 16  1  0  0  0  0
 11 12  1  0  0  0  0
 11 48  1  0  0  0  0
 12 13  1  0  0  0  0
 12 35  1  0  0  0  0
 12 36  1  0  0  0  0
 13 14  1  0  0  0  0
 13 37  1  0  0  0  0
 13 38  1  0  0  0  0
 14 15  1  0  0  0  0
 15 16  1  0  0  0  0
 15 39  1  0  0  0  0
 15 40  1  0  0  0  0
 16 41  1  0  0  0  0
 16 42  1  0  0  0  0
 17 18  1  0  0  0  0
 17 43  1  0  0  0  0
 18 23  1  0  0  0  0
 18 19  2  0  0  0  0
 19 20  1  0  0  0  0
 19 44  1  0  0  0  0
 20 21  2  0  0  0  0
 20 45  1  0  0  0  0
 21 22  1  0  0  0  0
 21 46  1  0  0  0  0
 22 23  2  0  0  0  0
 23 47  1  0  0  0  0
M  CHG  1  11   1
M  END
> <s_m_source_file>
AV-unprocessed.smi

> <i_m_source_file_index>
2119

> <i_lp_mmshare_version>
43012

> <i_f3d_flags>
0

> <s_epik_input>
W2NIXTFuW2NIXVtjSF1bY0hdYzFbTkhdQyg9TylbTkhdW0NIMl1bQ0BIXShbQ0BASF0yW0NIMl1bQ0gyXU9bQ0gyXTIpTjNbQ0gyXVtDSDJdT1tDSDJdW0NIMl0z

> <s_epik_cmdline>
J2VwaWtfcHl0aG9uJywgJy1waCcsICc3LjAnLCAnLXRuJywgJzgnLCAnLW1hJywgJzIwMCcsICctbWV0YWxfYmluZGluZycsICctaW1hZScsICc8aW5maWxlLm1hZT4nLCAnLW9tYWUnLCAnPG91dGZpbGUubWFlPic=

> <r_epik_Ionization_Penalty>
0.987463

> <r_epik_Ionization_Penalty_Charging>
0.98326

> <r_epik_Ionization_Penalty_Neutral>
0.00420251

> <r_epik_State_Penalty>
1.01721

> <r_epik_Charging_Adjusted_Penalty>
2.00047

> <i_epik_Tot_Q>
1

> <i_epik_Tot_abs_Q>
1

> <r_epik_Metal_State_Penalty>
1.01439

> <b_epik_Metal_Only>
0

> <s_lp_Force_Field>
OPLS_2005

> <r_lp_Energy>
39.8774

> <b_lp_Chiralities_Consistent>
1

> <s_lp_Variant>
AV-unprocessed.smi:2119-5

> <Gold.Version>
5.8.1

> <Gold.Id.Protein>
6NUR|6NUR_protein|mol2

> <Gold.PLP.Fitness>
47.1035

> <Gold.PLP.PLP>
-35.1285

> <Gold.PLP.part.hbond>
-3.0000

> <Gold.PLP.part.metal>
0.0000

> <Gold.PLP.part.buried>
-2.3628

> <Gold.PLP.part.nonpolar>
-31.4712

> <Gold.PLP.part.repulsive>
0.6461

> <Gold.PLP.ligand.clash>
0.0000

> <Gold.PLP.ligand.torsion>
1.3583

> <Gold.PLP.Chemscore.Hbond>
3.7160

> <Gold.PLP.Chemscore.CHOScore>
1.0973

> <Gold.PLP.Chemscore.Metal>
0.0000

> <Gold.Chemscore.Hbonds>
donor molecule, donor type, donor heavy atom, donor atom, acceptor molecule, acceptor atom, score
      L1  H    11    48       P1  7948  1.66
      L1  H    17    43       P1  8028  0.96
      P1  H 10752 10765       L1     9  0.89
      L1  C    23    47       P1  8028  0.26
      L1  C    23    47       P1  8029  0.79

> <Gold.PLP.Chemscore.Internal.Correction>
0.2518

> <Gold.Rescore>
     Score         DG    S(hbond)    S(metal)    S(lipo)     H(rot)  DE(clash)    DE(int)     intcor
     18.51     -22.61       2.58        0.00     109.95       1.70       1.37       2.73       ----

> <Gold.Chemscore.Fitness>
18.5104

> <Gold.Chemscore.DG>
-22.6102

> <Gold.Chemscore.ZeroCoef>
-5.4800

> <Gold.Chemscore.Hbond>
2.5818

> <Gold.Chemscore.Metal>
0.0000

> <Gold.Chemscore.Lipo>
109.9538

> <Gold.Chemscore.Internal_Hbond>
0.0000

> <Gold.Chemscore.DEClash>
1.3660

> <Gold.Chemscore.DEInternal>
2.7339

> <Gold.Chemscore.Rot>
1.7021

> <Gold.Chemscore.Internal.Correction>
   9.000000E+99

> <Gold.Chemscore.Hbonds>
donor molecule, donor type, donor heavy atom, donor atom, acceptor molecule, acceptor atom, score
      L1  H    11    48       P1  7948  0.81
      L1  H    17    43       P1  8028  0.91
      P1  H 10752 10765       L1     9  0.74

> <Gold.Chemscore.Hbond.Weighted>
-8.6231

> <Gold.Chemscore.Metal.Weighted>
-0.0000

> <Gold.Chemscore.Lipo.Weighted>
-12.8646

> <Gold.Chemscore.Internal_Hbond.Weighted>
0.0000

> <Gold.Chemscore.DEClash.Weighted>
1.3660

> <Gold.Chemscore.DEInternal.Weighted>
2.7339

> <Gold.Chemscore.Rot.Weighted>
4.3575

> <Gold.Chemscore.Internal.Correction.Weighted>
   9.000000E+99

> <Gold.Protein.RotatedTorsions>
[ 6907 6896 6895 6894 ] final -153.07 input  -60.11 | X-H torsion
[ 7974 7965 7964 7962 ] final -121.29 input  175.53 | X-H torsion
[ 8008 7997 7996 7995 ] final  -11.02 input   59.86 | X-H torsion
[ 10167 10162 10161 10158 ] final -115.38 input  -65.29 | X-H torsion
[ 10718 10713 10712 10709 ] final  172.50 input   66.30 | X-H torsion
[ 10763 10752 10751 10750 ] final -160.40 input  -60.55 | X-H torsion
[ 11005 11000 10999 10996 ] final  156.06 input  -57.11 | X-H torsion

> <Gold.Protein.ActiveResidues>
 VAL166  LYS551  ARG553  GLY616  TRP617  ASP618  TYR619  PRO620  LYS621  CYS622 
 ASP623  PHE694  ASN695  SER759  ASP760  ASP761  ALA762  ILE779  LEU786  VAL792 
 PHE793  MET794  SER795  GLU796  ALA797  LYS798  CYS799  TRP800  GLU811  SER814 

> <Gold.Protein.RotatedAtoms>
  151.2371  133.4419  159.2605 H   0  0  0  0  0  0  0  0  0  0  0  0  # atno 6907 bound_to 6896
  151.0740  134.9816  159.8333 H   0  0  0  0  0  0  0  0  0  0  0  0  # atno 6908 bound_to 6896
  152.5416  134.2315  159.8879 H   0  0  0  0  0  0  0  0  0  0  0  0  # atno 6909 bound_to 6896
  145.0420  140.8152  143.4260 H   0  0  0  0  0  0  0  0  0  0  0  0  # atno 7974 bound_to 7965
  154.5502  140.2313  155.8497 H   0  0  0  0  0  0  0  0  0  0  0  0  # atno 8008 bound_to 7997
  156.1940  140.3070  155.9350 H   0  0  0  0  0  0  0  0  0  0  0  0  # atno 8009 bound_to 7997
  155.3085  140.0434  157.3024 H   0  0  0  0  0  0  0  0  0  0  0  0  # atno 8010 bound_to 7997
  140.0907  143.4702  152.1871 H   0  0  0  0  0  0  0  0  0  0  0  0  # atno 10167 bound_to 10162
  156.9780  131.0110  151.2889 H   0  0  0  0  0  0  0  0  0  0  0  0  # atno 10718 bound_to 10713
  154.7393  135.3065  154.8756 H   0  0  0  0  0  0  0  0  0  0  0  0  # atno 10763 bound_to 10752
  153.9575  135.6757  153.4749 H   0  0  0  0  0  0  0  0  0  0  0  0  # atno 10764 bound_to 10752
  153.0993  135.4920  154.8761 H   0  0  0  0  0  0  0  0  0  0  0  0  # atno 10765 bound_to 10752
  140.1639  134.8590  157.2608 H   0  0  0  0  0  0  0  0  0  0  0  0  # atno 11005 bound_to 11000
  145.1636  139.2444  143.5379 LP  0  0  0  0  0  0  0  0  0  0  0  0  # atno 17320 bound_to 7965
  146.3510  140.1369  142.8595 LP  0  0  0  0  0  0  0  0  0  0  0  0  # atno 17321 bound_to 7965
  139.5726  144.7471  151.3850 LP  0  0  0  0  0  0  0  0  0  0  0  0  # atno 17342 bound_to 10162
  140.7030  143.7585  150.7434 LP  0  0  0  0  0  0  0  0  0  0  0  0  # atno 17343 bound_to 10162
  157.5546  130.8205  149.8188 LP  0  0  0  0  0  0  0  0  0  0  0  0  # atno 17370 bound_to 10713
  156.0256  130.3781  150.1834 LP  0  0  0  0  0  0  0  0  0  0  0  0  # atno 17371 bound_to 10713
  140.2457  134.3743  155.7462 LP  0  0  0  0  0  0  0  0  0  0  0  0  # atno 17394 bound_to 11000
  141.2212  133.7289  156.8857 LP  0  0  0  0  0  0  0  0  0  0  0  0  # atno 17395 bound_to 11000

$$$$
