AV-unprocessed.smi:613|AV-procd|sdf|3067|dock2
  -GOLD-   2262023593D 1   1.00000     0.00000
 Structure written by MMmdl.
 39 40  0  0  0  0  0  0  0  0  2 V2000
  151.9650  139.8347  159.0108 C   0  0  0  0  0  0  0  0  0  0  0  0
  152.0647  141.0736  158.2489 N   0  0  0  0  0  0  0  0  0  0  0  0
  151.8763  141.0217  156.7971 C   0  0  0  0  0  0  0  0  0  0  0  0
  150.4481  140.6147  156.3824 C   0  0  1  0  0  0  0  0  0  0  0  0
  149.3668  141.6189  156.8368 C   0  0  0  0  0  0  0  0  0  0  0  0
  148.0353  141.2737  156.3328 N   0  0  0  0  0  0  0  0  0  0  0  0
  146.9831  142.2141  156.7430 C   0  0  0  0  0  0  0  0  0  0  0  0
  146.8536  142.3968  158.2598 C   0  0  0  0  0  0  0  0  0  0  0  0
  147.2420  143.5703  158.7640 N   0  0  0  0  0  0  0  0  0  0  0  0
  146.4019  141.4944  158.9620 O   0  0  0  0  0  0  0  0  0  0  0  0
  148.0846  141.1278  154.8811 C   0  0  0  0  0  0  0  0  0  0  0  0
  149.1640  140.1252  154.4422 C   0  0  0  0  0  0  0  0  0  0  0  0
  150.4268  140.5301  154.9604 O   0  0  0  0  0  0  0  0  0  0  0  0
  152.0219  142.3071  158.9415 C   0  0  0  0  0  0  0  0  0  0  0  0
  152.0498  143.5612  158.2828 C   0  0  0  0  0  0  0  0  0  0  0  0
  152.0209  144.7344  159.0556 C   0  0  0  0  0  0  0  0  0  0  0  0
  151.9624  144.5928  160.4517 C   0  0  0  0  0  0  0  0  0  0  0  0
  151.9276  143.3933  161.0705 N   0  0  0  0  0  0  0  0  0  0  0  0
  151.9552  142.2918  160.3013 N   0  3  0  0  0  0  0  0  0  0  0  0
  152.8034  139.7386  159.7012 H   0  0  0  0  0  0  0  0  0  0  0  0
  151.9798  138.9677  158.3496 H   0  0  0  0  0  0  0  0  0  0  0  0
  151.0351  139.8043  159.5794 H   0  0  0  0  0  0  0  0  0  0  0  0
  152.1602  141.9577  156.3164 H   0  0  0  0  0  0  0  0  0  0  0  0
  152.5759  140.2814  156.4076 H   0  0  0  0  0  0  0  0  0  0  0  0
  150.2229  139.6262  156.7867 H   0  0  0  0  0  0  0  0  0  0  0  0
  149.3617  141.6409  157.9256 H   0  0  0  0  0  0  0  0  0  0  0  0
  149.6368  142.6227  156.5038 H   0  0  0  0  0  0  0  0  0  0  0  0
  147.1596  143.1915  156.2904 H   0  0  0  0  0  0  0  0  0  0  0  0
  146.0176  141.8762  156.3626 H   0  0  0  0  0  0  0  0  0  0  0  0
  147.1692  143.7407  159.7566 H   0  0  0  0  0  0  0  0  0  0  0  0
  147.6009  144.2866  158.1495 H   0  0  0  0  0  0  0  0  0  0  0  0
  147.1153  140.7959  154.5068 H   0  0  0  0  0  0  0  0  0  0  0  0
  148.2826  142.0948  154.4152 H   0  0  0  0  0  0  0  0  0  0  0  0
  148.9241  139.1196  154.7906 H   0  0  0  0  0  0  0  0  0  0  0  0
  149.2224  140.0826  153.3544 H   0  0  0  0  0  0  0  0  0  0  0  0
  152.0980  143.6436  157.2075 H   0  0  0  0  0  0  0  0  0  0  0  0
  152.0456  145.7105  158.5943 H   0  0  0  0  0  0  0  0  0  0  0  0
  151.9403  145.4633  161.0907 H   0  0  0  0  0  0  0  0  0  0  0  0
  151.9322  141.3839  160.7656 H   0  0  0  0  0  0  0  0  0  0  0  0
  1  2  1  0  0  0  0
  1 20  1  0  0  0  0
  1 21  1  0  0  0  0
  1 22  1  0  0  0  0
  2  3  1  0  0  0  0
  2 14  1  0  0  0  0
  3  4  1  0  0  0  0
  3 23  1  0  0  0  0
  3 24  1  0  0  0  0
  4 13  1  0  0  0  0
  4  5  1  0  0  0  0
  4 25  1  0  0  0  0
  5  6  1  0  0  0  0
  5 26  1  0  0  0  0
  5 27  1  0  0  0  0
  6  7  1  0  0  0  0
  6 11  1  0  0  0  0
  7  8  1  0  0  0  0
  7 28  1  0  0  0  0
  7 29  1  0  0  0  0
  8  9  1  0  0  0  0
  8 10  2  0  0  0  0
  9 30  1  0  0  0  0
  9 31  1  0  0  0  0
 11 12  1  0  0  0  0
 11 32  1  0  0  0  0
 11 33  1  0  0  0  0
 12 13  1  0  0  0  0
 12 34  1  0  0  0  0
 12 35  1  0  0  0  0
 14 19  1  0  0  0  0
 14 15  2  0  0  0  0
 15 16  1  0  0  0  0
 15 36  1  0  0  0  0
 16 17  2  0  0  0  0
 16 37  1  0  0  0  0
 17 18  1  0  0  0  0
 17 38  1  0  0  0  0
 18 19  2  0  0  0  0
 19 39  1  0  0  0  0
M  CHG  1  19   1
M  END
> <s_m_source_file>
AV-unprocessed.smi

> <i_m_source_file_index>
613

> <i_lp_mmshare_version>
43012

> <i_f3d_flags>
0

> <s_epik_input>
bjFuW2NIXVtjSF1bY0hdYzFOKFtDSDNdKVtDSDJdW0NAQEhdMltDSDJdTihbQ0gyXVtDSDJdTzIpW0NIMl1DKD1PKVtOSDJd

> <s_epik_cmdline>
J2VwaWtfcHl0aG9uJywgJy1waCcsICc3LjAnLCAnLXRuJywgJzgnLCAnLW1hJywgJzIwMCcsICctbWV0YWxfYmluZGluZycsICctaW1hZScsICc8aW5maWxlLm1hZT4nLCAnLW9tYWUnLCAnPG91dGZpbGUubWFlPic=

> <r_lp_tautomer_probability>
0.966961

> <r_epik_Ionization_Penalty>
1.86301

> <r_epik_Ionization_Penalty_Charging>
1.86058

> <r_epik_Ionization_Penalty_Neutral>
0.00243207

> <r_epik_State_Penalty>
1.48112

> <r_epik_Charging_Adjusted_Penalty>
3.3417

> <i_epik_Tot_Q>
1

> <i_epik_Tot_abs_Q>
1

> <r_epik_Metal_State_Penalty>
1.50193

> <b_epik_Metal_Only>
0

> <s_lp_Force_Field>
OPLS_2005

> <r_lp_Energy>
27.4635

> <b_lp_Chiralities_Consistent>
1

> <s_lp_Variant>
AV-unprocessed.smi:613-4

> <Gold.Version>
5.8.1

> <Gold.Id.Protein>
6NUR|6NUR_protein|mol2

> <Gold.PLP.Fitness>
41.4346

> <Gold.PLP.PLP>
-33.6095

> <Gold.PLP.part.hbond>
-3.0000

> <Gold.PLP.part.metal>
0.0000

> <Gold.PLP.part.buried>
-6.1871

> <Gold.PLP.part.nonpolar>
-24.2976

> <Gold.PLP.part.repulsive>
0.4496

> <Gold.PLP.ligand.clash>
0.0000

> <Gold.PLP.ligand.torsion>
0.3085

> <Gold.PLP.Chemscore.Hbond>
2.7280

> <Gold.PLP.Chemscore.CHOScore>
0.0000

> <Gold.PLP.Chemscore.Metal>
0.0000

> <Gold.Chemscore.Hbonds>
donor molecule, donor type, donor heavy atom, donor atom, acceptor molecule, acceptor atom, score
      L1  H     9    31       P1  8029  1.00
      P1  H  6934  6946       L1    10  0.70
      P1  H  7989  7998       L1    13  0.98

> <Gold.PLP.Chemscore.Internal.Correction>
0.2581

> <Gold.Rescore>
     Score         DG    S(hbond)    S(metal)    S(lipo)     H(rot)  DE(clash)    DE(int)     intcor
     16.23     -16.73       2.47        0.00      74.50       2.23       0.16       0.34       ----

> <Gold.Chemscore.Fitness>
16.2308

> <Gold.Chemscore.DG>
-16.7318

> <Gold.Chemscore.ZeroCoef>
-5.4800

> <Gold.Chemscore.Hbond>
2.4719

> <Gold.Chemscore.Metal>
0.0000

> <Gold.Chemscore.Lipo>
74.5020

> <Gold.Chemscore.Internal_Hbond>
0.0000

> <Gold.Chemscore.DEClash>
0.1569

> <Gold.Chemscore.DEInternal>
0.3441

> <Gold.Chemscore.Rot>
2.2348

> <Gold.Chemscore.Internal.Correction>
   9.000000E+99

> <Gold.Chemscore.Hbonds>
donor molecule, donor type, donor heavy atom, donor atom, acceptor molecule, acceptor atom, score
      L1  H     9    31       P1  8029  0.45
      P1  H  6934  6946       L1    10  0.70
      P1  H  7989  7998       L1    13  0.65

> <Gold.Chemscore.Hbond.Weighted>
-8.2562

> <Gold.Chemscore.Metal.Weighted>
-0.0000

> <Gold.Chemscore.Lipo.Weighted>
-8.7167

> <Gold.Chemscore.Internal_Hbond.Weighted>
0.0000

> <Gold.Chemscore.DEClash.Weighted>
0.1569

> <Gold.Chemscore.DEInternal.Weighted>
0.3441

> <Gold.Chemscore.Rot.Weighted>
5.7211

> <Gold.Chemscore.Internal.Correction.Weighted>
   9.000000E+99

> <Gold.Protein.RotatedTorsions>
[ 6907 6896 6895 6894 ] final  -87.57 input  -60.11 | X-H torsion
[ 7974 7965 7964 7962 ] final   51.55 input  175.53 | X-H torsion
[ 8008 7997 7996 7995 ] final  126.34 input   59.86 | X-H torsion
[ 10167 10162 10161 10158 ] final   70.36 input  -65.29 | X-H torsion
[ 10718 10713 10712 10709 ] final   94.27 input   66.30 | X-H torsion
[ 10763 10752 10751 10750 ] final   36.67 input  -60.55 | X-H torsion
[ 11005 11000 10999 10996 ] final -109.45 input  -57.11 | X-H torsion

> <Gold.Protein.ActiveResidues>
 VAL166  LYS551  ARG553  GLY616  TRP617  ASP618  TYR619  PRO620  LYS621  CYS622 
 ASP623  PHE694  ASN695  SER759  ASP760  ASP761  ALA762  ILE779  LEU786  VAL792 
 PHE793  MET794  SER795  GLU796  ALA797  LYS798  CYS799  TRP800  GLU811  SER814 

> <Gold.Protein.RotatedAtoms>
  150.6866  134.2876  159.4652 H   0  0  0  0  0  0  0  0  0  0  0  0  # atno 6907 bound_to 6896
  152.0784  134.9485  160.0583 H   0  0  0  0  0  0  0  0  0  0  0  0  # atno 6908 bound_to 6896
  152.0847  133.4136  159.4554 H   0  0  0  0  0  0  0  0  0  0  0  0  # atno 6909 bound_to 6896
  145.9902  139.4331  143.0078 H   0  0  0  0  0  0  0  0  0  0  0  0  # atno 7974 bound_to 7965
  156.2861  140.2695  156.2096 H   0  0  0  0  0  0  0  0  0  0  0  0  # atno 8008 bound_to 7997
  155.0278  140.0386  157.2480 H   0  0  0  0  0  0  0  0  0  0  0  0  # atno 8009 bound_to 7997
  154.7380  140.2719  155.6403 H   0  0  0  0  0  0  0  0  0  0  0  0  # atno 8010 bound_to 7997
  140.0577  144.5259  150.7316 H   0  0  0  0  0  0  0  0  0  0  0  0  # atno 10167 bound_to 10162
  157.6949  131.0507  150.4161 H   0  0  0  0  0  0  0  0  0  0  0  0  # atno 10718 bound_to 10713
  153.0068  135.6299  154.2022 H   0  0  0  0  0  0  0  0  0  0  0  0  # atno 10763 bound_to 10752
  154.1765  135.2815  155.3067 H   0  0  0  0  0  0  0  0  0  0  0  0  # atno 10764 bound_to 10752
  154.5868  135.5630  153.7299 H   0  0  0  0  0  0  0  0  0  0  0  0  # atno 10765 bound_to 10752
  141.0847  133.9160  157.2212 H   0  0  0  0  0  0  0  0  0  0  0  0  # atno 11005 bound_to 11000
  145.7641  140.9923  143.1184 LP  0  0  0  0  0  0  0  0  0  0  0  0  # atno 17320 bound_to 7965
  144.6887  139.9366  143.7473 LP  0  0  0  0  0  0  0  0  0  0  0  0  # atno 17321 bound_to 7965
  140.7186  143.2568  151.4351 LP  0  0  0  0  0  0  0  0  0  0  0  0  # atno 17342 bound_to 10162
  139.5913  144.1493  152.2091 LP  0  0  0  0  0  0  0  0  0  0  0  0  # atno 17343 bound_to 10162
  156.4540  130.4017  149.6618 LP  0  0  0  0  0  0  0  0  0  0  0  0  # atno 17370 bound_to 10713
  156.3757  130.7553  151.2541 LP  0  0  0  0  0  0  0  0  0  0  0  0  # atno 17371 bound_to 10713
  139.9664  135.0141  156.9397 LP  0  0  0  0  0  0  0  0  0  0  0  0  # atno 17394 bound_to 11000
  140.5390  134.0738  155.7336 LP  0  0  0  0  0  0  0  0  0  0  0  0  # atno 17395 bound_to 11000

$$$$
