AV-unprocessed.smi:34|AV-procd|sdf|234|dock10
  -GOLD-   2262015573D 1   1.00000     0.00000
 Structure written by MMmdl.
 54 58  0  0  0  0  0  0  0  0  2 V2000
  152.4105  139.0853  160.0492 O   0  0  0  0  0  0  0  0  0  0  0  0
  152.8195  139.8764  159.1963 C   0  0  0  0  0  0  0  0  0  0  0  0
  153.3692  139.5890  157.9892 N   0  5  0  0  0  0  0  0  0  0  0  0
  152.5793  139.4477  156.9140 C   0  0  0  0  0  0  0  0  0  0  0  0
  153.0791  138.9504  155.7533 N   0  0  0  0  0  0  0  0  0  0  0  0
  152.2904  138.8131  154.6805 C   0  0  0  0  0  0  0  0  0  0  0  0
  150.9915  139.1015  154.5493 N   0  0  0  0  0  0  0  0  0  0  0  0
  150.4771  139.5899  155.7149 C   0  0  0  0  0  0  0  0  0  0  0  0
  151.1986  139.7869  156.9271 C   0  0  0  0  0  0  0  0  0  0  0  0
  150.3683  140.2987  157.9139 N   0  0  0  0  0  0  0  0  0  0  0  0
  149.2072  140.3925  157.2681 C   0  0  0  0  0  0  0  0  0  0  0  0
  149.1838  140.0030  155.9758 N   0  0  0  0  0  0  0  0  0  0  0  0
  148.0448  140.0021  155.0030 C   0  0  1  0  0  0  0  0  0  0  0  0
  146.8494  140.1278  155.7189 O   0  0  0  0  0  0  0  0  0  0  0  0
  146.3292  141.4430  155.5568 C   0  0  2  0  0  0  0  0  0  0  0  0
  144.8210  141.4540  155.8241 C   0  0  0  0  0  0  0  0  0  0  0  0
  144.3100  142.7451  155.5367 O   0  0  0  0  0  0  0  0  0  0  0  0
  144.7068  143.8055  156.2662 C   0  0  0  0  0  0  0  0  0  0  0  0
  145.4476  143.7196  157.2478 O   0  0  0  0  0  0  0  0  0  0  0  0
  144.1564  145.0964  155.7609 C   0  0  0  0  0  0  0  0  0  0  0  0
  143.3241  145.0940  154.6171 C   0  0  0  0  0  0  0  0  0  0  0  0
  142.7898  146.2970  154.1161 C   0  0  0  0  0  0  0  0  0  0  0  0
  143.0811  147.5172  154.7530 C   0  0  0  0  0  0  0  0  0  0  0  0
  143.9072  147.5331  155.8920 C   0  0  0  0  0  0  0  0  0  0  0  0
  144.4423  146.3309  156.3949 C   0  0  0  0  0  0  0  0  0  0  0  0
  146.6969  141.7329  154.1061 C   0  0  1  0  0  0  0  0  0  0  0  0
  146.5967  143.0196  153.7676 F   0  0  0  0  0  0  0  0  0  0  0  0
  148.1129  141.1878  154.0106 C   0  0  1  0  0  0  0  0  0  0  0  0
  149.0677  142.1771  154.3618 O   0  0  0  0  0  0  0  0  0  0  0  0
  152.6608  141.3529  159.4421 C   0  0  0  0  0  0  0  0  0  0  0  0
  152.3654  142.2152  158.3616 C   0  0  0  0  0  0  0  0  0  0  0  0
  152.1837  143.5955  158.5754 C   0  0  0  0  0  0  0  0  0  0  0  0
  152.2859  144.1272  159.8745 C   0  0  0  0  0  0  0  0  0  0  0  0
  152.5668  143.2770  160.9604 C   0  0  0  0  0  0  0  0  0  0  0  0
  152.7491  141.8966  160.7472 C   0  0  0  0  0  0  0  0  0  0  0  0
  152.7704  138.4145  153.7990 H   0  0  0  0  0  0  0  0  0  0  0  0
  148.3258  140.7695  157.7655 H   0  0  0  0  0  0  0  0  0  0  0  0
  148.0890  139.0238  154.5228 H   0  0  0  0  0  0  0  0  0  0  0  0
  146.8489  142.1365  156.2204 H   0  0  0  0  0  0  0  0  0  0  0  0
  144.3221  140.7277  155.1812 H   0  0  0  0  0  0  0  0  0  0  0  0
  144.6170  141.1749  156.8589 H   0  0  0  0  0  0  0  0  0  0  0  0
  143.0862  144.1694  154.1109 H   0  0  0  0  0  0  0  0  0  0  0  0
  142.1557  146.2825  153.2420 H   0  0  0  0  0  0  0  0  0  0  0  0
  142.6715  148.4395  154.3684 H   0  0  0  0  0  0  0  0  0  0  0  0
  144.1309  148.4693  156.3817 H   0  0  0  0  0  0  0  0  0  0  0  0
  145.0720  146.3785  157.2713 H   0  0  0  0  0  0  0  0  0  0  0  0
  146.0411  141.1739  153.4369 H   0  0  0  0  0  0  0  0  0  0  0  0
  148.3378  140.8202  153.0089 H   0  0  0  0  0  0  0  0  0  0  0  0
  148.6282  143.0119  154.4187 H   0  0  0  0  0  0  0  0  0  0  0  0
  152.2794  141.8219  157.3588 H   0  0  0  0  0  0  0  0  0  0  0  0
  151.9628  144.2454  157.7417 H   0  0  0  0  0  0  0  0  0  0  0  0
  152.1448  145.1852  160.0389 H   0  0  0  0  0  0  0  0  0  0  0  0
  152.6384  143.6815  161.9591 H   0  0  0  0  0  0  0  0  0  0  0  0
  152.9522  141.2595  161.5958 H   0  0  0  0  0  0  0  0  0  0  0  0
  1  2  2  0  0  0  0
  2  3  1  0  0  0  0
  2 30  1  0  0  0  0
  3  4  1  0  0  0  0
  4  9  1  0  0  0  0
  4  5  2  0  0  0  0
  5  6  1  0  0  0  0
  6  7  2  0  0  0  0
  6 36  1  0  0  0  0
  7  8  1  0  0  0  0
  8 12  1  0  0  0  0
  8  9  2  0  0  0  0
  9 10  1  0  0  0  0
 10 11  2  0  0  0  0
 11 12  1  0  0  0  0
 11 37  1  0  0  0  0
 12 13  1  0  0  0  0
 13 28  1  0  0  0  0
 13 14  1  0  0  0  0
 13 38  1  0  0  0  0
 14 15  1  0  0  0  0
 15 16  1  0  0  0  0
 15 26  1  0  0  0  0
 15 39  1  0  0  0  0
 16 17  1  0  0  0  0
 16 40  1  0  0  0  0
 16 41  1  0  0  0  0
 17 18  1  0  0  0  0
 18 19  2  0  0  0  0
 18 20  1  0  0  0  0
 20 25  1  0  0  0  0
 20 21  2  0  0  0  0
 21 22  1  0  0  0  0
 21 42  1  0  0  0  0
 22 23  2  0  0  0  0
 22 43  1  0  0  0  0
 23 24  1  0  0  0  0
 23 44  1  0  0  0  0
 24 25  2  0  0  0  0
 24 45  1  0  0  0  0
 25 46  1  0  0  0  0
 26 27  1  0  0  0  0
 26 28  1  0  0  0  0
 26 47  1  0  0  0  0
 28 29  1  0  0  0  0
 28 48  1  0  0  0  0
 29 49  1  0  0  0  0
 30 35  1  0  0  0  0
 30 31  2  0  0  0  0
 31 32  1  0  0  0  0
 31 50  1  0  0  0  0
 32 33  2  0  0  0  0
 32 51  1  0  0  0  0
 33 34  1  0  0  0  0
 33 52  1  0  0  0  0
 34 35  2  0  0  0  0
 34 53  1  0  0  0  0
 35 54  1  0  0  0  0
M  CHG  1   3  -1
M  END
> <s_m_source_file>
AV-unprocessed.smi

> <i_m_source_file_index>
34

> <i_lp_mmshare_version>
43012

> <i_f3d_flags>
0

> <s_epik_input>
W2NIXTFbY0hdW2NIXVtjSF1bY0hdYzFDKD1PKVtOSF1jKG5bY0hdbjIpYyhjMjMpbltjSF1uM1tDQEBIXTRPW0NASF0oW0NAQEhdKEYpW0NASF00W09IXSlbQ0gyXU9DKD1PKWM1W2NIXVtjSF1bY0hdW2NIXVtjSF01

> <s_epik_cmdline>
J2VwaWtfcHl0aG9uJywgJy1waCcsICc3LjAnLCAnLXRuJywgJzgnLCAnLW1hJywgJzIwMCcsICctbWV0YWxfYmluZGluZycsICctaW1hZScsICc8aW5maWxlLm1hZT4nLCAnLW9tYWUnLCAnPG91dGZpbGUubWFlPic=

> <r_lp_tautomer_probability>
1

> <r_epik_Ionization_Penalty>
4.33227

> <r_epik_Ionization_Penalty_Charging>
3.41027

> <r_epik_Ionization_Penalty_Neutral>
0.922001

> <r_epik_State_Penalty>
3.41358

> <r_epik_Charging_Adjusted_Penalty>
6.82385

> <i_epik_Tot_Q>
-1

> <i_epik_Tot_abs_Q>
1

> <r_epik_Metal_State_Penalty>
0.496292

> <b_epik_Metal_Only>
1

> <s_epik_Chemistry_Notes>
This compound has an ester and may undergo hydrolysis at high or low pH. This compound contains an acetal/aminal-like group ( X-CH(R)-Y where X, Y are N, S, or O) that may be acid/base labile, releasing an aldehyde.

> <s_lp_Force_Field>
OPLS_2005

> <r_lp_Energy>
50.8657

> <b_lp_Chiralities_Consistent>
1

> <s_lp_Variant>
AV-unprocessed.smi:34-20

> <Gold.Version>
5.8.1

> <Gold.Id.Protein>
6NUR|6NUR_protein|mol2

> <Gold.PLP.Fitness>
62.4557

> <Gold.PLP.PLP>
-55.4751

> <Gold.PLP.part.hbond>
-4.8577

> <Gold.PLP.part.metal>
0.0000

> <Gold.PLP.part.buried>
-2.4621

> <Gold.PLP.part.nonpolar>
-47.8039

> <Gold.PLP.part.repulsive>
0.3958

> <Gold.PLP.ligand.clash>
0.0000

> <Gold.PLP.ligand.torsion>
1.7275

> <Gold.PLP.Chemscore.Hbond>
3.3334

> <Gold.PLP.Chemscore.CHOScore>
0.0000

> <Gold.PLP.Chemscore.Metal>
0.0000

> <Gold.Chemscore.Hbonds>
donor molecule, donor type, donor heavy atom, donor atom, acceptor molecule, acceptor atom, score
      L1  H    29    49       P1  8028  0.58
      P1  H  7989  7998       L1     7  0.21
      P1  H  7997  8008       L1     5  0.18
      P1  H  7997  8010       L1     3  1.82
      P1  H  8011  8017       L1    29  0.12

> <Gold.PLP.Chemscore.Internal.Correction>
0.4353

> <Gold.Rescore>
     Score         DG    S(hbond)    S(metal)    S(lipo)     H(rot)  DE(clash)    DE(int)     intcor
     10.82     -17.61       1.08        0.00     131.73       2.69       1.67       5.12       ----

> <Gold.Chemscore.Fitness>
10.8200

> <Gold.Chemscore.DG>
-17.6054

> <Gold.Chemscore.ZeroCoef>
-5.4800

> <Gold.Chemscore.Hbond>
1.0811

> <Gold.Chemscore.Metal>
0.0000

> <Gold.Chemscore.Lipo>
131.7286

> <Gold.Chemscore.Internal_Hbond>
0.0000

> <Gold.Chemscore.DEClash>
1.6691

> <Gold.Chemscore.DEInternal>
5.1163

> <Gold.Chemscore.Rot>
2.6944

> <Gold.Chemscore.Internal.Correction>
   9.000000E+99

> <Gold.Chemscore.Hbonds>
donor molecule, donor type, donor heavy atom, donor atom, acceptor molecule, acceptor atom, score
      L1  H    29    49       P1  8028  0.58
      P1  H  7997  8008       L1     5  0.04
      P1  H  7997  8010       L1     3  0.20

> <Gold.Chemscore.Hbond.Weighted>
-3.6107

> <Gold.Chemscore.Metal.Weighted>
-0.0000

> <Gold.Chemscore.Lipo.Weighted>
-15.4122

> <Gold.Chemscore.Internal_Hbond.Weighted>
0.0000

> <Gold.Chemscore.DEClash.Weighted>
1.6691

> <Gold.Chemscore.DEInternal.Weighted>
5.1163

> <Gold.Chemscore.Rot.Weighted>
6.8975

> <Gold.Chemscore.Internal.Correction.Weighted>
   9.000000E+99

> <Gold.Protein.RotatedTorsions>
[ 6907 6896 6895 6894 ] final   94.85 input  -60.11 | X-H torsion
[ 7974 7965 7964 7962 ] final  -68.94 input  175.53 | X-H torsion
[ 8008 7997 7996 7995 ] final   15.93 input   59.86 | X-H torsion
[ 10167 10162 10161 10158 ] final  -53.11 input  -65.29 | X-H torsion
[ 10718 10713 10712 10709 ] final  -45.93 input   66.30 | X-H torsion
[ 10763 10752 10751 10750 ] final -110.36 input  -60.55 | X-H torsion
[ 11005 11000 10999 10996 ] final -124.22 input  -57.11 | X-H torsion

> <Gold.Protein.ActiveResidues>
 VAL166  LYS551  ARG553  GLY616  TRP617  ASP618  TYR619  PRO620  LYS621  CYS622 
 ASP623  PHE694  ASN695  SER759  ASP760  ASP761  ALA762  ILE779  LEU786  VAL792 
 PHE793  MET794  SER795  GLU796  ALA797  LYS798  CYS799  TRP800  GLU811  SER814 

> <Gold.Protein.RotatedAtoms>
  152.5447  134.1131  159.8366 H   0  0  0  0  0  0  0  0  0  0  0  0  # atno 6907 bound_to 6896
  151.1195  133.5107  159.2610 H   0  0  0  0  0  0  0  0  0  0  0  0  # atno 6908 bound_to 6896
  151.1795  135.0364  159.8840 H   0  0  0  0  0  0  0  0  0  0  0  0  # atno 6909 bound_to 6896
  145.7101  140.9082  143.0685 H   0  0  0  0  0  0  0  0  0  0  0  0  # atno 7974 bound_to 7965
  154.8696  140.2957  155.5489 H   0  0  0  0  0  0  0  0  0  0  0  0  # atno 8008 bound_to 7997
  156.3021  140.2462  156.3616 H   0  0  0  0  0  0  0  0  0  0  0  0  # atno 8009 bound_to 7997
  154.8831  140.0397  157.1783 H   0  0  0  0  0  0  0  0  0  0  0  0  # atno 8010 bound_to 7997
  140.6502  143.2561  151.4745 H   0  0  0  0  0  0  0  0  0  0  0  0  # atno 10167 bound_to 10162
  156.2234  130.4167  149.8964 H   0  0  0  0  0  0  0  0  0  0  0  0  # atno 10718 bound_to 10713
  154.8244  135.4567  154.0874 H   0  0  0  0  0  0  0  0  0  0  0  0  # atno 10763 bound_to 10752
  153.2201  135.6893  153.8017 H   0  0  0  0  0  0  0  0  0  0  0  0  # atno 10764 bound_to 10752
  153.7437  135.3308  155.3285 H   0  0  0  0  0  0  0  0  0  0  0  0  # atno 10765 bound_to 10752
  140.9858  134.0609  157.3712 H   0  0  0  0  0  0  0  0  0  0  0  0  # atno 11005 bound_to 11000
  144.6944  139.9063  143.7461 LP  0  0  0  0  0  0  0  0  0  0  0  0  # atno 17320 bound_to 7965
  146.0720  139.3709  143.0517 LP  0  0  0  0  0  0  0  0  0  0  0  0  # atno 17321 bound_to 7965
  139.5716  144.1915  152.1844 LP  0  0  0  0  0  0  0  0  0  0  0  0  # atno 17342 bound_to 10162
  140.1213  144.5371  150.6861 LP  0  0  0  0  0  0  0  0  0  0  0  0  # atno 17343 bound_to 10162
  156.6603  130.8779  151.3546 LP  0  0  0  0  0  0  0  0  0  0  0  0  # atno 17370 bound_to 10713
  157.7098  130.9427  150.1053 LP  0  0  0  0  0  0  0  0  0  0  0  0  # atno 17371 bound_to 10713
  139.8970  135.0148  156.7078 LP  0  0  0  0  0  0  0  0  0  0  0  0  # atno 17394 bound_to 11000
  140.7116  133.9218  155.8088 LP  0  0  0  0  0  0  0  0  0  0  0  0  # atno 17395 bound_to 11000

$$$$
