#       Name:                AV-unprocessed.smi:1446
#       Creating user name   scv26
#       Creation time:       Fri Mar 27 05:57:09 2020


#       File generated by GOLD software.
#

@<TRIPOS>MOLECULE
AV-unprocessed.smi:1446
    55    56     1
SMALL
NO_CHARGES


@<TRIPOS>ATOM
      1 ****        -4.7278  -2.3100  -3.3221 C.3            1 S1                 0.0000
      2 ****        -4.1408  -1.3797  -2.2666 C.2            1 S1                 0.0000
      3 ****        -3.9075  -0.2028  -2.5396 O.2            1 S1                 0.0000
      4 ****        -3.9081  -1.9224  -1.0611 N.am           1 S1                 0.0000
      5 ****        -3.3488  -1.2173   0.0945 C.3            1 S1                 0.0000
      6 ****        -1.8135  -1.1808  -0.0404 C.2            1 S1                 0.0000
      7 ****        -1.1958  -2.2122  -0.3117 O.2            1 S1                 0.0000
      8 ****        -1.2394   0.0183   0.1738 N.am           1 S1                 0.0000
      9 ****         0.1398   0.3540   0.1365 C.ar           1 S1                 0.0000
     10 ****         0.4346   1.7075   0.4029 C.ar           1 S1                 0.0000
     11 ****         1.7741   2.1415   0.3944 C.ar           1 S1                 0.0000
     12 ****         2.8064   1.2145   0.1150 C.ar           1 S1                 0.0000
     13 ****         4.1717   1.5741   0.0947 N.3            1 S1                 0.0000
     14 ****         4.9188   1.1858  -1.0993 C.3            1 S1                 0.0000
     15 ****         6.4314   1.3285  -0.8547 C.3            1 S1                 0.0000
     16 ****         6.7275   2.6512  -0.4187 O.3            1 S1                 0.0000
     17 ****         6.0765   2.9611   0.8089 C.3            1 S1                 0.0000
     18 ****         4.5516   2.8817   0.6217 C.3            1 S1                 0.0000
     19 ****         2.4080  -0.1186  -0.1372 C.ar           1 S1                 0.0000
     20 ****         1.1252  -0.5368  -0.1273 N.ar           1 S1                 0.0000
     21 ****        -3.7515  -1.9774   1.3931 C.3            1 S1                 0.0000
     22 ****        -5.2797  -2.1389   1.5185 C.3            1 S1                 0.0000
     23 ****        -3.2095  -1.3077   2.6731 C.3            1 S1                 0.0000
     24 ****        -4.0346  -3.1225  -3.5403 H              1 S1                 0.0000
     25 ****        -4.9249  -1.7701  -4.2489 H              1 S1                 0.0000
     26 ****        -5.6664  -2.7397  -2.9714 H              1 S1                 0.0000
     27 ****        -4.1245  -2.9003  -0.9329 H              1 S1                 0.0000
     28 ****        -3.7475  -0.2011   0.1312 H              1 S1                 0.0000
     29 ****        -1.8666   0.7797   0.3878 H              1 S1                 0.0000
     30 ****        -0.3562   2.4132   0.6124 H              1 S1                 0.0000
     31 ****         1.9818   3.1817   0.5945 H              1 S1                 0.0000
     32 ****         4.7032   0.1605  -1.3970 H              1 S1                 0.0000
     33 ****         4.6144   1.8267  -1.9277 H              1 S1                 0.0000
     34 ****         6.7753   0.6047  -0.1140 H              1 S1                 0.0000
     35 ****         6.9801   1.1266  -1.7746 H              1 S1                 0.0000
     36 ****         6.4082   2.2772   1.5920 H              1 S1                 0.0000
     37 ****         6.3644   3.9651   1.1204 H              1 S1                 0.0000
     38 ****         4.2208   3.6597  -0.0677 H              1 S1                 0.0000
     39 ****         4.0625   3.0593   1.5801 H              1 S1                 0.0000
     40 ****         3.1368  -0.8904  -0.3349 H              1 S1                 0.0000
     41 ****        -3.3290  -2.9830   1.3517 H              1 S1                 0.0000
     42 ****        -5.7796  -1.1699   1.5274 H              1 S1                 0.0000
     43 ****        -5.5455  -2.6565   2.4407 H              1 S1                 0.0000
     44 ****        -5.6985  -2.7221   0.6985 H              1 S1                 0.0000
     45 ****        -3.5492  -0.2745   2.7517 H              1 S1                 0.0000
     46 ****        -2.1199  -1.3044   2.7065 H              1 S1                 0.0000
     47 ****        -3.5487  -1.8350   3.5650 H              1 S1                 0.0000
     48 ****        -4.1029   0.1461  -3.4561 LP             1 S1                 0.0000
     49 ****        -3.5224   0.4048  -1.8449 LP             1 S1                 0.0000
     50 ****        -1.6905  -3.0711  -0.4440 LP             1 S1                 0.0000
     51 ****        -0.1999  -2.1901  -0.3995 LP             1 S1                 0.0000
     52 ****         4.4911   0.9609   0.8172 LP             1 S1                 0.0000
     53 ****         6.4243   3.2982  -1.1183 LP             1 S1                 0.0000
     54 ****         7.7157   2.7366  -0.2916 LP             1 S1                 0.0000
     55 ****         0.9044  -1.4943  -0.3128 LP             1 S1                 0.0000
@<TRIPOS>BOND
    1    1    2 1     
    2    1   24 1     
    3    1   25 1     
    4    1   26 1     
    5    2    3 2     
    6    2    4 am    
    7    4    5 1     
    8    4   27 1     
    9    5    6 1     
   10    5   21 1     
   11    5   28 1     
   12    6    7 2     
   13    6    8 am    
   14    8    9 1     
   15    8   29 1     
   16    9   20 ar    
   17    9   10 ar    
   18   10   11 ar    
   19   10   30 1     
   20   11   12 ar    
   21   11   31 1     
   22   12   13 1     
   23   12   19 ar    
   24   13   18 1     
   25   13   14 1     
   26   14   15 1     
   27   14   32 1     
   28   14   33 1     
   29   15   16 1     
   30   15   34 1     
   31   15   35 1     
   32   16   17 1     
   33   17   18 1     
   34   17   36 1     
   35   17   37 1     
   36   18   38 1     
   37   18   39 1     
   38   19   20 ar    
   39   19   40 1     
   40   21   22 1     
   41   21   23 1     
   42   21   41 1     
   43   22   42 1     
   44   22   43 1     
   45   22   44 1     
   46   23   45 1     
   47   23   46 1     
   48   23   47 1     
   49    3   48 1     
   50    3   49 1     
   51    7   50 1     
   52    7   51 1     
   53   13   52 1     
   54   16   53 1     
   55   16   54 1     
   56   20   55 1     
@<TRIPOS>SUBSTRUCTURE
      1 S1             1
@<TRIPOS>SET
LONE_PAIRS      STATIC     ATOMS    <user>   **** ""
8 48 49 50 51 52 53 54 55
DONOR_HYDROGENS      STATIC     ATOMS    <user>   **** ""
2 27 29
ATOM$BLUE        STATIC     ATOMS    COLORGROUP SYSTEM
8 48 49 50 51 52 53 54 55
ATOM$RED        STATIC     ATOMS    COLORGROUP SYSTEM
2 27 29
