AV-unprocessed.smi:338|AV-procd|sdf|2375|dock9
  -GOLD-   2262022293D 1   1.00000     0.00000
 Structure written by MMmdl.
 41 43  0  0  0  0  0  0  0  0  1 V2000
  143.0539  145.7632  154.2723 C   0  0  0  0  0  0  0  0  0  0  0  0
  144.2940  145.1511  153.6226 C   0  0  0  0  0  0  0  0  0  0  0  0
  144.7763  145.7050  152.6351 O   0  0  0  0  0  0  0  0  0  0  0  0
  144.8549  143.9079  154.2261 C   0  0  0  0  0  0  0  0  0  0  0  0
  144.1912  143.2276  155.2735 C   0  0  0  0  0  0  0  0  0  0  0  0
  144.7439  142.0559  155.8217 C   0  0  0  0  0  0  0  0  0  0  0  0
  145.9625  141.5534  155.3315 C   0  0  0  0  0  0  0  0  0  0  0  0
  146.6445  142.2124  154.2901 C   0  0  0  0  0  0  0  0  0  0  0  0
  147.8322  141.6519  153.8714 O   0  0  0  0  0  0  0  0  0  0  0  0
  148.0146  140.2517  154.0377 C   0  0  0  0  0  0  0  0  0  0  0  0
  149.3002  140.0082  154.8414 C   0  0  1  0  0  0  0  0  0  0  0  0
  150.2975  139.5302  153.9600 O   0  0  0  0  0  0  0  0  0  0  0  0
  149.7998  141.2809  155.5529 C   0  0  0  0  0  0  0  0  0  0  0  0
  150.7931  140.9950  156.5726 N   0  0  0  0  0  0  0  0  0  0  0  0
  151.5649  139.8952  156.6709 C   0  0  0  0  0  0  0  0  0  0  0  0
  152.4164  139.8376  157.6909 N   0  0  0  0  0  0  0  0  0  0  0  0
  152.1724  141.0428  158.3269 C   0  0  0  0  0  0  0  0  0  0  0  0
  152.7536  141.6018  159.4876 C   0  0  0  0  0  0  0  0  0  0  0  0
  152.3389  142.8659  159.9563 C   0  0  0  0  0  0  0  0  0  0  0  0
  151.3392  143.5892  159.2737 C   0  0  0  0  0  0  0  0  0  0  0  0
  150.7459  143.0531  158.1146 C   0  0  0  0  0  0  0  0  0  0  0  0
  151.1621  141.7914  157.6507 C   0  0  0  0  0  0  0  0  0  0  0  0
  146.0803  143.3923  153.7416 C   0  0  0  0  0  0  0  0  0  0  0  0
  142.2245  145.0555  154.2565 H   0  0  0  0  0  0  0  0  0  0  0  0
  142.7457  146.6610  153.7358 H   0  0  0  0  0  0  0  0  0  0  0  0
  143.2615  146.0390  155.3064 H   0  0  0  0  0  0  0  0  0  0  0  0
  143.2543  143.5857  155.6732 H   0  0  0  0  0  0  0  0  0  0  0  0
  144.2312  141.5407  156.6206 H   0  0  0  0  0  0  0  0  0  0  0  0
  146.3786  140.6532  155.7596 H   0  0  0  0  0  0  0  0  0  0  0  0
  147.1611  139.8380  154.5778 H   0  0  0  0  0  0  0  0  0  0  0  0
  148.0785  139.7514  153.0697 H   0  0  0  0  0  0  0  0  0  0  0  0
  149.1135  139.2256  155.5780 H   0  0  0  0  0  0  0  0  0  0  0  0
  149.9439  139.5241  153.0836 H   0  0  0  0  0  0  0  0  0  0  0  0
  150.2296  141.9772  154.8312 H   0  0  0  0  0  0  0  0  0  0  0  0
  148.9675  141.8010  156.0286 H   0  0  0  0  0  0  0  0  0  0  0  0
  151.4952  139.0898  155.9542 H   0  0  0  0  0  0  0  0  0  0  0  0
  153.5206  141.0571  160.0179 H   0  0  0  0  0  0  0  0  0  0  0  0
  152.7910  143.2830  160.8441 H   0  0  0  0  0  0  0  0  0  0  0  0
  151.0288  144.5568  159.6401 H   0  0  0  0  0  0  0  0  0  0  0  0
  149.9804  143.6042  157.5887 H   0  0  0  0  0  0  0  0  0  0  0  0
  146.5817  143.9154  152.9413 H   0  0  0  0  0  0  0  0  0  0  0  0
  1  2  1  0  0  0  0
  1 24  1  0  0  0  0
  1 25  1  0  0  0  0
  1 26  1  0  0  0  0
  2  3  2  0  0  0  0
  2  4  1  0  0  0  0
  4 23  1  0  0  0  0
  4  5  2  0  0  0  0
  5  6  1  0  0  0  0
  5 27  1  0  0  0  0
  6  7  2  0  0  0  0
  6 28  1  0  0  0  0
  7  8  1  0  0  0  0
  7 29  1  0  0  0  0
  8  9  1  0  0  0  0
  8 23  2  0  0  0  0
  9 10  1  0  0  0  0
 10 11  1  0  0  0  0
 10 30  1  0  0  0  0
 10 31  1  0  0  0  0
 11 12  1  0  0  0  0
 11 13  1  0  0  0  0
 11 32  1  0  0  0  0
 12 33  1  0  0  0  0
 13 14  1  0  0  0  0
 13 34  1  0  0  0  0
 13 35  1  0  0  0  0
 14 22  1  0  0  0  0
 14 15  1  0  0  0  0
 15 16  2  0  0  0  0
 15 36  1  0  0  0  0
 16 17  1  0  0  0  0
 17 22  2  0  0  0  0
 17 18  1  0  0  0  0
 18 19  2  0  0  0  0
 18 37  1  0  0  0  0
 19 20  1  0  0  0  0
 19 38  1  0  0  0  0
 20 21  2  0  0  0  0
 20 39  1  0  0  0  0
 21 22  1  0  0  0  0
 21 40  1  0  0  0  0
 23 41  1  0  0  0  0
M  END
> <s_m_source_file>
AV-unprocessed.smi

> <i_m_source_file_index>
338

> <i_lp_mmshare_version>
43012

> <i_f3d_flags>
0

> <s_epik_input>
W0NIM11DKD1PKWMxW2NIXVtjSF1bY0hdYyhbY0hdMSlPW0NIMl1bQ0BIXShbT0hdKVtDSDJdbihbY0hdbjIpYyhjMjMpW2NIXVtjSF1bY0hdW2NIXTM=

> <s_epik_cmdline>
J2VwaWtfcHl0aG9uJywgJy1waCcsICc3LjAnLCAnLXRuJywgJzgnLCAnLW1hJywgJzIwMCcsICctbWV0YWxfYmluZGluZycsICctaW1hZScsICc8aW5maWxlLm1hZT4nLCAnLW9tYWUnLCAnPG91dGZpbGUubWFlPic=

> <r_lp_tautomer_probability>
0.99995

> <r_epik_Ionization_Penalty>
0.0640132

> <r_epik_Ionization_Penalty_Charging>
0

> <r_epik_Ionization_Penalty_Neutral>
0.0640132

> <r_epik_State_Penalty>
0.0557325

> <r_epik_Charging_Adjusted_Penalty>
0.0557325

> <i_epik_Tot_Q>
0

> <i_epik_Tot_abs_Q>
0

> <r_epik_Metal_State_Penalty>
5.8435e-05

> <b_epik_Metal_Only>
0

> <s_lp_Force_Field>
OPLS_2005

> <r_lp_Energy>
20.9332

> <b_lp_Chiralities_Consistent>
1

> <s_lp_Variant>
AV-unprocessed.smi:338-2

> <Gold.Version>
5.8.1

> <Gold.Id.Protein>
6NUR|6NUR_protein|mol2

> <Gold.PLP.Fitness>
57.1955

> <Gold.PLP.PLP>
-51.7386

> <Gold.PLP.part.hbond>
-4.9756

> <Gold.PLP.part.metal>
0.0000

> <Gold.PLP.part.buried>
-7.4528

> <Gold.PLP.part.nonpolar>
-40.9324

> <Gold.PLP.part.repulsive>
0.3219

> <Gold.PLP.ligand.clash>
0.0000

> <Gold.PLP.ligand.torsion>
1.7988

> <Gold.PLP.Chemscore.Hbond>
2.9600

> <Gold.PLP.Chemscore.CHOScore>
0.0000

> <Gold.PLP.Chemscore.Metal>
0.0000

> <Gold.Chemscore.Hbonds>
donor molecule, donor type, donor heavy atom, donor atom, acceptor molecule, acceptor atom, score
      L1  H    12    33       P1  7957  1.00
      P1  H  7989  7998       L1    12  0.55
      P1  H  7997  8009       L1    16  0.52

> <Gold.PLP.Chemscore.Internal.Correction>
0.1745

> <Gold.Rescore>
     Score         DG    S(hbond)    S(metal)    S(lipo)     H(rot)  DE(clash)    DE(int)     intcor
     15.73     -19.84       2.32        0.00     108.86       2.40       1.17       2.94       ----

> <Gold.Chemscore.Fitness>
15.7260

> <Gold.Chemscore.DG>
-19.8360

> <Gold.Chemscore.ZeroCoef>
-5.4800

> <Gold.Chemscore.Hbond>
2.3248

> <Gold.Chemscore.Metal>
0.0000

> <Gold.Chemscore.Lipo>
108.8583

> <Gold.Chemscore.Internal_Hbond>
0.0000

> <Gold.Chemscore.DEClash>
1.1712

> <Gold.Chemscore.DEInternal>
2.9388

> <Gold.Chemscore.Rot>
2.4005

> <Gold.Chemscore.Internal.Correction>
   9.000000E+99

> <Gold.Chemscore.Hbonds>
donor molecule, donor type, donor heavy atom, donor atom, acceptor molecule, acceptor atom, score
      L1  H    12    33       P1  7957  0.95
      P1  H  7989  7998       L1    12  0.03
      P1  H  7997  8009       L1    16  0.10

> <Gold.Chemscore.Hbond.Weighted>
-7.7649

> <Gold.Chemscore.Metal.Weighted>
-0.0000

> <Gold.Chemscore.Lipo.Weighted>
-12.7364

> <Gold.Chemscore.Internal_Hbond.Weighted>
0.0000

> <Gold.Chemscore.DEClash.Weighted>
1.1712

> <Gold.Chemscore.DEInternal.Weighted>
2.9388

> <Gold.Chemscore.Rot.Weighted>
6.1453

> <Gold.Chemscore.Internal.Correction.Weighted>
   9.000000E+99

> <Gold.Protein.RotatedTorsions>
[ 6907 6896 6895 6894 ] final  -70.64 input  -60.11 | X-H torsion
[ 7974 7965 7964 7962 ] final   67.95 input  175.53 | X-H torsion
[ 8008 7997 7996 7995 ] final  177.00 input   59.86 | X-H torsion
[ 10167 10162 10161 10158 ] final  102.48 input  -65.29 | X-H torsion
[ 10718 10713 10712 10709 ] final   18.78 input   66.30 | X-H torsion
[ 10763 10752 10751 10750 ] final   96.01 input  -60.55 | X-H torsion
[ 11005 11000 10999 10996 ] final  -90.28 input  -57.11 | X-H torsion

> <Gold.Protein.ActiveResidues>
 VAL166  LYS551  ARG553  GLY616  TRP617  ASP618  TYR619  PRO620  LYS621  CYS622 
 ASP623  PHE694  ASN695  SER759  ASP760  ASP761  ALA762  ILE779  LEU786  VAL792 
 PHE793  MET794  SER795  GLU796  ALA797  LYS798  CYS799  TRP800  GLU811  SER814 

> <Gold.Protein.RotatedAtoms>
  150.7248  134.5424  159.5753 H   0  0  0  0  0  0  0  0  0  0  0  0  # atno 6907 bound_to 6896
  152.2931  134.7695  160.0383 H   0  0  0  0  0  0  0  0  0  0  0  0  # atno 6908 bound_to 6896
  151.8302  133.3372  159.3648 H   0  0  0  0  0  0  0  0  0  0  0  0  # atno 6909 bound_to 6896
  145.8085  139.3020  143.1113 H   0  0  0  0  0  0  0  0  0  0  0  0  # atno 7974 bound_to 7965
  156.0704  140.1369  156.9836 H   0  0  0  0  0  0  0  0  0  0  0  0  # atno 8008 bound_to 7997
  154.4528  140.0973  156.6721 H   0  0  0  0  0  0  0  0  0  0  0  0  # atno 8009 bound_to 7997
  155.5238  140.3457  155.4414 H   0  0  0  0  0  0  0  0  0  0  0  0  # atno 8010 bound_to 7997
  139.7346  144.7027  151.0669 H   0  0  0  0  0  0  0  0  0  0  0  0  # atno 10167 bound_to 10162
  157.1012  130.6469  149.5873 H   0  0  0  0  0  0  0  0  0  0  0  0  # atno 10718 bound_to 10713
  153.2600  135.4233  155.0884 H   0  0  0  0  0  0  0  0  0  0  0  0  # atno 10763 bound_to 10752
  154.8416  135.3446  154.6392 H   0  0  0  0  0  0  0  0  0  0  0  0  # atno 10764 bound_to 10752
  153.6812  135.7038  153.5174 H   0  0  0  0  0  0  0  0  0  0  0  0  # atno 10765 bound_to 10752
  141.1569  133.7682  156.9715 H   0  0  0  0  0  0  0  0  0  0  0  0  # atno 11005 bound_to 11000
  145.9802  140.8689  143.0118 LP  0  0  0  0  0  0  0  0  0  0  0  0  # atno 17320 bound_to 7965
  144.6760  140.2070  143.7381 LP  0  0  0  0  0  0  0  0  0  0  0  0  # atno 17321 bound_to 7965
  140.7777  143.5000  150.9783 LP  0  0  0  0  0  0  0  0  0  0  0  0  # atno 17342 bound_to 10162
  139.8688  143.7219  152.3168 LP  0  0  0  0  0  0  0  0  0  0  0  0  # atno 17343 bound_to 10162
  155.9873  130.4912  150.7119 LP  0  0  0  0  0  0  0  0  0  0  0  0  # atno 17370 bound_to 10713
  157.4639  131.0886  151.0716 LP  0  0  0  0  0  0  0  0  0  0  0  0  # atno 17371 bound_to 10713
  140.1126  134.9467  157.2088 LP  0  0  0  0  0  0  0  0  0  0  0  0  # atno 17394 bound_to 11000
  140.3174  134.2955  155.7253 LP  0  0  0  0  0  0  0  0  0  0  0  0  # atno 17395 bound_to 11000

$$$$
