AV-unprocessed.smi:2411|AV-procd|sdf|9530|dock6
  -GOLD-   2272013163D 1   1.00000     0.00000
 Structure written by MMmdl.
 41 43  0  0  0  0  0  0  0  0  1 V2000
  146.6568  142.3296  153.8662 C   0  0  0  0  0  0  0  0  0  0  0  0
  147.2615  141.8405  155.0978 N   0  0  0  0  0  0  0  0  0  0  0  0
  146.3548  141.6444  156.2223 C   0  0  0  0  0  0  0  0  0  0  0  0
  148.2263  140.8340  154.8880 C   0  0  0  0  0  0  0  0  0  0  0  0
  147.8159  139.6644  154.3394 N   0  0  0  0  0  0  0  0  0  0  0  0
  148.7381  138.7250  154.1241 C   0  0  0  0  0  0  0  0  0  0  0  0
  150.0396  138.8084  154.3989 N   0  0  0  0  0  0  0  0  0  0  0  0
  150.4711  139.9627  154.9479 C   0  0  0  0  0  0  0  0  0  0  0  0
  149.5923  141.0410  155.2152 C   0  0  0  0  0  0  0  0  0  0  0  0
  150.0112  142.2474  155.8405 N   0  0  0  0  0  0  0  0  0  0  0  0
  151.0393  142.4174  156.6867 C   0  0  0  0  0  0  0  0  0  0  0  0
  151.7709  141.5188  157.1020 O   0  0  0  0  0  0  0  0  0  0  0  0
  151.1939  143.7102  157.0036 N   0  0  0  0  0  0  0  0  0  0  0  0
  152.2533  144.2554  157.8493 C   0  0  0  0  0  0  0  0  0  0  0  0
  152.0619  144.1693  159.3633 C   0  0  0  0  0  0  0  0  0  0  0  0
  153.0198  143.1911  160.0352 C   0  0  0  0  0  0  0  0  0  0  0  0
  152.6665  141.7250  160.1152 C   0  0  0  0  0  0  0  0  0  0  0  0
  152.7807  142.5401  161.3823 C   0  0  0  0  0  0  0  0  0  0  0  0
  151.7181  145.4208  160.1525 C   0  0  0  0  0  0  0  0  0  0  0  0
  150.6573  144.3792  159.9154 C   0  0  0  0  0  0  0  0  0  0  0  0
  147.4054  142.6820  153.1571 H   0  0  0  0  0  0  0  0  0  0  0  0
  145.9835  143.1608  154.0775 H   0  0  0  0  0  0  0  0  0  0  0  0
  146.0788  141.5391  153.3860 H   0  0  0  0  0  0  0  0  0  0  0  0
  146.9002  141.3292  157.1126 H   0  0  0  0  0  0  0  0  0  0  0  0
  145.6028  140.8895  155.9892 H   0  0  0  0  0  0  0  0  0  0  0  0
  145.8398  142.5757  156.4584 H   0  0  0  0  0  0  0  0  0  0  0  0
  148.3938  137.8003  153.6857 H   0  0  0  0  0  0  0  0  0  0  0  0
  151.5212  139.9994  155.1944 H   0  0  0  0  0  0  0  0  0  0  0  0
  149.5553  143.0868  155.5135 H   0  0  0  0  0  0  0  0  0  0  0  0
  150.5438  144.3747  156.6101 H   0  0  0  0  0  0  0  0  0  0  0  0
  153.1668  143.7160  157.5986 H   0  0  0  0  0  0  0  0  0  0  0  0
  152.4462  145.2961  157.5836 H   0  0  0  0  0  0  0  0  0  0  0  0
  154.0675  143.4012  159.8278 H   0  0  0  0  0  0  0  0  0  0  0  0
  151.6682  141.4267  159.8006 H   0  0  0  0  0  0  0  0  0  0  0  0
  153.4563  141.0071  159.9035 H   0  0  0  0  0  0  0  0  0  0  0  0
  153.6516  142.3633  162.0101 H   0  0  0  0  0  0  0  0  0  0  0  0
  151.8644  142.7532  161.9258 H   0  0  0  0  0  0  0  0  0  0  0  0
  152.1126  145.5053  161.1631 H   0  0  0  0  0  0  0  0  0  0  0  0
  151.6207  146.3648  159.6216 H   0  0  0  0  0  0  0  0  0  0  0  0
  149.8601  144.6366  159.2213 H   0  0  0  0  0  0  0  0  0  0  0  0
  150.3296  143.7954  160.7708 H   0  0  0  0  0  0  0  0  0  0  0  0
  1  2  1  0  0  0  0
  1 21  1  0  0  0  0
  1 22  1  0  0  0  0
  1 23  1  0  0  0  0
  2  3  1  0  0  0  0
  2  4  1  0  0  0  0
  3 24  1  0  0  0  0
  3 25  1  0  0  0  0
  3 26  1  0  0  0  0
  4  9  1  0  0  0  0
  4  5  2  0  0  0  0
  5  6  1  0  0  0  0
  6  7  2  0  0  0  0
  6 27  1  0  0  0  0
  7  8  1  0  0  0  0
  8  9  2  0  0  0  0
  8 28  1  0  0  0  0
  9 10  1  0  0  0  0
 10 11  1  0  0  0  0
 10 29  1  0  0  0  0
 11 12  2  0  0  0  0
 11 13  1  0  0  0  0
 13 14  1  0  0  0  0
 13 30  1  0  0  0  0
 14 15  1  0  0  0  0
 14 31  1  0  0  0  0
 14 32  1  0  0  0  0
 15 20  1  0  0  0  0
 15 16  1  0  0  0  0
 15 19  1  0  0  0  0
 16 18  1  0  0  0  0
 16 17  1  0  0  0  0
 16 33  1  0  0  0  0
 17 18  1  0  0  0  0
 17 34  1  0  0  0  0
 17 35  1  0  0  0  0
 18 36  1  0  0  0  0
 18 37  1  0  0  0  0
 19 20  1  0  0  0  0
 19 38  1  0  0  0  0
 19 39  1  0  0  0  0
 20 40  1  0  0  0  0
 20 41  1  0  0  0  0
M  END
> <s_m_source_file>
AV-unprocessed.smi

> <i_m_source_file_index>
2411

> <i_lp_mmshare_version>
43012

> <i_f3d_flags>
0

> <s_epik_input>
W0NIM11OKFtDSDNdKWMxbltjSF1uW2NIXWMxW05IXUMoPU8pW05IXVtDSDJdQzIoW0NIMl1bQ0gyXTIpW0NIXTNbQ0gyXVtDSDJdMw==

> <s_epik_cmdline>
J2VwaWtfcHl0aG9uJywgJy1waCcsICc3LjAnLCAnLXRuJywgJzgnLCAnLW1hJywgJzIwMCcsICctbWV0YWxfYmluZGluZycsICctaW1hZScsICc8aW5maWxlLm1hZT4nLCAnLW9tYWUnLCAnPG91dGZpbGUubWFlPic=

> <r_lp_tautomer_probability>
1

> <r_epik_Ionization_Penalty>
0.0183431

> <r_epik_Ionization_Penalty_Charging>
0

> <r_epik_Ionization_Penalty_Neutral>
0.0183431

> <r_epik_State_Penalty>
0.013978

> <r_epik_Charging_Adjusted_Penalty>
0.013978

> <i_epik_Tot_Q>
0

> <i_epik_Tot_abs_Q>
0

> <r_epik_Metal_State_Penalty>
0.0135734

> <b_epik_Metal_Only>
0

> <s_lp_Force_Field>
OPLS_2005

> <r_lp_Energy>
29.7017

> <b_lp_Chiralities_Consistent>
1

> <s_lp_Variant>
AV-unprocessed.smi:2411-1

> <Gold.Version>
5.8.1

> <Gold.Id.Protein>
6NUR|6NUR_protein|mol2

> <Gold.PLP.Fitness>
53.4482

> <Gold.PLP.PLP>
-46.1823

> <Gold.PLP.part.hbond>
-2.0000

> <Gold.PLP.part.metal>
0.0000

> <Gold.PLP.part.buried>
-5.3601

> <Gold.PLP.part.nonpolar>
-39.2902

> <Gold.PLP.part.repulsive>
0.5919

> <Gold.PLP.ligand.clash>
0.0000

> <Gold.PLP.ligand.torsion>
2.2751

> <Gold.PLP.Chemscore.Hbond>
1.9920

> <Gold.PLP.Chemscore.CHOScore>
0.9949

> <Gold.PLP.Chemscore.Metal>
0.0000

> <Gold.Chemscore.Hbonds>
donor molecule, donor type, donor heavy atom, donor atom, acceptor molecule, acceptor atom, score
      L1  H    10    29       P1  8028  1.00
      L1  H    13    30       P1  8028  1.00
      L1  C     6    27       P1  7948  1.00

> <Gold.PLP.Chemscore.Internal.Correction>
2.8553

> <Gold.Rescore>
     Score         DG    S(hbond)    S(metal)    S(lipo)     H(rot)  DE(clash)    DE(int)     intcor
     16.14     -19.71       1.95        0.00     102.74       1.68       0.20       3.38       ----

> <Gold.Chemscore.Fitness>
16.1355

> <Gold.Chemscore.DG>
-19.7110

> <Gold.Chemscore.ZeroCoef>
-5.4800

> <Gold.Chemscore.Hbond>
1.9463

> <Gold.Chemscore.Metal>
0.0000

> <Gold.Chemscore.Lipo>
102.7359

> <Gold.Chemscore.Internal_Hbond>
0.0000

> <Gold.Chemscore.DEClash>
0.1996

> <Gold.Chemscore.DEInternal>
3.3760

> <Gold.Chemscore.Rot>
1.6757

> <Gold.Chemscore.Internal.Correction>
   9.000000E+99

> <Gold.Chemscore.Hbonds>
donor molecule, donor type, donor heavy atom, donor atom, acceptor molecule, acceptor atom, score
      L1  H    10    29       P1  8028  0.99
      L1  H    13    30       P1  8028  0.94

> <Gold.Chemscore.Hbond.Weighted>
-6.5006

> <Gold.Chemscore.Metal.Weighted>
-0.0000

> <Gold.Chemscore.Lipo.Weighted>
-12.0201

> <Gold.Chemscore.Internal_Hbond.Weighted>
0.0000

> <Gold.Chemscore.DEClash.Weighted>
0.1996

> <Gold.Chemscore.DEInternal.Weighted>
3.3760

> <Gold.Chemscore.Rot.Weighted>
4.2897

> <Gold.Chemscore.Internal.Correction.Weighted>
   9.000000E+99

> <Gold.Protein.RotatedTorsions>
[ 6907 6896 6895 6894 ] final  107.02 input  -60.11 | X-H torsion
[ 7974 7965 7964 7962 ] final -121.36 input  175.53 | X-H torsion
[ 8008 7997 7996 7995 ] final   10.72 input   59.86 | X-H torsion
[ 10167 10162 10161 10158 ] final -127.73 input  -65.29 | X-H torsion
[ 10718 10713 10712 10709 ] final -126.82 input   66.30 | X-H torsion
[ 10763 10752 10751 10750 ] final  -42.29 input  -60.55 | X-H torsion
[ 11005 11000 10999 10996 ] final   73.62 input  -57.11 | X-H torsion

> <Gold.Protein.ActiveResidues>
 VAL166  LYS551  ARG553  GLY616  TRP617  ASP618  TYR619  PRO620  LYS621  CYS622 
 ASP623  PHE694  ASN695  SER759  ASP760  ASP761  ALA762  ILE779  LEU786  VAL792 
 PHE793  MET794  SER795  GLU796  ALA797  LYS798  CYS799  TRP800  GLU811  SER814 

> <Gold.Protein.RotatedAtoms>
  152.5171  133.9296  159.7573 H   0  0  0  0  0  0  0  0  0  0  0  0  # atno 6907 bound_to 6896
  150.9649  133.6397  159.2755 H   0  0  0  0  0  0  0  0  0  0  0  0  # atno 6908 bound_to 6896
  151.3628  135.0913  159.9493 H   0  0  0  0  0  0  0  0  0  0  0  0  # atno 6909 bound_to 6896
  145.0412  140.8146  143.4265 H   0  0  0  0  0  0  0  0  0  0  0  0  # atno 7974 bound_to 7965
  154.7971  140.2845  155.5948 H   0  0  0  0  0  0  0  0  0  0  0  0  # atno 8008 bound_to 7997
  156.2972  140.2593  156.2761 H   0  0  0  0  0  0  0  0  0  0  0  0  # atno 8009 bound_to 7997
  154.9601  140.0378  157.2175 H   0  0  0  0  0  0  0  0  0  0  0  0  # atno 8010 bound_to 7997
  139.9577  143.5984  152.2455 H   0  0  0  0  0  0  0  0  0  0  0  0  # atno 10167 bound_to 10162
  156.1800  130.6725  151.0292 H   0  0  0  0  0  0  0  0  0  0  0  0  # atno 10718 bound_to 10713
  153.9765  135.6722  153.4748 H   0  0  0  0  0  0  0  0  0  0  0  0  # atno 10763 bound_to 10752
  153.0768  135.4944  154.8418 H   0  0  0  0  0  0  0  0  0  0  0  0  # atno 10764 bound_to 10752
  154.7189  135.3113  154.9041 H   0  0  0  0  0  0  0  0  0  0  0  0  # atno 10765 bound_to 10752
  139.9431  134.7362  156.1048 H   0  0  0  0  0  0  0  0  0  0  0  0  # atno 11005 bound_to 11000
  145.1645  139.2439  143.5374 LP  0  0  0  0  0  0  0  0  0  0  0  0  # atno 17320 bound_to 7965
  146.3509  140.1380  142.8595 LP  0  0  0  0  0  0  0  0  0  0  0  0  # atno 17321 bound_to 7965
  139.6578  144.7662  151.2021 LP  0  0  0  0  0  0  0  0  0  0  0  0  # atno 17342 bound_to 10162
  140.7563  143.6058  150.8655 LP  0  0  0  0  0  0  0  0  0  0  0  0  # atno 17343 bound_to 10162
  157.6861  131.0824  150.7238 LP  0  0  0  0  0  0  0  0  0  0  0  0  # atno 17370 bound_to 10713
  156.7295  130.4705  149.5503 LP  0  0  0  0  0  0  0  0  0  0  0  0  # atno 17371 bound_to 10713
  141.1072  133.6655  156.2893 LP  0  0  0  0  0  0  0  0  0  0  0  0  # atno 17394 bound_to 11000
  140.5902  134.5658  157.5498 LP  0  0  0  0  0  0  0  0  0  0  0  0  # atno 17395 bound_to 11000

$$$$
