#       Name:                AV-unprocessed.smi:235
#       Creating user name   scv26
#       Creation time:       Thu Mar 26 20:38:38 2020


#       File generated by GOLD software.
#

@<TRIPOS>MOLECULE
AV-unprocessed.smi:235
    64    68     1
SMALL
NO_CHARGES


@<TRIPOS>ATOM
      1 ****        -4.5595   1.7687  -1.9250 O.2            1 S1                 0.0000
      2 ****        -3.9313   0.7376  -2.1692 C.2            1 S1                 0.0000
      3 ****        -3.5310   0.3901  -3.4010 N.am           1 S1                 0.0000
      4 ****        -3.7554   1.1448  -4.5908 C.3            1 S1                 0.0000
      5 ****        -3.9193   0.3794  -5.8865 C.3            1 S1                 0.0000
      6 ****        -2.6568   1.1561  -5.6317 C.3            1 S1                 0.0000
      7 ****        -3.5740  -0.2436  -1.0438 C.3            1 S1                 0.0000
      8 ****        -4.7614  -1.1325  -0.6527 C.3            1 S1                 0.0000
      9 ****        -4.4206  -1.5460   0.7737 C.3            1 S1                 0.0000
     10 ****        -3.7457  -0.2981   1.3437 C.3            1 S1                 0.0000
     11 ****        -3.2242   0.4456   0.2001 N.3            1 S1                 0.0000
     12 ****        -1.9383   0.8491   0.2982 C.ar           1 S1                 0.0000
     13 ****        -1.7033   2.1836   0.2819 N.ar           1 S1                 0.0000
     14 ****        -0.4499   2.6411   0.3637 C.ar           1 S1                 0.0000
     15 ****         0.6877   1.9490   0.4640 N.ar           1 S1                 0.0000
     16 ****         0.4504   0.6059   0.4804 C.ar           1 S1                 0.0000
     17 ****        -0.8215  -0.0264   0.4040 C.ar           1 S1                 0.0000
     18 ****        -0.6703  -1.4074   0.4481 N.2            1 S1                 0.0000
     19 ****         0.6198  -1.5815   0.5468 C.2            1 S1                 0.0000
     20 ****         1.3668  -0.4255   0.5727 N.pl3          1 S1                 0.0000
     21 ****         2.8109  -0.3219   0.6769 C.3            1 S1                 0.0000
     22 ****         3.2698   0.0259   2.1060 C.3            1 S1                 0.0000
     23 ****         2.8402  -0.9635   3.0226 O.3            1 S1                 0.0000
     24 ****         4.7944   0.2290   2.2119 C.3            1 S1                 0.0000
     25 ****         5.3445   0.5072   3.6218 C.3            1 S1                 0.0000
     26 ****         6.4458  -0.5262   3.7931 C.3            1 S1                 0.0000
     27 ****         6.7682  -0.9299   2.3597 C.3            1 S1                 0.0000
     28 ****         5.4972  -0.9126   1.7322 O.3            1 S1                 0.0000
     29 ****        -3.0246  -0.4774  -3.5034 H              1 S1                 0.0000
     30 ****        -4.3376   2.0608  -4.5005 H              1 S1                 0.0000
     31 ****        -3.8562  -0.7065  -5.8491 H              1 S1                 0.0000
     32 ****        -4.6152   0.7797  -6.6213 H              1 S1                 0.0000
     33 ****        -2.5101   2.0754  -6.1950 H              1 S1                 0.0000
     34 ****        -1.7512   0.5897  -5.4220 H              1 S1                 0.0000
     35 ****        -2.7470  -0.8802  -1.3648 H              1 S1                 0.0000
     36 ****        -5.6957  -0.5678  -0.6582 H              1 S1                 0.0000
     37 ****        -4.8817  -1.9892  -1.3166 H              1 S1                 0.0000
     38 ****        -5.2925  -1.8588   1.3488 H              1 S1                 0.0000
     39 ****        -3.7109  -2.3743   0.7558 H              1 S1                 0.0000
     40 ****        -4.4822   0.3326   1.8426 H              1 S1                 0.0000
     41 ****        -2.9876  -0.5582   2.0845 H              1 S1                 0.0000
     42 ****        -0.3438   3.7158   0.3450 H              1 S1                 0.0000
     43 ****         1.0645  -2.5643   0.6066 H              1 S1                 0.0000
     44 ****         3.2517  -1.2640   0.3485 H              1 S1                 0.0000
     45 ****         3.1488   0.4422  -0.0241 H              1 S1                 0.0000
     46 ****         2.7880   0.9574   2.4063 H              1 S1                 0.0000
     47 ****         3.2878  -1.7708   2.8198 H              1 S1                 0.0000
     48 ****         5.0783   1.0630   1.5677 H              1 S1                 0.0000
     49 ****         5.7529   1.5175   3.6702 H              1 S1                 0.0000
     50 ****         4.5943   0.4211   4.4083 H              1 S1                 0.0000
     51 ****         7.3125  -0.1428   4.3321 H              1 S1                 0.0000
     52 ****         6.0605  -1.3882   4.3391 H              1 S1                 0.0000
     53 ****         7.4227  -0.1976   1.8844 H              1 S1                 0.0000
     54 ****         7.2384  -1.9112   2.2922 H              1 S1                 0.0000
     55 ****        -4.7964   2.3971  -2.6658 LP             1 S1                 0.0000
     56 ****        -4.8325   1.9772  -0.9858 LP             1 S1                 0.0000
     57 ****        -3.6869   1.3320   0.1920 LP             1 S1                 0.0000
     58 ****        -2.4666   2.8254   0.2088 LP             1 S1                 0.0000
     59 ****         1.5967   2.3622   0.5199 LP             1 S1                 0.0000
     60 ****        -1.3847  -2.1063   0.4125 LP             1 S1                 0.0000
     61 ****         1.8523  -1.0948   2.9400 LP             1 S1                 0.0000
     62 ****         3.0619  -0.6792   3.9554 LP             1 S1                 0.0000
     63 ****         5.6078  -0.8528   0.7402 LP             1 S1                 0.0000
     64 ****         4.9925  -1.7448   1.9618 LP             1 S1                 0.0000
@<TRIPOS>BOND
    1    1    2 2     
    2    2    3 am    
    3    2    7 1     
    4    3    4 1     
    5    3   29 1     
    6    4    6 1     
    7    4    5 1     
    8    4   30 1     
    9    5    6 1     
   10    5   31 1     
   11    5   32 1     
   12    6   33 1     
   13    6   34 1     
   14    7   11 1     
   15    7    8 1     
   16    7   35 1     
   17    8    9 1     
   18    8   36 1     
   19    8   37 1     
   20    9   10 1     
   21    9   38 1     
   22    9   39 1     
   23   10   11 1     
   24   10   40 1     
   25   10   41 1     
   26   11   12 1     
   27   12   17 ar    
   28   12   13 ar    
   29   13   14 ar    
   30   14   15 ar    
   31   14   42 1     
   32   15   16 ar    
   33   16   20 1     
   34   16   17 ar    
   35   17   18 1     
   36   18   19 2     
   37   19   20 1     
   38   19   43 1     
   39   20   21 1     
   40   21   22 1     
   41   21   44 1     
   42   21   45 1     
   43   22   23 1     
   44   22   24 1     
   45   22   46 1     
   46   23   47 1     
   47   24   28 1     
   48   24   25 1     
   49   24   48 1     
   50   25   26 1     
   51   25   49 1     
   52   25   50 1     
   53   26   27 1     
   54   26   51 1     
   55   26   52 1     
   56   27   28 1     
   57   27   53 1     
   58   27   54 1     
   59    1   55 1     
   60    1   56 1     
   61   11   57 1     
   62   13   58 1     
   63   15   59 1     
   64   18   60 1     
   65   23   61 1     
   66   23   62 1     
   67   28   63 1     
   68   28   64 1     
@<TRIPOS>SUBSTRUCTURE
      1 S1             1
@<TRIPOS>SET
LONE_PAIRS      STATIC     ATOMS    <user>   **** ""
10 55 56 57 58 59 60 61 62 63 64
DONOR_HYDROGENS      STATIC     ATOMS    <user>   **** ""
2 29 47
ATOM$BLUE        STATIC     ATOMS    COLORGROUP SYSTEM
10 55 56 57 58 59 60 61 62 63 64
ATOM$RED        STATIC     ATOMS    COLORGROUP SYSTEM
2 29 47
