AV-unprocessed.smi:1257|AV-procd|sdf|5284|dock1
  -GOLD-   22720 4403D 1   1.00000     0.00000
 Structure written by MMmdl.
 47 48  0  0  0  0  0  0  0  0  1 V2000
  143.5304  135.7439  152.5537 C   0  0  0  0  0  0  0  0  0  0  0  0
  144.5745  135.6483  151.4334 C   0  0  0  0  0  0  0  0  0  0  0  0
  145.2854  136.9088  151.2547 N   0  0  0  0  0  0  0  0  0  0  0  0
  146.1024  137.4690  152.1592 C   0  0  0  0  0  0  0  0  0  0  0  0
  146.3263  136.9744  153.2650 O   0  0  0  0  0  0  0  0  0  0  0  0
  146.7432  138.8017  151.7523 C   0  0  0  0  0  0  0  0  0  0  0  0
  147.5826  139.3729  152.8024 N   0  0  0  0  0  0  0  0  0  0  0  0
  147.1515  139.7475  154.0189 C   0  0  0  0  0  0  0  0  0  0  0  0
  145.9901  139.6035  154.4021 O   0  0  0  0  0  0  0  0  0  0  0  0
  148.2001  140.3073  154.9356 C   0  0  0  0  0  0  0  0  0  0  0  0
  147.8687  140.7127  156.2452 C   0  0  0  0  0  0  0  0  0  0  0  0
  148.8724  141.2536  157.0713 C   0  0  0  0  0  0  0  0  0  0  0  0
  150.1879  141.3835  156.5666 C   0  0  0  0  0  0  0  0  0  0  0  0
  151.2113  141.9162  157.3801 N   0  0  0  0  0  0  0  0  0  0  0  0
  151.6847  141.1073  158.5015 C   0  0  0  0  0  0  0  0  0  0  0  0
  152.9765  141.7044  159.0892 C   0  0  2  0  0  0  0  0  0  0  0  0
  153.4402  140.9518  160.3406 C   0  0  0  0  0  0  0  0  0  0  0  0
  152.7411  143.0636  159.4458 O   0  0  0  0  0  0  0  0  0  0  0  0
  152.3879  143.8675  158.3235 C   0  0  2  0  0  0  0  0  0  0  0  0
  152.2486  145.3180  158.7971 C   0  0  0  0  0  0  0  0  0  0  0  0
  151.0810  143.3335  157.7070 C   0  0  0  0  0  0  0  0  0  0  0  0
  150.5002  141.0116  155.3006 N   0  0  0  0  0  0  0  0  0  0  0  0
  149.5347  140.4941  154.5121 C   0  0  0  0  0  0  0  0  0  0  0  0
  143.0318  134.7858  152.7000 H   0  0  0  0  0  0  0  0  0  0  0  0
  142.7633  136.4832  152.3211 H   0  0  0  0  0  0  0  0  0  0  0  0
  143.9921  136.0264  153.5001 H   0  0  0  0  0  0  0  0  0  0  0  0
  145.3053  134.8772  151.6775 H   0  0  0  0  0  0  0  0  0  0  0  0
  144.1021  135.3431  150.4983 H   0  0  0  0  0  0  0  0  0  0  0  0
  145.1529  137.3864  150.3749 H   0  0  0  0  0  0  0  0  0  0  0  0
  147.3233  138.6766  150.8362 H   0  0  0  0  0  0  0  0  0  0  0  0
  145.9480  139.5117  151.5255 H   0  0  0  0  0  0  0  0  0  0  0  0
  148.5575  139.5113  152.5798 H   0  0  0  0  0  0  0  0  0  0  0  0
  146.8604  140.6128  156.6204 H   0  0  0  0  0  0  0  0  0  0  0  0
  148.6189  141.5740  158.0706 H   0  0  0  0  0  0  0  0  0  0  0  0
  150.9079  141.0647  159.2663 H   0  0  0  0  0  0  0  0  0  0  0  0
  151.8761  140.0850  158.1723 H   0  0  0  0  0  0  0  0  0  0  0  0
  153.7734  141.6620  158.3444 H   0  0  0  0  0  0  0  0  0  0  0  0
  153.6438  139.9046  160.1154 H   0  0  0  0  0  0  0  0  0  0  0  0
  152.6831  140.9850  161.1244 H   0  0  0  0  0  0  0  0  0  0  0  0
  154.3547  141.3893  160.7419 H   0  0  0  0  0  0  0  0  0  0  0  0
  153.1887  143.8203  157.5834 H   0  0  0  0  0  0  0  0  0  0  0  0
  151.9879  145.9778  157.9694 H   0  0  0  0  0  0  0  0  0  0  0  0
  153.1830  145.6784  159.2279 H   0  0  0  0  0  0  0  0  0  0  0  0
  151.4727  145.4117  159.5577 H   0  0  0  0  0  0  0  0  0  0  0  0
  150.8356  143.9274  156.8278 H   0  0  0  0  0  0  0  0  0  0  0  0
  150.2564  143.4548  158.4107 H   0  0  0  0  0  0  0  0  0  0  0  0
  149.8473  140.2265  153.5132 H   0  0  0  0  0  0  0  0  0  0  0  0
  1  2  1  0  0  0  0
  1 24  1  0  0  0  0
  1 25  1  0  0  0  0
  1 26  1  0  0  0  0
  2  3  1  0  0  0  0
  2 27  1  0  0  0  0
  2 28  1  0  0  0  0
  3  4  1  0  0  0  0
  3 29  1  0  0  0  0
  4  5  2  0  0  0  0
  4  6  1  0  0  0  0
  6  7  1  0  0  0  0
  6 30  1  0  0  0  0
  6 31  1  0  0  0  0
  7  8  1  0  0  0  0
  7 32  1  0  0  0  0
  8  9  2  0  0  0  0
  8 10  1  0  0  0  0
 10 23  1  0  0  0  0
 10 11  2  0  0  0  0
 11 12  1  0  0  0  0
 11 33  1  0  0  0  0
 12 13  2  0  0  0  0
 12 34  1  0  0  0  0
 13 14  1  0  0  0  0
 13 22  1  0  0  0  0
 14 21  1  0  0  0  0
 14 15  1  0  0  0  0
 15 16  1  0  0  0  0
 15 35  1  0  0  0  0
 15 36  1  0  0  0  0
 16 17  1  0  0  0  0
 16 18  1  0  0  0  0
 16 37  1  0  0  0  0
 17 38  1  0  0  0  0
 17 39  1  0  0  0  0
 17 40  1  0  0  0  0
 18 19  1  0  0  0  0
 19 20  1  0  0  0  0
 19 21  1  0  0  0  0
 19 41  1  0  0  0  0
 20 42  1  0  0  0  0
 20 43  1  0  0  0  0
 20 44  1  0  0  0  0
 21 45  1  0  0  0  0
 21 46  1  0  0  0  0
 22 23  2  0  0  0  0
 23 47  1  0  0  0  0
M  END
> <s_m_source_file>
AV-unprocessed.smi

> <i_m_source_file_index>
1257

> <i_lp_mmshare_version>
43012

> <i_f3d_flags>
0

> <s_epik_input>
W0NIM11bQ0gyXVtOSF1DKD1PKVtDSDJdW05IXUMoPU8pYzFbY0hdW2NIXWMobltjSF0xKU4yW0NIMl1bQ0BASF0oW0NIM10pT1tDQEBIXShbQ0gzXSlbQ0gyXTI=

> <s_epik_cmdline>
J2VwaWtfcHl0aG9uJywgJy1waCcsICc3LjAnLCAnLXRuJywgJzgnLCAnLW1hJywgJzIwMCcsICctbWV0YWxfYmluZGluZycsICctaW1hZScsICc8aW5maWxlLm1hZT4nLCAnLW9tYWUnLCAnPG91dGZpbGUubWFlPic=

> <r_lp_tautomer_probability>
1

> <r_epik_Ionization_Penalty>
1.15681e-05

> <r_epik_Ionization_Penalty_Charging>
0

> <r_epik_Ionization_Penalty_Neutral>
1.15681e-05

> <r_epik_State_Penalty>
-0

> <r_epik_Charging_Adjusted_Penalty>
0

> <i_epik_Tot_Q>
0

> <i_epik_Tot_abs_Q>
0

> <r_epik_Metal_State_Penalty>
-0

> <b_epik_Metal_Only>
0

> <s_lp_Force_Field>
OPLS_2005

> <r_lp_Energy>
13.029

> <b_lp_Chiralities_Consistent>
1

> <s_lp_Variant>
AV-unprocessed.smi:1257-1

> <Gold.Version>
5.8.1

> <Gold.Id.Protein>
6NUR|6NUR_protein|mol2

> <Gold.PLP.Fitness>
50.3194

> <Gold.PLP.PLP>
-42.1806

> <Gold.PLP.part.hbond>
-2.9997

> <Gold.PLP.part.metal>
0.0000

> <Gold.PLP.part.buried>
-6.3970

> <Gold.PLP.part.nonpolar>
-34.8774

> <Gold.PLP.part.repulsive>
0.6588

> <Gold.PLP.ligand.clash>
0.0000

> <Gold.PLP.ligand.torsion>
0.1818

> <Gold.PLP.Chemscore.Hbond>
1.7237

> <Gold.PLP.Chemscore.CHOScore>
1.0000

> <Gold.PLP.Chemscore.Metal>
0.0000

> <Gold.Chemscore.Hbonds>
donor molecule, donor type, donor heavy atom, donor atom, acceptor molecule, acceptor atom, score
      L1  H     3    29       P1 10171  0.66
      L1  H     7    32       P1  7957  0.77
      P1  H  7989  7998       L1    22  0.05
      L1  C    23    47       P1  7957  1.00

> <Gold.PLP.Chemscore.Internal.Correction>
0.3314

> <Gold.Rescore>
     Score         DG    S(hbond)    S(metal)    S(lipo)     H(rot)  DE(clash)    DE(int)     intcor
     18.31     -18.94       1.78        0.00     101.52       1.71       0.38       0.24       ----

> <Gold.Chemscore.Fitness>
18.3135

> <Gold.Chemscore.DG>
-18.9364

> <Gold.Chemscore.ZeroCoef>
-5.4800

> <Gold.Chemscore.Hbond>
1.7807

> <Gold.Chemscore.Metal>
0.0000

> <Gold.Chemscore.Lipo>
101.5211

> <Gold.Chemscore.Internal_Hbond>
0.0000

> <Gold.Chemscore.DEClash>
0.3795

> <Gold.Chemscore.DEInternal>
0.2434

> <Gold.Chemscore.Rot>
1.7066

> <Gold.Chemscore.Internal.Correction>
   9.000000E+99

> <Gold.Chemscore.Hbonds>
donor molecule, donor type, donor heavy atom, donor atom, acceptor molecule, acceptor atom, score
      L1  H     3    29       P1 10171  0.66
      L1  H     7    32       P1  7957  0.78

> <Gold.Chemscore.Hbond.Weighted>
-5.9474

> <Gold.Chemscore.Metal.Weighted>
-0.0000

> <Gold.Chemscore.Lipo.Weighted>
-11.8780

> <Gold.Chemscore.Internal_Hbond.Weighted>
0.0000

> <Gold.Chemscore.DEClash.Weighted>
0.3795

> <Gold.Chemscore.DEInternal.Weighted>
0.2434

> <Gold.Chemscore.Rot.Weighted>
4.3690

> <Gold.Chemscore.Internal.Correction.Weighted>
   9.000000E+99

> <Gold.Protein.RotatedTorsions>
[ 6907 6896 6895 6894 ] final  143.02 input  -60.11 | X-H torsion
[ 7974 7965 7964 7962 ] final  128.26 input  175.53 | X-H torsion
[ 8008 7997 7996 7995 ] final  134.93 input   59.86 | X-H torsion
[ 10167 10162 10161 10158 ] final -109.13 input  -65.29 | X-H torsion
[ 10718 10713 10712 10709 ] final -131.06 input   66.30 | X-H torsion
[ 10763 10752 10751 10750 ] final -103.41 input  -60.55 | X-H torsion
[ 11005 11000 10999 10996 ] final   70.31 input  -57.11 | X-H torsion

> <Gold.Protein.ActiveResidues>
 VAL166  LYS551  ARG553  GLY616  TRP617  ASP618  TYR619  PRO620  LYS621  CYS622 
 ASP623  PHE694  ASN695  SER759  ASP760  ASP761  ALA762  ILE779  LEU786  VAL792 
 PHE793  MET794  SER795  GLU796  ALA797  LYS798  CYS799  TRP800  GLU811  SER814 

> <Gold.Protein.RotatedAtoms>
  152.2115  133.4915  159.5112 H   0  0  0  0  0  0  0  0  0  0  0  0  # atno 6907 bound_to 6896
  150.6991  134.1461  159.4132 H   0  0  0  0  0  0  0  0  0  0  0  0  # atno 6908 bound_to 6896
  151.9380  135.0226  160.0584 H   0  0  0  0  0  0  0  0  0  0  0  0  # atno 6909 bound_to 6896
  145.0415  139.3959  143.5099 H   0  0  0  0  0  0  0  0  0  0  0  0  # atno 7974 bound_to 7965
  156.3001  140.2483  156.3499 H   0  0  0  0  0  0  0  0  0  0  0  0  # atno 8008 bound_to 7997
  154.8976  140.0407  157.1894 H   0  0  0  0  0  0  0  0  0  0  0  0  # atno 8009 bound_to 7997
  154.8534  140.2909  155.5588 H   0  0  0  0  0  0  0  0  0  0  0  0  # atno 8010 bound_to 7997
  140.1587  143.4138  152.1442 H   0  0  0  0  0  0  0  0  0  0  0  0  # atno 10167 bound_to 10162
  156.2206  130.6976  151.0752 H   0  0  0  0  0  0  0  0  0  0  0  0  # atno 10718 bound_to 10713
  154.7805  135.4824  153.9834 H   0  0  0  0  0  0  0  0  0  0  0  0  # atno 10763 bound_to 10752
  153.1487  135.6787  153.8922 H   0  0  0  0  0  0  0  0  0  0  0  0  # atno 10764 bound_to 10752
  153.8573  135.3159  155.3414 H   0  0  0  0  0  0  0  0  0  0  0  0  # atno 10765 bound_to 10752
  139.9604  134.7070  156.0658 H   0  0  0  0  0  0  0  0  0  0  0  0  # atno 11005 bound_to 11000
  146.3510  140.0018  142.8675 LP  0  0  0  0  0  0  0  0  0  0  0  0  # atno 17320 bound_to 7965
  145.1642  140.9688  143.4360 LP  0  0  0  0  0  0  0  0  0  0  0  0  # atno 17321 bound_to 7965
  139.5391  144.7239  151.4793 LP  0  0  0  0  0  0  0  0  0  0  0  0  # atno 17342 bound_to 10162
  140.6657  143.8403  150.6939 LP  0  0  0  0  0  0  0  0  0  0  0  0  # atno 17343 bound_to 10162
  157.7085  131.0745  150.6582 LP  0  0  0  0  0  0  0  0  0  0  0  0  # atno 17370 bound_to 10713
  156.6645  130.4522  149.5677 LP  0  0  0  0  0  0  0  0  0  0  0  0  # atno 17371 bound_to 10713
  141.1281  133.6594  156.3390 LP  0  0  0  0  0  0  0  0  0  0  0  0  # atno 17394 bound_to 11000
  140.5512  134.6025  157.5408 LP  0  0  0  0  0  0  0  0  0  0  0  0  # atno 17395 bound_to 11000

$$$$
