#       Name:                AV-unprocessed.smi:1445
#       Creating user name   scv26
#       Creation time:       Fri Mar 27 05:56:35 2020


#       File generated by GOLD software.
#

@<TRIPOS>MOLECULE
AV-unprocessed.smi:1445
    51    52     1
SMALL
NO_CHARGES


@<TRIPOS>ATOM
      1 ****        -6.6514   0.6296  -1.3426 C.3            1 S1                 0.0000
      2 ****        -5.2366   0.7553  -1.4381 O.3            1 S1                 0.0000
      3 ****        -4.7090   1.9486  -1.8940 C.ar           1 S1                 0.0000
      4 ****        -5.5655   2.9484  -2.2223 N.ar           1 S1                 0.0000
      5 ****        -5.0532   4.1121  -2.6716 C.ar           1 S1                 0.0000
      6 ****        -3.6731   4.3379  -2.8226 C.ar           1 S1                 0.0000
      7 ****        -2.7827   3.3028  -2.4830 C.ar           1 S1                 0.0000
      8 ****        -3.3037   2.0785  -1.9965 C.ar           1 S1                 0.0000
      9 ****        -2.5031   0.9580  -1.6354 N.am           1 S1                 0.0000
     10 ****        -1.1865   0.9045  -1.3710 C.2            1 S1                 0.0000
     11 ****        -0.4120   1.8608  -1.3862 O.2            1 S1                 0.0000
     12 ****        -0.8052  -0.3435  -1.0636 N.am           1 S1                 0.0000
     13 ****         0.5593  -0.7439  -0.7395 C.3            1 S1                 0.0000
     14 ****         0.9419  -0.3527   0.7013 C.3            1 S1                 0.0000
     15 ****         2.3423  -0.7192   1.0312 N.4            1 S1                 1.0000
     16 ****         2.9002   0.1189   2.1240 C.3            1 S1                 0.0000
     17 ****         4.3902  -0.1832   2.3480 C.3            1 S1                 0.0000
     18 ****         4.6106  -1.6728   2.6385 C.3            1 S1                 0.0000
     19 ****         4.0038  -2.5301   1.5153 C.3            1 S1                 0.0000
     20 ****         4.1869  -4.0288   1.7937 C.3            1 S1                 0.0000
     21 ****         2.5182  -2.1700   1.3112 C.3            1 S1                 0.0000
     22 ****        -6.8997  -0.3642  -0.9704 H              1 S1                 0.0000
     23 ****        -7.1293   0.7466  -2.3164 H              1 S1                 0.0000
     24 ****        -7.0713   1.3575  -0.6468 H              1 S1                 0.0000
     25 ****        -5.7647   4.8847  -2.9233 H              1 S1                 0.0000
     26 ****        -3.3057   5.2830  -3.1945 H              1 S1                 0.0000
     27 ****        -1.7258   3.4693  -2.6162 H              1 S1                 0.0000
     28 ****        -3.0120   0.0940  -1.5172 H              1 S1                 0.0000
     29 ****        -1.5064  -1.0700  -1.0689 H              1 S1                 0.0000
     30 ****         0.6203  -1.8224  -0.8792 H              1 S1                 0.0000
     31 ****         1.2543  -0.2983  -1.4534 H              1 S1                 0.0000
     32 ****         0.8259   0.7269   0.8051 H              1 S1                 0.0000
     33 ****         0.2591  -0.8043   1.4227 H              1 S1                 0.0000
     34 ****         2.7861   1.1750   1.8761 H              1 S1                 0.0000
     35 ****         2.3372  -0.0548   3.0427 H              1 S1                 0.0000
     36 ****         4.9606   0.1073   1.4646 H              1 S1                 0.0000
     37 ****         4.7723   0.4174   3.1739 H              1 S1                 0.0000
     38 ****         5.6773  -1.8771   2.7377 H              1 S1                 0.0000
     39 ****         4.1527  -1.9312   3.5945 H              1 S1                 0.0000
     40 ****         4.5363  -2.3012   0.5906 H              1 S1                 0.0000
     41 ****         3.6745  -4.3285   2.7084 H              1 S1                 0.0000
     42 ****         5.2417  -4.2809   1.9062 H              1 S1                 0.0000
     43 ****         3.7904  -4.6324   0.9768 H              1 S1                 0.0000
     44 ****         1.9393  -2.4410   2.1959 H              1 S1                 0.0000
     45 ****         2.1224  -2.7599   0.4853 H              1 S1                 0.0000
     46 ****         2.8915  -0.5078   0.2104 H              1 S1                 0.0000
     47 ****        -4.9175   0.0366  -2.0559 LP             1 S1                 0.0000
     48 ****        -4.8640   0.5983  -0.5235 LP             1 S1                 0.0000
     49 ****        -6.5538   2.8252  -2.1332 LP             1 S1                 0.0000
     50 ****        -0.7504   2.7749  -1.6098 LP             1 S1                 0.0000
     51 ****         0.5558   1.7238  -1.1750 LP             1 S1                 0.0000
@<TRIPOS>BOND
    1    1    2 1     
    2    1   22 1     
    3    1   23 1     
    4    1   24 1     
    5    2    3 1     
    6    3    8 ar    
    7    3    4 ar    
    8    4    5 ar    
    9    5    6 ar    
   10    5   25 1     
   11    6    7 ar    
   12    6   26 1     
   13    7    8 ar    
   14    7   27 1     
   15    8    9 1     
   16    9   10 am    
   17    9   28 1     
   18   10   11 2     
   19   10   12 am    
   20   12   13 1     
   21   12   29 1     
   22   13   14 1     
   23   13   30 1     
   24   13   31 1     
   25   14   15 1     
   26   14   32 1     
   27   14   33 1     
   28   15   21 1     
   29   15   16 1     
   30   15   46 1     
   31   16   17 1     
   32   16   34 1     
   33   16   35 1     
   34   17   18 1     
   35   17   36 1     
   36   17   37 1     
   37   18   19 1     
   38   18   38 1     
   39   18   39 1     
   40   19   20 1     
   41   19   21 1     
   42   19   40 1     
   43   20   41 1     
   44   20   42 1     
   45   20   43 1     
   46   21   44 1     
   47   21   45 1     
   48    2   47 1     
   49    2   48 1     
   50    4   49 1     
   51   11   50 1     
   52   11   51 1     
@<TRIPOS>SUBSTRUCTURE
      1 S1             1
@<TRIPOS>SET
LONE_PAIRS      STATIC     ATOMS    <user>   **** ""
5 47 48 49 50 51
DONOR_HYDROGENS      STATIC     ATOMS    <user>   **** ""
3 28 29 46
ATOM$BLUE        STATIC     ATOMS    COLORGROUP SYSTEM
5 47 48 49 50 51
ATOM$RED        STATIC     ATOMS    COLORGROUP SYSTEM
3 28 29 46
