AV-unprocessed.smi:1794|AV-procd|sdf|7232|dock2
  -GOLD-   22720 8473D 1   1.00000     0.00000
 Structure written by MMmdl.
 54 56  0  0  0  0  0  0  0  0  1 V2000
  151.4680  138.0917  154.3880 C   0  0  0  0  0  0  0  0  0  0  0  0
  150.1618  138.3941  155.1663 C   0  0  0  0  0  0  0  0  0  0  0  0
  149.1036  138.8414  154.1290 C   0  0  0  0  0  0  0  0  0  0  0  0
  149.6836  137.0358  155.7568 C   0  0  0  0  0  0  0  0  0  0  0  0
  149.2010  136.1227  154.7215 N   0  0  0  0  0  0  0  0  0  0  0  0
  148.8546  134.8409  154.9011 C   0  0  0  0  0  0  0  0  0  0  0  0
  148.9285  134.2579  155.9824 O   0  0  0  0  0  0  0  0  0  0  0  0
  148.4332  134.2942  153.7487 N   0  0  0  0  0  0  0  0  0  0  0  0
  148.0486  132.9480  153.4861 C   0  0  0  0  0  0  0  0  0  0  0  0
  148.6469  131.8326  154.1219 C   0  0  0  0  0  0  0  0  0  0  0  0
  148.1919  130.5392  153.8075 C   0  0  0  0  0  0  0  0  0  0  0  0
  147.1469  130.4053  152.8759 C   0  0  0  0  0  0  0  0  0  0  0  0
  146.5550  131.4569  152.2744 N   0  0  0  0  0  0  0  0  0  0  0  0
  146.9906  132.7055  152.5726 C   0  0  0  0  0  0  0  0  0  0  0  0
  146.3518  133.7877  151.9412 N   0  0  0  0  0  0  0  0  0  0  0  0
  145.4537  133.4506  150.8499 C   0  0  0  0  0  0  0  0  0  0  0  0
  144.6501  134.7255  150.5872 C   0  0  0  0  0  0  0  0  0  0  0  0
  144.7005  135.4994  151.9107 C   0  0  0  0  0  0  0  0  0  0  0  0
  145.6027  134.6646  152.8253 C   0  0  0  0  0  0  0  0  0  0  0  0
  150.3967  139.4077  156.2334 N   0  0  0  0  0  0  0  0  0  0  0  0
  150.6726  140.7650  155.7469 C   0  0  0  0  0  0  0  0  0  0  0  0
  150.7825  141.7804  156.8971 C   0  0  0  0  0  0  0  0  0  0  0  0
  151.7914  141.3639  157.8088 O   0  0  0  0  0  0  0  0  0  0  0  0
  151.5324  140.0750  158.3516 C   0  0  0  0  0  0  0  0  0  0  0  0
  151.4259  139.0445  157.2145 C   0  0  0  0  0  0  0  0  0  0  0  0
  151.3501  137.2314  153.7282 H   0  0  0  0  0  0  0  0  0  0  0  0
  152.2967  137.8711  155.0617 H   0  0  0  0  0  0  0  0  0  0  0  0
  151.7730  138.9222  153.7515 H   0  0  0  0  0  0  0  0  0  0  0  0
  148.9672  138.0824  153.3578 H   0  0  0  0  0  0  0  0  0  0  0  0
  149.3909  139.7589  153.6161 H   0  0  0  0  0  0  0  0  0  0  0  0
  148.1265  139.0062  154.5827 H   0  0  0  0  0  0  0  0  0  0  0  0
  150.4847  136.5366  156.3010 H   0  0  0  0  0  0  0  0  0  0  0  0
  148.9123  137.2115  156.5090 H   0  0  0  0  0  0  0  0  0  0  0  0
  149.1004  136.5124  153.7957 H   0  0  0  0  0  0  0  0  0  0  0  0
  148.4912  134.8870  152.9336 H   0  0  0  0  0  0  0  0  0  0  0  0
  149.4330  131.9423  154.8524 H   0  0  0  0  0  0  0  0  0  0  0  0
  148.6308  129.6698  154.2741 H   0  0  0  0  0  0  0  0  0  0  0  0
  146.7709  129.4278  152.6128 H   0  0  0  0  0  0  0  0  0  0  0  0
  146.0087  133.1360  149.9655 H   0  0  0  0  0  0  0  0  0  0  0  0
  144.7848  132.6380  151.1373 H   0  0  0  0  0  0  0  0  0  0  0  0
  145.1248  135.3119  149.7995 H   0  0  0  0  0  0  0  0  0  0  0  0
  143.6307  134.5046  150.2693 H   0  0  0  0  0  0  0  0  0  0  0  0
  145.1290  136.4892  151.7488 H   0  0  0  0  0  0  0  0  0  0  0  0
  143.7104  135.6334  152.3473 H   0  0  0  0  0  0  0  0  0  0  0  0
  144.9970  134.0799  153.5190 H   0  0  0  0  0  0  0  0  0  0  0  0
  146.2727  135.2942  153.4113 H   0  0  0  0  0  0  0  0  0  0  0  0
  151.6009  140.7800  155.1754 H   0  0  0  0  0  0  0  0  0  0  0  0
  149.8842  141.1082  155.0797 H   0  0  0  0  0  0  0  0  0  0  0  0
  151.0385  142.7664  156.5092 H   0  0  0  0  0  0  0  0  0  0  0  0
  149.8283  141.8789  157.4173 H   0  0  0  0  0  0  0  0  0  0  0  0
  152.3411  139.8062  159.0312 H   0  0  0  0  0  0  0  0  0  0  0  0
  150.6134  140.0974  158.9394 H   0  0  0  0  0  0  0  0  0  0  0  0
  151.2107  138.0771  157.6644 H   0  0  0  0  0  0  0  0  0  0  0  0
  152.3979  138.9592  156.7282 H   0  0  0  0  0  0  0  0  0  0  0  0
  1  2  1  0  0  0  0
  1 26  1  0  0  0  0
  1 27  1  0  0  0  0
  1 28  1  0  0  0  0
  2  3  1  0  0  0  0
  2  4  1  0  0  0  0
  2 20  1  0  0  0  0
  3 29  1  0  0  0  0
  3 30  1  0  0  0  0
  3 31  1  0  0  0  0
  4  5  1  0  0  0  0
  4 32  1  0  0  0  0
  4 33  1  0  0  0  0
  5  6  1  0  0  0  0
  5 34  1  0  0  0  0
  6  7  2  0  0  0  0
  6  8  1  0  0  0  0
  8  9  1  0  0  0  0
  8 35  1  0  0  0  0
  9 14  1  0  0  0  0
  9 10  2  0  0  0  0
 10 11  1  0  0  0  0
 10 36  1  0  0  0  0
 11 12  2  0  0  0  0
 11 37  1  0  0  0  0
 12 13  1  0  0  0  0
 12 38  1  0  0  0  0
 13 14  2  0  0  0  0
 14 15  1  0  0  0  0
 15 19  1  0  0  0  0
 15 16  1  0  0  0  0
 16 17  1  0  0  0  0
 16 39  1  0  0  0  0
 16 40  1  0  0  0  0
 17 18  1  0  0  0  0
 17 41  1  0  0  0  0
 17 42  1  0  0  0  0
 18 19  1  0  0  0  0
 18 43  1  0  0  0  0
 18 44  1  0  0  0  0
 19 45  1  0  0  0  0
 19 46  1  0  0  0  0
 20 25  1  0  0  0  0
 20 21  1  0  0  0  0
 21 22  1  0  0  0  0
 21 47  1  0  0  0  0
 21 48  1  0  0  0  0
 22 23  1  0  0  0  0
 22 49  1  0  0  0  0
 22 50  1  0  0  0  0
 23 24  1  0  0  0  0
 24 25  1  0  0  0  0
 24 51  1  0  0  0  0
 24 52  1  0  0  0  0
 25 53  1  0  0  0  0
 25 54  1  0  0  0  0
M  END
> <s_m_source_file>
AV-unprocessed.smi

> <i_m_source_file_index>
1794

> <i_lp_mmshare_version>
43012

> <i_f3d_flags>
0

> <s_epik_input>
W0NIMl0xW0NIMl1PW0NIMl1bQ0gyXU4xQyhbQ0gzXSkoW0NIM10pW0NIMl1bTkhdQyg9TylbTkhdYzJbY0hdW2NIXVtjSF1uYzJOM1tDSDJdW0NIMl1bQ0gyXVtDSDJdMw==

> <s_epik_cmdline>
J2VwaWtfcHl0aG9uJywgJy1waCcsICc3LjAnLCAnLXRuJywgJzgnLCAnLW1hJywgJzIwMCcsICctbWV0YWxfYmluZGluZycsICctaW1hZScsICc8aW5maWxlLm1hZT4nLCAnLW9tYWUnLCAnPG91dGZpbGUubWFlPic=

> <r_lp_tautomer_probability>
1

> <r_epik_Ionization_Penalty>
0.366523

> <r_epik_Ionization_Penalty_Charging>
0

> <r_epik_Ionization_Penalty_Neutral>
0.366523

> <r_epik_State_Penalty>
0.351681

> <r_epik_Charging_Adjusted_Penalty>
0.351681

> <i_epik_Tot_Q>
0

> <i_epik_Tot_abs_Q>
0

> <r_epik_Metal_State_Penalty>
0.334668

> <b_epik_Metal_Only>
0

> <s_lp_Force_Field>
OPLS_2005

> <r_lp_Energy>
72.3516

> <b_lp_Chiralities_Consistent>
1

> <s_lp_Variant>
AV-unprocessed.smi:1794-1

> <Gold.Version>
5.8.1

> <Gold.Id.Protein>
6NUR|6NUR_protein|mol2

> <Gold.PLP.Fitness>
42.5585

> <Gold.PLP.PLP>
-37.5599

> <Gold.PLP.part.hbond>
-2.0000

> <Gold.PLP.part.metal>
0.0000

> <Gold.PLP.part.buried>
-4.1230

> <Gold.PLP.part.nonpolar>
-31.9902

> <Gold.PLP.part.repulsive>
0.3238

> <Gold.PLP.ligand.clash>
0.0000

> <Gold.PLP.ligand.torsion>
0.5897

> <Gold.PLP.Chemscore.Hbond>
2.0000

> <Gold.PLP.Chemscore.CHOScore>
0.0000

> <Gold.PLP.Chemscore.Metal>
0.0000

> <Gold.Chemscore.Hbonds>
donor molecule, donor type, donor heavy atom, donor atom, acceptor molecule, acceptor atom, score
      L1  H     5    34       P1  7948  0.98
      L1  H     8    35       P1  7948  1.00

> <Gold.PLP.Chemscore.Internal.Correction>
0.1780

> <Gold.Rescore>
     Score         DG    S(hbond)    S(metal)    S(lipo)     H(rot)  DE(clash)    DE(int)     intcor
     15.58     -17.52       1.73        0.00      87.55       1.55       0.14       1.80       ----

> <Gold.Chemscore.Fitness>
15.5820

> <Gold.Chemscore.DG>
-17.5226

> <Gold.Chemscore.ZeroCoef>
-5.4800

> <Gold.Chemscore.Hbond>
1.7261

> <Gold.Chemscore.Metal>
0.0000

> <Gold.Chemscore.Lipo>
87.5497

> <Gold.Chemscore.Internal_Hbond>
0.0000

> <Gold.Chemscore.DEClash>
0.1401

> <Gold.Chemscore.DEInternal>
1.8006

> <Gold.Chemscore.Rot>
1.5491

> <Gold.Chemscore.Internal.Correction>
   9.000000E+99

> <Gold.Chemscore.Hbonds>
donor molecule, donor type, donor heavy atom, donor atom, acceptor molecule, acceptor atom, score
      L1  H     5    34       P1  7948  0.92
      L1  H     8    35       P1  7948  0.55

> <Gold.Chemscore.Hbond.Weighted>
-5.7650

> <Gold.Chemscore.Metal.Weighted>
-0.0000

> <Gold.Chemscore.Lipo.Weighted>
-10.2433

> <Gold.Chemscore.Internal_Hbond.Weighted>
0.0000

> <Gold.Chemscore.DEClash.Weighted>
0.1401

> <Gold.Chemscore.DEInternal.Weighted>
1.8006

> <Gold.Chemscore.Rot.Weighted>
3.9657

> <Gold.Chemscore.Internal.Correction.Weighted>
   9.000000E+99

> <Gold.Protein.RotatedTorsions>
[ 6907 6896 6895 6894 ] final   -0.42 input  -60.11 | X-H torsion
[ 7974 7965 7964 7962 ] final  -82.82 input  175.53 | X-H torsion
[ 8008 7997 7996 7995 ] final  -69.60 input   59.86 | X-H torsion
[ 10167 10162 10161 10158 ] final   13.75 input  -65.29 | X-H torsion
[ 10718 10713 10712 10709 ] final -130.79 input   66.30 | X-H torsion
[ 10763 10752 10751 10750 ] final  147.17 input  -60.55 | X-H torsion
[ 11005 11000 10999 10996 ] final  119.54 input  -57.11 | X-H torsion

> <Gold.Protein.ActiveResidues>
 VAL166  LYS551  ARG553  GLY616  TRP617  ASP618  TYR619  PRO620  LYS621  CYS622 
 ASP623  PHE694  ASN695  SER759  ASP760  ASP761  ALA762  ILE779  LEU786  VAL792 
 PHE793  MET794  SER795  GLU796  ALA797  LYS798  CYS799  TRP800  GLU811  SER814 

> <Gold.Protein.RotatedAtoms>
  151.5625  135.1065  159.9975 H   0  0  0  0  0  0  0  0  0  0  0  0  # atno 6907 bound_to 6896
  152.4439  133.7496  159.6697 H   0  0  0  0  0  0  0  0  0  0  0  0  # atno 6908 bound_to 6896
  150.8351  133.7959  159.3107 H   0  0  0  0  0  0  0  0  0  0  0  0  # atno 6909 bound_to 6896
  145.5283  140.9524  143.1617 H   0  0  0  0  0  0  0  0  0  0  0  0  # atno 7974 bound_to 7965
  154.4950  140.0850  156.7677 H   0  0  0  0  0  0  0  0  0  0  0  0  # atno 8008 bound_to 7997
  155.4138  140.3442  155.4247 H   0  0  0  0  0  0  0  0  0  0  0  0  # atno 8009 bound_to 7997
  156.1382  140.1521  156.8950 H   0  0  0  0  0  0  0  0  0  0  0  0  # atno 8010 bound_to 7997
  140.5982  143.8659  150.6938 H   0  0  0  0  0  0  0  0  0  0  0  0  # atno 10167 bound_to 10162
  156.2180  130.6960  151.0724 H   0  0  0  0  0  0  0  0  0  0  0  0  # atno 10718 bound_to 10713
  154.0339  135.2895  155.3364 H   0  0  0  0  0  0  0  0  0  0  0  0  # atno 10763 bound_to 10752
  154.6971  135.5203  153.8476 H   0  0  0  0  0  0  0  0  0  0  0  0  # atno 10764 bound_to 10752
  153.0628  135.6620  154.0550 H   0  0  0  0  0  0  0  0  0  0  0  0  # atno 10765 bound_to 10752
  139.9150  134.9629  156.7671 H   0  0  0  0  0  0  0  0  0  0  0  0  # atno 11005 bound_to 11000
  144.7639  139.6890  143.7223 LP  0  0  0  0  0  0  0  0  0  0  0  0  # atno 17320 bound_to 7965
  146.2061  139.5386  142.9711 LP  0  0  0  0  0  0  0  0  0  0  0  0  # atno 17321 bound_to 7965
  140.2199  143.3817  152.1651 LP  0  0  0  0  0  0  0  0  0  0  0  0  # atno 17342 bound_to 10162
  139.5272  144.7117  151.5185 LP  0  0  0  0  0  0  0  0  0  0  0  0  # atno 17343 bound_to 10162
  157.7073  131.0750  150.6624 LP  0  0  0  0  0  0  0  0  0  0  0  0  # atno 17370 bound_to 10713
  156.6686  130.4533  149.5664 LP  0  0  0  0  0  0  0  0  0  0  0  0  # atno 17371 bound_to 10713
  140.6651  133.9610  155.7826 LP  0  0  0  0  0  0  0  0  0  0  0  0  # atno 17394 bound_to 11000
  141.0617  134.0337  157.3650 LP  0  0  0  0  0  0  0  0  0  0  0  0  # atno 17395 bound_to 11000

$$$$
