AV-unprocessed.smi:1174|AV-procd|sdf|4949|dock4
  -GOLD-   22720 3533D 1   1.00000     0.00000
 Structure written by MMmdl.
 41 42  0  0  0  0  0  0  0  0  1 V2000
  148.7044  141.0884  156.7805 C   0  0  0  0  0  0  0  0  0  0  0  0
  150.2280  141.1698  156.9461 C   0  0  1  0  0  0  0  0  0  0  0  0
  150.6188  141.3251  158.4322 C   0  0  0  0  0  0  0  0  0  0  0  0
  151.4695  142.4757  158.6778 N   0  0  0  0  0  0  0  0  0  0  0  0
  151.6938  143.5676  157.8662 C   0  0  0  0  0  0  0  0  0  0  0  0
  152.5689  144.3863  158.5207 C   0  0  0  0  0  0  0  0  0  0  0  0
  152.8261  143.7012  159.7405 C   0  0  0  0  0  0  0  0  0  0  0  0
  152.1720  142.5547  159.8289 N   0  0  0  0  0  0  0  0  0  0  0  0
  150.8254  139.9690  156.3634 N   0  0  0  0  0  0  0  0  0  0  0  0
  150.9097  139.6836  155.0540 C   0  0  0  0  0  0  0  0  0  0  0  0
  150.5162  140.4490  154.1737 O   0  0  0  0  0  0  0  0  0  0  0  0
  151.5261  138.3179  154.6955 C   0  0  1  0  0  0  0  0  0  0  0  0
  152.9894  138.1861  155.1863 C   0  0  0  0  0  0  0  0  0  0  0  0
  153.1054  137.8485  156.6869 C   0  0  0  0  0  0  0  0  0  0  0  0
  152.1919  136.6693  157.0590 C   0  0  0  0  0  0  0  0  0  0  0  0
  150.8067  136.9804  156.6667 N   0  0  0  0  0  0  0  0  0  0  0  0
  149.7375  137.0450  157.4982 C   0  0  0  0  0  0  0  0  0  0  0  0
  148.6798  137.7031  157.0134 N   0  0  0  0  0  0  0  0  0  0  0  0
  149.6908  136.4955  158.5973 O   0  0  0  0  0  0  0  0  0  0  0  0
  150.6749  137.1301  155.2093 C   0  0  0  0  0  0  0  0  0  0  0  0
  148.2198  141.9859  157.1659 H   0  0  0  0  0  0  0  0  0  0  0  0
  148.2910  140.2319  157.3143 H   0  0  0  0  0  0  0  0  0  0  0  0
  148.4275  140.9928  155.7300 H   0  0  0  0  0  0  0  0  0  0  0  0
  150.5621  142.0503  156.3941 H   0  0  0  0  0  0  0  0  0  0  0  0
  149.7227  141.4415  159.0436 H   0  0  0  0  0  0  0  0  0  0  0  0
  151.1240  140.4283  158.7939 H   0  0  0  0  0  0  0  0  0  0  0  0
  151.2131  143.6739  156.9047 H   0  0  0  0  0  0  0  0  0  0  0  0
  152.9606  145.3337  158.1811 H   0  0  0  0  0  0  0  0  0  0  0  0
  153.4660  143.9997  160.5575 H   0  0  0  0  0  0  0  0  0  0  0  0
  151.1799  139.2828  157.0137 H   0  0  0  0  0  0  0  0  0  0  0  0
  151.5466  138.2568  153.6060 H   0  0  0  0  0  0  0  0  0  0  0  0
  153.4736  137.3933  154.6148 H   0  0  0  0  0  0  0  0  0  0  0  0
  153.5522  139.0944  154.9664 H   0  0  0  0  0  0  0  0  0  0  0  0
  154.1407  137.6079  156.9303 H   0  0  0  0  0  0  0  0  0  0  0  0
  152.8472  138.7173  157.2927 H   0  0  0  0  0  0  0  0  0  0  0  0
  152.5142  135.7720  156.5287 H   0  0  0  0  0  0  0  0  0  0  0  0
  152.3084  136.4348  158.1169 H   0  0  0  0  0  0  0  0  0  0  0  0
  147.8496  137.8059  157.5781 H   0  0  0  0  0  0  0  0  0  0  0  0
  148.7223  138.1057  156.0887 H   0  0  0  0  0  0  0  0  0  0  0  0
  149.6388  137.2630  154.8931 H   0  0  0  0  0  0  0  0  0  0  0  0
  151.0056  136.2070  154.7314 H   0  0  0  0  0  0  0  0  0  0  0  0
  1  2  1  0  0  0  0
  1 21  1  0  0  0  0
  1 22  1  0  0  0  0
  1 23  1  0  0  0  0
  2  3  1  0  0  0  0
  2  9  1  0  0  0  0
  2 24  1  0  0  0  0
  3  4  1  0  0  0  0
  3 25  1  0  0  0  0
  3 26  1  0  0  0  0
  4  8  1  0  0  0  0
  4  5  1  0  0  0  0
  5  6  2  0  0  0  0
  5 27  1  0  0  0  0
  6  7  1  0  0  0  0
  6 28  1  0  0  0  0
  7  8  2  0  0  0  0
  7 29  1  0  0  0  0
  9 10  1  0  0  0  0
  9 30  1  0  0  0  0
 10 11  2  0  0  0  0
 10 12  1  0  0  0  0
 12 20  1  0  0  0  0
 12 13  1  0  0  0  0
 12 31  1  0  0  0  0
 13 14  1  0  0  0  0
 13 32  1  0  0  0  0
 13 33  1  0  0  0  0
 14 15  1  0  0  0  0
 14 34  1  0  0  0  0
 14 35  1  0  0  0  0
 15 16  1  0  0  0  0
 15 36  1  0  0  0  0
 15 37  1  0  0  0  0
 16 17  1  0  0  0  0
 16 20  1  0  0  0  0
 17 18  1  0  0  0  0
 17 19  2  0  0  0  0
 18 38  1  0  0  0  0
 18 39  1  0  0  0  0
 20 40  1  0  0  0  0
 20 41  1  0  0  0  0
M  END
> <s_m_source_file>
AV-unprocessed.smi

> <i_m_source_file_index>
1174

> <i_lp_mmshare_version>
43012

> <i_f3d_flags>
0

> <s_epik_input>
bjFbY0hdW2NIXVtjSF1uMVtDSDJdW0NAQEhdKFtDSDNdKVtOSF1DKD1PKVtDQEBIXTJbQ0gyXVtDSDJdW0NIMl1OKFtDSDJdMilDKD1PKVtOSDJd

> <s_epik_cmdline>
J2VwaWtfcHl0aG9uJywgJy1waCcsICc3LjAnLCAnLXRuJywgJzgnLCAnLW1hJywgJzIwMCcsICctbWV0YWxfYmluZGluZycsICctaW1hZScsICc8aW5maWxlLm1hZT4nLCAnLW9tYWUnLCAnPG91dGZpbGUubWFlPic=

> <r_lp_tautomer_probability>
1

> <r_epik_Ionization_Penalty>
0.000372452

> <r_epik_Ionization_Penalty_Charging>
0

> <r_epik_Ionization_Penalty_Neutral>
0.000372452

> <r_epik_State_Penalty>
-0

> <r_epik_Charging_Adjusted_Penalty>
0

> <i_epik_Tot_Q>
0

> <i_epik_Tot_abs_Q>
0

> <r_epik_Metal_State_Penalty>
-0

> <b_epik_Metal_Only>
0

> <s_lp_Force_Field>
OPLS_2005

> <r_lp_Energy>
22.2792

> <b_lp_Chiralities_Consistent>
1

> <s_lp_Variant>
AV-unprocessed.smi:1174-4

> <Gold.Version>
5.8.1

> <Gold.Id.Protein>
6NUR|6NUR_protein|mol2

> <Gold.PLP.Fitness>
40.6551

> <Gold.PLP.PLP>
-34.3607

> <Gold.PLP.part.hbond>
-1.8278

> <Gold.PLP.part.metal>
0.0000

> <Gold.PLP.part.buried>
-3.3279

> <Gold.PLP.part.nonpolar>
-28.6998

> <Gold.PLP.part.repulsive>
0.2250

> <Gold.PLP.ligand.clash>
0.0000

> <Gold.PLP.ligand.torsion>
1.3406

> <Gold.PLP.Chemscore.Hbond>
1.9760

> <Gold.PLP.Chemscore.CHOScore>
1.0000

> <Gold.PLP.Chemscore.Metal>
0.0000

> <Gold.Chemscore.Hbonds>
donor molecule, donor type, donor heavy atom, donor atom, acceptor molecule, acceptor atom, score
      P1  H  6896  6909       L1    19  0.39
      P1  H  7989  7998       L1    11  0.57
      L1  C     5    27       P1  8028  0.28

> <Gold.PLP.Chemscore.Internal.Correction>
0.0475

> <Gold.Rescore>
     Score         DG    S(hbond)    S(metal)    S(lipo)     H(rot)  DE(clash)    DE(int)     intcor
     14.29     -16.55       1.94        0.00      78.91       1.82       0.01       2.24       ----

> <Gold.Chemscore.Fitness>
14.2904

> <Gold.Chemscore.DG>
-16.5459

> <Gold.Chemscore.ZeroCoef>
-5.4800

> <Gold.Chemscore.Hbond>
1.9444

> <Gold.Chemscore.Metal>
0.0000

> <Gold.Chemscore.Lipo>
78.9073

> <Gold.Chemscore.Internal_Hbond>
0.0000

> <Gold.Chemscore.DEClash>
0.0127

> <Gold.Chemscore.DEInternal>
2.2429

> <Gold.Chemscore.Rot>
1.8206

> <Gold.Chemscore.Internal.Correction>
   9.000000E+99

> <Gold.Chemscore.Hbonds>
donor molecule, donor type, donor heavy atom, donor atom, acceptor molecule, acceptor atom, score
      P1  H  6896  6909       L1    19  0.39
      P1  H  7989  7998       L1    11  0.36

> <Gold.Chemscore.Hbond.Weighted>
-6.4945

> <Gold.Chemscore.Metal.Weighted>
-0.0000

> <Gold.Chemscore.Lipo.Weighted>
-9.2322

> <Gold.Chemscore.Internal_Hbond.Weighted>
0.0000

> <Gold.Chemscore.DEClash.Weighted>
0.0127

> <Gold.Chemscore.DEInternal.Weighted>
2.2429

> <Gold.Chemscore.Rot.Weighted>
4.6607

> <Gold.Chemscore.Internal.Correction.Weighted>
   9.000000E+99

> <Gold.Protein.RotatedTorsions>
[ 6907 6896 6895 6894 ] final   71.20 input  -60.11 | X-H torsion
[ 7974 7965 7964 7962 ] final  -14.03 input  175.53 | X-H torsion
[ 8008 7997 7996 7995 ] final  -12.16 input   59.86 | X-H torsion
[ 10167 10162 10161 10158 ] final   21.84 input  -65.29 | X-H torsion
[ 10718 10713 10712 10709 ] final -152.64 input   66.30 | X-H torsion
[ 10763 10752 10751 10750 ] final   -6.11 input  -60.55 | X-H torsion
[ 11005 11000 10999 10996 ] final  -88.14 input  -57.11 | X-H torsion

> <Gold.Protein.ActiveResidues>
 VAL166  LYS551  ARG553  GLY616  TRP617  ASP618  TYR619  PRO620  LYS621  CYS622 
 ASP623  PHE694  ASN695  SER759  ASP760  ASP761  ALA762  ILE779  LEU786  VAL792 
 PHE793  MET794  SER795  GLU796  ALA797  LYS798  CYS799  TRP800  GLU811  SER814 

> <Gold.Protein.RotatedAtoms>
  152.4796  134.4755  159.9648 H   0  0  0  0  0  0  0  0  0  0  0  0  # atno 6907 bound_to 6896
  151.4763  133.3551  159.2839 H   0  0  0  0  0  0  0  0  0  0  0  0  # atno 6908 bound_to 6896
  150.8858  134.8282  159.7319 H   0  0  0  0  0  0  0  0  0  0  0  0  # atno 6909 bound_to 6896
  146.2090  140.3289  142.8397 H   0  0  0  0  0  0  0  0  0  0  0  0  # atno 7974 bound_to 7965
  154.5401  140.2283  155.8656 H   0  0  0  0  0  0  0  0  0  0  0  0  # atno 8008 bound_to 7997
  156.1850  140.3091  155.9183 H   0  0  0  0  0  0  0  0  0  0  0  0  # atno 8009 bound_to 7997
  155.3275  140.0443  157.3032 H   0  0  0  0  0  0  0  0  0  0  0  0  # atno 8010 bound_to 7997
  140.5395  143.9702  150.6511 H   0  0  0  0  0  0  0  0  0  0  0  0  # atno 10167 bound_to 10162
  156.4752  130.8277  151.2506 H   0  0  0  0  0  0  0  0  0  0  0  0  # atno 10718 bound_to 10713
  153.4078  135.7007  153.6380 H   0  0  0  0  0  0  0  0  0  0  0  0  # atno 10763 bound_to 10752
  153.4887  135.3677  155.2480 H   0  0  0  0  0  0  0  0  0  0  0  0  # atno 10764 bound_to 10752
  154.8715  135.4083  154.3425 H   0  0  0  0  0  0  0  0  0  0  0  0  # atno 10765 bound_to 10752
  141.1606  133.7552  156.9408 H   0  0  0  0  0  0  0  0  0  0  0  0  # atno 11005 bound_to 11000
  144.8866  140.7470  143.5953 LP  0  0  0  0  0  0  0  0  0  0  0  0  # atno 17320 bound_to 7965
  145.3211  139.1788  143.4587 LP  0  0  0  0  0  0  0  0  0  0  0  0  # atno 17321 bound_to 7965
  140.3099  143.3205  152.0889 LP  0  0  0  0  0  0  0  0  0  0  0  0  # atno 17342 bound_to 10162
  139.4983  144.6643  151.6393 LP  0  0  0  0  0  0  0  0  0  0  0  0  # atno 17343 bound_to 10162
  157.7488  131.0063  150.3146 LP  0  0  0  0  0  0  0  0  0  0  0  0  # atno 17370 bound_to 10713
  156.3577  130.3841  149.7276 LP  0  0  0  0  0  0  0  0  0  0  0  0  # atno 17371 bound_to 10713
  140.1323  134.9348  157.2354 LP  0  0  0  0  0  0  0  0  0  0  0  0  # atno 17394 bound_to 11000
  140.2938  134.3210  155.7308 LP  0  0  0  0  0  0  0  0  0  0  0  0  # atno 17395 bound_to 11000

$$$$
