AV-unprocessed.smi:1944|AV-procd|sdf|7855|dock5
  -GOLD-   2272010 03D 1   1.00000     0.00000
 Structure written by MMmdl.
 46 47  0  0  0  0  0  0  0  0  2 V2000
  148.2408  140.3340  154.1827 C   0  0  0  0  0  0  0  0  0  0  0  0
  149.0048  139.1402  154.0483 O   0  0  0  0  0  0  0  0  0  0  0  0
  150.1834  139.0279  154.7609 C   0  0  0  0  0  0  0  0  0  0  0  0
  150.7647  140.1612  155.2287 N   0  0  0  0  0  0  0  0  0  0  0  0
  151.9130  140.0536  155.9280 C   0  0  0  0  0  0  0  0  0  0  0  0
  152.5349  138.8220  156.2023 C   0  0  0  0  0  0  0  0  0  0  0  0
  151.9344  137.6451  155.7182 C   0  0  0  0  0  0  0  0  0  0  0  0
  150.7366  137.7425  154.9691 C   0  0  0  0  0  0  0  0  0  0  0  0
  150.0376  136.6168  154.4515 N   0  0  0  0  0  0  0  0  0  0  0  0
  149.8321  135.4211  155.0291 C   0  0  0  0  0  0  0  0  0  0  0  0
  150.2474  135.0827  156.1372 O   0  0  0  0  0  0  0  0  0  0  0  0
  149.1250  134.6095  154.2299 N   0  0  0  0  0  0  0  0  0  0  0  0
  148.7420  133.2419  154.5609 C   0  0  0  0  0  0  0  0  0  0  0  0
  149.0551  132.2722  153.4039 C   0  0  0  0  0  0  0  0  0  0  0  0
  147.8722  131.9563  152.5582 N   0  3  2  0  0  0  0  0  0  0  0  0
  147.2221  133.1872  152.0313 C   0  0  0  0  0  0  0  0  0  0  0  0
  146.1438  132.8523  150.9889 C   0  0  0  0  0  0  0  0  0  0  0  0
  145.1008  131.8894  151.5657 C   0  0  0  0  0  0  0  0  0  0  0  0
  145.7971  130.6370  152.1150 C   0  0  0  0  0  0  0  0  0  0  0  0
  146.8959  130.9828  153.1429 C   0  0  2  0  0  0  0  0  0  0  0  0
  146.3065  131.4343  154.4965 C   0  0  0  0  0  0  0  0  0  0  0  0
  147.3544  140.2678  153.5520 H   0  0  0  0  0  0  0  0  0  0  0  0
  148.8084  141.2096  153.8639 H   0  0  0  0  0  0  0  0  0  0  0  0
  147.9053  140.4791  155.2106 H   0  0  0  0  0  0  0  0  0  0  0  0
  152.3452  140.9764  156.2855 H   0  0  0  0  0  0  0  0  0  0  0  0
  153.4489  138.7800  156.7761 H   0  0  0  0  0  0  0  0  0  0  0  0
  152.3952  136.6960  155.9437 H   0  0  0  0  0  0  0  0  0  0  0  0
  149.7105  136.7155  153.5013 H   0  0  0  0  0  0  0  0  0  0  0  0
  148.8248  134.9656  153.3338 H   0  0  0  0  0  0  0  0  0  0  0  0
  149.2430  132.9241  155.4771 H   0  0  0  0  0  0  0  0  0  0  0  0
  147.6739  133.2577  154.7754 H   0  0  0  0  0  0  0  0  0  0  0  0
  149.8699  132.6560  152.7896 H   0  0  0  0  0  0  0  0  0  0  0  0
  149.4200  131.3368  153.8304 H   0  0  0  0  0  0  0  0  0  0  0  0
  146.7930  133.7646  152.8509 H   0  0  0  0  0  0  0  0  0  0  0  0
  147.9728  133.8256  151.5638 H   0  0  0  0  0  0  0  0  0  0  0  0
  145.6582  133.7673  150.6479 H   0  0  0  0  0  0  0  0  0  0  0  0
  146.6101  132.4039  150.1105 H   0  0  0  0  0  0  0  0  0  0  0  0
  144.5341  132.3831  152.3557 H   0  0  0  0  0  0  0  0  0  0  0  0
  144.3806  131.6110  150.7956 H   0  0  0  0  0  0  0  0  0  0  0  0
  145.0615  129.9638  152.5571 H   0  0  0  0  0  0  0  0  0  0  0  0
  146.2446  130.0892  151.2844 H   0  0  0  0  0  0  0  0  0  0  0  0
  147.4273  130.0496  153.3253 H   0  0  0  0  0  0  0  0  0  0  0  0
  145.5864  130.7028  154.8649 H   0  0  0  0  0  0  0  0  0  0  0  0
  145.7885  132.3902  154.4261 H   0  0  0  0  0  0  0  0  0  0  0  0
  147.0758  131.5273  155.2625 H   0  0  0  0  0  0  0  0  0  0  0  0
  148.2496  131.4942  151.7429 H   0  0  0  0  0  0  0  0  0  0  0  0
  1  2  1  0  0  0  0
  1 22  1  0  0  0  0
  1 23  1  0  0  0  0
  1 24  1  0  0  0  0
  2  3  1  0  0  0  0
  3  8  1  0  0  0  0
  3  4  2  0  0  0  0
  4  5  1  0  0  0  0
  5  6  2  0  0  0  0
  5 25  1  0  0  0  0
  6  7  1  0  0  0  0
  6 26  1  0  0  0  0
  7  8  2  0  0  0  0
  7 27  1  0  0  0  0
  8  9  1  0  0  0  0
  9 10  1  0  0  0  0
  9 28  1  0  0  0  0
 10 11  2  0  0  0  0
 10 12  1  0  0  0  0
 12 13  1  0  0  0  0
 12 29  1  0  0  0  0
 13 14  1  0  0  0  0
 13 30  1  0  0  0  0
 13 31  1  0  0  0  0
 14 15  1  0  0  0  0
 14 32  1  0  0  0  0
 14 33  1  0  0  0  0
 15 20  1  0  0  0  0
 15 16  1  0  0  0  0
 15 46  1  0  0  0  0
 16 17  1  0  0  0  0
 16 34  1  0  0  0  0
 16 35  1  0  0  0  0
 17 18  1  0  0  0  0
 17 36  1  0  0  0  0
 17 37  1  0  0  0  0
 18 19  1  0  0  0  0
 18 38  1  0  0  0  0
 18 39  1  0  0  0  0
 19 20  1  0  0  0  0
 19 40  1  0  0  0  0
 19 41  1  0  0  0  0
 20 21  1  0  0  0  0
 20 42  1  0  0  0  0
 21 43  1  0  0  0  0
 21 44  1  0  0  0  0
 21 45  1  0  0  0  0
M  CHG  1  15   1
M  END
> <s_m_source_file>
AV-unprocessed.smi

> <i_m_source_file_index>
1944

> <i_lp_mmshare_version>
43012

> <i_f3d_flags>
0

> <s_epik_input>
W0NIM11PYzFuW2NIXVtjSF1bY0hdYzFbTkhdQyg9TylbTkhdW0NIMl1bQ0gyXU4yW0NIMl1bQ0gyXVtDSDJdW0NIMl1bQ0BIXTJbQ0gzXQ==

> <s_epik_cmdline>
J2VwaWtfcHl0aG9uJywgJy1waCcsICc3LjAnLCAnLXRuJywgJzgnLCAnLW1hJywgJzIwMCcsICctbWV0YWxfYmluZGluZycsICctaW1hZScsICc8aW5maWxlLm1hZT4nLCAnLW9tYWUnLCAnPG91dGZpbGUubWFlPic=

> <r_lp_tautomer_probability>
1

> <r_epik_Ionization_Penalty>
0.00219525

> <r_epik_Ionization_Penalty_Charging>
0.00211816

> <r_epik_Ionization_Penalty_Neutral>
7.7088e-05

> <r_epik_State_Penalty>
0.00145254

> <r_epik_Charging_Adjusted_Penalty>
0.0035707

> <i_epik_Tot_Q>
1

> <i_epik_Tot_abs_Q>
1

> <r_epik_Metal_State_Penalty>
-0

> <b_epik_Metal_Only>
0

> <s_lp_Force_Field>
OPLS_2005

> <r_lp_Energy>
23.2027

> <b_lp_Chiralities_Consistent>
1

> <s_lp_Variant>
AV-unprocessed.smi:1944-3

> <Gold.Version>
5.8.1

> <Gold.Id.Protein>
6NUR|6NUR_protein|mol2

> <Gold.PLP.Fitness>
46.4971

> <Gold.PLP.PLP>
-36.7088

> <Gold.PLP.part.hbond>
-4.4404

> <Gold.PLP.part.metal>
0.0000

> <Gold.PLP.part.buried>
-5.7447

> <Gold.PLP.part.nonpolar>
-28.2363

> <Gold.PLP.part.repulsive>
1.4190

> <Gold.PLP.ligand.clash>
0.0000

> <Gold.PLP.ligand.torsion>
0.9927

> <Gold.PLP.Chemscore.Hbond>
3.9000

> <Gold.PLP.Chemscore.CHOScore>
0.0000

> <Gold.PLP.Chemscore.Metal>
0.0000

> <Gold.Chemscore.Hbonds>
donor molecule, donor type, donor heavy atom, donor atom, acceptor molecule, acceptor atom, score
      L1  H     9    28       P1  7948  1.00
      L1  H    12    29       P1  7948  1.00
      L1  H    15    46       P1 10747  1.00
      P1  H  7989  7998       L1     4  0.74

> <Gold.PLP.Chemscore.Internal.Correction>
0.0736

> <Gold.Rescore>
     Score         DG    S(hbond)    S(metal)    S(lipo)     H(rot)  DE(clash)    DE(int)     intcor
     17.74     -19.34       2.65        0.00      80.32       1.71       0.00       1.60       ----

> <Gold.Chemscore.Fitness>
17.7412

> <Gold.Chemscore.DG>
-19.3416

> <Gold.Chemscore.ZeroCoef>
-5.4800

> <Gold.Chemscore.Hbond>
2.6476

> <Gold.Chemscore.Metal>
0.0000

> <Gold.Chemscore.Lipo>
80.3250

> <Gold.Chemscore.Internal_Hbond>
0.0000

> <Gold.Chemscore.DEClash>
0.0033

> <Gold.Chemscore.DEInternal>
1.5971

> <Gold.Chemscore.Rot>
1.7107

> <Gold.Chemscore.Internal.Correction>
   9.000000E+99

> <Gold.Chemscore.Hbonds>
donor molecule, donor type, donor heavy atom, donor atom, acceptor molecule, acceptor atom, score
      L1  H     9    28       P1  7948  0.50
      L1  H    12    29       P1  7948  0.43
      L1  H    15    46       P1 10747  1.00
      P1  H  7989  7998       L1     4  0.03

> <Gold.Chemscore.Hbond.Weighted>
-8.8430

> <Gold.Chemscore.Metal.Weighted>
-0.0000

> <Gold.Chemscore.Lipo.Weighted>
-9.3980

> <Gold.Chemscore.Internal_Hbond.Weighted>
0.0000

> <Gold.Chemscore.DEClash.Weighted>
0.0033

> <Gold.Chemscore.DEInternal.Weighted>
1.5971

> <Gold.Chemscore.Rot.Weighted>
4.3794

> <Gold.Chemscore.Internal.Correction.Weighted>
   9.000000E+99

> <Gold.Protein.RotatedTorsions>
[ 6907 6896 6895 6894 ] final  -88.88 input  -60.11 | X-H torsion
[ 7974 7965 7964 7962 ] final  -87.47 input  175.53 | X-H torsion
[ 8008 7997 7996 7995 ] final  -28.29 input   59.86 | X-H torsion
[ 10167 10162 10161 10158 ] final  105.94 input  -65.29 | X-H torsion
[ 10718 10713 10712 10709 ] final -151.89 input   66.30 | X-H torsion
[ 10763 10752 10751 10750 ] final  -11.30 input  -60.55 | X-H torsion
[ 11005 11000 10999 10996 ] final   22.83 input  -57.11 | X-H torsion

> <Gold.Protein.ActiveResidues>
 VAL166  LYS551  ARG553  GLY616  TRP617  ASP618  TYR619  PRO620  LYS621  CYS622 
 ASP623  PHE694  ASN695  SER759  ASP760  ASP761  ALA762  ILE779  LEU786  VAL792 
 PHE793  MET794  SER795  GLU796  ALA797  LYS798  CYS799  TRP800  GLU811  SER814 

> <Gold.Protein.RotatedAtoms>
  150.6871  134.2672  159.4573 H   0  0  0  0  0  0  0  0  0  0  0  0  # atno 6907 bound_to 6896
  152.0598  134.9599  160.0584 H   0  0  0  0  0  0  0  0  0  0  0  0  # atno 6908 bound_to 6896
  152.1031  133.4225  159.4633 H   0  0  0  0  0  0  0  0  0  0  0  0  # atno 6909 bound_to 6896
  145.4661  140.9560  143.1943 H   0  0  0  0  0  0  0  0  0  0  0  0  # atno 7974 bound_to 7965
  154.4339  140.1849  156.1066 H   0  0  0  0  0  0  0  0  0  0  0  0  # atno 8008 bound_to 7997
  156.0251  140.3336  155.7054 H   0  0  0  0  0  0  0  0  0  0  0  0  # atno 8009 bound_to 7997
  155.5921  140.0632  157.2746 H   0  0  0  0  0  0  0  0  0  0  0  0  # atno 8010 bound_to 7997
  139.7051  144.7088  151.1121 H   0  0  0  0  0  0  0  0  0  0  0  0  # atno 10167 bound_to 10162
  156.4653  130.8232  151.2463 H   0  0  0  0  0  0  0  0  0  0  0  0  # atno 10718 bound_to 10713
  153.4818  135.7017  153.5934 H   0  0  0  0  0  0  0  0  0  0  0  0  # atno 10763 bound_to 10752
  153.4144  135.3841  155.2071 H   0  0  0  0  0  0  0  0  0  0  0  0  # atno 10764 bound_to 10752
  154.8721  135.3912  154.4268 H   0  0  0  0  0  0  0  0  0  0  0  0  # atno 10765 bound_to 10752
  140.3763  134.1969  155.7665 H   0  0  0  0  0  0  0  0  0  0  0  0  # atno 11005 bound_to 11000
  144.7973  139.6208  143.7087 LP  0  0  0  0  0  0  0  0  0  0  0  0  # atno 17320 bound_to 7965
  146.2424  139.6028  142.9483 LP  0  0  0  0  0  0  0  0  0  0  0  0  # atno 17321 bound_to 7965
  140.7719  143.5370  150.9356 LP  0  0  0  0  0  0  0  0  0  0  0  0  # atno 17342 bound_to 10162
  139.9053  143.6786  152.3124 LP  0  0  0  0  0  0  0  0  0  0  0  0  # atno 17343 bound_to 10162
  157.7495  131.0094  150.3265 LP  0  0  0  0  0  0  0  0  0  0  0  0  # atno 17370 bound_to 10713
  156.3674  130.3857  149.7202 LP  0  0  0  0  0  0  0  0  0  0  0  0  # atno 17371 bound_to 10713
  141.1938  133.8142  157.0783 LP  0  0  0  0  0  0  0  0  0  0  0  0  # atno 17394 bound_to 11000
  140.0513  134.9804  157.1141 LP  0  0  0  0  0  0  0  0  0  0  0  0  # atno 17395 bound_to 11000

$$$$
