AV-unprocessed.smi:1832|AV-procd|sdf|7464|dock3
  -GOLD-   22720 9153D 1   1.00000     0.00000
 Structure written by MMmdl.
 35 35  0  0  0  0  0  0  0  0  1 V2000
  151.6438  145.1247  160.0001 C   0  0  0  0  0  0  0  0  0  0  0  0
  150.5553  144.2217  160.5896 C   0  0  0  0  0  0  0  0  0  0  0  0
  149.5295  143.7749  159.5355 C   0  0  0  0  0  0  0  0  0  0  0  0
  150.1675  143.4554  158.2639 N   0  0  0  0  0  0  0  0  0  0  0  0
  151.1304  142.5371  158.0920 C   0  0  0  0  0  0  0  0  0  0  0  0
  151.5945  141.8662  159.0153 O   0  0  0  0  0  0  0  0  0  0  0  0
  151.6548  142.3749  156.6579 C   0  0  0  0  0  0  0  0  0  0  0  0
  150.9512  141.3300  155.8945 N   0  0  0  0  0  0  0  0  0  0  0  0
  149.5965  141.5658  155.5862 C   0  0  0  0  0  0  0  0  0  0  0  0
  148.8525  140.6820  154.8847 C   0  0  0  0  0  0  0  0  0  0  0  0
  147.4453  140.9021  154.5382 C   0  0  0  0  0  0  0  0  0  0  0  0
  146.7124  140.0441  154.0445 O   0  0  0  0  0  0  0  0  0  0  0  0
  146.9981  142.1419  154.8032 N   0  0  0  0  0  0  0  0  0  0  0  0
  145.6432  142.6037  154.5425 C   0  0  0  0  0  0  0  0  0  0  0  0
  149.5040  139.4595  154.4551 C   0  0  0  0  0  0  0  0  0  0  0  0
  150.8005  139.2308  154.7418 C   0  0  0  0  0  0  0  0  0  0  0  0
  151.6042  140.1964  155.4962 C   0  0  0  0  0  0  0  0  0  0  0  0
  152.7917  139.9980  155.7546 O   0  0  0  0  0  0  0  0  0  0  0  0
  152.3574  145.4252  160.7674 H   0  0  0  0  0  0  0  0  0  0  0  0
  151.2137  146.0307  159.5726 H   0  0  0  0  0  0  0  0  0  0  0  0
  152.1977  144.6117  159.2133 H   0  0  0  0  0  0  0  0  0  0  0  0
  151.0217  143.3458  161.0421 H   0  0  0  0  0  0  0  0  0  0  0  0
  150.0506  144.7541  161.3966 H   0  0  0  0  0  0  0  0  0  0  0  0
  148.9587  142.9168  159.8951 H   0  0  0  0  0  0  0  0  0  0  0  0
  148.8086  144.5734  159.3582 H   0  0  0  0  0  0  0  0  0  0  0  0
  149.8481  143.9657  157.4531 H   0  0  0  0  0  0  0  0  0  0  0  0
  151.5870  143.3327  156.1384 H   0  0  0  0  0  0  0  0  0  0  0  0
  152.7223  142.1565  156.7091 H   0  0  0  0  0  0  0  0  0  0  0  0
  149.2267  142.5127  155.9526 H   0  0  0  0  0  0  0  0  0  0  0  0
  147.6422  142.8061  155.2071 H   0  0  0  0  0  0  0  0  0  0  0  0
  145.5443  143.6485  154.8370 H   0  0  0  0  0  0  0  0  0  0  0  0
  144.9177  142.0190  155.1093 H   0  0  0  0  0  0  0  0  0  0  0  0
  145.4034  142.5245  153.4813 H   0  0  0  0  0  0  0  0  0  0  0  0
  148.9556  138.7150  153.8960 H   0  0  0  0  0  0  0  0  0  0  0  0
  151.2608  138.3126  154.4079 H   0  0  0  0  0  0  0  0  0  0  0  0
  1  2  1  0  0  0  0
  1 19  1  0  0  0  0
  1 20  1  0  0  0  0
  1 21  1  0  0  0  0
  2  3  1  0  0  0  0
  2 22  1  0  0  0  0
  2 23  1  0  0  0  0
  3  4  1  0  0  0  0
  3 24  1  0  0  0  0
  3 25  1  0  0  0  0
  4  5  1  0  0  0  0
  4 26  1  0  0  0  0
  5  6  2  0  0  0  0
  5  7  1  0  0  0  0
  7  8  1  0  0  0  0
  7 27  1  0  0  0  0
  7 28  1  0  0  0  0
  8 17  1  0  0  0  0
  8  9  1  0  0  0  0
  9 10  2  0  0  0  0
  9 29  1  0  0  0  0
 10 11  1  0  0  0  0
 10 15  1  0  0  0  0
 11 12  2  0  0  0  0
 11 13  1  0  0  0  0
 13 14  1  0  0  0  0
 13 30  1  0  0  0  0
 14 31  1  0  0  0  0
 14 32  1  0  0  0  0
 14 33  1  0  0  0  0
 15 16  2  0  0  0  0
 15 34  1  0  0  0  0
 16 17  1  0  0  0  0
 16 35  1  0  0  0  0
 17 18  2  0  0  0  0
M  END
> <s_m_source_file>
AV-unprocessed.smi

> <i_m_source_file_index>
1832

> <i_lp_mmshare_version>
43012

> <i_f3d_flags>
0

> <s_epik_input>
W0NIM11bQ0gyXVtDSDJdW05IXUMoPU8pW0NIMl1uMVtjSF1jKEMoPU8pW05IXVtDSDNdKVtjSF1bY0hdYzE9Tw==

> <s_epik_cmdline>
J2VwaWtfcHl0aG9uJywgJy1waCcsICc3LjAnLCAnLXRuJywgJzgnLCAnLW1hJywgJzIwMCcsICctbWV0YWxfYmluZGluZycsICctaW1hZScsICc8aW5maWxlLm1hZT4nLCAnLW9tYWUnLCAnPG91dGZpbGUubWFlPic=

> <r_lp_tautomer_probability>
1

> <r_epik_Ionization_Penalty>
3.67838e-07

> <r_epik_Ionization_Penalty_Charging>
4.72549e-08

> <r_epik_Ionization_Penalty_Neutral>
3.20583e-07

> <r_epik_State_Penalty>
-0

> <r_epik_Charging_Adjusted_Penalty>
4.72549e-08

> <i_epik_Tot_Q>
0

> <i_epik_Tot_abs_Q>
0

> <r_epik_Metal_State_Penalty>
-0

> <b_epik_Metal_Only>
0

> <s_lp_Force_Field>
OPLS_2005

> <r_lp_Energy>
14.7098

> <b_lp_Chiralities_Consistent>
1

> <s_lp_Variant>
AV-unprocessed.smi:1832-1

> <Gold.Version>
5.8.1

> <Gold.Id.Protein>
6NUR|6NUR_protein|mol2

> <Gold.PLP.Fitness>
47.0787

> <Gold.PLP.PLP>
-36.1435

> <Gold.PLP.part.hbond>
-3.0718

> <Gold.PLP.part.metal>
0.0000

> <Gold.PLP.part.buried>
-3.9492

> <Gold.PLP.part.nonpolar>
-28.1063

> <Gold.PLP.part.repulsive>
0.3574

> <Gold.PLP.ligand.clash>
0.0000

> <Gold.PLP.ligand.torsion>
0.5484

> <Gold.PLP.Chemscore.Hbond>
3.0000

> <Gold.PLP.Chemscore.CHOScore>
1.0000

> <Gold.PLP.Chemscore.Metal>
0.0000

> <Gold.Chemscore.Hbonds>
donor molecule, donor type, donor heavy atom, donor atom, acceptor molecule, acceptor atom, score
      L1  H     4    26       P1  8028  0.70
      L1  H    13    30       P1  8028  0.34
      P1  H  7997  8009       L1    18  1.00
      L1  C     9    29       P1  8028  1.00

> <Gold.PLP.Chemscore.Internal.Correction>
0.0320

> <Gold.Rescore>
     Score         DG    S(hbond)    S(metal)    S(lipo)     H(rot)  DE(clash)    DE(int)     intcor
     14.16     -17.62       2.45        0.00      72.60       1.78       2.09       1.36       ----

> <Gold.Chemscore.Fitness>
14.1639

> <Gold.Chemscore.DG>
-17.6203

> <Gold.Chemscore.ZeroCoef>
-5.4800

> <Gold.Chemscore.Hbond>
2.4547

> <Gold.Chemscore.Metal>
0.0000

> <Gold.Chemscore.Lipo>
72.6044

> <Gold.Chemscore.Internal_Hbond>
0.0000

> <Gold.Chemscore.DEClash>
2.0931

> <Gold.Chemscore.DEInternal>
1.3632

> <Gold.Chemscore.Rot>
1.7785

> <Gold.Chemscore.Internal.Correction>
   9.000000E+99

> <Gold.Chemscore.Hbonds>
donor molecule, donor type, donor heavy atom, donor atom, acceptor molecule, acceptor atom, score
      L1  H     4    26       P1  8028  0.43
      L1  H    13    30       P1  8028  0.22
      P1  H  7997  8009       L1    18  0.99

> <Gold.Chemscore.Hbond.Weighted>
-8.1986

> <Gold.Chemscore.Metal.Weighted>
-0.0000

> <Gold.Chemscore.Lipo.Weighted>
-8.4947

> <Gold.Chemscore.Internal_Hbond.Weighted>
0.0000

> <Gold.Chemscore.DEClash.Weighted>
2.0931

> <Gold.Chemscore.DEInternal.Weighted>
1.3632

> <Gold.Chemscore.Rot.Weighted>
4.5530

> <Gold.Chemscore.Internal.Correction.Weighted>
   9.000000E+99

> <Gold.Protein.RotatedTorsions>
[ 6907 6896 6895 6894 ] final  153.59 input  -60.11 | X-H torsion
[ 7974 7965 7964 7962 ] final   11.31 input  175.53 | X-H torsion
[ 8008 7997 7996 7995 ] final -154.63 input   59.86 | X-H torsion
[ 10167 10162 10161 10158 ] final   92.09 input  -65.29 | X-H torsion
[ 10718 10713 10712 10709 ] final   37.99 input   66.30 | X-H torsion
[ 10763 10752 10751 10750 ] final   22.93 input  -60.55 | X-H torsion
[ 11005 11000 10999 10996 ] final  113.68 input  -57.11 | X-H torsion

> <Gold.Protein.ActiveResidues>
 VAL166  LYS551  ARG553  GLY616  TRP617  ASP618  TYR619  PRO620  LYS621  CYS622 
 ASP623  PHE694  ASN695  SER759  ASP760  ASP761  ALA762  ILE779  LEU786  VAL792 
 PHE793  MET794  SER795  GLU796  ALA797  LYS798  CYS799  TRP800  GLU811  SER814 

> <Gold.Protein.RotatedAtoms>
  152.0705  133.4104  159.4456 H   0  0  0  0  0  0  0  0  0  0  0  0  # atno 6907 bound_to 6896
  150.6863  134.3097  159.4750 H   0  0  0  0  0  0  0  0  0  0  0  0  # atno 6908 bound_to 6896
  152.0928  134.9395  160.0622 H   0  0  0  0  0  0  0  0  0  0  0  0  # atno 6909 bound_to 6896
  146.2373  139.9504  142.8471 H   0  0  0  0  0  0  0  0  0  0  0  0  # atno 7974 bound_to 7965
  155.6894  140.0753  157.2454 H   0  0  0  0  0  0  0  0  0  0  0  0  # atno 8008 bound_to 7997
  154.4091  140.1667  156.2122 H   0  0  0  0  0  0  0  0  0  0  0  0  # atno 8009 bound_to 7997
  155.9465  140.3380  155.6374 H   0  0  0  0  0  0  0  0  0  0  0  0  # atno 8010 bound_to 7997
  139.8311  144.6687  150.9399 H   0  0  0  0  0  0  0  0  0  0  0  0  # atno 10167 bound_to 10162
  157.3535  130.7611  149.6996 H   0  0  0  0  0  0  0  0  0  0  0  0  # atno 10718 bound_to 10713
  153.0877  135.6638  153.9916 H   0  0  0  0  0  0  0  0  0  0  0  0  # atno 10763 bound_to 10752
  153.9521  135.2983  155.3439 H   0  0  0  0  0  0  0  0  0  0  0  0  # atno 10764 bound_to 10752
  154.7287  135.5132  153.9001 H   0  0  0  0  0  0  0  0  0  0  0  0  # atno 10765 bound_to 10752
  139.8959  134.9554  156.6777 H   0  0  0  0  0  0  0  0  0  0  0  0  # atno 11005 bound_to 11000
  145.1866  140.9792  143.4235 LP  0  0  0  0  0  0  0  0  0  0  0  0  # atno 17320 bound_to 7965
  144.9894  139.3704  143.6222 LP  0  0  0  0  0  0  0  0  0  0  0  0  # atno 17321 bound_to 7965
  140.7806  143.4000  151.1165 LP  0  0  0  0  0  0  0  0  0  0  0  0  # atno 17342 bound_to 10162
  139.7654  143.8573  152.3109 LP  0  0  0  0  0  0  0  0  0  0  0  0  # atno 17343 bound_to 10162
  155.9725  130.4134  150.4079 LP  0  0  0  0  0  0  0  0  0  0  0  0  # atno 17370 bound_to 10713
  157.2145  131.0468  151.2581 LP  0  0  0  0  0  0  0  0  0  0  0  0  # atno 17371 bound_to 10713
  140.7324  133.9048  155.8220 LP  0  0  0  0  0  0  0  0  0  0  0  0  # atno 17394 bound_to 11000
  141.0143  134.0977  157.4189 LP  0  0  0  0  0  0  0  0  0  0  0  0  # atno 17395 bound_to 11000

$$$$
