AV-unprocessed.smi:581|AV-procd|sdf|2993|dock10
  -GOLD-   2262023503D 1   1.00000     0.00000
 Structure written by MMmdl.
 35 36  0  0  0  0  0  0  0  0  2 V2000
  148.5985  141.3935  154.8444 C   0  0  0  0  0  0  0  0  0  0  0  0
  149.8842  141.1459  155.6117 C   0  0  0  0  0  0  0  0  0  0  0  0
  150.1663  142.0335  156.5901 N   0  0  0  0  0  0  0  0  0  0  0  0
  151.2946  141.8624  157.2887 C   0  0  0  0  0  0  0  0  0  0  0  0
  151.5800  142.7923  158.2972 N   0  0  0  0  0  0  0  0  0  0  0  0
  151.0173  144.1445  158.2969 C   0  0  0  0  0  0  0  0  0  0  0  0
  150.7707  144.6314  159.7348 C   0  0  0  0  0  0  0  0  0  0  0  0
  151.9745  144.5435  160.4874 O   0  0  0  0  0  0  0  0  0  0  0  0
  152.4392  143.2024  160.5776 C   0  0  0  0  0  0  0  0  0  0  0  0
  152.7484  142.6626  159.1713 C   0  0  0  0  0  0  0  0  0  0  0  0
  152.1723  140.8707  157.0913 N   0  0  0  0  0  0  0  0  0  0  0  0
  151.9120  139.9698  156.1204 C   0  0  0  0  0  0  0  0  0  0  0  0
  152.8155  138.9667  155.9208 O   0  0  0  0  0  0  0  0  0  0  0  0
  150.7447  140.0586  155.3266 C   0  0  0  0  0  0  0  0  0  0  0  0
  150.4477  139.0490  154.2236 C   0  0  0  0  0  0  0  0  0  0  0  0
  149.7217  137.7999  154.7630 C   0  0  0  0  0  0  0  0  0  0  0  0
  150.6799  136.6956  155.2290 C   0  0  0  0  0  0  0  0  0  0  0  0
  150.1585  135.7254  155.8208 O   0  0  0  0  0  0  0  0  0  0  0  0
  151.9042  136.8255  155.0043 O   0  5  0  0  0  0  0  0  0  0  0  0
  152.6175  138.1930  156.4250 H   0  0  0  0  0  0  0  0  0  0  0  0
  148.7900  141.4183  153.7717 H   0  0  0  0  0  0  0  0  0  0  0  0
  148.1443  142.3447  155.1248 H   0  0  0  0  0  0  0  0  0  0  0  0
  147.8769  140.6028  155.0495 H   0  0  0  0  0  0  0  0  0  0  0  0
  150.0747  144.1978  157.7529 H   0  0  0  0  0  0  0  0  0  0  0  0
  151.7139  144.8123  157.7890 H   0  0  0  0  0  0  0  0  0  0  0  0
  150.4333  145.6679  159.7260 H   0  0  0  0  0  0  0  0  0  0  0  0
  149.9845  144.0454  160.2135 H   0  0  0  0  0  0  0  0  0  0  0  0
  153.3387  143.1801  161.1930 H   0  0  0  0  0  0  0  0  0  0  0  0
  151.6955  142.5797  161.0782 H   0  0  0  0  0  0  0  0  0  0  0  0
  153.5746  143.2213  158.7306 H   0  0  0  0  0  0  0  0  0  0  0  0
  153.0833  141.6304  159.2667 H   0  0  0  0  0  0  0  0  0  0  0  0
  151.3766  138.7664  153.7282 H   0  0  0  0  0  0  0  0  0  0  0  0
  149.8433  139.5303  153.4537 H   0  0  0  0  0  0  0  0  0  0  0  0
  149.0818  138.0733  155.6024 H   0  0  0  0  0  0  0  0  0  0  0  0
  149.0698  137.3883  153.9913 H   0  0  0  0  0  0  0  0  0  0  0  0
  1 21  1  0  0  0  0
  1 22  1  0  0  0  0
  1 23  1  0  0  0  0
  1  2  1  0  0  0  0
  2 14  2  0  0  0  0
  2  3  1  0  0  0  0
  3  4  2  0  0  0  0
  4  5  1  0  0  0  0
  4 11  1  0  0  0  0
  5 10  1  0  0  0  0
  5  6  1  0  0  0  0
  6  7  1  0  0  0  0
  6 24  1  0  0  0  0
  6 25  1  0  0  0  0
  7  8  1  0  0  0  0
  7 26  1  0  0  0  0
  7 27  1  0  0  0  0
  8  9  1  0  0  0  0
  9 10  1  0  0  0  0
  9 28  1  0  0  0  0
  9 29  1  0  0  0  0
 10 30  1  0  0  0  0
 10 31  1  0  0  0  0
 11 12  2  0  0  0  0
 12 13  1  0  0  0  0
 12 14  1  0  0  0  0
 13 20  1  0  0  0  0
 14 15  1  0  0  0  0
 15 16  1  0  0  0  0
 15 32  1  0  0  0  0
 15 33  1  0  0  0  0
 16 17  1  0  0  0  0
 16 34  1  0  0  0  0
 16 35  1  0  0  0  0
 17 18  2  0  0  0  0
 17 19  1  0  0  0  0
M  CHG  1  19  -1
M  END
> <s_m_source_file>
AV-unprocessed.smi

> <i_m_source_file_index>
581

> <i_lp_mmshare_version>
43012

> <i_f3d_flags>
0

> <s_epik_input>
W0NIMl0xW0NIMl1PW0NIMl1bQ0gyXU4xYyhuYzJbQ0gzXSlbbkhdYyg9TyljMltDSDJdW0NIMl1DKD1PKVtPSF0=

> <s_epik_cmdline>
J2VwaWtfcHl0aG9uJywgJy1waCcsICc3LjAnLCAnLXRuJywgJzgnLCAnLW1hJywgJzIwMCcsICctbWV0YWxfYmluZGluZycsICctaW1hZScsICc8aW5maWxlLm1hZT4nLCAnLW9tYWUnLCAnPG91dGZpbGUubWFlPic=

> <r_lp_tautomer_probability>
0.0131408

> <r_epik_Ionization_Penalty>
9.14148

> <r_epik_Ionization_Penalty_Charging>
0.00124504

> <r_epik_Ionization_Penalty_Neutral>
9.14023

> <r_epik_State_Penalty>
2.72329

> <r_epik_Charging_Adjusted_Penalty>
2.72453

> <i_epik_Tot_Q>
-1

> <i_epik_Tot_abs_Q>
1

> <r_epik_Metal_State_Penalty>
2.96989

> <b_epik_Metal_Only>
0

> <s_lp_Force_Field>
OPLS_2005

> <r_lp_Energy>
10.3836

> <b_lp_Chiralities_Consistent>
1

> <s_lp_Variant>
AV-unprocessed.smi:581-3

> <Gold.Version>
5.8.1

> <Gold.Id.Protein>
6NUR|6NUR_protein|mol2

> <Gold.PLP.Fitness>
43.1158

> <Gold.PLP.PLP>
-36.3583

> <Gold.PLP.part.hbond>
-2.5025

> <Gold.PLP.part.metal>
0.0000

> <Gold.PLP.part.buried>
-3.2280

> <Gold.PLP.part.nonpolar>
-31.3582

> <Gold.PLP.part.repulsive>
0.4963

> <Gold.PLP.ligand.clash>
0.0000

> <Gold.PLP.ligand.torsion>
0.7160

> <Gold.PLP.Chemscore.Hbond>
2.7000

> <Gold.PLP.Chemscore.CHOScore>
0.0000

> <Gold.PLP.Chemscore.Metal>
0.0000

> <Gold.Chemscore.Hbonds>
donor molecule, donor type, donor heavy atom, donor atom, acceptor molecule, acceptor atom, score
      P1  H  7997  8008       L1    13  0.65
      P1  H 10752 10764       L1    19  2.00

> <Gold.PLP.Chemscore.Internal.Correction>
0.0894

> <Gold.Rescore>
     Score         DG    S(hbond)    S(metal)    S(lipo)     H(rot)  DE(clash)    DE(int)     intcor
      9.20     -11.52       1.08        0.00      74.91       2.48       0.09       2.23       ----

> <Gold.Chemscore.Fitness>
9.1980

> <Gold.Chemscore.DG>
-11.5177

> <Gold.Chemscore.ZeroCoef>
-5.4800

> <Gold.Chemscore.Hbond>
1.0824

> <Gold.Chemscore.Metal>
0.0000

> <Gold.Chemscore.Lipo>
74.9117

> <Gold.Chemscore.Internal_Hbond>
0.0000

> <Gold.Chemscore.DEClash>
0.0869

> <Gold.Chemscore.DEInternal>
2.2328

> <Gold.Chemscore.Rot>
2.4774

> <Gold.Chemscore.Internal.Correction>
   9.000000E+99

> <Gold.Chemscore.Hbonds>
donor molecule, donor type, donor heavy atom, donor atom, acceptor molecule, acceptor atom, score
      P1  H  7997  8008       L1    13  0.06
      P1  H 10752 10764       L1    19  0.96

> <Gold.Chemscore.Hbond.Weighted>
-3.6151

> <Gold.Chemscore.Metal.Weighted>
-0.0000

> <Gold.Chemscore.Lipo.Weighted>
-8.7647

> <Gold.Chemscore.Internal_Hbond.Weighted>
0.0000

> <Gold.Chemscore.DEClash.Weighted>
0.0869

> <Gold.Chemscore.DEInternal.Weighted>
2.2328

> <Gold.Chemscore.Rot.Weighted>
6.3420

> <Gold.Chemscore.Internal.Correction.Weighted>
   9.000000E+99

> <Gold.Protein.RotatedTorsions>
[ 6907 6896 6895 6894 ] final  155.76 input  -60.11 | X-H torsion
[ 7974 7965 7964 7962 ] final   42.39 input  175.53 | X-H torsion
[ 8008 7997 7996 7995 ] final  -41.66 input   59.86 | X-H torsion
[ 10167 10162 10161 10158 ] final  178.77 input  -65.29 | X-H torsion
[ 10718 10713 10712 10709 ] final  120.26 input   66.30 | X-H torsion
[ 10763 10752 10751 10750 ] final  -50.49 input  -60.55 | X-H torsion
[ 11005 11000 10999 10996 ] final  119.66 input  -57.11 | X-H torsion

> <Gold.Protein.ActiveResidues>
 VAL166  LYS551  ARG553  GLY616  TRP617  ASP618  TYR619  PRO620  LYS621  CYS622 
 ASP623  PHE694  ASN695  SER759  ASP760  ASP761  ALA762  ILE779  LEU786  VAL792 
 PHE793  MET794  SER795  GLU796  ALA797  LYS798  CYS799  TRP800  GLU811  SER814 

> <Gold.Protein.RotatedAtoms>
  152.0396  133.3971  159.4330 H   0  0  0  0  0  0  0  0  0  0  0  0  # atno 6907 bound_to 6896
  150.6876  134.3430  159.4885 H   0  0  0  0  0  0  0  0  0  0  0  0  # atno 6908 bound_to 6896
  152.1227  134.9193  160.0613 H   0  0  0  0  0  0  0  0  0  0  0  0  # atno 6909 bound_to 6896
  146.0744  139.5305  142.9577 H   0  0  0  0  0  0  0  0  0  0  0  0  # atno 7974 bound_to 7965
  154.4003  140.1493  156.3227 H   0  0  0  0  0  0  0  0  0  0  0  0  # atno 8008 bound_to 7997
  155.8514  140.3457  155.5675 H   0  0  0  0  0  0  0  0  0  0  0  0  # atno 8009 bound_to 7997
  155.7979  140.0866  157.1963 H   0  0  0  0  0  0  0  0  0  0  0  0  # atno 8010 bound_to 7997
  139.5308  144.2640  152.0683 H   0  0  0  0  0  0  0  0  0  0  0  0  # atno 10167 bound_to 10162
  157.5903  131.1065  150.8011 H   0  0  0  0  0  0  0  0  0  0  0  0  # atno 10718 bound_to 10713
  154.1111  135.6549  153.4885 H   0  0  0  0  0  0  0  0  0  0  0  0  # atno 10763 bound_to 10752
  153.0256  135.5248  154.7190 H   0  0  0  0  0  0  0  0  0  0  0  0  # atno 10764 bound_to 10752
  154.6371  135.2983  155.0118 H   0  0  0  0  0  0  0  0  0  0  0  0  # atno 10765 bound_to 10752
  139.9155  134.9630  156.7689 H   0  0  0  0  0  0  0  0  0  0  0  0  # atno 11005 bound_to 11000
  145.6333  141.0299  143.1851 LP  0  0  0  0  0  0  0  0  0  0  0  0  # atno 17320 bound_to 7965
  144.7252  139.7899  143.7367 LP  0  0  0  0  0  0  0  0  0  0  0  0  # atno 17321 bound_to 7965
  140.2103  144.4569  150.6389 LP  0  0  0  0  0  0  0  0  0  0  0  0  # atno 17342 bound_to 10162
  140.6484  143.2219  151.6132 LP  0  0  0  0  0  0  0  0  0  0  0  0  # atno 17343 bound_to 10162
  156.8435  130.5056  149.5319 LP  0  0  0  0  0  0  0  0  0  0  0  0  # atno 17370 bound_to 10713
  156.0957  130.5930  150.9809 LP  0  0  0  0  0  0  0  0  0  0  0  0  # atno 17371 bound_to 10713
  140.6637  133.9622  155.7818 LP  0  0  0  0  0  0  0  0  0  0  0  0  # atno 17394 bound_to 11000
  141.0626  134.0324  157.3638 LP  0  0  0  0  0  0  0  0  0  0  0  0  # atno 17395 bound_to 11000

$$$$
