AV-unprocessed.smi:2074|AV-procd|sdf|8453|dock5
  -GOLD-   2272011153D 1   1.00000     0.00000
 Structure written by MMmdl.
 43 44  0  0  0  0  0  0  0  0  1 V2000
  151.6990  141.5901  158.1069 C   0  0  0  0  0  0  0  0  0  0  0  0
  151.8671  142.1487  159.4905 C   0  0  0  0  0  0  0  0  0  0  0  0
  150.8621  142.7860  160.0678 N   0  0  0  0  0  0  0  0  0  0  0  0
  151.3314  143.1817  161.3242 O   0  0  0  0  0  0  0  0  0  0  0  0
  152.6155  142.7622  161.4550 C   0  0  0  0  0  0  0  0  0  0  0  0
  153.3005  143.0975  162.7361 C   0  0  0  0  0  0  0  0  0  0  0  0
  153.0165  142.0958  160.3298 C   0  0  0  0  0  0  0  0  0  0  0  0
  154.3521  141.4581  160.0343 C   0  0  0  0  0  0  0  0  0  0  0  0
  154.2193  139.9577  159.7443 C   0  0  0  0  0  0  0  0  0  0  0  0
  153.7337  139.5486  158.6885 O   0  0  0  0  0  0  0  0  0  0  0  0
  154.6678  139.1393  160.7079 N   0  0  0  0  0  0  0  0  0  0  0  0
  154.6622  137.6801  160.6424 C   0  0  0  0  0  0  0  0  0  0  0  0
  155.2223  136.9977  161.9251 C   0  0  1  0  0  0  0  0  0  0  0  0
  154.3984  137.4754  163.1482 C   0  0  0  0  0  0  0  0  0  0  0  0
  155.2880  135.5211  161.8200 N   0  0  0  0  0  0  0  0  0  0  0  0
  155.7820  134.8907  163.0500 C   0  0  0  0  0  0  0  0  0  0  0  0
  155.8800  133.3593  162.9402 C   0  0  0  0  0  0  0  0  0  0  0  0
  156.7169  133.0113  161.8464 O   0  0  0  0  0  0  0  0  0  0  0  0
  156.2329  133.5358  160.6181 C   0  0  0  0  0  0  0  0  0  0  0  0
  156.1346  135.0685  160.7096 C   0  0  0  0  0  0  0  0  0  0  0  0
  152.4393  142.0113  157.4262 H   0  0  0  0  0  0  0  0  0  0  0  0
  150.7115  141.8079  157.6984 H   0  0  0  0  0  0  0  0  0  0  0  0
  151.8261  140.5077  158.1066 H   0  0  0  0  0  0  0  0  0  0  0  0
  154.3837  143.0834  162.6142 H   0  0  0  0  0  0  0  0  0  0  0  0
  153.0371  142.3802  163.5134 H   0  0  0  0  0  0  0  0  0  0  0  0
  153.0148  144.0915  163.0804 H   0  0  0  0  0  0  0  0  0  0  0  0
  154.8274  141.9338  159.1757 H   0  0  0  0  0  0  0  0  0  0  0  0
  155.0401  141.5875  160.8703 H   0  0  0  0  0  0  0  0  0  0  0  0
  155.0499  139.5560  161.5443 H   0  0  0  0  0  0  0  0  0  0  0  0
  153.6365  137.3538  160.4679 H   0  0  0  0  0  0  0  0  0  0  0  0
  155.2271  137.4053  159.7527 H   0  0  0  0  0  0  0  0  0  0  0  0
  156.2396  137.3658  162.0664 H   0  0  0  0  0  0  0  0  0  0  0  0
  154.3101  138.5604  163.1941 H   0  0  0  0  0  0  0  0  0  0  0  0
  154.8597  137.1910  164.0929 H   0  0  0  0  0  0  0  0  0  0  0  0
  153.3883  137.0652  163.1276 H   0  0  0  0  0  0  0  0  0  0  0  0
  156.7608  135.2983  163.3072 H   0  0  0  0  0  0  0  0  0  0  0  0
  155.1191  135.1071  163.8858 H   0  0  0  0  0  0  0  0  0  0  0  0
  156.2987  132.9406  163.8554 H   0  0  0  0  0  0  0  0  0  0  0  0
  154.8915  132.9164  162.8089 H   0  0  0  0  0  0  0  0  0  0  0  0
  156.9130  133.2479  159.8164 H   0  0  0  0  0  0  0  0  0  0  0  0
  155.2604  133.0994  160.3843 H   0  0  0  0  0  0  0  0  0  0  0  0
  155.7398  135.4144  159.7567 H   0  0  0  0  0  0  0  0  0  0  0  0
  157.1356  135.4903  160.8113 H   0  0  0  0  0  0  0  0  0  0  0  0
  1  2  1  0  0  0  0
  1 21  1  0  0  0  0
  1 22  1  0  0  0  0
  1 23  1  0  0  0  0
  2  7  1  0  0  0  0
  2  3  2  0  0  0  0
  3  4  1  0  0  0  0
  4  5  1  0  0  0  0
  5  6  1  0  0  0  0
  5  7  2  0  0  0  0
  6 24  1  0  0  0  0
  6 25  1  0  0  0  0
  6 26  1  0  0  0  0
  7  8  1  0  0  0  0
  8  9  1  0  0  0  0
  8 27  1  0  0  0  0
  8 28  1  0  0  0  0
  9 10  2  0  0  0  0
  9 11  1  0  0  0  0
 11 12  1  0  0  0  0
 11 29  1  0  0  0  0
 12 13  1  0  0  0  0
 12 30  1  0  0  0  0
 12 31  1  0  0  0  0
 13 14  1  0  0  0  0
 13 15  1  0  0  0  0
 13 32  1  0  0  0  0
 14 33  1  0  0  0  0
 14 34  1  0  0  0  0
 14 35  1  0  0  0  0
 15 20  1  0  0  0  0
 15 16  1  0  0  0  0
 16 17  1  0  0  0  0
 16 36  1  0  0  0  0
 16 37  1  0  0  0  0
 17 18  1  0  0  0  0
 17 38  1  0  0  0  0
 17 39  1  0  0  0  0
 18 19  1  0  0  0  0
 19 20  1  0  0  0  0
 19 40  1  0  0  0  0
 19 41  1  0  0  0  0
 20 42  1  0  0  0  0
 20 43  1  0  0  0  0
M  END
> <s_m_source_file>
AV-unprocessed.smi

> <i_m_source_file_index>
2074

> <i_lp_mmshare_version>
43012

> <i_f3d_flags>
0

> <s_epik_input>
W0NIM11jMW5vYyhbQ0gzXSljMVtDSDJdQyg9TylbTkhdW0NIMl1bQ0BIXShbQ0gzXSlOMltDSDJdW0NIMl1PW0NIMl1bQ0gyXTI=

> <s_epik_cmdline>
J2VwaWtfcHl0aG9uJywgJy1waCcsICc3LjAnLCAnLXRuJywgJzgnLCAnLW1hJywgJzIwMCcsICctbWV0YWxfYmluZGluZycsICctaW1hZScsICc8aW5maWxlLm1hZT4nLCAnLW9tYWUnLCAnPG91dGZpbGUubWFlPic=

> <r_epik_Ionization_Penalty>
0.234179

> <r_epik_Ionization_Penalty_Charging>
0

> <r_epik_Ionization_Penalty_Neutral>
0.234179

> <r_epik_State_Penalty>
0.224936

> <r_epik_Charging_Adjusted_Penalty>
0.224936

> <i_epik_Tot_Q>
0

> <i_epik_Tot_abs_Q>
0

> <r_epik_Metal_State_Penalty>
0.224936

> <b_epik_Metal_Only>
0

> <s_lp_Force_Field>
OPLS_2005

> <r_lp_Energy>
23.5804

> <b_lp_Chiralities_Consistent>
1

> <s_lp_Variant>
AV-unprocessed.smi:2074-2

> <Gold.Version>
5.8.1

> <Gold.Id.Protein>
6NUR|6NUR_protein|mol2

> <Gold.PLP.Fitness>
41.4186

> <Gold.PLP.PLP>
-38.0418

> <Gold.PLP.part.hbond>
-3.0000

> <Gold.PLP.part.metal>
0.0000

> <Gold.PLP.part.buried>
-5.1890

> <Gold.PLP.part.nonpolar>
-29.6320

> <Gold.PLP.part.repulsive>
0.1882

> <Gold.PLP.ligand.clash>
0.0000

> <Gold.PLP.ligand.torsion>
0.1609

> <Gold.PLP.Chemscore.Hbond>
1.2042

> <Gold.PLP.Chemscore.CHOScore>
0.0000

> <Gold.PLP.Chemscore.Metal>
0.0000

> <Gold.Chemscore.Hbonds>
donor molecule, donor type, donor heavy atom, donor atom, acceptor molecule, acceptor atom, score
      P1  H  6933  6945       L1     4  0.13
      P1  H  7997  8009       L1    10  1.00

> <Gold.PLP.Chemscore.Internal.Correction>
0.0860

> <Gold.Rescore>
     Score         DG    S(hbond)    S(metal)    S(lipo)     H(rot)  DE(clash)    DE(int)     intcor
     14.87     -16.39       0.99        0.00     102.75       1.72       0.06       1.45       ----

> <Gold.Chemscore.Fitness>
14.8727

> <Gold.Chemscore.DG>
-16.3908

> <Gold.Chemscore.ZeroCoef>
-5.4800

> <Gold.Chemscore.Hbond>
0.9854

> <Gold.Chemscore.Metal>
0.0000

> <Gold.Chemscore.Lipo>
102.7456

> <Gold.Chemscore.Internal_Hbond>
0.0000

> <Gold.Chemscore.DEClash>
0.0633

> <Gold.Chemscore.DEInternal>
1.4548

> <Gold.Chemscore.Rot>
1.7195

> <Gold.Chemscore.Internal.Correction>
   9.000000E+99

> <Gold.Chemscore.Hbonds>
donor molecule, donor type, donor heavy atom, donor atom, acceptor molecule, acceptor atom, score
      P1  H  7997  8009       L1    10  0.78

> <Gold.Chemscore.Hbond.Weighted>
-3.2913

> <Gold.Chemscore.Metal.Weighted>
-0.0000

> <Gold.Chemscore.Lipo.Weighted>
-12.0212

> <Gold.Chemscore.Internal_Hbond.Weighted>
0.0000

> <Gold.Chemscore.DEClash.Weighted>
0.0633

> <Gold.Chemscore.DEInternal.Weighted>
1.4548

> <Gold.Chemscore.Rot.Weighted>
4.4018

> <Gold.Chemscore.Internal.Correction.Weighted>
   9.000000E+99

> <Gold.Protein.RotatedTorsions>
[ 6907 6896 6895 6894 ] final  133.26 input  -60.11 | X-H torsion
[ 7974 7965 7964 7962 ] final   58.40 input  175.53 | X-H torsion
[ 8008 7997 7996 7995 ] final  138.39 input   59.86 | X-H torsion
[ 10167 10162 10161 10158 ] final  -42.00 input  -65.29 | X-H torsion
[ 10718 10713 10712 10709 ] final  -88.51 input   66.30 | X-H torsion
[ 10763 10752 10751 10750 ] final  -61.52 input  -60.55 | X-H torsion
[ 11005 11000 10999 10996 ] final   51.46 input  -57.11 | X-H torsion

> <Gold.Protein.ActiveResidues>
 VAL166  LYS551  ARG553  GLY616  TRP617  ASP618  TYR619  PRO620  LYS621  CYS622 
 ASP623  PHE694  ASN695  SER759  ASP760  ASP761  ALA762  ILE779  LEU786  VAL792 
 PHE793  MET794  SER795  GLU796  ALA797  LYS798  CYS799  TRP800  GLU811  SER814 

> <Gold.Protein.RotatedAtoms>
  152.3238  133.5882  159.5762 H   0  0  0  0  0  0  0  0  0  0  0  0  # atno 6907 bound_to 6896
  150.7385  133.9972  159.3635 H   0  0  0  0  0  0  0  0  0  0  0  0  # atno 6908 bound_to 6896
  151.7853  135.0751  160.0430 H   0  0  0  0  0  0  0  0  0  0  0  0  # atno 6909 bound_to 6896
  145.9186  139.3711  143.0492 H   0  0  0  0  0  0  0  0  0  0  0  0  # atno 7974 bound_to 7965
  156.2997  140.2395  156.4065 H   0  0  0  0  0  0  0  0  0  0  0  0  # atno 8008 bound_to 7997
  154.8479  140.0425  157.1605 H   0  0  0  0  0  0  0  0  0  0  0  0  # atno 8009 bound_to 7997
  154.9030  140.2979  155.5311 H   0  0  0  0  0  0  0  0  0  0  0  0  # atno 8010 bound_to 7997
  140.6984  143.3062  151.3147 H   0  0  0  0  0  0  0  0  0  0  0  0  # atno 10167 bound_to 10162
  155.9983  130.4838  150.5030 H   0  0  0  0  0  0  0  0  0  0  0  0  # atno 10718 bound_to 10713
  154.2859  135.6263  153.5365 H   0  0  0  0  0  0  0  0  0  0  0  0  # atno 10763 bound_to 10752
  152.9859  135.5644  154.5444 H   0  0  0  0  0  0  0  0  0  0  0  0  # atno 10764 bound_to 10752
  154.5044  135.2873  155.1370 H   0  0  0  0  0  0  0  0  0  0  0  0  # atno 10765 bound_to 10752
  140.0931  134.5182  155.8833 H   0  0  0  0  0  0  0  0  0  0  0  0  # atno 11005 bound_to 11000
  145.8580  140.9492  143.0715 LP  0  0  0  0  0  0  0  0  0  0  0  0  # atno 17320 bound_to 7965
  144.6750  140.0493  143.7479 LP  0  0  0  0  0  0  0  0  0  0  0  0  # atno 17321 bound_to 7965
  139.6469  144.0435  152.2597 LP  0  0  0  0  0  0  0  0  0  0  0  0  # atno 17342 bound_to 10162
  139.9958  144.6329  150.7773 LP  0  0  0  0  0  0  0  0  0  0  0  0  # atno 17343 bound_to 10162
  157.3013  131.0645  151.2066 LP  0  0  0  0  0  0  0  0  0  0  0  0  # atno 17370 bound_to 10713
  157.3045  130.6859  149.6182 LP  0  0  0  0  0  0  0  0  0  0  0  0  # atno 17371 bound_to 10713
  141.2084  133.6673  156.6367 LP  0  0  0  0  0  0  0  0  0  0  0  0  # atno 17394 bound_to 11000
  140.3324  134.7917  157.4336 LP  0  0  0  0  0  0  0  0  0  0  0  0  # atno 17395 bound_to 11000

$$$$
