AV-unprocessed.smi:3285|AV-procd|sdf|12587|dock10
  -GOLD-   2272018513D 1   1.00000     0.00000
 Structure written by MMmdl.
 45 46  0  0  0  0  0  0  0  0  2 V2000
  149.8596  134.8625  157.1584 C   0  0  0  0  0  0  0  0  0  0  0  0
  150.1743  133.4619  156.7170 C   0  0  0  0  0  0  0  0  0  0  0  0
  150.5183  132.5545  157.6151 N   0  0  0  0  0  0  0  0  0  0  0  0
  150.7422  131.3738  156.9008 O   0  0  0  0  0  0  0  0  0  0  0  0
  150.5194  131.6192  155.5847 C   0  0  0  0  0  0  0  0  0  0  0  0
  150.7072  130.4730  154.6492 C   0  0  0  0  0  0  0  0  0  0  0  0
  150.1551  132.9244  155.3982 C   0  0  0  0  0  0  0  0  0  0  0  0
  149.8119  133.6304  154.1145 C   0  0  0  0  0  0  0  0  0  0  0  0
  148.5860  133.0027  153.4388 C   0  0  0  0  0  0  0  0  0  0  0  0
  147.6592  134.0452  152.9511 N   0  3  0  0  0  0  0  0  0  0  0  0
  146.4521  133.5432  152.2579 C   0  0  1  0  0  0  0  0  0  0  0  0
  145.6703  134.7251  151.6576 C   0  0  0  0  0  0  0  0  0  0  0  0
  144.4266  134.2538  150.8878 C   0  0  0  0  0  0  0  0  0  0  0  0
  144.7979  133.2408  149.7873 C   0  0  2  0  0  0  0  0  0  0  0  0
  143.5745  132.8294  148.9519 C   0  0  0  0  0  0  0  0  0  0  0  0
  145.5828  132.0353  150.3648 C   0  0  2  0  0  0  0  0  0  0  0  0
  144.7250  131.0649  151.2022 C   0  0  0  0  0  0  0  0  0  0  0  0
  146.8167  132.5277  151.1513 C   0  0  0  0  0  0  0  0  0  0  0  0
  148.8171  135.1081  156.9570 H   0  0  0  0  0  0  0  0  0  0  0  0
  150.4798  135.5863  156.6298 H   0  0  0  0  0  0  0  0  0  0  0  0
  150.0324  134.9995  158.2265 H   0  0  0  0  0  0  0  0  0  0  0  0
  149.9362  130.4691  153.8790 H   0  0  0  0  0  0  0  0  0  0  0  0
  150.6557  129.5219  155.1796 H   0  0  0  0  0  0  0  0  0  0  0  0
  151.6774  130.5338  154.1567 H   0  0  0  0  0  0  0  0  0  0  0  0
  149.6201  134.6882  154.2979 H   0  0  0  0  0  0  0  0  0  0  0  0
  150.6582  133.6000  153.4272 H   0  0  0  0  0  0  0  0  0  0  0  0
  148.9080  132.3750  152.6081 H   0  0  0  0  0  0  0  0  0  0  0  0
  148.0616  132.3583  154.1459 H   0  0  0  0  0  0  0  0  0  0  0  0
  147.3524  134.5718  153.7565 H   0  0  0  0  0  0  0  0  0  0  0  0
  145.8153  133.0612  153.0008 H   0  0  0  0  0  0  0  0  0  0  0  0
  145.3696  135.4147  152.4471 H   0  0  0  0  0  0  0  0  0  0  0  0
  146.3157  135.2911  150.9842 H   0  0  0  0  0  0  0  0  0  0  0  0
  143.7084  133.8132  151.5802 H   0  0  0  0  0  0  0  0  0  0  0  0
  143.9289  135.1169  150.4442 H   0  0  0  0  0  0  0  0  0  0  0  0
  145.4732  133.7541  149.1007 H   0  0  0  0  0  0  0  0  0  0  0  0
  142.7940  132.3834  149.5687 H   0  0  0  0  0  0  0  0  0  0  0  0
  143.8481  132.1075  148.1820 H   0  0  0  0  0  0  0  0  0  0  0  0
  143.1380  133.6936  148.4505 H   0  0  0  0  0  0  0  0  0  0  0  0
  145.9585  131.4570  149.5194 H   0  0  0  0  0  0  0  0  0  0  0  0
  144.2446  131.5602  152.0453 H   0  0  0  0  0  0  0  0  0  0  0  0
  145.3339  130.2541  151.6028 H   0  0  0  0  0  0  0  0  0  0  0  0
  143.9423  130.6029  150.6005 H   0  0  0  0  0  0  0  0  0  0  0  0
  147.5159  132.9937  150.4554 H   0  0  0  0  0  0  0  0  0  0  0  0
  147.3408  131.6690  151.5706 H   0  0  0  0  0  0  0  0  0  0  0  0
  148.1550  134.6694  152.3309 H   0  0  0  0  0  0  0  0  0  0  0  0
  1  2  1  0  0  0  0
  1 19  1  0  0  0  0
  1 20  1  0  0  0  0
  1 21  1  0  0  0  0
  2  7  1  0  0  0  0
  2  3  2  0  0  0  0
  3  4  1  0  0  0  0
  4  5  1  0  0  0  0
  5  6  1  0  0  0  0
  5  7  2  0  0  0  0
  6 22  1  0  0  0  0
  6 23  1  0  0  0  0
  6 24  1  0  0  0  0
  7  8  1  0  0  0  0
  8  9  1  0  0  0  0
  8 25  1  0  0  0  0
  8 26  1  0  0  0  0
  9 10  1  0  0  0  0
  9 27  1  0  0  0  0
  9 28  1  0  0  0  0
 10 11  1  0  0  0  0
 10 29  1  0  0  0  0
 10 45  1  0  0  0  0
 11 18  1  0  0  0  0
 11 12  1  0  0  0  0
 11 30  1  0  0  0  0
 12 13  1  0  0  0  0
 12 31  1  0  0  0  0
 12 32  1  0  0  0  0
 13 14  1  0  0  0  0
 13 33  1  0  0  0  0
 13 34  1  0  0  0  0
 14 15  1  0  0  0  0
 14 16  1  0  0  0  0
 14 35  1  0  0  0  0
 15 36  1  0  0  0  0
 15 37  1  0  0  0  0
 15 38  1  0  0  0  0
 16 17  1  0  0  0  0
 16 18  1  0  0  0  0
 16 39  1  0  0  0  0
 17 40  1  0  0  0  0
 17 41  1  0  0  0  0
 17 42  1  0  0  0  0
 18 43  1  0  0  0  0
 18 44  1  0  0  0  0
M  CHG  1  10   1
M  END
> <s_m_source_file>
AV-unprocessed.smi

> <i_m_source_file_index>
3285

> <i_lp_mmshare_version>
43012

> <i_f3d_flags>
0

> <s_epik_input>
W0NIM11jMW5vYyhbQ0gzXSljMVtDSDJdW0NIMl1bTkhdW0NAQEhdMltDSDJdW0NIMl1bQ0BASF0oW0NIM10pW0NAQEhdKFtDSDNdKVtDSDJdMg==

> <s_epik_cmdline>
J2VwaWtfcHl0aG9uJywgJy1waCcsICc3LjAnLCAnLXRuJywgJzgnLCAnLW1hJywgJzIwMCcsICctbWV0YWxfYmluZGluZycsICctaW1hZScsICc8aW5maWxlLm1hZT4nLCAnLW9tYWUnLCAnPG91dGZpbGUubWFlPic=

> <r_lp_tautomer_probability>
1

> <r_epik_Ionization_Penalty>
0.000204615

> <r_epik_Ionization_Penalty_Charging>
0.000204615

> <r_epik_Ionization_Penalty_Neutral>
9.28663e-11

> <r_epik_State_Penalty>
-0

> <r_epik_Charging_Adjusted_Penalty>
0.000204615

> <i_epik_Tot_Q>
1

> <i_epik_Tot_abs_Q>
1

> <r_epik_Metal_State_Penalty>
-0

> <b_epik_Metal_Only>
0

> <s_lp_Force_Field>
OPLS_2005

> <r_lp_Energy>
12.1842

> <b_lp_Chiralities_Consistent>
1

> <s_lp_Variant>
AV-unprocessed.smi:3285-8

> <Gold.Version>
5.8.1

> <Gold.Id.Protein>
6NUR|6NUR_protein|mol2

> <Gold.PLP.Fitness>
42.4750

> <Gold.PLP.PLP>
-34.1611

> <Gold.PLP.part.hbond>
-2.0000

> <Gold.PLP.part.metal>
0.0000

> <Gold.PLP.part.buried>
-0.1400

> <Gold.PLP.part.nonpolar>
-31.2860

> <Gold.PLP.part.repulsive>
0.0000

> <Gold.PLP.ligand.clash>
0.0000

> <Gold.PLP.ligand.torsion>
0.3483

> <Gold.PLP.Chemscore.Hbond>
3.0000

> <Gold.PLP.Chemscore.CHOScore>
0.0000

> <Gold.PLP.Chemscore.Metal>
0.0000

> <Gold.Chemscore.Hbonds>
donor molecule, donor type, donor heavy atom, donor atom, acceptor molecule, acceptor atom, score
      L1  H    10    45       P1  7948  2.00
      P1  H  6896  6908       L1     3  1.00

> <Gold.PLP.Chemscore.Internal.Correction>
0.0105

> <Gold.Rescore>
     Score         DG    S(hbond)    S(metal)    S(lipo)     H(rot)  DE(clash)    DE(int)     intcor
     19.02     -19.45       1.79        0.00      97.64       1.35       0.08       0.35       ----

> <Gold.Chemscore.Fitness>
19.0192

> <Gold.Chemscore.DG>
-19.4466

> <Gold.Chemscore.ZeroCoef>
-5.4800

> <Gold.Chemscore.Hbond>
1.7935

> <Gold.Chemscore.Metal>
0.0000

> <Gold.Chemscore.Lipo>
97.6361

> <Gold.Chemscore.Internal_Hbond>
0.0000

> <Gold.Chemscore.DEClash>
0.0814

> <Gold.Chemscore.DEInternal>
0.3460

> <Gold.Chemscore.Rot>
1.3465

> <Gold.Chemscore.Internal.Correction>
   9.000000E+99

> <Gold.Chemscore.Hbonds>
donor molecule, donor type, donor heavy atom, donor atom, acceptor molecule, acceptor atom, score
      L1  H    10    45       P1  7948  0.30
      P1  H  6896  6908       L1     3  0.74

> <Gold.Chemscore.Hbond.Weighted>
-5.9902

> <Gold.Chemscore.Metal.Weighted>
-0.0000

> <Gold.Chemscore.Lipo.Weighted>
-11.4234

> <Gold.Chemscore.Internal_Hbond.Weighted>
0.0000

> <Gold.Chemscore.DEClash.Weighted>
0.0814

> <Gold.Chemscore.DEInternal.Weighted>
0.3460

> <Gold.Chemscore.Rot.Weighted>
3.4470

> <Gold.Chemscore.Internal.Correction.Weighted>
   9.000000E+99

> <Gold.Protein.RotatedTorsions>
[ 6907 6896 6895 6894 ] final   88.81 input  -60.11 | X-H torsion
[ 7974 7965 7964 7962 ] final  148.10 input  175.53 | X-H torsion
[ 8008 7997 7996 7995 ] final -172.89 input   59.86 | X-H torsion
[ 10167 10162 10161 10158 ] final  -88.30 input  -65.29 | X-H torsion
[ 10718 10713 10712 10709 ] final -138.28 input   66.30 | X-H torsion
[ 10763 10752 10751 10750 ] final -168.78 input  -60.55 | X-H torsion
[ 11005 11000 10999 10996 ] final   12.37 input  -57.11 | X-H torsion

> <Gold.Protein.ActiveResidues>
 VAL166  LYS551  ARG553  GLY616  TRP617  ASP618  TYR619  PRO620  LYS621  CYS622 
 ASP623  PHE694  ASN695  SER759  ASP760  ASP761  ALA762  ILE779  LEU786  VAL792 
 PHE793  MET794  SER795  GLU796  ALA797  LYS798  CYS799  TRP800  GLU811  SER814 

> <Gold.Protein.RotatedAtoms>
  152.5429  134.2064  159.8732 H   0  0  0  0  0  0  0  0  0  0  0  0  # atno 6907 bound_to 6896
  151.2049  133.4582  159.2604 H   0  0  0  0  0  0  0  0  0  0  0  0  # atno 6908 bound_to 6896
  151.0953  134.9953  159.8478 H   0  0  0  0  0  0  0  0  0  0  0  0  # atno 6909 bound_to 6896
  144.8540  139.6112  143.5961 H   0  0  0  0  0  0  0  0  0  0  0  0  # atno 7974 bound_to 7965
  155.9504  140.1125  157.0982 H   0  0  0  0  0  0  0  0  0  0  0  0  # atno 8008 bound_to 7997
  154.4108  140.1202  156.5111 H   0  0  0  0  0  0  0  0  0  0  0  0  # atno 8009 bound_to 7997
  155.6850  140.3473  155.4872 H   0  0  0  0  0  0  0  0  0  0  0  0  # atno 8010 bound_to 7997
  140.3760  143.2771  151.9442 H   0  0  0  0  0  0  0  0  0  0  0  0  # atno 10167 bound_to 10162
  156.2976  130.7410  151.1453 H   0  0  0  0  0  0  0  0  0  0  0  0  # atno 10718 bound_to 10713
  154.6592  135.2922  154.9888 H   0  0  0  0  0  0  0  0  0  0  0  0  # atno 10763 bound_to 10752
  154.0954  135.6584  153.4863 H   0  0  0  0  0  0  0  0  0  0  0  0  # atno 10764 bound_to 10752
  153.0420  135.5230  154.7535 H   0  0  0  0  0  0  0  0  0  0  0  0  # atno 10765 bound_to 10752
  140.4927  134.0824  155.7775 H   0  0  0  0  0  0  0  0  0  0  0  0  # atno 11005 bound_to 11000
  146.2808  139.6871  142.9231 LP  0  0  0  0  0  0  0  0  0  0  0  0  # atno 17320 bound_to 7965
  145.4444  141.0424  143.2839 LP  0  0  0  0  0  0  0  0  0  0  0  0  # atno 17321 bound_to 7965
  139.4799  144.5863  151.7848 LP  0  0  0  0  0  0  0  0  0  0  0  0  # atno 17342 bound_to 10162
  140.4986  144.1203  150.5966 LP  0  0  0  0  0  0  0  0  0  0  0  0  # atno 17343 bound_to 10162
  157.7359  131.0567  150.5442 LP  0  0  0  0  0  0  0  0  0  0  0  0  # atno 17370 bound_to 10713
  156.5565  130.4245  149.6083 LP  0  0  0  0  0  0  0  0  0  0  0  0  # atno 17371 bound_to 10713
  141.1476  133.9028  157.2178 LP  0  0  0  0  0  0  0  0  0  0  0  0  # atno 17394 bound_to 11000
  139.9759  135.0114  156.9631 LP  0  0  0  0  0  0  0  0  0  0  0  0  # atno 17395 bound_to 11000

$$$$
