#       Name:                AV-unprocessed.smi:102
#       Creating user name   scv26
#       Creation time:       Thu Mar 26 17:53:11 2020


#       File generated by GOLD software.
#

@<TRIPOS>MOLECULE
AV-unprocessed.smi:102
    56    57     1
SMALL
NO_CHARGES


@<TRIPOS>ATOM
      1 ****        -3.9596   3.9904   2.4824 C.3            1 S1                 0.0000
      2 ****        -3.7384   2.6171   1.8623 C.2            1 S1                 0.0000
      3 ****        -4.6631   1.9845   1.3518 O.2            1 S1                 0.0000
      4 ****        -2.4613   2.2168   1.9476 O.3            1 S1                 0.0000
      5 ****        -2.0861   0.9586   1.4123 C.3            1 S1                 0.0000
      6 ****        -0.5654   0.7860   1.5282 C.3            1 S1                 0.0000
      7 ****         0.1173   1.5713   0.5581 O.3            1 S1                 0.0000
      8 ****         1.3958   1.0446   0.3554 C.3            1 S1                 0.0000
      9 ****         1.6844   1.0344  -1.1318 N.am           1 S1                 0.0000
     10 ****         0.6590   0.8641  -2.0466 C.2            1 S1                 0.0000
     11 ****         0.9028   0.8279  -3.3720 C.2            1 S1                 0.0000
     12 ****        -0.1136   0.6581  -4.2350 F              1 S1                 0.0000
     13 ****         2.2736   0.9707  -3.8588 C.2            1 S1                 0.0000
     14 ****         2.4900   0.9424  -5.0693 O.2            1 S1                 0.0000
     15 ****         3.2652   1.1297  -2.9348 N.pl3          1 S1                -1.0000
     16 ****         3.0245   1.1570  -1.5912 C.2            1 S1                 0.0000
     17 ****         3.9168   1.2702  -0.7507 O.2            1 S1                 0.0000
     18 ****         1.4217  -0.3685   0.9774 C.3            1 S1                 0.0000
     19 ****         2.0210  -1.3478   0.1325 O.3            1 S1                 0.0000
     20 ****         2.5882  -2.4438   0.6593 C.2            1 S1                 0.0000
     21 ****         3.1840  -3.3530  -0.4067 C.3            1 S1                 0.0000
     22 ****         2.6373  -2.7329   1.8549 O.2            1 S1                 0.0000
     23 ****        -0.0549  -0.6316   1.2600 C.3            1 S1                 0.0000
     24 ****        -0.7267  -1.1616   0.1179 O.3            1 S1                 0.0000
     25 ****        -1.0643  -2.4612   0.0532 C.2            1 S1                 0.0000
     26 ****        -1.7583  -2.8162  -1.2552 C.3            1 S1                 0.0000
     27 ****        -0.8556  -3.3109   0.9188 O.2            1 S1                 0.0000
     28 ****        -3.2728   4.7175   2.0486 H              1 S1                 0.0000
     29 ****        -3.7898   3.9511   3.5584 H              1 S1                 0.0000
     30 ****        -4.9800   4.3311   2.3054 H              1 S1                 0.0000
     31 ****        -2.5911   0.1732   1.9762 H              1 S1                 0.0000
     32 ****        -2.4030   0.8731   0.3717 H              1 S1                 0.0000
     33 ****        -0.2311   1.0930   2.5209 H              1 S1                 0.0000
     34 ****         2.1212   1.7212   0.8090 H              1 S1                 0.0000
     35 ****        -0.3585   0.7530  -1.7034 H              1 S1                 0.0000
     36 ****         1.9627  -0.2822   1.9211 H              1 S1                 0.0000
     37 ****         3.8990  -2.8010  -1.0172 H              1 S1                 0.0000
     38 ****         2.3979  -3.7384  -1.0560 H              1 S1                 0.0000
     39 ****         3.6994  -4.1967   0.0525 H              1 S1                 0.0000
     40 ****        -0.1931  -1.2674   2.1356 H              1 S1                 0.0000
     41 ****        -1.6639  -2.0052  -1.9780 H              1 S1                 0.0000
     42 ****        -2.8176  -3.0031  -1.0807 H              1 S1                 0.0000
     43 ****        -1.3140  -3.7137  -1.6860 H              1 S1                 0.0000
     44 ****        -5.5854   2.3707   1.3379 LP             1 S1                 0.0000
     45 ****        -4.4919   1.0844   0.9512 LP             1 S1                 0.0000
     46 ****         0.1919   2.5139   0.8836 LP             1 S1                 0.0000
     47 ****        -0.3911   1.5552  -0.3028 LP             1 S1                 0.0000
     48 ****         1.7317   0.8225  -5.7101 LP             1 S1                 0.0000
     49 ****         3.4242   1.0392  -5.4126 LP             1 S1                 0.0000
     50 ****         4.2072   1.2303  -3.2551 LP             1 S1                 0.0000
     51 ****         3.6890   1.2740   0.2230 LP             1 S1                 0.0000
     52 ****         4.8695   1.3583  -1.0416 LP             1 S1                 0.0000
     53 ****         2.2291  -2.1229   2.5340 LP             1 S1                 0.0000
     54 ****         3.0854  -3.5779   2.1471 LP             1 S1                 0.0000
     55 ****        -0.3936  -3.0563   1.7684 LP             1 S1                 0.0000
     56 ****        -1.1480  -4.2560   0.7726 LP             1 S1                 0.0000
@<TRIPOS>BOND
    1    1    2 1     
    2    1   28 1     
    3    1   29 1     
    4    1   30 1     
    5    2    3 2     
    6    2    4 1     
    7    4    5 1     
    8    5    6 1     
    9    5   31 1     
   10    5   32 1     
   11    6   23 1     
   12    6    7 1     
   13    6   33 1     
   14    7    8 1     
   15    8    9 1     
   16    8   18 1     
   17    8   34 1     
   18    9   16 am    
   19    9   10 1     
   20   10   11 2     
   21   10   35 1     
   22   11   12 1     
   23   11   13 1     
   24   13   14 2     
   25   13   15 1     
   26   15   16 1     
   27   16   17 2     
   28   18   19 1     
   29   18   23 1     
   30   18   36 1     
   31   19   20 1     
   32   20   21 1     
   33   20   22 2     
   34   21   37 1     
   35   21   38 1     
   36   21   39 1     
   37   23   24 1     
   38   23   40 1     
   39   24   25 1     
   40   25   26 1     
   41   25   27 2     
   42   26   41 1     
   43   26   42 1     
   44   26   43 1     
   45    3   44 1     
   46    3   45 1     
   47    7   46 1     
   48    7   47 1     
   49   14   48 1     
   50   14   49 1     
   51   15   50 1     
   52   17   51 1     
   53   17   52 1     
   54   22   53 1     
   55   22   54 1     
   56   27   55 1     
   57   27   56 1     
@<TRIPOS>SUBSTRUCTURE
      1 S1             1
@<TRIPOS>SET
LONE_PAIRS      STATIC     ATOMS    <user>   **** ""
13 44 45 46 47 48 49 50 51 52 53 54 55 56
ATOM$BLUE        STATIC     ATOMS    COLORGROUP SYSTEM
13 44 45 46 47 48 49 50 51 52 53 54 55 56
