#       Name:                AV-unprocessed.smi:2819
#       Creating user name   scv26
#       Creation time:       Fri Mar 27 15:29:37 2020


#       File generated by GOLD software.
#

@<TRIPOS>MOLECULE
AV-unprocessed.smi:2819
    56    57     1
SMALL
NO_CHARGES


@<TRIPOS>ATOM
      1 ****        -5.4037   0.1923  -1.1144 C.3            1 S1                 0.0000
      2 ****        -5.3861   1.6061  -0.7545 N.pl3          1 S1                 0.0000
      3 ****        -6.6363   2.3201  -0.5281 C.3            1 S1                 0.0000
      4 ****        -4.1516   2.2609  -0.5474 C.ar           1 S1                 0.0000
      5 ****        -4.0808   3.6232  -0.1677 C.ar           1 S1                 0.0000
      6 ****        -2.7948   4.1675   0.0127 C.ar           1 S1                 0.0000
      7 ****        -1.6792   3.4318  -0.1662 N.ar           1 S1                 0.0000
      8 ****        -1.8397   2.1519  -0.5254 C.ar           1 S1                 0.0000
      9 ****        -0.7417   1.3436  -0.7263 N.am           1 S1                 0.0000
     10 ****         0.5735   1.5899  -0.5739 C.2            1 S1                 0.0000
     11 ****         1.0625   2.6573  -0.2016 O.2            1 S1                 0.0000
     12 ****         1.3051   0.5060  -0.8712 N.am           1 S1                 0.0000
     13 ****         2.7619   0.4053  -0.7773 C.3            1 S1                 0.0000
     14 ****         3.2330  -0.4304   0.4500 C.3            1 S1                 0.0000
     15 ****         4.7753  -0.5326   0.3666 C.3            1 S1                 0.0000
     16 ****         2.9010   0.4079   1.7112 C.3            1 S1                 0.0000
     17 ****         2.5629  -1.7609   0.4981 N.3            1 S1                 0.0000
     18 ****         2.8591  -2.5605   1.6923 C.3            1 S1                 0.0000
     19 ****         2.0416  -3.8629   1.7338 C.3            1 S1                 0.0000
     20 ****         2.2834  -4.6193   0.5538 O.3            1 S1                 0.0000
     21 ****         1.9524  -3.9010  -0.6282 C.3            1 S1                 0.0000
     22 ****         2.7696  -2.5994  -0.6890 C.3            1 S1                 0.0000
     23 ****        -3.0133   1.5442  -0.7227 N.ar           1 S1                 0.0000
     24 ****        -4.8658   0.0283  -2.0487 H              1 S1                 0.0000
     25 ****        -6.4223  -0.1723  -1.2486 H              1 S1                 0.0000
     26 ****        -4.9343  -0.4069  -0.3335 H              1 S1                 0.0000
     27 ****        -6.6929   2.6786   0.5002 H              1 S1                 0.0000
     28 ****        -7.4986   1.6767  -0.7035 H              1 S1                 0.0000
     29 ****        -6.7170   3.1747  -1.2005 H              1 S1                 0.0000
     30 ****        -4.9548   4.2383  -0.0166 H              1 S1                 0.0000
     31 ****        -2.6617   5.1995   0.3017 H              1 S1                 0.0000
     32 ****        -0.9681   0.4078  -1.0284 H              1 S1                 0.0000
     33 ****         0.8171  -0.3288  -1.1613 H              1 S1                 0.0000
     34 ****         3.1244  -0.0302  -1.7081 H              1 S1                 0.0000
     35 ****         3.2134   1.3987  -0.7527 H              1 S1                 0.0000
     36 ****         5.2321   0.4577   0.3533 H              1 S1                 0.0000
     37 ****         5.1053  -1.0409  -0.5392 H              1 S1                 0.0000
     38 ****         5.2007  -1.0618   1.2188 H              1 S1                 0.0000
     39 ****         3.2322   1.4415   1.6029 H              1 S1                 0.0000
     40 ****         3.3936   0.0238   2.6044 H              1 S1                 0.0000
     41 ****         1.8292   0.4300   1.9112 H              1 S1                 0.0000
     42 ****         3.9195  -2.8098   1.7266 H              1 S1                 0.0000
     43 ****         2.6354  -2.0024   2.5996 H              1 S1                 0.0000
     44 ****         2.3235  -4.4589   2.6019 H              1 S1                 0.0000
     45 ****         0.9759  -3.6473   1.8251 H              1 S1                 0.0000
     46 ****         2.1689  -4.5246  -1.4957 H              1 S1                 0.0000
     47 ****         0.8824  -3.6869  -0.6463 H              1 S1                 0.0000
     48 ****         2.4824  -2.0707  -1.5959 H              1 S1                 0.0000
     49 ****         3.8245  -2.8538  -0.7912 H              1 S1                 0.0000
     50 ****        -0.7693   3.8258  -0.0360 LP             1 S1                 0.0000
     51 ****         0.4675   3.4310   0.0158 LP             1 S1                 0.0000
     52 ****         2.0546   2.7501  -0.1167 LP             1 S1                 0.0000
     53 ****         1.6010  -1.4896   0.5310 LP             1 S1                 0.0000
     54 ****         1.7320  -5.4528   0.5880 LP             1 S1                 0.0000
     55 ****         3.2529  -4.8622   0.5211 LP             1 S1                 0.0000
     56 ****        -3.0516   0.5823  -0.9936 LP             1 S1                 0.0000
@<TRIPOS>BOND
    1    1    2 1     
    2    1   24 1     
    3    1   25 1     
    4    1   26 1     
    5    2    3 1     
    6    2    4 1     
    7    3   27 1     
    8    3   28 1     
    9    3   29 1     
   10    4   23 ar    
   11    4    5 ar    
   12    5    6 ar    
   13    5   30 1     
   14    6    7 ar    
   15    6   31 1     
   16    7    8 ar    
   17    8    9 1     
   18    8   23 ar    
   19    9   10 am    
   20    9   32 1     
   21   10   11 2     
   22   10   12 am    
   23   12   13 1     
   24   12   33 1     
   25   13   14 1     
   26   13   34 1     
   27   13   35 1     
   28   14   15 1     
   29   14   16 1     
   30   14   17 1     
   31   15   36 1     
   32   15   37 1     
   33   15   38 1     
   34   16   39 1     
   35   16   40 1     
   36   16   41 1     
   37   17   22 1     
   38   17   18 1     
   39   18   19 1     
   40   18   42 1     
   41   18   43 1     
   42   19   20 1     
   43   19   44 1     
   44   19   45 1     
   45   20   21 1     
   46   21   22 1     
   47   21   46 1     
   48   21   47 1     
   49   22   48 1     
   50   22   49 1     
   51    7   50 1     
   52   11   51 1     
   53   11   52 1     
   54   17   53 1     
   55   20   54 1     
   56   20   55 1     
   57   23   56 1     
@<TRIPOS>SUBSTRUCTURE
      1 S1             1
@<TRIPOS>SET
LONE_PAIRS      STATIC     ATOMS    <user>   **** ""
7 50 51 52 53 54 55 56
DONOR_HYDROGENS      STATIC     ATOMS    <user>   **** ""
2 32 33
ATOM$BLUE        STATIC     ATOMS    COLORGROUP SYSTEM
7 50 51 52 53 54 55 56
ATOM$RED        STATIC     ATOMS    COLORGROUP SYSTEM
2 32 33
