AV-unprocessed.smi:1214|AV-procd|sdf|5093|dock4
  -GOLD-   22720 4143D 1   1.00000     0.00000
 Structure written by MMmdl.
 33 34  0  0  0  0  0  0  0  0  1 V2000
  145.3934  135.6985  150.6040 C   0  0  0  0  0  0  0  0  0  0  0  0
  145.2073  134.1946  150.7278 C   0  0  0  0  0  0  0  0  0  0  0  0
  144.1939  133.5631  149.9758 C   0  0  0  0  0  0  0  0  0  0  0  0
  144.0202  132.1735  150.0896 C   0  0  0  0  0  0  0  0  0  0  0  0
  144.8725  131.4700  150.9570 C   0  0  0  0  0  0  0  0  0  0  0  0
  145.8434  132.0661  151.6787 N   0  0  0  0  0  0  0  0  0  0  0  0
  146.0300  133.4075  151.5785 C   0  0  0  0  0  0  0  0  0  0  0  0
  147.0219  134.1201  152.3206 N   0  0  0  0  0  0  0  0  0  0  0  0
  147.4073  134.0370  153.6120 C   0  0  0  0  0  0  0  0  0  0  0  0
  146.8677  133.2480  154.3859 O   0  0  0  0  0  0  0  0  0  0  0  0
  148.3896  134.8695  153.9934 N   0  0  0  0  0  0  0  0  0  0  0  0
  148.9505  134.9576  155.3365 C   0  0  1  0  0  0  0  0  0  0  0  0
  150.0435  133.8970  155.5766 C   0  0  0  0  0  0  0  0  0  0  0  0
  150.8399  134.2849  156.8289 C   0  0  0  0  0  0  0  0  0  0  0  0
  150.7904  136.1151  156.9201 S   0  0  0  0  0  0  0  0  0  0  0  0
  150.1797  136.5111  158.1980 O   0  0  0  0  0  0  0  0  0  0  0  0
  152.0867  136.6671  156.4977 O   0  0  0  0  0  0  0  0  0  0  0  0
  149.5738  136.3401  155.5697 C   0  0  0  0  0  0  0  0  0  0  0  0
  144.6797  136.1312  149.9024 H   0  0  0  0  0  0  0  0  0  0  0  0
  146.3969  135.9305  150.2464 H   0  0  0  0  0  0  0  0  0  0  0  0
  145.2485  136.1827  151.5701 H   0  0  0  0  0  0  0  0  0  0  0  0
  143.5544  134.1345  149.3188 H   0  0  0  0  0  0  0  0  0  0  0  0
  143.2532  131.6609  149.5278 H   0  0  0  0  0  0  0  0  0  0  0  0
  144.7728  130.4012  151.0764 H   0  0  0  0  0  0  0  0  0  0  0  0
  147.5029  134.8315  151.7898 H   0  0  0  0  0  0  0  0  0  0  0  0
  148.7808  135.4834  153.2926 H   0  0  0  0  0  0  0  0  0  0  0  0
  148.1608  134.8160  156.0767 H   0  0  0  0  0  0  0  0  0  0  0  0
  149.6255  132.8938  155.6651 H   0  0  0  0  0  0  0  0  0  0  0  0
  150.7224  133.8839  154.7226 H   0  0  0  0  0  0  0  0  0  0  0  0
  150.3629  133.8916  157.7266 H   0  0  0  0  0  0  0  0  0  0  0  0
  151.8721  133.9358  156.8010 H   0  0  0  0  0  0  0  0  0  0  0  0
  150.1169  136.6837  154.6885 H   0  0  0  0  0  0  0  0  0  0  0  0
  148.8410  137.0985  155.8454 H   0  0  0  0  0  0  0  0  0  0  0  0
  1  2  1  0  0  0  0
  1 19  1  0  0  0  0
  1 20  1  0  0  0  0
  1 21  1  0  0  0  0
  2  7  1  0  0  0  0
  2  3  2  0  0  0  0
  3  4  1  0  0  0  0
  3 22  1  0  0  0  0
  4  5  2  0  0  0  0
  4 23  1  0  0  0  0
  5  6  1  0  0  0  0
  5 24  1  0  0  0  0
  6  7  2  0  0  0  0
  7  8  1  0  0  0  0
  8  9  1  0  0  0  0
  8 25  1  0  0  0  0
  9 10  2  0  0  0  0
  9 11  1  0  0  0  0
 11 12  1  0  0  0  0
 11 26  1  0  0  0  0
 12 18  1  0  0  0  0
 12 13  1  0  0  0  0
 12 27  1  0  0  0  0
 13 14  1  0  0  0  0
 13 28  1  0  0  0  0
 13 29  1  0  0  0  0
 14 15  1  0  0  0  0
 14 30  1  0  0  0  0
 14 31  1  0  0  0  0
 15 16  2  0  0  0  0
 15 17  2  0  0  0  0
 15 18  1  0  0  0  0
 18 32  1  0  0  0  0
 18 33  1  0  0  0  0
M  END
> <s_m_source_file>
AV-unprocessed.smi

> <i_m_source_file_index>
1214

> <i_lp_mmshare_version>
43012

> <i_f3d_flags>
0

> <s_epik_input>
W0NIM11jMVtjSF1bY0hdW2NIXW5jMVtOSF1DKD1PKVtOSF1bQ0BASF0oW0NIMl0yKVtDSDJdW0NIMl1TMig9Tyk9Tw==

> <s_epik_cmdline>
J2VwaWtfcHl0aG9uJywgJy1waCcsICc3LjAnLCAnLXRuJywgJzgnLCAnLW1hJywgJzIwMCcsICctbWV0YWxfYmluZGluZycsICctaW1hZScsICc8aW5maWxlLm1hZT4nLCAnLW9tYWUnLCAnPG91dGZpbGUubWFlPic=

> <r_lp_tautomer_probability>
1

> <r_epik_Ionization_Penalty>
4.18367e-05

> <r_epik_Ionization_Penalty_Charging>
0

> <r_epik_Ionization_Penalty_Neutral>
4.18367e-05

> <r_epik_State_Penalty>
-0

> <r_epik_Charging_Adjusted_Penalty>
0

> <i_epik_Tot_Q>
0

> <i_epik_Tot_abs_Q>
0

> <r_epik_Metal_State_Penalty>
-0

> <b_epik_Metal_Only>
0

> <s_lp_Force_Field>
OPLS_2005

> <r_lp_Energy>
8.88594

> <b_lp_Chiralities_Consistent>
1

> <s_lp_Variant>
AV-unprocessed.smi:1214-2

> <Gold.Version>
5.8.1

> <Gold.Id.Protein>
6NUR|6NUR_protein|mol2

> <Gold.PLP.Fitness>
39.8990

> <Gold.PLP.PLP>
-30.4871

> <Gold.PLP.part.hbond>
-4.0000

> <Gold.PLP.part.metal>
0.0000

> <Gold.PLP.part.buried>
-4.3724

> <Gold.PLP.part.nonpolar>
-22.3530

> <Gold.PLP.part.repulsive>
0.1839

> <Gold.PLP.ligand.clash>
0.0000

> <Gold.PLP.ligand.torsion>
0.6945

> <Gold.PLP.Chemscore.Hbond>
3.6000

> <Gold.PLP.Chemscore.CHOScore>
0.0000

> <Gold.PLP.Chemscore.Metal>
0.0000

> <Gold.Chemscore.Hbonds>
donor molecule, donor type, donor heavy atom, donor atom, acceptor molecule, acceptor atom, score
      L1  H     8    25       P1  7948  0.91
      L1  H    11    26       P1  7948  1.00
      P1  H  6896  6907       L1    16  0.27
      P1  H 10752 10765       L1    17  0.68

> <Gold.PLP.Chemscore.Internal.Correction>
0.0010

> <Gold.Rescore>
     Score         DG    S(hbond)    S(metal)    S(lipo)     H(rot)  DE(clash)    DE(int)     intcor
     19.99     -20.68       3.23        0.00      59.54       1.00       0.04       0.66       ----

> <Gold.Chemscore.Fitness>
19.9854

> <Gold.Chemscore.DG>
-20.6826

> <Gold.Chemscore.ZeroCoef>
-5.4800

> <Gold.Chemscore.Hbond>
3.2325

> <Gold.Chemscore.Metal>
0.0000

> <Gold.Chemscore.Lipo>
59.5375

> <Gold.Chemscore.Internal_Hbond>
0.0000

> <Gold.Chemscore.DEClash>
0.0368

> <Gold.Chemscore.DEInternal>
0.6604

> <Gold.Chemscore.Rot>
1.0000

> <Gold.Chemscore.Internal.Correction>
   9.000000E+99

> <Gold.Chemscore.Hbonds>
donor molecule, donor type, donor heavy atom, donor atom, acceptor molecule, acceptor atom, score
      L1  H     8    25       P1  7948  0.57
      L1  H    11    26       P1  7948  0.86
      P1  H  6896  6907       L1    16  0.11
      P1  H 10752 10765       L1    17  0.60

> <Gold.Chemscore.Hbond.Weighted>
-10.7967

> <Gold.Chemscore.Metal.Weighted>
-0.0000

> <Gold.Chemscore.Lipo.Weighted>
-6.9659

> <Gold.Chemscore.Internal_Hbond.Weighted>
0.0000

> <Gold.Chemscore.DEClash.Weighted>
0.0368

> <Gold.Chemscore.DEInternal.Weighted>
0.6604

> <Gold.Chemscore.Rot.Weighted>
2.5600

> <Gold.Chemscore.Internal.Correction.Weighted>
   9.000000E+99

> <Gold.Protein.RotatedTorsions>
[ 6907 6896 6895 6894 ] final  -54.27 input  -60.11 | X-H torsion
[ 7974 7965 7964 7962 ] final -133.50 input  175.53 | X-H torsion
[ 8008 7997 7996 7995 ] final  161.56 input   59.86 | X-H torsion
[ 10167 10162 10161 10158 ] final -161.46 input  -65.29 | X-H torsion
[ 10718 10713 10712 10709 ] final  153.80 input   66.30 | X-H torsion
[ 10763 10752 10751 10750 ] final -156.72 input  -60.55 | X-H torsion
[ 11005 11000 10999 10996 ] final -174.65 input  -57.11 | X-H torsion

> <Gold.Protein.ActiveResidues>
 VAL166  LYS551  ARG553  GLY616  TRP617  ASP618  TYR619  PRO620  LYS621  CYS622 
 ASP623  PHE694  ASN695  SER759  ASP760  ASP761  ALA762  ILE779  LEU786  VAL792 
 PHE793  MET794  SER795  GLU796  ALA797  LYS798  CYS799  TRP800  GLU811  SER814 

> <Gold.Protein.RotatedAtoms>
  150.8353  134.7623  159.6887 H   0  0  0  0  0  0  0  0  0  0  0  0  # atno 6907 bound_to 6896
  152.4451  134.5509  159.9876 H   0  0  0  0  0  0  0  0  0  0  0  0  # atno 6908 bound_to 6896
  151.5660  133.3359  159.3016 H   0  0  0  0  0  0  0  0  0  0  0  0  # atno 6909 bound_to 6896
  144.9188  140.6987  143.4979 H   0  0  0  0  0  0  0  0  0  0  0  0  # atno 7974 bound_to 7965
  156.2094  140.1774  156.7727 H   0  0  0  0  0  0  0  0  0  0  0  0  # atno 8008 bound_to 7997
  154.5701  140.0684  156.8982 H   0  0  0  0  0  0  0  0  0  0  0  0  # atno 8009 bound_to 7997
  155.2688  140.3341  155.4269 H   0  0  0  0  0  0  0  0  0  0  0  0  # atno 8010 bound_to 7997
  139.6464  144.0165  152.2130 H   0  0  0  0  0  0  0  0  0  0  0  0  # atno 10167 bound_to 10162
  157.2400  131.0757  151.1798 H   0  0  0  0  0  0  0  0  0  0  0  0  # atno 10718 bound_to 10713
  154.7691  135.3140  154.8226 H   0  0  0  0  0  0  0  0  0  0  0  0  # atno 10763 bound_to 10752
  153.8966  135.6820  153.4762 H   0  0  0  0  0  0  0  0  0  0  0  0  # atno 10764 bound_to 10752
  153.1302  135.4783  154.9270 H   0  0  0  0  0  0  0  0  0  0  0  0  # atno 10765 bound_to 10752
  140.4721  134.6155  157.4886 H   0  0  0  0  0  0  0  0  0  0  0  0  # atno 11005 bound_to 11000
  145.3331  139.1753  143.4526 LP  0  0  0  0  0  0  0  0  0  0  0  0  # atno 17320 bound_to 7965
  146.3194  140.3363  142.8644 LP  0  0  0  0  0  0  0  0  0  0  0  0  # atno 17321 bound_to 7965
  139.9867  144.6390  150.7851 LP  0  0  0  0  0  0  0  0  0  0  0  0  # atno 17342 bound_to 10162
  140.7516  143.2976  151.3164 LP  0  0  0  0  0  0  0  0  0  0  0  0  # atno 17343 bound_to 10162
  157.3389  130.7023  149.6369 LP  0  0  0  0  0  0  0  0  0  0  0  0  # atno 17370 bound_to 10713
  155.9670  130.4286  150.4794 LP  0  0  0  0  0  0  0  0  0  0  0  0  # atno 17371 bound_to 10713
  139.9879  134.7032  155.9742 LP  0  0  0  0  0  0  0  0  0  0  0  0  # atno 17394 bound_to 11000
  141.1572  133.6542  156.4199 LP  0  0  0  0  0  0  0  0  0  0  0  0  # atno 17395 bound_to 11000

$$$$
