AV-unprocessed.smi:370|AV-procd|sdf|2438|dock1
  -GOLD-   2262022373D 1   1.00000     0.00000
 Structure written by MMmdl.
 41 42  0  0  0  0  0  0  0  0  2 V2000
  144.2793  134.2302  163.0483 C   0  0  0  0  0  0  0  0  0  0  0  0
  145.4968  134.9211  162.5367 C   0  0  0  0  0  0  0  0  0  0  0  0
  145.6787  135.9425  161.6481 C   0  0  0  0  0  0  0  0  0  0  0  0
  147.0904  136.1109  161.6308 C   0  0  0  0  0  0  0  0  0  0  0  0
  147.7704  137.0033  160.8946 N   0  5  0  0  0  0  0  0  0  0  0  0
  148.5470  136.5860  159.8680 C   0  0  0  0  0  0  0  0  0  0  0  0
  148.7538  135.4164  159.5357 O   0  0  0  0  0  0  0  0  0  0  0  0
  149.1202  137.5831  159.1818 N   0  0  0  0  0  0  0  0  0  0  0  0
  150.0007  137.4141  158.0291 C   0  0  0  0  0  0  0  0  0  0  0  0
  151.3088  138.2466  158.1537 C   0  0  0  0  0  0  0  0  0  0  0  0
  152.1910  137.5519  159.2192 C   0  0  0  0  0  0  0  0  0  0  0  0
  152.0391  138.1148  156.7928 C   0  0  0  0  0  0  0  0  0  0  0  0
  151.0271  139.6747  158.4721 N   0  0  0  0  0  0  0  0  0  0  0  0
  150.1777  140.3699  157.4983 C   0  0  0  0  0  0  0  0  0  0  0  0
  149.8285  141.7979  157.9504 C   0  0  0  0  0  0  0  0  0  0  0  0
  151.0234  142.5326  158.1867 O   0  0  0  0  0  0  0  0  0  0  0  0
  151.8464  141.9227  159.1735 C   0  0  0  0  0  0  0  0  0  0  0  0
  152.2150  140.4966  158.7314 C   0  0  0  0  0  0  0  0  0  0  0  0
  147.7113  135.2533  162.4236 N   0  0  0  0  0  0  0  0  0  0  0  0
  146.6960  134.4916  163.0141 O   0  0  0  0  0  0  0  0  0  0  0  0
  143.7030  133.8060  162.2263 H   0  0  0  0  0  0  0  0  0  0  0  0
  143.6385  134.9289  163.5864 H   0  0  0  0  0  0  0  0  0  0  0  0
  144.5426  133.4205  163.7294 H   0  0  0  0  0  0  0  0  0  0  0  0
  144.9235  136.4876  161.1020 H   0  0  0  0  0  0  0  0  0  0  0  0
  148.9339  138.5290  159.4813 H   0  0  0  0  0  0  0  0  0  0  0  0
  150.2190  136.3543  157.8932 H   0  0  0  0  0  0  0  0  0  0  0  0
  149.4519  137.7099  157.1331 H   0  0  0  0  0  0  0  0  0  0  0  0
  152.3785  136.5112  158.9523 H   0  0  0  0  0  0  0  0  0  0  0  0
  151.7190  137.5433  160.2013 H   0  0  0  0  0  0  0  0  0  0  0  0
  153.1657  138.0281  159.3231 H   0  0  0  0  0  0  0  0  0  0  0  0
  152.0962  137.0751  156.4685 H   0  0  0  0  0  0  0  0  0  0  0  0
  153.0666  138.4751  156.8374 H   0  0  0  0  0  0  0  0  0  0  0  0
  151.5283  138.6718  156.0064 H   0  0  0  0  0  0  0  0  0  0  0  0
  150.6769  140.4213  156.5308 H   0  0  0  0  0  0  0  0  0  0  0  0
  149.2428  139.8337  157.3453 H   0  0  0  0  0  0  0  0  0  0  0  0
  149.2442  142.3057  157.1828 H   0  0  0  0  0  0  0  0  0  0  0  0
  149.2195  141.7779  158.8555 H   0  0  0  0  0  0  0  0  0  0  0  0
  152.7467  142.5226  159.3070 H   0  0  0  0  0  0  0  0  0  0  0  0
  151.3270  141.9070  160.1330 H   0  0  0  0  0  0  0  0  0  0  0  0
  152.8283  140.0575  159.5160 H   0  0  0  0  0  0  0  0  0  0  0  0
  152.8363  140.5547  157.8377 H   0  0  0  0  0  0  0  0  0  0  0  0
  1  2  1  0  0  0  0
  1 21  1  0  0  0  0
  1 22  1  0  0  0  0
  1 23  1  0  0  0  0
  2 20  1  0  0  0  0
  2  3  2  0  0  0  0
  3  4  1  0  0  0  0
  3 24  1  0  0  0  0
  4  5  1  0  0  0  0
  4 19  2  0  0  0  0
  5  6  1  0  0  0  0
  6  7  2  0  0  0  0
  6  8  1  0  0  0  0
  8  9  1  0  0  0  0
  8 25  1  0  0  0  0
  9 10  1  0  0  0  0
  9 26  1  0  0  0  0
  9 27  1  0  0  0  0
 10 11  1  0  0  0  0
 10 12  1  0  0  0  0
 10 13  1  0  0  0  0
 11 28  1  0  0  0  0
 11 29  1  0  0  0  0
 11 30  1  0  0  0  0
 12 31  1  0  0  0  0
 12 32  1  0  0  0  0
 12 33  1  0  0  0  0
 13 18  1  0  0  0  0
 13 14  1  0  0  0  0
 14 15  1  0  0  0  0
 14 34  1  0  0  0  0
 14 35  1  0  0  0  0
 15 16  1  0  0  0  0
 15 36  1  0  0  0  0
 15 37  1  0  0  0  0
 16 17  1  0  0  0  0
 17 18  1  0  0  0  0
 17 38  1  0  0  0  0
 17 39  1  0  0  0  0
 18 40  1  0  0  0  0
 18 41  1  0  0  0  0
 19 20  1  0  0  0  0
M  CHG  1   5  -1
M  END
> <s_m_source_file>
AV-unprocessed.smi

> <i_m_source_file_index>
370

> <i_lp_mmshare_version>
43012

> <i_f3d_flags>
0

> <s_epik_input>
W0NIM11jMVtjSF1jKG5vMSlbTkhdQyg9TylbTkhdW0NIMl1DKFtDSDNdKShbQ0gzXSlOMltDSDJdW0NIMl1PW0NIMl1bQ0gyXTI=

> <s_epik_cmdline>
J2VwaWtfcHl0aG9uJywgJy1waCcsICc3LjAnLCAnLXRuJywgJzgnLCAnLW1hJywgJzIwMCcsICctbWV0YWxfYmluZGluZycsICctaW1hZScsICc8aW5maWxlLm1hZT4nLCAnLW9tYWUnLCAnPG91dGZpbGUubWFlPic=

> <r_epik_Ionization_Penalty>
6.88367

> <r_epik_Ionization_Penalty_Charging>
6.57198

> <r_epik_Ionization_Penalty_Neutral>
0.311685

> <r_epik_State_Penalty>
6.77619

> <r_epik_Charging_Adjusted_Penalty>
13.3482

> <i_epik_Tot_Q>
-1

> <i_epik_Tot_abs_Q>
1

> <r_epik_Metal_State_Penalty>
2.70533

> <b_epik_Metal_Only>
1

> <s_lp_Force_Field>
OPLS_2005

> <r_lp_Energy>
34.5841

> <b_lp_Chiralities_Consistent>
1

> <s_lp_Variant>
AV-unprocessed.smi:370-3

> <Gold.Version>
5.8.1

> <Gold.Id.Protein>
6NUR|6NUR_protein|mol2

> <Gold.PLP.Fitness>
40.7854

> <Gold.PLP.PLP>
-28.4252

> <Gold.PLP.part.hbond>
-3.8246

> <Gold.PLP.part.metal>
0.0000

> <Gold.PLP.part.buried>
-7.6319

> <Gold.PLP.part.nonpolar>
-18.4314

> <Gold.PLP.part.repulsive>
0.3123

> <Gold.PLP.ligand.clash>
0.0000

> <Gold.PLP.ligand.torsion>
0.8149

> <Gold.PLP.Chemscore.Hbond>
4.6326

> <Gold.PLP.Chemscore.CHOScore>
0.0000

> <Gold.PLP.Chemscore.Metal>
0.0000

> <Gold.Chemscore.Hbonds>
donor molecule, donor type, donor heavy atom, donor atom, acceptor molecule, acceptor atom, score
      P1  H  6896  6908       L1     7  0.86
      P1  H  6931  6943       L1     5  1.87
      P1  H  6934  6947       L1     5  1.49

> <Gold.PLP.Chemscore.Internal.Correction>
0.0922

> <Gold.Rescore>
     Score         DG    S(hbond)    S(metal)    S(lipo)     H(rot)  DE(clash)    DE(int)     intcor
     14.26     -15.09       1.90        0.00      61.42       1.53       0.03       0.81       ----

> <Gold.Chemscore.Fitness>
14.2564

> <Gold.Chemscore.DG>
-15.0882

> <Gold.Chemscore.ZeroCoef>
-5.4800

> <Gold.Chemscore.Hbond>
1.8956

> <Gold.Chemscore.Metal>
0.0000

> <Gold.Chemscore.Lipo>
61.4164

> <Gold.Chemscore.Internal_Hbond>
0.0000

> <Gold.Chemscore.DEClash>
0.0251

> <Gold.Chemscore.DEInternal>
0.8068

> <Gold.Chemscore.Rot>
1.5269

> <Gold.Chemscore.Internal.Correction>
   9.000000E+99

> <Gold.Chemscore.Hbonds>
donor molecule, donor type, donor heavy atom, donor atom, acceptor molecule, acceptor atom, score
      P1  H  6896  6908       L1     7  0.82
      P1  H  6931  6943       L1     5  0.28
      P1  H  6934  6947       L1     5  0.66

> <Gold.Chemscore.Hbond.Weighted>
-6.3315

> <Gold.Chemscore.Metal.Weighted>
-0.0000

> <Gold.Chemscore.Lipo.Weighted>
-7.1857

> <Gold.Chemscore.Internal_Hbond.Weighted>
0.0000

> <Gold.Chemscore.DEClash.Weighted>
0.0251

> <Gold.Chemscore.DEInternal.Weighted>
0.8068

> <Gold.Chemscore.Rot.Weighted>
3.9090

> <Gold.Chemscore.Internal.Correction.Weighted>
   9.000000E+99

> <Gold.Protein.RotatedTorsions>
[ 6907 6896 6895 6894 ] final  170.62 input  -60.11 | X-H torsion
[ 7974 7965 7964 7962 ] final  -91.45 input  175.53 | X-H torsion
[ 8008 7997 7996 7995 ] final  134.10 input   59.86 | X-H torsion
[ 10167 10162 10161 10158 ] final   76.67 input  -65.29 | X-H torsion
[ 10718 10713 10712 10709 ] final  131.70 input   66.30 | X-H torsion
[ 10763 10752 10751 10750 ] final  -33.13 input  -60.55 | X-H torsion
[ 11005 11000 10999 10996 ] final -125.14 input  -57.11 | X-H torsion

> <Gold.Protein.ActiveResidues>
 VAL166  LYS551  ARG553  GLY616  TRP617  ASP618  TYR619  PRO620  LYS621  CYS622 
 ASP623  PHE694  ASN695  SER759  ASP760  ASP761  ALA762  ILE779  LEU786  VAL792 
 PHE793  MET794  SER795  GLU796  ALA797  LYS798  CYS799  TRP800  GLU811  SER814 

> <Gold.Protein.RotatedAtoms>
  151.8133  133.3384  159.3561 H   0  0  0  0  0  0  0  0  0  0  0  0  # atno 6907 bound_to 6896
  150.7319  134.5644  159.5868 H   0  0  0  0  0  0  0  0  0  0  0  0  # atno 6908 bound_to 6896
  152.3059  134.7556  160.0398 H   0  0  0  0  0  0  0  0  0  0  0  0  # atno 6909 bound_to 6896
  145.4130  140.9546  143.2223 H   0  0  0  0  0  0  0  0  0  0  0  0  # atno 7974 bound_to 7965
  156.2997  140.2504  156.3362 H   0  0  0  0  0  0  0  0  0  0  0  0  # atno 8008 bound_to 7997
  154.9098  140.0403  157.1959 H   0  0  0  0  0  0  0  0  0  0  0  0  # atno 8009 bound_to 7997
  154.8416  140.2892  155.5660 H   0  0  0  0  0  0  0  0  0  0  0  0  # atno 8010 bound_to 7997
  139.9898  144.5765  150.7828 H   0  0  0  0  0  0  0  0  0  0  0  0  # atno 10167 bound_to 10162
  157.4942  131.1092  150.9515 H   0  0  0  0  0  0  0  0  0  0  0  0  # atno 10718 bound_to 10713
  153.8252  135.6871  153.4822 H   0  0  0  0  0  0  0  0  0  0  0  0  # atno 10763 bound_to 10752
  153.1545  135.4604  154.9682 H   0  0  0  0  0  0  0  0  0  0  0  0  # atno 10764 bound_to 10752
  154.7911  135.3302  154.7720 H   0  0  0  0  0  0  0  0  0  0  0  0  # atno 10765 bound_to 10752
  140.9786  134.0705  157.3791 H   0  0  0  0  0  0  0  0  0  0  0  0  # atno 11005 bound_to 11000
  144.8296  139.5651  143.6950 LP  0  0  0  0  0  0  0  0  0  0  0  0  # atno 17320 bound_to 7965
  146.2695  139.6601  142.9306 LP  0  0  0  0  0  0  0  0  0  0  0  0  # atno 17321 bound_to 7965
  140.7459  143.2882  151.3404 LP  0  0  0  0  0  0  0  0  0  0  0  0  # atno 17342 bound_to 10162
  139.6348  144.0651  152.2507 LP  0  0  0  0  0  0  0  0  0  0  0  0  # atno 17343 bound_to 10162
  157.0206  130.5672  149.5331 LP  0  0  0  0  0  0  0  0  0  0  0  0  # atno 17370 bound_to 10713
  156.0191  130.5286  150.8223 LP  0  0  0  0  0  0  0  0  0  0  0  0  # atno 17371 bound_to 10713
  139.8940  135.0134  156.6931 LP  0  0  0  0  0  0  0  0  0  0  0  0  # atno 17394 bound_to 11000
  140.7221  133.9131  155.8154 LP  0  0  0  0  0  0  0  0  0  0  0  0  # atno 17395 bound_to 11000

$$$$
