#       Name:                AV-unprocessed.smi:276
#       Creating user name   scv26
#       Creation time:       Thu Mar 26 21:35:21 2020


#       File generated by GOLD software.
#

@<TRIPOS>MOLECULE
AV-unprocessed.smi:276
    67    71     1
SMALL
NO_CHARGES


@<TRIPOS>ATOM
      1 ****        -5.4356  -0.2779   4.2526 C.3            1 S1                 0.0000
      2 ****        -4.2867  -0.9767   3.8068 O.3            1 S1                 0.0000
      3 ****        -3.5059  -0.2149   2.8999 C.3            1 S1                 0.0000
      4 ****        -4.0413  -0.1915   1.4630 C.3            1 S1                 0.0000
      5 ****        -2.5895  -0.3395   0.9659 C.3            1 S1                 0.0000
      6 ****        -1.9775   0.9699   0.7003 N.3            1 S1                 0.0000
      7 ****        -2.5751   1.7597  -0.3730 C.3            1 S1                 0.0000
      8 ****        -0.6281   1.0076   0.6220 C.ar           1 S1                 0.0000
      9 ****        -0.0078   2.0407   1.2445 N.ar           1 S1                 0.0000
     10 ****         1.3242   2.1367   1.2158 C.ar           1 S1                 0.0000
     11 ****         2.2066   1.3282   0.6256 N.ar           1 S1                 0.0000
     12 ****         1.5855   0.2992  -0.0187 C.ar           1 S1                 0.0000
     13 ****         0.1825   0.0637  -0.0727 C.ar           1 S1                 0.0000
     14 ****        -0.0745  -1.0818  -0.8165 N.2            1 S1                 0.0000
     15 ****         1.1074  -1.5062  -1.1697 C.2            1 S1                 0.0000
     16 ****         2.1605  -0.7235  -0.7535 N.pl3          1 S1                 0.0000
     17 ****         3.5713  -0.9639  -1.0052 C.3            1 S1                 0.0000
     18 ****         4.2821   0.1685  -1.7843 C.3            1 S1                 0.0000
     19 ****         5.6575  -0.1552  -1.7490 O.3            1 S1                 0.0000
     20 ****         3.8866   0.3134  -3.2724 C.3            1 S1                 0.0000
     21 ****         2.4083   0.5936  -3.5566 C.3            1 S1                 0.0000
     22 ****         2.4200   1.3066  -4.8983 C.3            1 S1                 0.0000
     23 ****         3.8684   1.7692  -5.0544 C.3            1 S1                 0.0000
     24 ****         4.4777   1.4918  -3.8020 O.3            1 S1                 0.0000
     25 ****        -2.2739  -0.9594   2.3546 C.3            1 S1                 0.0000
     26 ****        -2.1783  -2.4899   2.4917 C.3            1 S1                 0.0000
     27 ****        -1.2298  -2.2722   3.6736 C.3            1 S1                 0.0000
     28 ****        -0.9202  -0.8925   3.0879 C.3            1 S1                 0.0000
     29 ****        -6.0001  -0.9045   4.9430 H              1 S1                 0.0000
     30 ****        -6.0911  -0.0187   3.4203 H              1 S1                 0.0000
     31 ****        -5.1588   0.6370   4.7782 H              1 S1                 0.0000
     32 ****        -3.2457   0.7779   3.2735 H              1 S1                 0.0000
     33 ****        -4.6502  -1.0665   1.2290 H              1 S1                 0.0000
     34 ****        -4.5590   0.7286   1.1917 H              1 S1                 0.0000
     35 ****        -2.5099  -1.0457   0.1396 H              1 S1                 0.0000
     36 ****        -1.8535   2.4050  -0.8777 H              1 S1                 0.0000
     37 ****        -3.3578   2.4009   0.0321 H              1 S1                 0.0000
     38 ****        -3.0241   1.1105  -1.1253 H              1 S1                 0.0000
     39 ****         1.7431   2.9822   1.7412 H              1 S1                 0.0000
     40 ****         1.2422  -2.4006  -1.7603 H              1 S1                 0.0000
     41 ****         4.0483  -1.1005  -0.0334 H              1 S1                 0.0000
     42 ****         3.6773  -1.9110  -1.5362 H              1 S1                 0.0000
     43 ****         4.1477   1.1199  -1.2698 H              1 S1                 0.0000
     44 ****         5.7884  -0.9650  -2.2178 H              1 S1                 0.0000
     45 ****         4.2144  -0.5536  -3.8497 H              1 S1                 0.0000
     46 ****         1.8022  -0.3114  -3.5794 H              1 S1                 0.0000
     47 ****         1.9979   1.2614  -2.7980 H              1 S1                 0.0000
     48 ****         2.1448   0.6322  -5.7097 H              1 S1                 0.0000
     49 ****         1.7211   2.1435  -4.9037 H              1 S1                 0.0000
     50 ****         4.3725   1.1989  -5.8355 H              1 S1                 0.0000
     51 ****         3.9460   2.8284  -5.3000 H              1 S1                 0.0000
     52 ****        -3.1091  -3.0012   2.7378 H              1 S1                 0.0000
     53 ****        -1.6822  -2.9559   1.6385 H              1 S1                 0.0000
     54 ****        -1.7516  -2.2189   4.6306 H              1 S1                 0.0000
     55 ****        -0.3808  -2.9553   3.7105 H              1 S1                 0.0000
     56 ****        -0.0516  -0.9317   2.4317 H              1 S1                 0.0000
     57 ****        -0.8338  -0.0923   3.8232 H              1 S1                 0.0000
     58 ****        -4.5793  -1.8171   3.3506 LP             1 S1                 0.0000
     59 ****        -3.7233  -1.2069   4.6002 LP             1 S1                 0.0000
     60 ****        -2.2192   1.4221   1.5588 LP             1 S1                 0.0000
     61 ****        -0.5482   2.7312   1.7254 LP             1 S1                 0.0000
     62 ****         3.1975   1.4602   0.6523 LP             1 S1                 0.0000
     63 ****        -0.9626  -1.4879  -1.0318 LP             1 S1                 0.0000
     64 ****         5.9539  -0.2634  -0.8001 LP             1 S1                 0.0000
     65 ****         6.1866   0.5744  -2.1824 LP             1 S1                 0.0000
     66 ****         5.4598   1.3512  -3.9271 LP             1 S1                 0.0000
     67 ****         4.3276   2.2568  -3.1757 LP             1 S1                 0.0000
@<TRIPOS>BOND
    1    1    2 1     
    2    1   29 1     
    3    1   30 1     
    4    1   31 1     
    5    2    3 1     
    6    3   25 1     
    7    3    4 1     
    8    3   32 1     
    9    4    5 1     
   10    4   33 1     
   11    4   34 1     
   12    5    6 1     
   13    5   25 1     
   14    5   35 1     
   15    6    7 1     
   16    6    8 1     
   17    7   36 1     
   18    7   37 1     
   19    7   38 1     
   20    8   13 ar    
   21    8    9 ar    
   22    9   10 ar    
   23   10   11 ar    
   24   10   39 1     
   25   11   12 ar    
   26   12   16 1     
   27   12   13 ar    
   28   13   14 1     
   29   14   15 2     
   30   15   16 1     
   31   15   40 1     
   32   16   17 1     
   33   17   18 1     
   34   17   41 1     
   35   17   42 1     
   36   18   19 1     
   37   18   20 1     
   38   18   43 1     
   39   19   44 1     
   40   20   24 1     
   41   20   21 1     
   42   20   45 1     
   43   21   22 1     
   44   21   46 1     
   45   21   47 1     
   46   22   23 1     
   47   22   48 1     
   48   22   49 1     
   49   23   24 1     
   50   23   50 1     
   51   23   51 1     
   52   25   28 1     
   53   25   26 1     
   54   26   27 1     
   55   26   52 1     
   56   26   53 1     
   57   27   28 1     
   58   27   54 1     
   59   27   55 1     
   60   28   56 1     
   61   28   57 1     
   62    2   58 1     
   63    2   59 1     
   64    6   60 1     
   65    9   61 1     
   66   11   62 1     
   67   14   63 1     
   68   19   64 1     
   69   19   65 1     
   70   24   66 1     
   71   24   67 1     
@<TRIPOS>SUBSTRUCTURE
      1 S1             1
@<TRIPOS>SET
LONE_PAIRS      STATIC     ATOMS    <user>   **** ""
10 58 59 60 61 62 63 64 65 66 67
DONOR_HYDROGENS      STATIC     ATOMS    <user>   **** ""
1 44
ATOM$BLUE        STATIC     ATOMS    COLORGROUP SYSTEM
10 58 59 60 61 62 63 64 65 66 67
ATOM$RED        STATIC     ATOMS    COLORGROUP SYSTEM
1 44
