AV-unprocessed.smi:3016|AV-procd|sdf|11474|dock1
  -GOLD-   2272016413D 1   1.00000     0.00000
 Structure written by MMmdl.
 34 35  0  0  0  0  0  0  0  0  1 V2000
  154.5230  141.0185  160.2766 C   0  0  0  0  0  0  0  0  0  0  0  0
  153.3830  141.4939  161.1842 C   0  0  0  0  0  0  0  0  0  0  0  0
  152.5981  142.5478  160.5575 N   0  0  0  0  0  0  0  0  0  0  0  0
  152.5600  143.8326  161.0890 C   0  0  0  0  0  0  0  0  0  0  0  0
  151.8930  144.8607  160.5302 C   0  0  0  0  0  0  0  0  0  0  0  0
  151.1511  144.6435  159.2720 C   0  0  0  0  0  0  0  0  0  0  0  0
  150.5267  145.5600  158.7372 O   0  0  0  0  0  0  0  0  0  0  0  0
  151.2010  143.2730  158.6966 C   0  0  0  0  0  0  0  0  0  0  0  0
  150.4928  143.0788  157.4986 N   0  0  0  0  0  0  0  0  0  0  0  0
  150.2804  141.9470  156.8022 C   0  0  0  0  0  0  0  0  0  0  0  0
  150.6959  140.8269  157.0974 O   0  0  0  0  0  0  0  0  0  0  0  0
  149.5434  142.1917  155.7096 N   0  0  0  0  0  0  0  0  0  0  0  0
  149.1482  141.1910  154.7270 C   0  0  0  0  0  0  0  0  0  0  0  0
  147.6553  140.9371  154.6415 C   0  0  0  0  0  0  0  0  0  0  0  0
  146.9847  140.7809  153.2967 C   0  0  0  0  0  0  0  0  0  0  0  0
  146.7066  142.0013  154.1399 C   0  0  0  0  0  0  0  0  0  0  0  0
  151.9105  142.3277  159.3654 C   0  0  0  0  0  0  0  0  0  0  0  0
  155.1003  140.2304  160.7599 H   0  0  0  0  0  0  0  0  0  0  0  0
  155.2059  141.8355  160.0415 H   0  0  0  0  0  0  0  0  0  0  0  0
  154.1385  140.6208  159.3369 H   0  0  0  0  0  0  0  0  0  0  0  0
  152.7330  140.6540  161.4325 H   0  0  0  0  0  0  0  0  0  0  0  0
  153.7884  141.8559  162.1298 H   0  0  0  0  0  0  0  0  0  0  0  0
  153.1131  143.9504  162.0096 H   0  0  0  0  0  0  0  0  0  0  0  0
  151.8892  145.8421  160.9811 H   0  0  0  0  0  0  0  0  0  0  0  0
  150.0968  143.9221  157.1097 H   0  0  0  0  0  0  0  0  0  0  0  0
  149.2429  143.1404  155.5394 H   0  0  0  0  0  0  0  0  0  0  0  0
  149.5335  141.4592  153.7416 H   0  0  0  0  0  0  0  0  0  0  0  0
  149.6353  140.2547  154.9990 H   0  0  0  0  0  0  0  0  0  0  0  0
  147.2769  140.2869  155.4283 H   0  0  0  0  0  0  0  0  0  0  0  0
  147.5950  140.9165  152.4059 H   0  0  0  0  0  0  0  0  0  0  0  0
  146.1953  140.0368  153.2122 H   0  0  0  0  0  0  0  0  0  0  0  0
  145.7333  142.0714  154.6210 H   0  0  0  0  0  0  0  0  0  0  0  0
  147.1327  142.9473  153.8111 H   0  0  0  0  0  0  0  0  0  0  0  0
  151.9938  141.3068  159.0297 H   0  0  0  0  0  0  0  0  0  0  0  0
  1  2  1  0  0  0  0
  1 18  1  0  0  0  0
  1 19  1  0  0  0  0
  1 20  1  0  0  0  0
  2  3  1  0  0  0  0
  2 21  1  0  0  0  0
  2 22  1  0  0  0  0
  3 17  1  0  0  0  0
  3  4  1  0  0  0  0
  4  5  2  0  0  0  0
  4 23  1  0  0  0  0
  5  6  1  0  0  0  0
  5 24  1  0  0  0  0
  6  7  2  0  0  0  0
  6  8  1  0  0  0  0
  8  9  1  0  0  0  0
  8 17  2  0  0  0  0
  9 10  1  0  0  0  0
  9 25  1  0  0  0  0
 10 11  2  0  0  0  0
 10 12  1  0  0  0  0
 12 13  1  0  0  0  0
 12 26  1  0  0  0  0
 13 14  1  0  0  0  0
 13 27  1  0  0  0  0
 13 28  1  0  0  0  0
 14 16  1  0  0  0  0
 14 15  1  0  0  0  0
 14 29  1  0  0  0  0
 15 16  1  0  0  0  0
 15 30  1  0  0  0  0
 15 31  1  0  0  0  0
 16 32  1  0  0  0  0
 16 33  1  0  0  0  0
 17 34  1  0  0  0  0
M  END
> <s_m_source_file>
AV-unprocessed.smi

> <i_m_source_file_index>
3016

> <i_lp_mmshare_version>
43012

> <i_f3d_flags>
0

> <s_epik_input>
W0NIM11bQ0gyXW4xW2NIXVtjSF1jKD1PKWMoW2NIXTEpW05IXUMoPU8pW05IXVtDSDJdW0NIXTJbQ0gyXVtDSDJdMg==

> <s_epik_cmdline>
J2VwaWtfcHl0aG9uJywgJy1waCcsICc3LjAnLCAnLXRuJywgJzgnLCAnLW1hJywgJzIwMCcsICctbWV0YWxfYmluZGluZycsICctaW1hZScsICc8aW5maWxlLm1hZT4nLCAnLW9tYWUnLCAnPG91dGZpbGUubWFlPic=

> <r_lp_tautomer_probability>
1

> <r_epik_Ionization_Penalty>
0.00140323

> <r_epik_Ionization_Penalty_Charging>
0.00138172

> <r_epik_Ionization_Penalty_Neutral>
2.15082e-05

> <r_epik_State_Penalty>
0.000920559

> <r_epik_Charging_Adjusted_Penalty>
0.00230228

> <i_epik_Tot_Q>
0

> <i_epik_Tot_abs_Q>
0

> <r_epik_Metal_State_Penalty>
-0

> <b_epik_Metal_Only>
0

> <s_lp_Force_Field>
OPLS_2005

> <r_lp_Energy>
6.69626

> <b_lp_Chiralities_Consistent>
1

> <s_lp_Variant>
AV-unprocessed.smi:3016-1

> <Gold.Version>
5.8.1

> <Gold.Id.Protein>
6NUR|6NUR_protein|mol2

> <Gold.PLP.Fitness>
46.9457

> <Gold.PLP.PLP>
-41.2757

> <Gold.PLP.part.hbond>
-3.2207

> <Gold.PLP.part.metal>
0.0000

> <Gold.PLP.part.buried>
-5.3157

> <Gold.PLP.part.nonpolar>
-35.0737

> <Gold.PLP.part.repulsive>
1.0108

> <Gold.PLP.ligand.clash>
0.0000

> <Gold.PLP.ligand.torsion>
0.3405

> <Gold.PLP.Chemscore.Hbond>
1.9357

> <Gold.PLP.Chemscore.CHOScore>
0.0000

> <Gold.PLP.Chemscore.Metal>
0.0000

> <Gold.Chemscore.Hbonds>
donor molecule, donor type, donor heavy atom, donor atom, acceptor molecule, acceptor atom, score
      L1  H     9    25       P1  8028  0.94
      L1  H    12    26       P1  8028  1.00

> <Gold.PLP.Chemscore.Internal.Correction>
0.5437

> <Gold.Rescore>
     Score         DG    S(hbond)    S(metal)    S(lipo)     H(rot)  DE(clash)    DE(int)     intcor
     17.08     -18.62       1.80        0.00      90.54       1.36       0.10       1.45       ----

> <Gold.Chemscore.Fitness>
17.0754

> <Gold.Chemscore.DG>
-18.6246

> <Gold.Chemscore.ZeroCoef>
-5.4800

> <Gold.Chemscore.Hbond>
1.8040

> <Gold.Chemscore.Metal>
0.0000

> <Gold.Chemscore.Lipo>
90.5383

> <Gold.Chemscore.Internal_Hbond>
0.0000

> <Gold.Chemscore.DEClash>
0.0994

> <Gold.Chemscore.DEInternal>
1.4498

> <Gold.Chemscore.Rot>
1.3569

> <Gold.Chemscore.Internal.Correction>
   9.000000E+99

> <Gold.Chemscore.Hbonds>
donor molecule, donor type, donor heavy atom, donor atom, acceptor molecule, acceptor atom, score
      L1  H     9    25       P1  8028  0.79
      L1  H    12    26       P1  8028  0.99

> <Gold.Chemscore.Hbond.Weighted>
-6.0254

> <Gold.Chemscore.Metal.Weighted>
-0.0000

> <Gold.Chemscore.Lipo.Weighted>
-10.5930

> <Gold.Chemscore.Internal_Hbond.Weighted>
0.0000

> <Gold.Chemscore.DEClash.Weighted>
0.0994

> <Gold.Chemscore.DEInternal.Weighted>
1.4498

> <Gold.Chemscore.Rot.Weighted>
3.4737

> <Gold.Chemscore.Internal.Correction.Weighted>
   9.000000E+99

> <Gold.Protein.RotatedTorsions>
[ 6907 6896 6895 6894 ] final  -42.49 input  -60.11 | X-H torsion
[ 7974 7965 7964 7962 ] final  -85.24 input  175.53 | X-H torsion
[ 8008 7997 7996 7995 ] final   45.11 input   59.86 | X-H torsion
[ 10167 10162 10161 10158 ] final  -96.75 input  -65.29 | X-H torsion
[ 10718 10713 10712 10709 ] final   -5.16 input   66.30 | X-H torsion
[ 10763 10752 10751 10750 ] final  -77.69 input  -60.55 | X-H torsion
[ 11005 11000 10999 10996 ] final  -23.03 input  -57.11 | X-H torsion

> <Gold.Protein.ActiveResidues>
 VAL166  LYS551  ARG553  GLY616  TRP617  ASP618  TYR619  PRO620  LYS621  CYS622 
 ASP623  PHE694  ASN695  SER759  ASP760  ASP761  ALA762  ILE779  LEU786  VAL792 
 PHE793  MET794  SER795  GLU796  ALA797  LYS798  CYS799  TRP800  GLU811  SER814 

> <Gold.Protein.RotatedAtoms>
  150.9547  134.8942  159.7693 H   0  0  0  0  0  0  0  0  0  0  0  0  # atno 6907 bound_to 6896
  152.5133  134.3757  159.9344 H   0  0  0  0  0  0  0  0  0  0  0  0  # atno 6908 bound_to 6896
  151.3772  133.3793  159.2741 H   0  0  0  0  0  0  0  0  0  0  0  0  # atno 6909 bound_to 6896
  145.4958  140.9550  143.1787 H   0  0  0  0  0  0  0  0  0  0  0  0  # atno 7974 bound_to 7965
  155.3305  140.3402  155.4239 H   0  0  0  0  0  0  0  0  0  0  0  0  # atno 8008 bound_to 7997
  156.1864  140.1682  156.8214 H   0  0  0  0  0  0  0  0  0  0  0  0  # atno 8009 bound_to 7997
  154.5391  140.0729  156.8462 H   0  0  0  0  0  0  0  0  0  0  0  0  # atno 8010 bound_to 7997
  140.2905  143.3224  152.0350 H   0  0  0  0  0  0  0  0  0  0  0  0  # atno 10167 bound_to 10162
  156.7506  130.5238  149.5805 H   0  0  0  0  0  0  0  0  0  0  0  0  # atno 10718 bound_to 10713
  154.5162  135.5755  153.6644 H   0  0  0  0  0  0  0  0  0  0  0  0  # atno 10763 bound_to 10752
  152.9907  135.6170  154.2815 H   0  0  0  0  0  0  0  0  0  0  0  0  # atno 10764 bound_to 10752
  154.2732  135.2853  155.2708 H   0  0  0  0  0  0  0  0  0  0  0  0  # atno 10765 bound_to 10752
  140.8713  133.7719  156.0190 H   0  0  0  0  0  0  0  0  0  0  0  0  # atno 11005 bound_to 11000
  144.7808  139.6531  143.7155 LP  0  0  0  0  0  0  0  0  0  0  0  0  # atno 17320 bound_to 7965
  146.2256  139.5716  142.9589 LP  0  0  0  0  0  0  0  0  0  0  0  0  # atno 17321 bound_to 7965
  139.4939  144.6528  151.6638 LP  0  0  0  0  0  0  0  0  0  0  0  0  # atno 17342 bound_to 10162
  140.5736  144.0067  150.6230 LP  0  0  0  0  0  0  0  0  0  0  0  0  # atno 17343 bound_to 10162
  156.1404  130.6240  151.0458 LP  0  0  0  0  0  0  0  0  0  0  0  0  # atno 17370 bound_to 10713
  157.6778  131.0846  150.7448 LP  0  0  0  0  0  0  0  0  0  0  0  0  # atno 17371 bound_to 10713
  140.8570  134.2886  157.5251 LP  0  0  0  0  0  0  0  0  0  0  0  0  # atno 17394 bound_to 11000
  139.8712  134.9498  156.4036 LP  0  0  0  0  0  0  0  0  0  0  0  0  # atno 17395 bound_to 11000

$$$$
