AV-unprocessed.smi:2948|AV-procd|sdf|11283|dock6
  -GOLD-   2272016173D 1   1.00000     0.00000
 Structure written by MMmdl.
 32 33  0  0  0  0  0  0  0  0  1 V2000
  148.3749  140.2109  154.1466 C   0  0  0  0  0  0  0  0  0  0  0  0
  149.6547  139.4553  154.5106 C   0  0  0  0  0  0  0  0  0  0  0  0
  150.5749  140.3701  155.0781 O   0  0  0  0  0  0  0  0  0  0  0  0
  150.0707  141.0233  156.2313 C   0  0  0  0  0  0  0  0  0  0  0  0
  151.0542  142.1121  156.6851 C   0  0  0  0  0  0  0  0  0  0  0  0
  151.5752  141.8562  158.0211 N   0  0  0  0  0  0  0  0  0  0  0  0
  152.0550  140.6965  158.5437 C   0  0  0  0  0  0  0  0  0  0  0  0
  152.1241  139.4142  157.7633 C   0  0  0  0  0  0  0  0  0  0  0  0
  153.4396  138.9165  157.6347 O   0  0  0  0  0  0  0  0  0  0  0  0
  152.4581  140.7620  159.8145 N   0  0  0  0  0  0  0  0  0  0  0  0
  152.2376  142.0847  160.1403 C   0  0  0  0  0  0  0  0  0  0  0  0
  152.4702  142.7847  161.3460 C   0  0  0  0  0  0  0  0  0  0  0  0
  152.1626  144.1574  161.4449 C   0  0  0  0  0  0  0  0  0  0  0  0
  151.6190  144.8480  160.3425 C   0  0  0  0  0  0  0  0  0  0  0  0
  151.3792  144.1690  159.1323 C   0  0  0  0  0  0  0  0  0  0  0  0
  151.6873  142.7983  159.0391 C   0  0  0  0  0  0  0  0  0  0  0  0
  147.6369  139.5394  153.7076 H   0  0  0  0  0  0  0  0  0  0  0  0
  148.5794  141.0024  153.4252 H   0  0  0  0  0  0  0  0  0  0  0  0
  147.9279  140.6696  155.0291 H   0  0  0  0  0  0  0  0  0  0  0  0
  149.4269  138.6585  155.2203 H   0  0  0  0  0  0  0  0  0  0  0  0
  150.0833  138.9945  153.6195 H   0  0  0  0  0  0  0  0  0  0  0  0
  149.1003  141.4709  156.0100 H   0  0  0  0  0  0  0  0  0  0  0  0
  149.9209  140.3016  157.0353 H   0  0  0  0  0  0  0  0  0  0  0  0
  151.8931  142.1619  155.9901 H   0  0  0  0  0  0  0  0  0  0  0  0
  150.5878  143.0960  156.6544 H   0  0  0  0  0  0  0  0  0  0  0  0
  151.5092  138.6665  158.2646 H   0  0  0  0  0  0  0  0  0  0  0  0
  151.7240  139.5371  156.7592 H   0  0  0  0  0  0  0  0  0  0  0  0
  153.4607  138.0344  157.9723 H   0  0  0  0  0  0  0  0  0  0  0  0
  152.8874  142.2646  162.1954 H   0  0  0  0  0  0  0  0  0  0  0  0
  152.3456  144.6826  162.3707 H   0  0  0  0  0  0  0  0  0  0  0  0
  151.3871  145.8996  160.4263 H   0  0  0  0  0  0  0  0  0  0  0  0
  150.9646  144.6958  158.2859 H   0  0  0  0  0  0  0  0  0  0  0  0
  1  2  1  0  0  0  0
  1 17  1  0  0  0  0
  1 18  1  0  0  0  0
  1 19  1  0  0  0  0
  2  3  1  0  0  0  0
  2 20  1  0  0  0  0
  2 21  1  0  0  0  0
  3  4  1  0  0  0  0
  4  5  1  0  0  0  0
  4 22  1  0  0  0  0
  4 23  1  0  0  0  0
  5  6  1  0  0  0  0
  5 24  1  0  0  0  0
  5 25  1  0  0  0  0
  6 16  1  0  0  0  0
  6  7  1  0  0  0  0
  7  8  1  0  0  0  0
  7 10  2  0  0  0  0
  8  9  1  0  0  0  0
  8 26  1  0  0  0  0
  8 27  1  0  0  0  0
  9 28  1  0  0  0  0
 10 11  1  0  0  0  0
 11 16  2  0  0  0  0
 11 12  1  0  0  0  0
 12 13  2  0  0  0  0
 12 29  1  0  0  0  0
 13 14  1  0  0  0  0
 13 30  1  0  0  0  0
 14 15  2  0  0  0  0
 14 31  1  0  0  0  0
 15 16  1  0  0  0  0
 15 32  1  0  0  0  0
M  END
> <s_m_source_file>
AV-unprocessed.smi

> <i_m_source_file_index>
2948

> <i_lp_mmshare_version>
43012

> <i_f3d_flags>
0

> <s_epik_input>
W0NIM11bQ0gyXU9bQ0gyXVtDSDJdbihjKG4xKVtDSDJdW09IXSljKGMxMilbY0hdW2NIXVtjSF1bY0hdMg==

> <s_epik_cmdline>
J2VwaWtfcHl0aG9uJywgJy1waCcsICc3LjAnLCAnLXRuJywgJzgnLCAnLW1hJywgJzIwMCcsICctbWV0YWxfYmluZGluZycsICctaW1hZScsICc8aW5maWxlLm1hZT4nLCAnLW9tYWUnLCAnPG91dGZpbGUubWFlPic=

> <r_epik_Ionization_Penalty>
0.0599051

> <r_epik_Ionization_Penalty_Charging>
0

> <r_epik_Ionization_Penalty_Neutral>
0.0599051

> <r_epik_State_Penalty>
0.0518308

> <r_epik_Charging_Adjusted_Penalty>
0.0518308

> <i_epik_Tot_Q>
0

> <i_epik_Tot_abs_Q>
0

> <r_epik_Metal_State_Penalty>
5.4163e-05

> <b_epik_Metal_Only>
0

> <s_lp_Force_Field>
OPLS_2005

> <r_lp_Energy>
7.3767

> <b_lp_Chiralities_Consistent>
1

> <s_lp_Variant>
AV-unprocessed.smi:2948-1

> <Gold.Version>
5.8.1

> <Gold.Id.Protein>
6NUR|6NUR_protein|mol2

> <Gold.PLP.Fitness>
43.7056

> <Gold.PLP.PLP>
-38.9182

> <Gold.PLP.part.hbond>
-2.0000

> <Gold.PLP.part.metal>
0.0000

> <Gold.PLP.part.buried>
-5.5038

> <Gold.PLP.part.nonpolar>
-32.1217

> <Gold.PLP.part.repulsive>
0.0790

> <Gold.PLP.ligand.clash>
0.0000

> <Gold.PLP.ligand.torsion>
0.5607

> <Gold.PLP.Chemscore.Hbond>
1.9600

> <Gold.PLP.Chemscore.CHOScore>
0.0000

> <Gold.PLP.Chemscore.Metal>
0.0000

> <Gold.Chemscore.Hbonds>
donor molecule, donor type, donor heavy atom, donor atom, acceptor molecule, acceptor atom, score
      P1  H  7989  7998       L1     3  1.00
      P1  H  7997  8008       L1     9  0.93

> <Gold.PLP.Chemscore.Internal.Correction>
0.0287

> <Gold.Rescore>
     Score         DG    S(hbond)    S(metal)    S(lipo)     H(rot)  DE(clash)    DE(int)     intcor
     15.57     -17.35       1.73        0.00     100.85       2.22       0.17       1.61       ----

> <Gold.Chemscore.Fitness>
15.5737

> <Gold.Chemscore.DG>
-17.3545

> <Gold.Chemscore.ZeroCoef>
-5.4800

> <Gold.Chemscore.Hbond>
1.7257

> <Gold.Chemscore.Metal>
0.0000

> <Gold.Chemscore.Lipo>
100.8487

> <Gold.Chemscore.Internal_Hbond>
0.0000

> <Gold.Chemscore.DEClash>
0.1694

> <Gold.Chemscore.DEInternal>
1.6114

> <Gold.Chemscore.Rot>
2.2221

> <Gold.Chemscore.Internal.Correction>
   9.000000E+99

> <Gold.Chemscore.Hbonds>
donor molecule, donor type, donor heavy atom, donor atom, acceptor molecule, acceptor atom, score
      P1  H  7989  7998       L1     3  0.29
      P1  H  7997  8008       L1     9  0.64

> <Gold.Chemscore.Hbond.Weighted>
-5.7637

> <Gold.Chemscore.Metal.Weighted>
-0.0000

> <Gold.Chemscore.Lipo.Weighted>
-11.7993

> <Gold.Chemscore.Internal_Hbond.Weighted>
0.0000

> <Gold.Chemscore.DEClash.Weighted>
0.1694

> <Gold.Chemscore.DEInternal.Weighted>
1.6114

> <Gold.Chemscore.Rot.Weighted>
5.6886

> <Gold.Chemscore.Internal.Correction.Weighted>
   9.000000E+99

> <Gold.Protein.RotatedTorsions>
[ 6907 6896 6895 6894 ] final   42.08 input  -60.11 | X-H torsion
[ 7974 7965 7964 7962 ] final   71.47 input  175.53 | X-H torsion
[ 8008 7997 7996 7995 ] final  -58.18 input   59.86 | X-H torsion
[ 10167 10162 10161 10158 ] final  -53.94 input  -65.29 | X-H torsion
[ 10718 10713 10712 10709 ] final  -30.19 input   66.30 | X-H torsion
[ 10763 10752 10751 10750 ] final    2.74 input  -60.55 | X-H torsion
[ 11005 11000 10999 10996 ] final -106.35 input  -57.11 | X-H torsion

> <Gold.Protein.ActiveResidues>
 VAL166  LYS551  ARG553  GLY616  TRP617  ASP618  TYR619  PRO620  LYS621  CYS622 
 ASP623  PHE694  ASN695  SER759  ASP760  ASP761  ALA762  ILE779  LEU786  VAL792 
 PHE793  MET794  SER795  GLU796  ALA797  LYS798  CYS799  TRP800  GLU811  SER814 

> <Gold.Protein.RotatedAtoms>
  152.2034  134.8567  160.0505 H   0  0  0  0  0  0  0  0  0  0  0  0  # atno 6907 bound_to 6896
  151.9413  133.3633  159.3974 H   0  0  0  0  0  0  0  0  0  0  0  0  # atno 6908 bound_to 6896
  150.6959  134.4361  159.5314 H   0  0  0  0  0  0  0  0  0  0  0  0  # atno 6909 bound_to 6896
  145.7654  139.2819  143.1352 H   0  0  0  0  0  0  0  0  0  0  0  0  # atno 7974 bound_to 7965
  154.4298  140.1090  156.5916 H   0  0  0  0  0  0  0  0  0  0  0  0  # atno 8008 bound_to 7997
  155.6006  140.3493  155.4574 H   0  0  0  0  0  0  0  0  0  0  0  0  # atno 8009 bound_to 7997
  156.0176  140.1232  157.0380 H   0  0  0  0  0  0  0  0  0  0  0  0  # atno 8010 bound_to 7997
  140.6457  143.2534  151.4865 H   0  0  0  0  0  0  0  0  0  0  0  0  # atno 10167 bound_to 10162
  156.4029  130.4393  149.7309 H   0  0  0  0  0  0  0  0  0  0  0  0  # atno 10718 bound_to 10713
  153.2918  135.6949  153.7286 H   0  0  0  0  0  0  0  0  0  0  0  0  # atno 10763 bound_to 10752
  153.6233  135.3423  155.3019 H   0  0  0  0  0  0  0  0  0  0  0  0  # atno 10764 bound_to 10752
  154.8526  135.4391  154.2003 H   0  0  0  0  0  0  0  0  0  0  0  0  # atno 10765 bound_to 10752
  141.1009  133.8886  157.1846 H   0  0  0  0  0  0  0  0  0  0  0  0  # atno 11005 bound_to 11000
  146.0223  140.8336  142.9917 LP  0  0  0  0  0  0  0  0  0  0  0  0  # atno 17320 bound_to 7965
  144.6822  140.2647  143.7314 LP  0  0  0  0  0  0  0  0  0  0  0  0  # atno 17321 bound_to 7965
  139.5668  144.2023  152.1777 LP  0  0  0  0  0  0  0  0  0  0  0  0  # atno 17342 bound_to 10162
  140.1307  144.5290  150.6804 LP  0  0  0  0  0  0  0  0  0  0  0  0  # atno 17343 bound_to 10162
  156.4317  130.7818  151.2838 LP  0  0  0  0  0  0  0  0  0  0  0  0  # atno 17370 bound_to 10713
  157.7504  131.0152  150.3494 LP  0  0  0  0  0  0  0  0  0  0  0  0  # atno 17371 bound_to 10713
  139.9860  135.0082  156.9863 LP  0  0  0  0  0  0  0  0  0  0  0  0  # atno 17394 bound_to 11000
  140.5025  134.1083  155.7253 LP  0  0  0  0  0  0  0  0  0  0  0  0  # atno 17395 bound_to 11000

$$$$
