AV-unprocessed.smi:3032|AV-procd|sdf|11563|dock3
  -GOLD-   2272016533D 1   1.00000     0.00000
 Structure written by MMmdl.
 37 38  0  0  0  0  0  0  0  0  1 V2000
  152.8009  143.2030  162.4093 C   0  0  0  0  0  0  0  0  0  0  0  0
  152.8036  143.4622  160.8961 C   0  0  2  0  0  0  0  0  0  0  0  0
  151.9540  144.6960  160.5347 C   0  0  0  0  0  0  0  0  0  0  0  0
  151.9489  144.9540  159.0197 C   0  0  0  0  0  0  0  0  0  0  0  0
  151.4709  143.7158  158.2459 C   0  0  0  0  0  0  0  0  0  0  0  0
  152.3269  142.4793  158.5886 C   0  0  2  0  0  0  0  0  0  0  0  0
  151.8334  141.2473  157.8189 C   0  0  0  0  0  0  0  0  0  0  0  0
  150.8472  141.3247  157.0854 O   0  0  0  0  0  0  0  0  0  0  0  0
  152.5375  140.1176  157.9860 N   0  0  0  0  0  0  0  0  0  0  0  0
  152.2767  138.8570  157.2982 C   0  0  0  0  0  0  0  0  0  0  0  0
  152.4944  138.9481  155.7741 C   0  0  0  0  0  0  0  0  0  0  0  0
  151.2329  138.8243  154.9793 C   0  0  0  0  0  0  0  0  0  0  0  0
  150.7177  137.6283  154.6889 N   0  0  0  0  0  0  0  0  0  0  0  0
  149.6382  137.9578  153.9473 N   0  0  0  0  0  0  0  0  0  0  0  0
  149.5829  139.2838  153.8354 C   0  0  0  0  0  0  0  0  0  0  0  0
  150.5714  139.9063  154.4631 N   0  0  0  0  0  0  0  0  0  0  0  0
  152.3190  142.2267  160.1117 C   0  0  0  0  0  0  0  0  0  0  0  0
  151.7949  142.9923  162.7739 H   0  0  0  0  0  0  0  0  0  0  0  0
  153.1791  144.0670  162.9563 H   0  0  0  0  0  0  0  0  0  0  0  0
  153.4321  142.3511  162.6629 H   0  0  0  0  0  0  0  0  0  0  0  0
  153.8339  143.6651  160.6003 H   0  0  0  0  0  0  0  0  0  0  0  0
  150.9294  144.5524  160.8810 H   0  0  0  0  0  0  0  0  0  0  0  0
  152.3339  145.5768  161.0537 H   0  0  0  0  0  0  0  0  0  0  0  0
  151.3076  145.8056  158.7906 H   0  0  0  0  0  0  0  0  0  0  0  0
  152.9527  145.2260  158.6909 H   0  0  0  0  0  0  0  0  0  0  0  0
  150.4227  143.5263  158.4828 H   0  0  0  0  0  0  0  0  0  0  0  0
  151.5136  143.9171  157.1745 H   0  0  0  0  0  0  0  0  0  0  0  0
  153.3553  142.6838  158.2844 H   0  0  0  0  0  0  0  0  0  0  0  0
  153.3333  140.1424  158.6072 H   0  0  0  0  0  0  0  0  0  0  0  0
  152.9527  138.1106  157.7160 H   0  0  0  0  0  0  0  0  0  0  0  0
  151.2650  138.5118  157.5166 H   0  0  0  0  0  0  0  0  0  0  0  0
  152.9771  139.8952  155.5300 H   0  0  0  0  0  0  0  0  0  0  0  0
  153.1863  138.1684  155.4533 H   0  0  0  0  0  0  0  0  0  0  0  0
  148.8113  139.8014  153.2849 H   0  0  0  0  0  0  0  0  0  0  0  0
  152.9551  141.3718  160.3465 H   0  0  0  0  0  0  0  0  0  0  0  0
  151.3134  141.9611  160.4424 H   0  0  0  0  0  0  0  0  0  0  0  0
  149.0039  137.2758  153.5567 H   0  0  0  0  0  0  0  0  0  0  0  0
  1  2  1  0  0  0  0
  1 18  1  0  0  0  0
  1 19  1  0  0  0  0
  1 20  1  0  0  0  0
  2 17  1  0  0  0  0
  2  3  1  0  0  0  0
  2 21  1  0  0  0  0
  3  4  1  0  0  0  0
  3 22  1  0  0  0  0
  3 23  1  0  0  0  0
  4  5  1  0  0  0  0
  4 24  1  0  0  0  0
  4 25  1  0  0  0  0
  5  6  1  0  0  0  0
  5 26  1  0  0  0  0
  5 27  1  0  0  0  0
  6  7  1  0  0  0  0
  6 17  1  0  0  0  0
  6 28  1  0  0  0  0
  7  8  2  0  0  0  0
  7  9  1  0  0  0  0
  9 10  1  0  0  0  0
  9 29  1  0  0  0  0
 10 11  1  0  0  0  0
 10 30  1  0  0  0  0
 10 31  1  0  0  0  0
 11 32  1  0  0  0  0
 11 33  1  0  0  0  0
 11 12  1  0  0  0  0
 12 16  1  0  0  0  0
 12 13  2  0  0  0  0
 13 14  1  0  0  0  0
 14 15  1  0  0  0  0
 14 37  1  0  0  0  0
 15 16  2  0  0  0  0
 15 34  1  0  0  0  0
 17 35  1  0  0  0  0
 17 36  1  0  0  0  0
M  END
> <s_m_source_file>
AV-unprocessed.smi

> <i_m_source_file_index>
3032

> <i_lp_mmshare_version>
43012

> <i_f3d_flags>
0

> <s_epik_input>
W0NIM11bQ0BASF0xW0NIMl1bQ0gyXVtDSDJdW0NASF0oW0NIMl0xKUMoPU8pW05IXVtDSDJdW0NIMl1jMm5uW2NIXVtuSF0y

> <s_epik_cmdline>
J2VwaWtfcHl0aG9uJywgJy1waCcsICc3LjAnLCAnLXRuJywgJzgnLCAnLW1hJywgJzIwMCcsICctbWV0YWxfYmluZGluZycsICctaW1hZScsICc8aW5maWxlLm1hZT4nLCAnLW9tYWUnLCAnPG91dGZpbGUubWFlPic=

> <r_epik_Ionization_Penalty>
0.000752022

> <r_epik_Ionization_Penalty_Charging>
0

> <r_epik_Ionization_Penalty_Neutral>
0.000752022

> <r_epik_State_Penalty>
0.639926

> <r_epik_Charging_Adjusted_Penalty>
0.639926

> <i_epik_Tot_Q>
0

> <i_epik_Tot_abs_Q>
0

> <r_epik_Metal_State_Penalty>
0.76532

> <b_epik_Metal_Only>
0

> <s_lp_Force_Field>
OPLS_2005

> <r_lp_Energy>
8.90132

> <b_lp_Chiralities_Consistent>
1

> <s_lp_Variant>
AV-unprocessed.smi:3032-7

> <Gold.Version>
5.8.1

> <Gold.Id.Protein>
6NUR|6NUR_protein|mol2

> <Gold.PLP.Fitness>
43.7050

> <Gold.PLP.PLP>
-38.2666

> <Gold.PLP.part.hbond>
-2.0000

> <Gold.PLP.part.metal>
0.0000

> <Gold.PLP.part.buried>
-2.8763

> <Gold.PLP.part.nonpolar>
-33.6691

> <Gold.PLP.part.repulsive>
0.4987

> <Gold.PLP.ligand.clash>
0.0000

> <Gold.PLP.ligand.torsion>
0.6796

> <Gold.PLP.Chemscore.Hbond>
1.7360

> <Gold.PLP.Chemscore.CHOScore>
0.5206

> <Gold.PLP.Chemscore.Metal>
0.0000

> <Gold.Chemscore.Hbonds>
donor molecule, donor type, donor heavy atom, donor atom, acceptor molecule, acceptor atom, score
      L1  H    14    37       P1  7948  0.66
      P1  H  7989  7998       L1    16  1.00
      L1  C    15    34       P1  7957  0.52

> <Gold.PLP.Chemscore.Internal.Correction>
0.0277

> <Gold.Rescore>
     Score         DG    S(hbond)    S(metal)    S(lipo)     H(rot)  DE(clash)    DE(int)     intcor
     14.22     -16.14       1.57        0.00      95.45       2.25       1.28       0.63       ----

> <Gold.Chemscore.Fitness>
14.2244

> <Gold.Chemscore.DG>
-16.1351

> <Gold.Chemscore.ZeroCoef>
-5.4800

> <Gold.Chemscore.Hbond>
1.5712

> <Gold.Chemscore.Metal>
0.0000

> <Gold.Chemscore.Lipo>
95.4513

> <Gold.Chemscore.Internal_Hbond>
0.0000

> <Gold.Chemscore.DEClash>
1.2758

> <Gold.Chemscore.DEInternal>
0.6349

> <Gold.Chemscore.Rot>
2.2501

> <Gold.Chemscore.Internal.Correction>
   9.000000E+99

> <Gold.Chemscore.Hbonds>
donor molecule, donor type, donor heavy atom, donor atom, acceptor molecule, acceptor atom, score
      L1  H    14    37       P1  7948  0.65
      P1  H  7989  7998       L1    16  0.74

> <Gold.Chemscore.Hbond.Weighted>
-5.2477

> <Gold.Chemscore.Metal.Weighted>
-0.0000

> <Gold.Chemscore.Lipo.Weighted>
-11.1678

> <Gold.Chemscore.Internal_Hbond.Weighted>
0.0000

> <Gold.Chemscore.DEClash.Weighted>
1.2758

> <Gold.Chemscore.DEInternal.Weighted>
0.6349

> <Gold.Chemscore.Rot.Weighted>
5.7603

> <Gold.Chemscore.Internal.Correction.Weighted>
   9.000000E+99

> <Gold.Protein.RotatedTorsions>
[ 6907 6896 6895 6894 ] final   30.20 input  -60.11 | X-H torsion
[ 7974 7965 7964 7962 ] final -147.16 input  175.53 | X-H torsion
[ 8008 7997 7996 7995 ] final -132.37 input   59.86 | X-H torsion
[ 10167 10162 10161 10158 ] final  146.76 input  -65.29 | X-H torsion
[ 10718 10713 10712 10709 ] final -118.16 input   66.30 | X-H torsion
[ 10763 10752 10751 10750 ] final  -57.43 input  -60.55 | X-H torsion
[ 11005 11000 10999 10996 ] final  112.34 input  -57.11 | X-H torsion

> <Gold.Protein.ActiveResidues>
 VAL166  LYS551  ARG553  GLY616  TRP617  ASP618  TYR619  PRO620  LYS621  CYS622 
 ASP623  PHE694  ASN695  SER759  ASP760  ASP761  ALA762  ILE779  LEU786  VAL792 
 PHE793  MET794  SER795  GLU796  ALA797  LYS798  CYS799  TRP800  GLU811  SER814 

> <Gold.Protein.RotatedAtoms>
  152.0426  134.9702  160.0573 H   0  0  0  0  0  0  0  0  0  0  0  0  # atno 6907 bound_to 6896
  152.1135  133.4309  159.4650 H   0  0  0  0  0  0  0  0  0  0  0  0  # atno 6908 bound_to 6896
  150.6845  134.2539  159.4565 H   0  0  0  0  0  0  0  0  0  0  0  0  # atno 6909 bound_to 6896
  144.8112  140.5363  143.5641 H   0  0  0  0  0  0  0  0  0  0  0  0  # atno 7974 bound_to 7965
  155.3278  140.0465  157.3041 H   0  0  0  0  0  0  0  0  0  0  0  0  # atno 8008 bound_to 7997
  154.5344  140.2267  155.8713 H   0  0  0  0  0  0  0  0  0  0  0  0  # atno 8009 bound_to 7997
  156.1821  140.3071  155.9174 H   0  0  0  0  0  0  0  0  0  0  0  0  # atno 8010 bound_to 7997
  139.4901  144.5806  151.6880 H   0  0  0  0  0  0  0  0  0  0  0  0  # atno 10167 bound_to 10162
  156.1086  130.6230  150.9255 H   0  0  0  0  0  0  0  0  0  0  0  0  # atno 10718 bound_to 10713
  154.2223  135.6375  153.5148 H   0  0  0  0  0  0  0  0  0  0  0  0  # atno 10763 bound_to 10752
  152.9966  135.5499  154.6101 H   0  0  0  0  0  0  0  0  0  0  0  0  # atno 10764 bound_to 10752
  154.5564  135.2905  155.0934 H   0  0  0  0  0  0  0  0  0  0  0  0  # atno 10765 bound_to 10752
  139.8925  134.9527  156.6570 H   0  0  0  0  0  0  0  0  0  0  0  0  # atno 11005 bound_to 11000
  145.5320  139.1475  143.3494 LP  0  0  0  0  0  0  0  0  0  0  0  0  # atno 17320 bound_to 7965
  146.2410  140.5460  142.8934 LP  0  0  0  0  0  0  0  0  0  0  0  0  # atno 17321 bound_to 7965
  140.5411  144.0578  150.6089 LP  0  0  0  0  0  0  0  0  0  0  0  0  # atno 17342 bound_to 10162
  140.3600  143.2913  152.0394 LP  0  0  0  0  0  0  0  0  0  0  0  0  # atno 17343 bound_to 10162
  157.6265  131.0925  150.8524 LP  0  0  0  0  0  0  0  0  0  0  0  0  # atno 17370 bound_to 10713
  156.8639  130.5122  149.5301 LP  0  0  0  0  0  0  0  0  0  0  0  0  # atno 17371 bound_to 10713
  140.7476  133.8924  155.8323 LP  0  0  0  0  0  0  0  0  0  0  0  0  # atno 17394 bound_to 11000
  141.0027  134.1129  157.4301 LP  0  0  0  0  0  0  0  0  0  0  0  0  # atno 17395 bound_to 11000

$$$$
