AV-unprocessed.smi:3254|AV-procd|sdf|12453|dock3
  -GOLD-   2272018343D 1   1.00000     0.00000
 Structure written by MMmdl.
 37 38  0  0  0  0  0  0  0  0  2 V2000
  153.8951  136.6260  163.2928 C   0  0  0  0  0  0  0  0  0  0  0  0
  154.6525  137.9600  163.3404 C   0  0  0  0  0  0  0  0  0  0  0  0
  154.9965  138.4281  162.0009 N   0  0  0  0  0  0  0  0  0  0  0  0
  154.5687  137.6894  160.8248 C   0  0  0  0  0  0  0  0  0  0  0  0
  154.9451  138.5755  159.6173 C   0  0  1  0  0  0  0  0  0  0  0  0
  153.7116  139.1803  158.9284 C   0  0  0  0  0  0  0  0  0  0  0  0
  153.4487  138.8883  157.7615 O   0  0  0  0  0  0  0  0  0  0  0  0
  152.9705  140.0223  159.6640 N   0  0  0  0  0  0  0  0  0  0  0  0
  151.7654  140.7097  159.2092 C   0  0  0  0  0  0  0  0  0  0  0  0
  152.0945  141.7664  158.1424 C   0  0  0  0  0  0  0  0  0  0  0  0
  151.6226  143.1054  158.5093 N   0  0  0  0  0  0  0  0  0  0  0  0
  152.1717  143.9545  159.4357 C   0  0  0  0  0  0  0  0  0  0  0  0
  151.3983  145.0867  159.4352 C   0  0  0  0  0  0  0  0  0  0  0  0
  150.4132  144.8829  158.5064 N   0  3  0  0  0  0  0  0  0  0  0  0
  150.5527  143.6788  157.9425 C   0  0  0  0  0  0  0  0  0  0  0  0
  155.8633  139.6710  160.1956 C   0  0  0  0  0  0  0  0  0  0  0  0
  155.7423  139.4968  161.7004 C   0  0  0  0  0  0  0  0  0  0  0  0
  156.2676  140.2650  162.5047 O   0  0  0  0  0  0  0  0  0  0  0  0
  153.6640  136.2751  164.2986 H   0  0  0  0  0  0  0  0  0  0  0  0
  154.4884  135.8553  162.7998 H   0  0  0  0  0  0  0  0  0  0  0  0
  152.9535  136.7213  162.7513 H   0  0  0  0  0  0  0  0  0  0  0  0
  154.0495  138.7144  163.8482 H   0  0  0  0  0  0  0  0  0  0  0  0
  155.5624  137.8458  163.9308 H   0  0  0  0  0  0  0  0  0  0  0  0
  155.0977  136.7363  160.7848 H   0  0  0  0  0  0  0  0  0  0  0  0
  153.5007  137.4702  160.8799 H   0  0  0  0  0  0  0  0  0  0  0  0
  155.5001  137.9788  158.8911 H   0  0  0  0  0  0  0  0  0  0  0  0
  153.2711  140.2070  160.6097 H   0  0  0  0  0  0  0  0  0  0  0  0
  151.0671  139.9716  158.8133 H   0  0  0  0  0  0  0  0  0  0  0  0
  151.2589  141.2002  160.0420 H   0  0  0  0  0  0  0  0  0  0  0  0
  153.1739  141.8308  158.0008 H   0  0  0  0  0  0  0  0  0  0  0  0
  151.6645  141.4914  157.1778 H   0  0  0  0  0  0  0  0  0  0  0  0
  153.0484  143.6961  160.0119 H   0  0  0  0  0  0  0  0  0  0  0  0
  151.4740  145.9983  160.0099 H   0  0  0  0  0  0  0  0  0  0  0  0
  149.9236  143.2540  157.1805 H   0  0  0  0  0  0  0  0  0  0  0  0
  156.8999  139.5153  159.8947 H   0  0  0  0  0  0  0  0  0  0  0  0
  155.5767  140.6832  159.9052 H   0  0  0  0  0  0  0  0  0  0  0  0
  149.6855  145.5479  158.2753 H   0  0  0  0  0  0  0  0  0  0  0  0
  1  2  1  0  0  0  0
  1 19  1  0  0  0  0
  1 20  1  0  0  0  0
  1 21  1  0  0  0  0
  2  3  1  0  0  0  0
  2 22  1  0  0  0  0
  2 23  1  0  0  0  0
  3 17  1  0  0  0  0
  3  4  1  0  0  0  0
  4  5  1  0  0  0  0
  4 24  1  0  0  0  0
  4 25  1  0  0  0  0
  5  6  1  0  0  0  0
  5 16  1  0  0  0  0
  5 26  1  0  0  0  0
  6  7  2  0  0  0  0
  6  8  1  0  0  0  0
  8  9  1  0  0  0  0
  8 27  1  0  0  0  0
  9 10  1  0  0  0  0
  9 28  1  0  0  0  0
  9 29  1  0  0  0  0
 10 11  1  0  0  0  0
 10 30  1  0  0  0  0
 10 31  1  0  0  0  0
 11 15  1  0  0  0  0
 11 12  1  0  0  0  0
 12 13  2  0  0  0  0
 12 32  1  0  0  0  0
 13 14  1  0  0  0  0
 13 33  1  0  0  0  0
 14 15  2  0  0  0  0
 14 37  1  0  0  0  0
 15 34  1  0  0  0  0
 16 17  1  0  0  0  0
 16 35  1  0  0  0  0
 16 36  1  0  0  0  0
 17 18  2  0  0  0  0
M  CHG  1  14   1
M  END
> <s_m_source_file>
AV-unprocessed.smi

> <i_m_source_file_index>
3254

> <i_lp_mmshare_version>
43012

> <i_f3d_flags>
0

> <s_epik_input>
W0NIM11bQ0gyXU4xW0NIMl1bQ0BIXShbQ0gyXUMxPU8pQyg9TylbTkhdW0NIMl1bQ0gyXW4yW2NIXVtjSF1uW2NIXTI=

> <s_epik_cmdline>
J2VwaWtfcHl0aG9uJywgJy1waCcsICc3LjAnLCAnLXRuJywgJzgnLCAnLW1hJywgJzIwMCcsICctbWV0YWxfYmluZGluZycsICctaW1hZScsICc8aW5maWxlLm1hZT4nLCAnLW9tYWUnLCAnPG91dGZpbGUubWFlPic=

> <r_lp_tautomer_probability>
1

> <r_epik_Ionization_Penalty>
0.274742

> <r_epik_Ionization_Penalty_Charging>
0

> <r_epik_Ionization_Penalty_Neutral>
0.274742

> <r_epik_State_Penalty>
0.267046

> <r_epik_Charging_Adjusted_Penalty>
0.267046

> <i_epik_Tot_Q>
1

> <i_epik_Tot_abs_Q>
1

> <r_epik_Metal_State_Penalty>
0.550456

> <b_epik_Metal_Only>
0

> <s_lp_Force_Field>
OPLS_2005

> <r_lp_Energy>
18.3055

> <b_lp_Chiralities_Consistent>
1

> <s_lp_Variant>
AV-unprocessed.smi:3254-1

> <Gold.Version>
5.8.1

> <Gold.Id.Protein>
6NUR|6NUR_protein|mol2

> <Gold.PLP.Fitness>
39.9321

> <Gold.PLP.PLP>
-30.1921

> <Gold.PLP.part.hbond>
-3.7916

> <Gold.PLP.part.metal>
0.0000

> <Gold.PLP.part.buried>
-1.9370

> <Gold.PLP.part.nonpolar>
-24.4674

> <Gold.PLP.part.repulsive>
0.2745

> <Gold.PLP.ligand.clash>
0.0000

> <Gold.PLP.ligand.torsion>
0.6487

> <Gold.PLP.Chemscore.Hbond>
3.0000

> <Gold.PLP.Chemscore.CHOScore>
0.6725

> <Gold.PLP.Chemscore.Metal>
0.0000

> <Gold.Chemscore.Hbonds>
donor molecule, donor type, donor heavy atom, donor atom, acceptor molecule, acceptor atom, score
      L1  H    14    37       P1  8029  1.74
      P1  H  7997  8010       L1     7  1.00
      L1  C    15    34       P1  8028  0.74

> <Gold.PLP.Chemscore.Internal.Correction>
0.0199

> <Gold.Rescore>
     Score         DG    S(hbond)    S(metal)    S(lipo)     H(rot)  DE(clash)    DE(int)     intcor
     11.04     -13.26       1.59        0.00      70.88       2.28       1.53       0.68       ----

> <Gold.Chemscore.Fitness>
11.0426

> <Gold.Chemscore.DG>
-13.2584

> <Gold.Chemscore.ZeroCoef>
-5.4800

> <Gold.Chemscore.Hbond>
1.5917

> <Gold.Chemscore.Metal>
0.0000

> <Gold.Chemscore.Lipo>
70.8798

> <Gold.Chemscore.Internal_Hbond>
0.0000

> <Gold.Chemscore.DEClash>
1.5349

> <Gold.Chemscore.DEInternal>
0.6809

> <Gold.Chemscore.Rot>
2.2776

> <Gold.Chemscore.Internal.Correction>
   9.000000E+99

> <Gold.Chemscore.Hbonds>
donor molecule, donor type, donor heavy atom, donor atom, acceptor molecule, acceptor atom, score
      L1  H    14    37       P1  8029  0.49
      P1  H  7997  8010       L1     7  0.49

> <Gold.Chemscore.Hbond.Weighted>
-5.3162

> <Gold.Chemscore.Metal.Weighted>
-0.0000

> <Gold.Chemscore.Lipo.Weighted>
-8.2929

> <Gold.Chemscore.Internal_Hbond.Weighted>
0.0000

> <Gold.Chemscore.DEClash.Weighted>
1.5349

> <Gold.Chemscore.DEInternal.Weighted>
0.6809

> <Gold.Chemscore.Rot.Weighted>
5.8307

> <Gold.Chemscore.Internal.Correction.Weighted>
   9.000000E+99

> <Gold.Protein.RotatedTorsions>
[ 6907 6896 6895 6894 ] final  166.29 input  -60.11 | X-H torsion
[ 7974 7965 7964 7962 ] final   90.37 input  175.53 | X-H torsion
[ 8008 7997 7996 7995 ] final   54.01 input   59.86 | X-H torsion
[ 10167 10162 10161 10158 ] final  167.85 input  -65.29 | X-H torsion
[ 10718 10713 10712 10709 ] final  -19.16 input   66.30 | X-H torsion
[ 10763 10752 10751 10750 ] final   -0.89 input  -60.55 | X-H torsion
[ 11005 11000 10999 10996 ] final  170.20 input  -57.11 | X-H torsion

> <Gold.Protein.ActiveResidues>
 VAL166  LYS551  ARG553  GLY616  TRP617  ASP618  TYR619  PRO620  LYS621  CYS622 
 ASP623  PHE694  ASN695  SER759  ASP760  ASP761  ALA762  ILE779  LEU786  VAL792 
 PHE793  MET794  SER795  GLU796  ALA797  LYS798  CYS799  TRP800  GLU811  SER814 

> <Gold.Protein.RotatedAtoms>
  151.8812  133.3496  159.3766 H   0  0  0  0  0  0  0  0  0  0  0  0  # atno 6907 bound_to 6896
  150.7127  134.5016  159.5573 H   0  0  0  0  0  0  0  0  0  0  0  0  # atno 6908 bound_to 6896
  152.2568  134.8076  160.0488 H   0  0  0  0  0  0  0  0  0  0  0  0  # atno 6909 bound_to 6896
  145.5199  139.2279  143.2677 H   0  0  0  0  0  0  0  0  0  0  0  0  # atno 7974 bound_to 7965
  155.4777  140.3467  155.4335 H   0  0  0  0  0  0  0  0  0  0  0  0  # atno 8008 bound_to 7997
  156.1059  140.1448  156.9433 H   0  0  0  0  0  0  0  0  0  0  0  0  # atno 8009 bound_to 7997
  154.4724  140.0896  156.7156 H   0  0  0  0  0  0  0  0  0  0  0  0  # atno 8010 bound_to 7997
  139.4954  144.3877  151.9552 H   0  0  0  0  0  0  0  0  0  0  0  0  # atno 10167 bound_to 10162
  156.5496  130.4698  149.6458 H   0  0  0  0  0  0  0  0  0  0  0  0  # atno 10718 bound_to 10713
  153.3377  135.6979  153.6893 H   0  0  0  0  0  0  0  0  0  0  0  0  # atno 10763 bound_to 10752
  153.5670  135.3523  155.2823 H   0  0  0  0  0  0  0  0  0  0  0  0  # atno 10764 bound_to 10752
  154.8630  135.4263  154.2582 H   0  0  0  0  0  0  0  0  0  0  0  0  # atno 10765 bound_to 10752
  140.3059  134.7557  157.3953 H   0  0  0  0  0  0  0  0  0  0  0  0  # atno 11005 bound_to 11000
  146.2112  140.6011  142.9058 LP  0  0  0  0  0  0  0  0  0  0  0  0  # atno 17320 bound_to 7965
  144.7681  140.5577  143.6689 LP  0  0  0  0  0  0  0  0  0  0  0  0  # atno 17321 bound_to 7965
  140.3314  144.3311  150.5986 LP  0  0  0  0  0  0  0  0  0  0  0  0  # atno 17342 bound_to 10162
  140.5641  143.2188  151.7713 LP  0  0  0  0  0  0  0  0  0  0  0  0  # atno 17343 bound_to 10162
  156.2897  130.7117  151.1963 LP  0  0  0  0  0  0  0  0  0  0  0  0  # atno 17370 bound_to 10713
  157.7390  131.0534  150.5259 LP  0  0  0  0  0  0  0  0  0  0  0  0  # atno 17371 bound_to 10713
  140.1068  134.5399  155.8302 LP  0  0  0  0  0  0  0  0  0  0  0  0  # atno 17394 bound_to 11000
  141.2118  133.6712  156.6613 LP  0  0  0  0  0  0  0  0  0  0  0  0  # atno 17395 bound_to 11000

$$$$
