AV-unprocessed.smi:153|AV-procd|sdf|1254|dock2
  -GOLD-   2262018493D 1   1.00000     0.00000
 Structure written by MMmdl.
 60 63  0  0  0  0  0  0  0  0  2 V2000
  151.6638  143.8981  157.5497 C   0  0  0  0  0  0  0  0  0  0  0  0
  151.6022  143.0272  158.8101 C   0  0  2  0  0  0  0  0  0  0  0  0
  152.7280  143.3305  159.6242 O   0  0  0  0  0  0  0  0  0  0  0  0
  152.8934  142.2619  160.5354 C   0  0  0  0  0  0  0  0  0  0  0  0
  152.7107  141.0512  159.6331 C   0  0  0  0  0  0  0  0  0  0  0  0
  151.6160  141.4761  158.6493 C   0  0  1  0  0  0  0  0  0  0  0  0
  150.3872  140.9829  159.1523 O   0  0  0  0  0  0  0  0  0  0  0  0
  151.8987  140.8708  157.2414 C   0  0  0  0  0  0  0  0  0  0  0  0
  150.7820  140.8716  156.3026 N   0  0  0  0  0  0  0  0  0  0  0  0
  150.1694  141.9724  155.7506 C   0  0  0  0  0  0  0  0  0  0  0  0
  149.2031  141.7119  154.9154 N   0  0  0  0  0  0  0  0  0  0  0  0
  149.1608  140.3231  154.8477 C   0  0  0  0  0  0  0  0  0  0  0  0
  148.3745  139.3734  154.1216 C   0  0  0  0  0  0  0  0  0  0  0  0
  147.3621  139.6811  153.2590 N   0  0  0  0  0  0  0  0  0  0  0  0
  147.0764  141.0740  152.9346 C   0  0  0  0  0  0  0  0  0  0  0  0
  146.8069  138.6464  152.3824 C   0  0  0  0  0  0  0  0  0  0  0  0
  145.9158  137.6435  153.1437 C   0  0  1  0  0  0  0  0  0  0  0  0
  144.8422  138.3544  153.7282 O   0  0  0  0  0  0  0  0  0  0  0  0
  145.3104  136.5899  152.1945 C   0  0  0  0  0  0  0  0  0  0  0  0
  146.2144  135.4326  151.9695 N   0  3  0  0  0  0  0  0  0  0  0  0
  146.4913  134.6797  153.2160 C   0  0  0  0  0  0  0  0  0  0  0  0
  147.4805  133.5338  152.9444 C   0  0  0  0  0  0  0  0  0  0  0  0
  146.9577  132.6815  151.9331 O   0  0  0  0  0  0  0  0  0  0  0  0
  146.7690  133.3706  150.7036 C   0  0  0  0  0  0  0  0  0  0  0  0
  145.7556  134.5111  150.9001 C   0  0  0  0  0  0  0  0  0  0  0  0
  148.6743  138.0607  154.3140 N   0  0  0  0  0  0  0  0  0  0  0  0
  149.6564  137.6921  155.1392 C   0  0  0  0  0  0  0  0  0  0  0  0
  150.4592  138.4621  155.8717 N   0  0  0  0  0  0  0  0  0  0  0  0
  150.1682  139.7832  155.7019 C   0  0  0  0  0  0  0  0  0  0  0  0
  150.7566  143.7925  156.9573 H   0  0  0  0  0  0  0  0  0  0  0  0
  152.5257  143.6571  156.9280 H   0  0  0  0  0  0  0  0  0  0  0  0
  151.7433  144.9513  157.8196 H   0  0  0  0  0  0  0  0  0  0  0  0
  150.7233  143.3331  159.3821 H   0  0  0  0  0  0  0  0  0  0  0  0
  153.8710  142.2875  161.0169 H   0  0  0  0  0  0  0  0  0  0  0  0
  152.1217  142.3038  161.3058 H   0  0  0  0  0  0  0  0  0  0  0  0
  153.6475  140.8768  159.1017 H   0  0  0  0  0  0  0  0  0  0  0  0
  152.4797  140.1403  160.1876 H   0  0  0  0  0  0  0  0  0  0  0  0
  149.6823  141.3580  158.6466 H   0  0  0  0  0  0  0  0  0  0  0  0
  152.7490  141.3696  156.7754 H   0  0  0  0  0  0  0  0  0  0  0  0
  152.2040  139.8299  157.3586 H   0  0  0  0  0  0  0  0  0  0  0  0
  150.4593  142.9854  155.9875 H   0  0  0  0  0  0  0  0  0  0  0  0
  146.9257  141.6594  153.8421 H   0  0  0  0  0  0  0  0  0  0  0  0
  146.1678  141.1596  152.3384 H   0  0  0  0  0  0  0  0  0  0  0  0
  147.8929  141.5131  152.3606 H   0  0  0  0  0  0  0  0  0  0  0  0
  146.2891  139.0635  151.5176 H   0  0  0  0  0  0  0  0  0  0  0  0
  147.6572  138.1103  151.9597 H   0  0  0  0  0  0  0  0  0  0  0  0
  146.4973  137.1578  153.9266 H   0  0  0  0  0  0  0  0  0  0  0  0
  144.7100  139.1537  153.2400 H   0  0  0  0  0  0  0  0  0  0  0  0
  144.3680  136.2403  152.6202 H   0  0  0  0  0  0  0  0  0  0  0  0
  145.0606  137.0389  151.2319 H   0  0  0  0  0  0  0  0  0  0  0  0
  146.9076  135.3493  153.9698 H   0  0  0  0  0  0  0  0  0  0  0  0
  145.5581  134.2820  153.6185 H   0  0  0  0  0  0  0  0  0  0  0  0
  148.4546  133.9223  152.6427 H   0  0  0  0  0  0  0  0  0  0  0  0
  147.6375  132.9505  153.8519 H   0  0  0  0  0  0  0  0  0  0  0  0
  147.7226  133.7546  150.3369 H   0  0  0  0  0  0  0  0  0  0  0  0
  146.4017  132.6666  149.9568 H   0  0  0  0  0  0  0  0  0  0  0  0
  144.7799  134.0996  151.1635 H   0  0  0  0  0  0  0  0  0  0  0  0
  145.6336  135.0441  149.9583 H   0  0  0  0  0  0  0  0  0  0  0  0
  149.8207  136.6282  155.2263 H   0  0  0  0  0  0  0  0  0  0  0  0
  147.0986  135.8195  151.6700 H   0  0  0  0  0  0  0  0  0  0  0  0
  1  2  1  0  0  0  0
  1 30  1  0  0  0  0
  1 31  1  0  0  0  0
  1 32  1  0  0  0  0
  2  6  1  0  0  0  0
  2  3  1  0  0  0  0
  2 33  1  0  0  0  0
  3  4  1  0  0  0  0
  4  5  1  0  0  0  0
  4 34  1  0  0  0  0
  4 35  1  0  0  0  0
  5  6  1  0  0  0  0
  5 36  1  0  0  0  0
  5 37  1  0  0  0  0
  6  7  1  0  0  0  0
  6  8  1  0  0  0  0
  7 38  1  0  0  0  0
  8  9  1  0  0  0  0
  8 39  1  0  0  0  0
  8 40  1  0  0  0  0
  9 29  1  0  0  0  0
  9 10  1  0  0  0  0
 10 11  2  0  0  0  0
 10 41  1  0  0  0  0
 11 12  1  0  0  0  0
 12 29  2  0  0  0  0
 12 13  1  0  0  0  0
 13 14  1  0  0  0  0
 13 26  2  0  0  0  0
 14 15  1  0  0  0  0
 14 16  1  0  0  0  0
 15 42  1  0  0  0  0
 15 43  1  0  0  0  0
 15 44  1  0  0  0  0
 16 17  1  0  0  0  0
 16 45  1  0  0  0  0
 16 46  1  0  0  0  0
 17 18  1  0  0  0  0
 17 19  1  0  0  0  0
 17 47  1  0  0  0  0
 18 48  1  0  0  0  0
 19 20  1  0  0  0  0
 19 49  1  0  0  0  0
 19 50  1  0  0  0  0
 20 25  1  0  0  0  0
 20 21  1  0  0  0  0
 20 60  1  0  0  0  0
 21 22  1  0  0  0  0
 21 51  1  0  0  0  0
 21 52  1  0  0  0  0
 22 23  1  0  0  0  0
 22 53  1  0  0  0  0
 22 54  1  0  0  0  0
 23 24  1  0  0  0  0
 24 25  1  0  0  0  0
 24 55  1  0  0  0  0
 24 56  1  0  0  0  0
 25 57  1  0  0  0  0
 25 58  1  0  0  0  0
 26 27  1  0  0  0  0
 27 28  2  0  0  0  0
 27 59  1  0  0  0  0
 28 29  1  0  0  0  0
M  CHG  1  20   1
M  END
> <s_m_source_file>
AV-unprocessed.smi

> <i_m_source_file_index>
153

> <i_lp_mmshare_version>
43012

> <i_f3d_flags>
0

> <s_epik_input>
W0NIMl0xW0NIMl1PW0NAQEhdKFtDSDNdKVtDQEBdMShbT0hdKVtDSDJdbihbY0hdbjIpYyhjMjMpbltjSF1uYzNOKFtDSDNdKVtDSDJdW0NASF0oW09IXSlbQ0gyXU40W0NIMl1bQ0gyXU9bQ0gyXVtDSDJdNA==

> <s_epik_cmdline>
J2VwaWtfcHl0aG9uJywgJy1waCcsICc3LjAnLCAnLXRuJywgJzgnLCAnLW1hJywgJzIwMCcsICctbWV0YWxfYmluZGluZycsICctaW1hZScsICc8aW5maWxlLm1hZT4nLCAnLW9tYWUnLCAnPG91dGZpbGUubWFlPic=

> <r_lp_tautomer_probability>
1

> <r_epik_Ionization_Penalty>
0.403509

> <r_epik_Ionization_Penalty_Charging>
0.40072

> <r_epik_Ionization_Penalty_Neutral>
0.00278876

> <r_epik_State_Penalty>
0.400058

> <r_epik_Charging_Adjusted_Penalty>
0.800778

> <i_epik_Tot_Q>
1

> <i_epik_Tot_abs_Q>
1

> <r_epik_Metal_State_Penalty>
0.400321

> <b_epik_Metal_Only>
0

> <s_lp_Force_Field>
OPLS_2005

> <r_lp_Energy>
49.6176

> <b_lp_Chiralities_Consistent>
1

> <s_lp_Variant>
AV-unprocessed.smi:153-5

> <Gold.Version>
5.8.1

> <Gold.Id.Protein>
6NUR|6NUR_protein|mol2

> <Gold.PLP.Fitness>
55.6580

> <Gold.PLP.PLP>
-44.7389

> <Gold.PLP.part.hbond>
-3.0947

> <Gold.PLP.part.metal>
0.0000

> <Gold.PLP.part.buried>
-3.2377

> <Gold.PLP.part.nonpolar>
-38.2598

> <Gold.PLP.part.repulsive>
1.0668

> <Gold.PLP.ligand.clash>
0.0000

> <Gold.PLP.ligand.torsion>
0.6389

> <Gold.PLP.Chemscore.Hbond>
3.0000

> <Gold.PLP.Chemscore.CHOScore>
0.7722

> <Gold.PLP.Chemscore.Metal>
0.0000

> <Gold.Chemscore.Hbonds>
donor molecule, donor type, donor heavy atom, donor atom, acceptor molecule, acceptor atom, score
      L1  H    18    48       P1 10175  1.00
      L1  H    20    60       P1  7948  2.00
      L1  C    10    41       P1  8028  0.78

> <Gold.PLP.Chemscore.Internal.Correction>
0.8803

> <Gold.Rescore>
     Score         DG    S(hbond)    S(metal)    S(lipo)     H(rot)  DE(clash)    DE(int)     intcor
     12.54     -14.86       1.93        0.00     104.19       3.62       0.41       1.91       ----

> <Gold.Chemscore.Fitness>
12.5372

> <Gold.Chemscore.DG>
-14.8577

> <Gold.Chemscore.ZeroCoef>
-5.4800

> <Gold.Chemscore.Hbond>
1.9313

> <Gold.Chemscore.Metal>
0.0000

> <Gold.Chemscore.Lipo>
104.1857

> <Gold.Chemscore.Internal_Hbond>
0.0000

> <Gold.Chemscore.DEClash>
0.4078

> <Gold.Chemscore.DEInternal>
1.9126

> <Gold.Chemscore.Rot>
3.6182

> <Gold.Chemscore.Internal.Correction>
   9.000000E+99

> <Gold.Chemscore.Hbonds>
donor molecule, donor type, donor heavy atom, donor atom, acceptor molecule, acceptor atom, score
      L1  H    18    48       P1 10175  0.97
      L1  H    20    60       P1  7948  0.98

> <Gold.Chemscore.Hbond.Weighted>
-6.4504

> <Gold.Chemscore.Metal.Weighted>
-0.0000

> <Gold.Chemscore.Lipo.Weighted>
-12.1897

> <Gold.Chemscore.Internal_Hbond.Weighted>
0.0000

> <Gold.Chemscore.DEClash.Weighted>
0.4078

> <Gold.Chemscore.DEInternal.Weighted>
1.9126

> <Gold.Chemscore.Rot.Weighted>
9.2625

> <Gold.Chemscore.Internal.Correction.Weighted>
   9.000000E+99

> <Gold.Protein.RotatedTorsions>
[ 6907 6896 6895 6894 ] final   77.16 input  -60.11 | X-H torsion
[ 7974 7965 7964 7962 ] final  -86.89 input  175.53 | X-H torsion
[ 8008 7997 7996 7995 ] final  156.69 input   59.86 | X-H torsion
[ 10167 10162 10161 10158 ] final  143.03 input  -65.29 | X-H torsion
[ 10718 10713 10712 10709 ] final -125.59 input   66.30 | X-H torsion
[ 10763 10752 10751 10750 ] final   43.58 input  -60.55 | X-H torsion
[ 11005 11000 10999 10996 ] final -175.16 input  -57.11 | X-H torsion

> <Gold.Protein.ActiveResidues>
 VAL166  LYS551  ARG553  GLY616  TRP617  ASP618  TYR619  PRO620  LYS621  CYS622 
 ASP623  PHE694  ASN695  SER759  ASP760  ASP761  ALA762  ILE779  LEU786  VAL792 
 PHE793  MET794  SER795  GLU796  ALA797  LYS798  CYS799  TRP800  GLU811  SER814 

> <Gold.Protein.RotatedAtoms>
  152.5105  134.3858  159.9366 H   0  0  0  0  0  0  0  0  0  0  0  0  # atno 6907 bound_to 6896
  151.3817  133.3813  159.2718 H   0  0  0  0  0  0  0  0  0  0  0  0  # atno 6908 bound_to 6896
  150.9500  134.8921  159.7724 H   0  0  0  0  0  0  0  0  0  0  0  0  # atno 6909 bound_to 6896
  145.4738  140.9559  143.1902 H   0  0  0  0  0  0  0  0  0  0  0  0  # atno 7974 bound_to 7965
  156.2408  140.1905  156.6994 H   0  0  0  0  0  0  0  0  0  0  0  0  # atno 8008 bound_to 7997
  154.6193  140.0611  156.9621 H   0  0  0  0  0  0  0  0  0  0  0  0  # atno 8009 bound_to 7997
  155.1888  140.3282  155.4365 H   0  0  0  0  0  0  0  0  0  0  0  0  # atno 8010 bound_to 7997
  139.4979  144.6068  151.6361 H   0  0  0  0  0  0  0  0  0  0  0  0  # atno 10167 bound_to 10162
  156.1689  130.6654  151.0153 H   0  0  0  0  0  0  0  0  0  0  0  0  # atno 10718 bound_to 10713
  152.9858  135.6097  154.3134 H   0  0  0  0  0  0  0  0  0  0  0  0  # atno 10763 bound_to 10752
  154.2848  135.2776  155.2683 H   0  0  0  0  0  0  0  0  0  0  0  0  # atno 10764 bound_to 10752
  154.5005  135.5868  153.6584 H   0  0  0  0  0  0  0  0  0  0  0  0  # atno 10765 bound_to 10752
  140.4664  134.6207  157.4864 H   0  0  0  0  0  0  0  0  0  0  0  0  # atno 11005 bound_to 11000
  144.7929  139.6292  143.7105 LP  0  0  0  0  0  0  0  0  0  0  0  0  # atno 17320 bound_to 7965
  146.2381  139.5946  142.9510 LP  0  0  0  0  0  0  0  0  0  0  0  0  # atno 17321 bound_to 7965
  140.5732  144.0074  150.6227 LP  0  0  0  0  0  0  0  0  0  0  0  0  # atno 17342 bound_to 10162
  140.3198  143.3144  152.0795 LP  0  0  0  0  0  0  0  0  0  0  0  0  # atno 17343 bound_to 10162
  157.6788  131.0843  150.7424 LP  0  0  0  0  0  0  0  0  0  0  0  0  # atno 17370 bound_to 10713
  156.7484  130.4761  149.5462 LP  0  0  0  0  0  0  0  0  0  0  0  0  # atno 17371 bound_to 10713
  139.9913  134.6981  155.9685 LP  0  0  0  0  0  0  0  0  0  0  0  0  # atno 17394 bound_to 11000
  141.1597  133.6540  156.4279 LP  0  0  0  0  0  0  0  0  0  0  0  0  # atno 17395 bound_to 11000

$$$$
