AV-unprocessed.smi:1251|AV-procd|sdf|5257|dock3
  -GOLD-   22720 4363D 1   1.00000     0.00000
 Structure written by MMmdl.
 39 40  0  0  0  0  0  0  0  0  1 V2000
  155.1274  140.1920  161.4379 C   0  0  0  0  0  0  0  0  0  0  0  0
  154.1945  140.8769  160.4332 C   0  0  0  0  0  0  0  0  0  0  0  0
  153.5124  142.1222  161.0165 C   0  0  0  0  0  0  0  0  0  0  0  0
  152.3589  142.5842  160.1897 C   0  0  0  0  0  0  0  0  0  0  0  0
  151.5703  143.6032  160.5532 N   0  0  0  0  0  0  0  0  0  0  0  0
  150.5502  143.8308  159.6402 N   0  0  0  0  0  0  0  0  0  0  0  0
  150.5896  142.9632  158.6196 C   0  0  0  0  0  0  0  0  0  0  0  0
  149.6619  142.9667  157.5443 N   0  0  0  0  0  0  0  0  0  0  0  0
  148.9218  141.9453  157.0788 C   0  0  0  0  0  0  0  0  0  0  0  0
  148.9344  140.7973  157.5238 O   0  0  0  0  0  0  0  0  0  0  0  0
  148.1541  142.3342  156.0496 N   0  0  0  0  0  0  0  0  0  0  0  0
  147.2407  141.4762  155.2974 C   0  0  1  0  0  0  0  0  0  0  0  0
  146.4827  142.3423  154.2796 C   0  0  0  0  0  0  0  0  0  0  0  0
  148.0282  140.3324  154.6238 C   0  0  2  0  0  0  0  0  0  0  0  0
  148.1235  139.0512  155.4568 C   0  0  0  0  0  0  0  0  0  0  0  0
  149.4025  138.4350  154.9400 C   0  0  0  0  0  0  0  0  0  0  0  0
  150.2758  139.6689  154.7520 C   0  0  0  0  0  0  0  0  0  0  0  0
  149.3834  140.7186  154.3916 O   0  0  0  0  0  0  0  0  0  0  0  0
  151.8893  141.7857  158.6931 S   0  0  0  0  0  0  0  0  0  0  0  0
  155.5947  139.3116  160.9961 H   0  0  0  0  0  0  0  0  0  0  0  0
  154.5824  139.8697  162.3256 H   0  0  0  0  0  0  0  0  0  0  0  0
  155.9232  140.8650  161.7585 H   0  0  0  0  0  0  0  0  0  0  0  0
  154.7654  141.1549  159.5464 H   0  0  0  0  0  0  0  0  0  0  0  0
  153.4369  140.1655  160.1020 H   0  0  0  0  0  0  0  0  0  0  0  0
  153.1595  141.9171  162.0283 H   0  0  0  0  0  0  0  0  0  0  0  0
  154.2297  142.9397  161.0971 H   0  0  0  0  0  0  0  0  0  0  0  0
  149.5463  143.8529  157.0757 H   0  0  0  0  0  0  0  0  0  0  0  0
  148.2144  143.2968  155.7522 H   0  0  0  0  0  0  0  0  0  0  0  0
  146.5026  141.0417  155.9742 H   0  0  0  0  0  0  0  0  0  0  0  0
  145.7411  141.7585  153.7342 H   0  0  0  0  0  0  0  0  0  0  0  0
  147.1615  142.7839  153.5491 H   0  0  0  0  0  0  0  0  0  0  0  0
  145.9523  143.1555  154.7761 H   0  0  0  0  0  0  0  0  0  0  0  0
  147.5879  140.0927  153.6544 H   0  0  0  0  0  0  0  0  0  0  0  0
  148.2288  139.2866  156.5168 H   0  0  0  0  0  0  0  0  0  0  0  0
  147.2580  138.3994  155.3356 H   0  0  0  0  0  0  0  0  0  0  0  0
  149.8363  137.7044  155.6234 H   0  0  0  0  0  0  0  0  0  0  0  0
  149.2249  137.9473  153.9805 H   0  0  0  0  0  0  0  0  0  0  0  0
  150.7629  139.9366  155.6905 H   0  0  0  0  0  0  0  0  0  0  0  0
  151.0491  139.5235  153.9973 H   0  0  0  0  0  0  0  0  0  0  0  0
  1  2  1  0  0  0  0
  1 20  1  0  0  0  0
  1 21  1  0  0  0  0
  1 22  1  0  0  0  0
  2  3  1  0  0  0  0
  2 23  1  0  0  0  0
  2 24  1  0  0  0  0
  3  4  1  0  0  0  0
  3 25  1  0  0  0  0
  3 26  1  0  0  0  0
  4 19  1  0  0  0  0
  4  5  2  0  0  0  0
  5  6  1  0  0  0  0
  6  7  2  0  0  0  0
  7  8  1  0  0  0  0
  7 19  1  0  0  0  0
  8  9  1  0  0  0  0
  8 27  1  0  0  0  0
  9 10  2  0  0  0  0
  9 11  1  0  0  0  0
 11 12  1  0  0  0  0
 11 28  1  0  0  0  0
 12 13  1  0  0  0  0
 12 14  1  0  0  0  0
 12 29  1  0  0  0  0
 13 30  1  0  0  0  0
 13 31  1  0  0  0  0
 13 32  1  0  0  0  0
 14 18  1  0  0  0  0
 14 15  1  0  0  0  0
 14 33  1  0  0  0  0
 15 16  1  0  0  0  0
 15 34  1  0  0  0  0
 15 35  1  0  0  0  0
 16 17  1  0  0  0  0
 16 36  1  0  0  0  0
 16 37  1  0  0  0  0
 17 18  1  0  0  0  0
 17 38  1  0  0  0  0
 17 39  1  0  0  0  0
M  END
> <s_m_source_file>
AV-unprocessed.smi

> <i_m_source_file_index>
1251

> <i_lp_mmshare_version>
43012

> <i_f3d_flags>
0

> <s_epik_input>
W0NIM11bQ0gyXVtDSDJdYzFubmMoczEpW05IXUMoPU8pW05IXVtDQEhdKFtDSDNdKVtDQEBIXTJbQ0gyXVtDSDJdW0NIMl1PMg==

> <s_epik_cmdline>
J2VwaWtfcHl0aG9uJywgJy1waCcsICc3LjAnLCAnLXRuJywgJzgnLCAnLW1hJywgJzIwMCcsICctbWV0YWxfYmluZGluZycsICctaW1hZScsICc8aW5maWxlLm1hZT4nLCAnLW9tYWUnLCAnPG91dGZpbGUubWFlPic=

> <r_lp_tautomer_probability>
1

> <r_epik_Ionization_Penalty>
0.000503621

> <r_epik_Ionization_Penalty_Charging>
0

> <r_epik_Ionization_Penalty_Neutral>
0.000503621

> <r_epik_State_Penalty>
-0

> <r_epik_Charging_Adjusted_Penalty>
0

> <i_epik_Tot_Q>
0

> <i_epik_Tot_abs_Q>
0

> <r_epik_Metal_State_Penalty>
0.219912

> <b_epik_Metal_Only>
0

> <s_lp_Force_Field>
OPLS_2005

> <r_lp_Energy>
12.879

> <b_lp_Chiralities_Consistent>
1

> <s_lp_Variant>
AV-unprocessed.smi:1251-2

> <Gold.Version>
5.8.1

> <Gold.Id.Protein>
6NUR|6NUR_protein|mol2

> <Gold.PLP.Fitness>
38.5947

> <Gold.PLP.PLP>
-34.7543

> <Gold.PLP.part.hbond>
-4.7277

> <Gold.PLP.part.metal>
0.0000

> <Gold.PLP.part.buried>
-0.3947

> <Gold.PLP.part.nonpolar>
-29.1293

> <Gold.PLP.part.repulsive>
1.0031

> <Gold.PLP.ligand.clash>
0.0000

> <Gold.PLP.ligand.torsion>
1.4326

> <Gold.PLP.Chemscore.Hbond>
2.2268

> <Gold.PLP.Chemscore.CHOScore>
0.0000

> <Gold.PLP.Chemscore.Metal>
0.0000

> <Gold.Chemscore.Hbonds>
donor molecule, donor type, donor heavy atom, donor atom, acceptor molecule, acceptor atom, score
      L1  H     8    27       P1  8028  0.96
      L1  H    11    28       P1  8028  1.00

> <Gold.PLP.Chemscore.Internal.Correction>
0.0252

> <Gold.Rescore>
     Score         DG    S(hbond)    S(metal)    S(lipo)     H(rot)  DE(clash)    DE(int)     intcor
     13.98     -19.51       2.40        0.00      86.13       1.58       2.50       3.03       ----

> <Gold.Chemscore.Fitness>
13.9784

> <Gold.Chemscore.DG>
-19.5085

> <Gold.Chemscore.ZeroCoef>
-5.4800

> <Gold.Chemscore.Hbond>
2.3972

> <Gold.Chemscore.Metal>
0.0000

> <Gold.Chemscore.Lipo>
86.1322

> <Gold.Chemscore.Internal_Hbond>
0.0000

> <Gold.Chemscore.DEClash>
2.4998

> <Gold.Chemscore.DEInternal>
3.0302

> <Gold.Chemscore.Rot>
1.5843

> <Gold.Chemscore.Internal.Correction>
   9.000000E+99

> <Gold.Chemscore.Hbonds>
donor molecule, donor type, donor heavy atom, donor atom, acceptor molecule, acceptor atom, score
      L1  H     8    27       P1  8028  0.72
      L1  H    11    28       P1  8028  0.74

> <Gold.Chemscore.Hbond.Weighted>
-8.0068

> <Gold.Chemscore.Metal.Weighted>
-0.0000

> <Gold.Chemscore.Lipo.Weighted>
-10.0775

> <Gold.Chemscore.Internal_Hbond.Weighted>
0.0000

> <Gold.Chemscore.DEClash.Weighted>
2.4998

> <Gold.Chemscore.DEInternal.Weighted>
3.0302

> <Gold.Chemscore.Rot.Weighted>
4.0558

> <Gold.Chemscore.Internal.Correction.Weighted>
   9.000000E+99

> <Gold.Protein.RotatedTorsions>
[ 6907 6896 6895 6894 ] final  -35.78 input  -60.11 | X-H torsion
[ 7974 7965 7964 7962 ] final  -55.97 input  175.53 | X-H torsion
[ 8008 7997 7996 7995 ] final  175.24 input   59.86 | X-H torsion
[ 10167 10162 10161 10158 ] final   19.58 input  -65.29 | X-H torsion
[ 10718 10713 10712 10709 ] final  127.60 input   66.30 | X-H torsion
[ 10763 10752 10751 10750 ] final -147.54 input  -60.55 | X-H torsion
[ 11005 11000 10999 10996 ] final  -81.84 input  -57.11 | X-H torsion

> <Gold.Protein.ActiveResidues>
 VAL166  LYS551  ARG553  GLY616  TRP617  ASP618  TYR619  PRO620  LYS621  CYS622 
 ASP623  PHE694  ASN695  SER759  ASP760  ASP761  ALA762  ILE779  LEU786  VAL792 
 PHE793  MET794  SER795  GLU796  ALA797  LYS798  CYS799  TRP800  GLU811  SER814 

> <Gold.Protein.RotatedAtoms>
  151.0355  134.9570  159.8133 H   0  0  0  0  0  0  0  0  0  0  0  0  # atno 6907 bound_to 6896
  152.5354  134.2725  159.8987 H   0  0  0  0  0  0  0  0  0  0  0  0  # atno 6908 bound_to 6896
  151.2736  133.4201  159.2656 H   0  0  0  0  0  0  0  0  0  0  0  0  # atno 6909 bound_to 6896
  145.8681  140.8236  142.9902 H   0  0  0  0  0  0  0  0  0  0  0  0  # atno 7974 bound_to 7965
  156.0891  140.1414  156.9615 H   0  0  0  0  0  0  0  0  0  0  0  0  # atno 8008 bound_to 7997
  154.4630  140.0936  156.6993 H   0  0  0  0  0  0  0  0  0  0  0  0  # atno 8009 bound_to 7997
  155.4950  140.3449  155.4363 H   0  0  0  0  0  0  0  0  0  0  0  0  # atno 8010 bound_to 7997
  140.5568  143.9410  150.6615 H   0  0  0  0  0  0  0  0  0  0  0  0  # atno 10167 bound_to 10162
  157.5319  131.1098  150.8996 H   0  0  0  0  0  0  0  0  0  0  0  0  # atno 10718 bound_to 10713
  154.8280  135.3357  154.6834 H   0  0  0  0  0  0  0  0  0  0  0  0  # atno 10763 bound_to 10752
  153.7457  135.6943  153.4961 H   0  0  0  0  0  0  0  0  0  0  0  0  # atno 10764 bound_to 10752
  153.2212  135.4448  155.0442 H   0  0  0  0  0  0  0  0  0  0  0  0  # atno 10765 bound_to 10752
  141.1665  133.7215  156.8482 H   0  0  0  0  0  0  0  0  0  0  0  0  # atno 11005 bound_to 11000
  144.6726  140.1197  143.7450 LP  0  0  0  0  0  0  0  0  0  0  0  0  # atno 17320 bound_to 7965
  145.9169  139.2521  143.1404 LP  0  0  0  0  0  0  0  0  0  0  0  0  # atno 17321 bound_to 7965
  140.2850  143.3363  152.1116 LP  0  0  0  0  0  0  0  0  0  0  0  0  # atno 17342 bound_to 10162
  139.5051  144.6789  151.6058 LP  0  0  0  0  0  0  0  0  0  0  0  0  # atno 17343 bound_to 10162
  156.9574  130.5442  149.5284 LP  0  0  0  0  0  0  0  0  0  0  0  0  # atno 17370 bound_to 10713
  156.0429  130.5509  150.8813 LP  0  0  0  0  0  0  0  0  0  0  0  0  # atno 17371 bound_to 10713
  140.1934  134.8949  157.3087 LP  0  0  0  0  0  0  0  0  0  0  0  0  # atno 17394 bound_to 11000
  140.2265  134.3960  155.7541 LP  0  0  0  0  0  0  0  0  0  0  0  0  # atno 17395 bound_to 11000

$$$$
