AV-unprocessed.smi:1184|AV-procd|sdf|4971|dock6
  -GOLD-   22720 3563D 1   1.00000     0.00000
 Structure written by MMmdl.
 43 44  0  0  0  0  0  0  0  0  2 V2000
  146.0302  129.4498  151.7880 C   0  0  0  0  0  0  0  0  0  0  0  0
  146.9936  129.9176  152.8876 C   0  0  0  0  0  0  0  0  0  0  0  0
  147.6965  131.1703  152.5214 N   0  3  1  0  0  0  0  0  0  0  0  0
  146.8238  132.3584  152.3846 C   0  0  0  0  0  0  0  0  0  0  0  0
  147.6877  133.5493  152.7901 C   0  0  0  0  0  0  0  0  0  0  0  0
  148.5447  132.9701  153.9115 C   0  0  2  0  0  0  0  0  0  0  0  0
  149.8036  133.8010  154.2268 C   0  0  0  0  0  0  0  0  0  0  0  0
  149.4757  135.0834  154.8417 N   0  0  0  0  0  0  0  0  0  0  0  0
  150.3401  135.8910  155.4759 C   0  0  0  0  0  0  0  0  0  0  0  0
  151.5315  135.6242  155.6301 O   0  0  0  0  0  0  0  0  0  0  0  0
  149.7749  137.2027  156.0209 C   0  0  0  0  0  0  0  0  0  0  0  0
  150.7317  138.3299  155.7272 C   0  0  0  0  0  0  0  0  0  0  0  0
  152.0813  138.4799  156.1615 C   0  0  0  0  0  0  0  0  0  0  0  0
  152.9047  137.5639  157.0208 C   0  0  0  0  0  0  0  0  0  0  0  0
  152.6238  139.5977  155.7100 N   0  0  0  0  0  0  0  0  0  0  0  0
  151.6318  140.2277  154.9532 O   0  0  0  0  0  0  0  0  0  0  0  0
  150.5165  139.4552  154.9788 C   0  0  0  0  0  0  0  0  0  0  0  0
  149.3371  139.9645  154.2216 C   0  0  0  0  0  0  0  0  0  0  0  0
  148.8087  131.5336  153.4324 C   0  0  0  0  0  0  0  0  0  0  0  0
  145.5698  128.4995  152.0589 H   0  0  0  0  0  0  0  0  0  0  0  0
  146.5521  129.3069  150.8413 H   0  0  0  0  0  0  0  0  0  0  0  0
  145.2257  130.1672  151.6240 H   0  0  0  0  0  0  0  0  0  0  0  0
  146.4613  130.0505  153.8306 H   0  0  0  0  0  0  0  0  0  0  0  0
  147.7366  129.1364  153.0536 H   0  0  0  0  0  0  0  0  0  0  0  0
  146.4315  132.4532  151.3717 H   0  0  0  0  0  0  0  0  0  0  0  0
  145.9764  132.2797  153.0678 H   0  0  0  0  0  0  0  0  0  0  0  0
  148.3143  133.8586  151.9523 H   0  0  0  0  0  0  0  0  0  0  0  0
  147.0975  134.4095  153.1077 H   0  0  0  0  0  0  0  0  0  0  0  0
  147.9236  132.9201  154.8077 H   0  0  0  0  0  0  0  0  0  0  0  0
  150.4948  133.2350  154.8539 H   0  0  0  0  0  0  0  0  0  0  0  0
  150.3389  134.0118  153.3006 H   0  0  0  0  0  0  0  0  0  0  0  0
  148.5179  135.3930  154.7598 H   0  0  0  0  0  0  0  0  0  0  0  0
  148.7919  137.3844  155.5848 H   0  0  0  0  0  0  0  0  0  0  0  0
  149.6092  137.0951  157.0936 H   0  0  0  0  0  0  0  0  0  0  0  0
  152.2857  136.8202  157.5219 H   0  0  0  0  0  0  0  0  0  0  0  0
  153.4370  138.1205  157.7926 H   0  0  0  0  0  0  0  0  0  0  0  0
  153.6452  137.0309  156.4240 H   0  0  0  0  0  0  0  0  0  0  0  0
  148.4200  139.4746  154.5482 H   0  0  0  0  0  0  0  0  0  0  0  0
  149.4565  139.7810  153.1539 H   0  0  0  0  0  0  0  0  0  0  0  0
  149.2150  141.0375  154.3700 H   0  0  0  0  0  0  0  0  0  0  0  0
  148.9097  130.8474  154.2748 H   0  0  0  0  0  0  0  0  0  0  0  0
  149.7321  131.4809  152.8551 H   0  0  0  0  0  0  0  0  0  0  0  0
  148.1224  131.0162  151.6183 H   0  0  0  0  0  0  0  0  0  0  0  0
  1  2  1  0  0  0  0
  1 20  1  0  0  0  0
  1 21  1  0  0  0  0
  1 22  1  0  0  0  0
  2  3  1  0  0  0  0
  2 23  1  0  0  0  0
  2 24  1  0  0  0  0
  3 19  1  0  0  0  0
  3  4  1  0  0  0  0
  3 43  1  0  0  0  0
  4  5  1  0  0  0  0
  4 25  1  0  0  0  0
  4 26  1  0  0  0  0
  5  6  1  0  0  0  0
  5 27  1  0  0  0  0
  5 28  1  0  0  0  0
  6  7  1  0  0  0  0
  6 19  1  0  0  0  0
  6 29  1  0  0  0  0
  7  8  1  0  0  0  0
  7 30  1  0  0  0  0
  7 31  1  0  0  0  0
  8  9  1  0  0  0  0
  8 32  1  0  0  0  0
  9 10  2  0  0  0  0
  9 11  1  0  0  0  0
 11 12  1  0  0  0  0
 11 33  1  0  0  0  0
 11 34  1  0  0  0  0
 12 17  2  0  0  0  0
 12 13  1  0  0  0  0
 13 14  1  0  0  0  0
 13 15  2  0  0  0  0
 14 35  1  0  0  0  0
 14 36  1  0  0  0  0
 14 37  1  0  0  0  0
 15 16  1  0  0  0  0
 16 17  1  0  0  0  0
 17 18  1  0  0  0  0
 18 38  1  0  0  0  0
 18 39  1  0  0  0  0
 18 40  1  0  0  0  0
 19 41  1  0  0  0  0
 19 42  1  0  0  0  0
M  CHG  1   3   1
M  END
> <s_m_source_file>
AV-unprocessed.smi

> <i_m_source_file_index>
1184

> <i_lp_mmshare_version>
43012

> <i_f3d_flags>
0

> <s_epik_input>
W0NIM11bQ0gyXU4xW0NIMl1bQ0gyXVtDQEhdKFtDSDJdMSlbQ0gyXVtOSF1DKD1PKVtDSDJdYzJjKFtDSDNdKW5vYzJbQ0gzXQ==

> <s_epik_cmdline>
J2VwaWtfcHl0aG9uJywgJy1waCcsICc3LjAnLCAnLXRuJywgJzgnLCAnLW1hJywgJzIwMCcsICctbWV0YWxfYmluZGluZycsICctaW1hZScsICc8aW5maWxlLm1hZT4nLCAnLW9tYWUnLCAnPG91dGZpbGUubWFlPic=

> <r_epik_Ionization_Penalty>
0.000590726

> <r_epik_Ionization_Penalty_Charging>
0.000590692

> <r_epik_Ionization_Penalty_Neutral>
3.44741e-08

> <r_epik_State_Penalty>
0.000371644

> <r_epik_Charging_Adjusted_Penalty>
0.000962336

> <i_epik_Tot_Q>
1

> <i_epik_Tot_abs_Q>
1

> <r_epik_Metal_State_Penalty>
-0

> <b_epik_Metal_Only>
0

> <s_lp_Force_Field>
OPLS_2005

> <r_lp_Energy>
22.6293

> <b_lp_Chiralities_Consistent>
1

> <s_lp_Variant>
AV-unprocessed.smi:1184-3

> <Gold.Version>
5.8.1

> <Gold.Id.Protein>
6NUR|6NUR_protein|mol2

> <Gold.PLP.Fitness>
42.4811

> <Gold.PLP.PLP>
-31.2318

> <Gold.PLP.part.hbond>
-4.2132

> <Gold.PLP.part.metal>
0.0000

> <Gold.PLP.part.buried>
-2.5568

> <Gold.PLP.part.nonpolar>
-23.9119

> <Gold.PLP.part.repulsive>
0.1496

> <Gold.PLP.ligand.clash>
0.0000

> <Gold.PLP.ligand.torsion>
0.3897

> <Gold.PLP.Chemscore.Hbond>
3.9920

> <Gold.PLP.Chemscore.CHOScore>
0.0000

> <Gold.PLP.Chemscore.Metal>
0.0000

> <Gold.Chemscore.Hbonds>
donor molecule, donor type, donor heavy atom, donor atom, acceptor molecule, acceptor atom, score
      L1  H     3    43       P1 10747  1.00
      P1  H  7989  7998       L1    16  0.98
      P1  H  7997  8010       L1    15  1.00
      P1  H 10752 10765       L1    10  1.00

> <Gold.PLP.Chemscore.Internal.Correction>
0.0528

> <Gold.Rescore>
     Score         DG    S(hbond)    S(metal)    S(lipo)     H(rot)  DE(clash)    DE(int)     intcor
     19.84     -22.77       3.81        0.00      75.47       1.67       0.07       2.86       ----

> <Gold.Chemscore.Fitness>
19.8387

> <Gold.Chemscore.DG>
-22.7737

> <Gold.Chemscore.ZeroCoef>
-5.4800

> <Gold.Chemscore.Hbond>
3.8129

> <Gold.Chemscore.Metal>
0.0000

> <Gold.Chemscore.Lipo>
75.4694

> <Gold.Chemscore.Internal_Hbond>
0.0000

> <Gold.Chemscore.DEClash>
0.0737

> <Gold.Chemscore.DEInternal>
2.8614

> <Gold.Chemscore.Rot>
1.6684

> <Gold.Chemscore.Internal.Correction>
   9.000000E+99

> <Gold.Chemscore.Hbonds>
donor molecule, donor type, donor heavy atom, donor atom, acceptor molecule, acceptor atom, score
      L1  H     3    43       P1 10747  0.98
      P1  H  7989  7998       L1    16  0.46
      P1  H  7997  8010       L1    15  1.00
      P1  H 10752 10765       L1    10  1.00

> <Gold.Chemscore.Hbond.Weighted>
-12.7350

> <Gold.Chemscore.Metal.Weighted>
-0.0000

> <Gold.Chemscore.Lipo.Weighted>
-8.8299

> <Gold.Chemscore.Internal_Hbond.Weighted>
0.0000

> <Gold.Chemscore.DEClash.Weighted>
0.0737

> <Gold.Chemscore.DEInternal.Weighted>
2.8614

> <Gold.Chemscore.Rot.Weighted>
4.2712

> <Gold.Chemscore.Internal.Correction.Weighted>
   9.000000E+99

> <Gold.Protein.RotatedTorsions>
[ 6907 6896 6895 6894 ] final -177.87 input  -60.11 | X-H torsion
[ 7974 7965 7964 7962 ] final   40.90 input  175.53 | X-H torsion
[ 8008 7997 7996 7995 ] final   98.67 input   59.86 | X-H torsion
[ 10167 10162 10161 10158 ] final   33.95 input  -65.29 | X-H torsion
[ 10718 10713 10712 10709 ] final   73.33 input   66.30 | X-H torsion
[ 10763 10752 10751 10750 ] final -157.23 input  -60.55 | X-H torsion
[ 11005 11000 10999 10996 ] final  -37.28 input  -57.11 | X-H torsion

> <Gold.Protein.ActiveResidues>
 VAL166  LYS551  ARG553  GLY616  TRP617  ASP618  TYR619  PRO620  LYS621  CYS622 
 ASP623  PHE694  ASN695  SER759  ASP760  ASP761  ALA762  ILE779  LEU786  VAL792 
 PHE793  MET794  SER795  GLU796  ALA797  LYS798  CYS799  TRP800  GLU811  SER814 

> <Gold.Protein.RotatedAtoms>
  151.6280  133.3334  159.3102 H   0  0  0  0  0  0  0  0  0  0  0  0  # atno 6907 bound_to 6896
  150.8071  134.7207  159.6666 H   0  0  0  0  0  0  0  0  0  0  0  0  # atno 6908 bound_to 6896
  152.4167  134.6034  160.0057 H   0  0  0  0  0  0  0  0  0  0  0  0  # atno 6909 bound_to 6896
  146.0868  139.5479  142.9502 H   0  0  0  0  0  0  0  0  0  0  0  0  # atno 7974 bound_to 7965
  156.1028  140.3240  155.7965 H   0  0  0  0  0  0  0  0  0  0  0  0  # atno 8008 bound_to 7997
  155.4807  140.0554  157.2985 H   0  0  0  0  0  0  0  0  0  0  0  0  # atno 8009 bound_to 7997
  154.4708  140.2010  156.0015 H   0  0  0  0  0  0  0  0  0  0  0  0  # atno 8010 bound_to 7997
  140.4360  144.1256  150.6166 H   0  0  0  0  0  0  0  0  0  0  0  0  # atno 10167 bound_to 10162
  157.6543  130.9623  150.1054 H   0  0  0  0  0  0  0  0  0  0  0  0  # atno 10718 bound_to 10713
  154.7652  135.3129  154.8300 H   0  0  0  0  0  0  0  0  0  0  0  0  # atno 10763 bound_to 10752
  153.9050  135.6812  153.4757 H   0  0  0  0  0  0  0  0  0  0  0  0  # atno 10764 bound_to 10752
  153.1257  135.4802  154.9201 H   0  0  0  0  0  0  0  0  0  0  0  0  # atno 10765 bound_to 10752
  140.9940  133.6990  156.1900 H   0  0  0  0  0  0  0  0  0  0  0  0  # atno 11005 bound_to 11000
  145.6115  141.0338  143.1964 LP  0  0  0  0  0  0  0  0  0  0  0  0  # atno 17320 bound_to 7965
  144.7331  139.7666  143.7339 LP  0  0  0  0  0  0  0  0  0  0  0  0  # atno 17321 bound_to 7965
  140.4372  143.2542  151.9519 LP  0  0  0  0  0  0  0  0  0  0  0  0  # atno 17342 bound_to 10162
  139.4787  144.5688  151.8122 LP  0  0  0  0  0  0  0  0  0  0  0  0  # atno 17343 bound_to 10162
  156.1965  130.3657  149.8842 LP  0  0  0  0  0  0  0  0  0  0  0  0  # atno 17370 bound_to 10713
  156.6757  130.8838  151.3568 LP  0  0  0  0  0  0  0  0  0  0  0  0  # atno 17371 bound_to 10713
  140.6996  134.4579  157.5586 LP  0  0  0  0  0  0  0  0  0  0  0  0  # atno 17394 bound_to 11000
  139.9005  134.8566  156.1915 LP  0  0  0  0  0  0  0  0  0  0  0  0  # atno 17395 bound_to 11000

$$$$
