AV-unprocessed.smi:1790|AV-procd|sdf|7216|dock10
  -GOLD-   22720 8453D 1   1.00000     0.00000
 Structure written by MMmdl.
 33 34  0  0  0  0  0  0  0  0  1 V2000
  154.3140  140.0178  160.5750 O   0  0  0  0  0  0  0  0  0  0  0  0
  153.9846  139.1758  159.7410 C   0  0  0  0  0  0  0  0  0  0  0  0
  154.6115  137.7835  159.8041 C   0  0  0  0  0  0  0  0  0  0  0  0
  155.0547  137.5314  161.1283 O   0  0  0  0  0  0  0  0  0  0  0  0
  154.0725  136.8861  161.9190 C   0  0  0  0  0  0  0  0  0  0  0  0
  154.6756  136.5435  163.2642 C   0  0  0  0  0  0  0  0  0  0  0  0
  153.9520  135.6219  164.2199 C   0  0  0  0  0  0  0  0  0  0  0  0
  154.0695  137.0912  164.5362 C   0  0  0  0  0  0  0  0  0  0  0  0
  153.0721  139.3576  158.7653 N   0  0  0  0  0  0  0  0  0  0  0  0
  152.3273  140.5016  158.4314 C   0  0  0  0  0  0  0  0  0  0  0  0
  152.3633  141.6815  159.1047 C   0  0  0  0  0  0  0  0  0  0  0  0
  151.5666  142.8269  158.6976 C   0  0  0  0  0  0  0  0  0  0  0  0
  151.6584  144.1580  159.4276 C   0  0  0  0  0  0  0  0  0  0  0  0
  152.4271  144.0653  160.5134 F   0  0  0  0  0  0  0  0  0  0  0  0
  152.1852  145.0802  158.6234 F   0  0  0  0  0  0  0  0  0  0  0  0
  150.4509  144.5787  159.8048 F   0  0  0  0  0  0  0  0  0  0  0  0
  150.8085  142.6704  157.5968 C   0  0  0  0  0  0  0  0  0  0  0  0
  150.7653  141.4616  156.8991 N   0  0  0  0  0  0  0  0  0  0  0  0
  151.4760  140.3626  157.2380 C   0  0  0  0  0  0  0  0  0  0  0  0
  151.3876  139.3354  156.5662 O   0  0  0  0  0  0  0  0  0  0  0  0
  150.1650  141.4210  156.0883 H   0  0  0  0  0  0  0  0  0  0  0  0
  153.8802  137.0326  159.4993 H   0  0  0  0  0  0  0  0  0  0  0  0
  155.4487  137.7395  159.1057 H   0  0  0  0  0  0  0  0  0  0  0  0
  153.2143  137.5427  162.0700 H   0  0  0  0  0  0  0  0  0  0  0  0
  153.7197  135.9769  161.4290 H   0  0  0  0  0  0  0  0  0  0  0  0
  155.7615  136.4697  163.2531 H   0  0  0  0  0  0  0  0  0  0  0  0
  152.9739  135.2488  163.9227 H   0  0  0  0  0  0  0  0  0  0  0  0
  154.5565  134.9304  164.8032 H   0  0  0  0  0  0  0  0  0  0  0  0
  154.7517  137.3808  165.3331 H   0  0  0  0  0  0  0  0  0  0  0  0
  153.1692  137.6965  164.4502 H   0  0  0  0  0  0  0  0  0  0  0  0
  152.8694  138.5471  158.1974 H   0  0  0  0  0  0  0  0  0  0  0  0
  152.9977  141.8137  159.9653 H   0  0  0  0  0  0  0  0  0  0  0  0
  150.1903  143.4449  157.1676 H   0  0  0  0  0  0  0  0  0  0  0  0
  1  2  2  0  0  0  0
  2  3  1  0  0  0  0
  2  9  1  0  0  0  0
  3  4  1  0  0  0  0
  3 22  1  0  0  0  0
  3 23  1  0  0  0  0
  4  5  1  0  0  0  0
  5  6  1  0  0  0  0
  5 24  1  0  0  0  0
  5 25  1  0  0  0  0
  6  8  1  0  0  0  0
  6  7  1  0  0  0  0
  6 26  1  0  0  0  0
  7  8  1  0  0  0  0
  7 27  1  0  0  0  0
  7 28  1  0  0  0  0
  8 29  1  0  0  0  0
  8 30  1  0  0  0  0
  9 10  1  0  0  0  0
  9 31  1  0  0  0  0
 10 19  1  0  0  0  0
 10 11  2  0  0  0  0
 11 12  1  0  0  0  0
 11 32  1  0  0  0  0
 12 13  1  0  0  0  0
 12 17  2  0  0  0  0
 13 14  1  0  0  0  0
 13 15  1  0  0  0  0
 13 16  1  0  0  0  0
 17 18  1  0  0  0  0
 17 33  1  0  0  0  0
 18 21  1  0  0  0  0
 18 19  1  0  0  0  0
 19 20  2  0  0  0  0
M  END
> <s_m_source_file>
AV-unprocessed.smi

> <i_m_source_file_index>
1790

> <i_lp_mmshare_version>
43012

> <i_f3d_flags>
0

> <s_epik_input>
W0NIMl0xW0NIMl1bQ0hdMVtDSDJdT1tDSDJdQyg9TylbTkhdYzJbY0hdYyhDKEYpKEYpRilbY0hdW25IXWMyPU8=

> <s_epik_cmdline>
J2VwaWtfcHl0aG9uJywgJy1waCcsICc3LjAnLCAnLXRuJywgJzgnLCAnLW1hJywgJzIwMCcsICctbWV0YWxfYmluZGluZycsICctaW1hZScsICc8aW5maWxlLm1hZT4nLCAnLW9tYWUnLCAnPG91dGZpbGUubWFlPic=

> <r_lp_tautomer_probability>
0.999

> <r_epik_Ionization_Penalty>
0.00811055

> <r_epik_Ionization_Penalty_Charging>
0.00811046

> <r_epik_Ionization_Penalty_Neutral>
9.25705e-08

> <r_epik_State_Penalty>
0.00609496

> <r_epik_Charging_Adjusted_Penalty>
0.0142054

> <i_epik_Tot_Q>
0

> <i_epik_Tot_abs_Q>
0

> <r_epik_Metal_State_Penalty>
0.317593

> <b_epik_Metal_Only>
0

> <s_lp_Force_Field>
OPLS_2005

> <r_lp_Energy>
26.3792

> <b_lp_Chiralities_Consistent>
1

> <s_lp_Variant>
AV-unprocessed.smi:1790-1

> <Gold.Version>
5.8.1

> <Gold.Id.Protein>
6NUR|6NUR_protein|mol2

> <Gold.PLP.Fitness>
42.3974

> <Gold.PLP.PLP>
-40.9002

> <Gold.PLP.part.hbond>
0.0000

> <Gold.PLP.part.metal>
0.0000

> <Gold.PLP.part.buried>
-6.6470

> <Gold.PLP.part.nonpolar>
-34.1920

> <Gold.PLP.part.repulsive>
0.1465

> <Gold.PLP.ligand.clash>
0.0000

> <Gold.PLP.ligand.torsion>
1.0446

> <Gold.PLP.Chemscore.Hbond>
0.0000

> <Gold.PLP.Chemscore.CHOScore>
1.0000

> <Gold.PLP.Chemscore.Metal>
0.0000

> <Gold.Chemscore.Hbonds>
donor molecule, donor type, donor heavy atom, donor atom, acceptor molecule, acceptor atom, score
      L1  C    17    33       P1  8028  1.00

> <Gold.PLP.Chemscore.Internal.Correction>
0.5865

> <Gold.Rescore>
     Score         DG    S(hbond)    S(metal)    S(lipo)     H(rot)  DE(clash)    DE(int)     intcor
      8.58     -10.80       0.00        0.00      86.30       1.87       0.01       2.21       ----

> <Gold.Chemscore.Fitness>
8.5759

> <Gold.Chemscore.DG>
-10.7988

> <Gold.Chemscore.ZeroCoef>
-5.4800

> <Gold.Chemscore.Hbond>
0.0000

> <Gold.Chemscore.Metal>
0.0000

> <Gold.Chemscore.Lipo>
86.2969

> <Gold.Chemscore.Internal_Hbond>
0.0000

> <Gold.Chemscore.DEClash>
0.0135

> <Gold.Chemscore.DEInternal>
2.2093

> <Gold.Chemscore.Rot>
1.8664

> <Gold.Chemscore.Internal.Correction>
   9.000000E+99

> <Gold.Chemscore.Hbond.Weighted>
-0.0000

> <Gold.Chemscore.Metal.Weighted>
-0.0000

> <Gold.Chemscore.Lipo.Weighted>
-10.0967

> <Gold.Chemscore.Internal_Hbond.Weighted>
0.0000

> <Gold.Chemscore.DEClash.Weighted>
0.0135

> <Gold.Chemscore.DEInternal.Weighted>
2.2093

> <Gold.Chemscore.Rot.Weighted>
4.7780

> <Gold.Chemscore.Internal.Correction.Weighted>
   9.000000E+99

> <Gold.Protein.RotatedTorsions>
[ 6907 6896 6895 6894 ] final  127.98 input  -60.11 | X-H torsion
[ 7974 7965 7964 7962 ] final -162.44 input  175.53 | X-H torsion
[ 8008 7997 7996 7995 ] final -118.13 input   59.86 | X-H torsion
[ 10167 10162 10161 10158 ] final  173.53 input  -65.29 | X-H torsion
[ 10718 10713 10712 10709 ] final  -59.40 input   66.30 | X-H torsion
[ 10763 10752 10751 10750 ] final  175.49 input  -60.55 | X-H torsion
[ 11005 11000 10999 10996 ] final  -68.15 input  -57.11 | X-H torsion

> <Gold.Protein.ActiveResidues>
 VAL166  LYS551  ARG553  GLY616  TRP617  ASP618  TYR619  PRO620  LYS621  CYS622 
 ASP623  PHE694  ASN695  SER759  ASP760  ASP761  ALA762  ILE779  LEU786  VAL792 
 PHE793  MET794  SER795  GLU796  ALA797  LYS798  CYS799  TRP800  GLU811  SER814 

> <Gold.Protein.RotatedAtoms>
  152.3762  133.6484  159.6124 H   0  0  0  0  0  0  0  0  0  0  0  0  # atno 6907 bound_to 6896
  150.7705  133.9189  159.3401 H   0  0  0  0  0  0  0  0  0  0  0  0  # atno 6908 bound_to 6896
  151.7003  135.0932  160.0301 H   0  0  0  0  0  0  0  0  0  0  0  0  # atno 6909 bound_to 6896
  144.7357  140.3252  143.6163 H   0  0  0  0  0  0  0  0  0  0  0  0  # atno 7974 bound_to 7965
  155.0947  140.0395  157.2679 H   0  0  0  0  0  0  0  0  0  0  0  0  # atno 8008 bound_to 7997
  154.6804  140.2632  155.6889 H   0  0  0  0  0  0  0  0  0  0  0  0  # atno 8009 bound_to 7997
  156.2692  140.2779  156.1346 H   0  0  0  0  0  0  0  0  0  0  0  0  # atno 8010 bound_to 7997
  139.5111  144.3250  152.0166 H   0  0  0  0  0  0  0  0  0  0  0  0  # atno 10167 bound_to 10162
  156.1064  130.4180  150.0710 H   0  0  0  0  0  0  0  0  0  0  0  0  # atno 10718 bound_to 10713
  154.4684  135.2770  155.1661 H   0  0  0  0  0  0  0  0  0  0  0  0  # atno 10763 bound_to 10752
  154.3420  135.6168  153.5605 H   0  0  0  0  0  0  0  0  0  0  0  0  # atno 10764 bound_to 10752
  152.9861  135.5791  154.5060 H   0  0  0  0  0  0  0  0  0  0  0  0  # atno 10765 bound_to 10752
  141.1525  133.6734  156.6402 H   0  0  0  0  0  0  0  0  0  0  0  0  # atno 11005 bound_to 11000
  145.7528  139.1799  143.2312 LP  0  0  0  0  0  0  0  0  0  0  0  0  # atno 17320 bound_to 7965
  146.1047  140.7501  142.9532 LP  0  0  0  0  0  0  0  0  0  0  0  0  # atno 17321 bound_to 7965
  140.2691  144.3983  150.6157 LP  0  0  0  0  0  0  0  0  0  0  0  0  # atno 17342 bound_to 10162
  140.6101  143.2169  151.6902 LP  0  0  0  0  0  0  0  0  0  0  0  0  # atno 17343 bound_to 10162
  156.8685  130.9516  151.3611 LP  0  0  0  0  0  0  0  0  0  0  0  0  # atno 17370 bound_to 10713
  157.6241  130.8678  149.9159 LP  0  0  0  0  0  0  0  0  0  0  0  0  # atno 17371 bound_to 10713
  140.3399  134.7858  157.4390 LP  0  0  0  0  0  0  0  0  0  0  0  0  # atno 17394 bound_to 11000
  140.0947  134.5554  155.8410 LP  0  0  0  0  0  0  0  0  0  0  0  0  # atno 17395 bound_to 11000

$$$$
