#       Name:                AV-unprocessed.smi:3127
#       Creating user name   scv26
#       Creation time:       Fri Mar 27 17:29:39 2020


#       File generated by GOLD software.
#

@<TRIPOS>MOLECULE
AV-unprocessed.smi:3127
    37    38     1
SMALL
NO_CHARGES


@<TRIPOS>ATOM
      1 ****        -3.1112   2.0439  -2.1583 C.3            1 S1                 0.0000
      2 ****        -2.5152   1.0274  -1.1608 C.3            1 S1                 0.0000
      3 ****        -3.2200   1.2242   0.1959 C.3            1 S1                 0.0000
      4 ****        -2.7984  -0.3892  -1.6982 C.3            1 S1                 0.0000
      5 ****        -1.0215   1.2292  -1.0003 C.2            1 S1                 0.0000
      6 ****        -0.2168   2.1539  -1.6261 C.2            1 S1                 0.0000
      7 ****         1.4509   2.0165  -1.1418 S.3            1 S1                 0.0000
      8 ****         0.9999   0.6980  -0.0716 C.2            1 S1                 0.0000
      9 ****         1.9915  -0.0533   0.7572 C.3            1 S1                 0.0000
     10 ****         2.5095  -1.3192   0.0486 C.3            1 S1                 0.0000
     11 ****         3.4118  -2.0661   0.9464 N.4            1 S1                 1.0000
     12 ****         2.7615  -2.3699   2.2367 C.3            1 S1                 0.0000
     13 ****         2.2268  -1.0773   2.8784 C.3            1 S1                 0.0000
     14 ****         1.3446  -0.4205   1.9740 O.3            1 S1                 0.0000
     15 ****        -0.3018   0.4034  -0.1264 N.2            1 S1                 0.0000
     16 ****        -4.1865   1.9027  -2.2741 H              1 S1                 0.0000
     17 ****        -2.6647   1.9443  -3.1486 H              1 S1                 0.0000
     18 ****        -2.9551   3.0706  -1.8246 H              1 S1                 0.0000
     19 ****        -3.0337   2.2209   0.5978 H              1 S1                 0.0000
     20 ****        -2.8759   0.5019   0.9370 H              1 S1                 0.0000
     21 ****        -4.2998   1.1033   0.1042 H              1 S1                 0.0000
     22 ****        -3.8669  -0.5537  -1.8417 H              1 S1                 0.0000
     23 ****        -2.4425  -1.1588  -1.0124 H              1 S1                 0.0000
     24 ****        -2.3084  -0.5528  -2.6588 H              1 S1                 0.0000
     25 ****        -0.4984   2.9077  -2.3465 H              1 S1                 0.0000
     26 ****         2.8224   0.6184   0.9807 H              1 S1                 0.0000
     27 ****         1.6771  -1.9648  -0.2359 H              1 S1                 0.0000
     28 ****         3.0432  -1.0592  -0.8660 H              1 S1                 0.0000
     29 ****         3.6922  -2.9281   0.5002 H              1 S1                 0.0000
     30 ****         1.9442  -3.0729   2.0699 H              1 S1                 0.0000
     31 ****         3.4777  -2.8593   2.8969 H              1 S1                 0.0000
     32 ****         1.6850  -1.3083   3.7957 H              1 S1                 0.0000
     33 ****         3.0460  -0.4103   3.1521 H              1 S1                 0.0000
     34 ****         4.2324  -1.5038   1.1217 H              1 S1                 0.0000
     35 ****         0.5854  -1.0356   1.7616 LP             1 S1                 0.0000
     36 ****         0.9914   0.4060   2.4124 LP             1 S1                 0.0000
     37 ****        -0.7212  -0.3335   0.4037 LP             1 S1                 0.0000
@<TRIPOS>BOND
    1    1    2 1     
    2    1   16 1     
    3    1   17 1     
    4    1   18 1     
    5    2    3 1     
    6    2    4 1     
    7    2    5 1     
    8    3   19 1     
    9    3   20 1     
   10    3   21 1     
   11    4   22 1     
   12    4   23 1     
   13    4   24 1     
   14    5   15 1     
   15    5    6 2     
   16    6    7 1     
   17    6   25 1     
   18    7    8 1     
   19    8    9 1     
   20    8   15 2     
   21    9   14 1     
   22    9   10 1     
   23    9   26 1     
   24   10   11 1     
   25   10   27 1     
   26   10   28 1     
   27   11   12 1     
   28   11   29 1     
   29   11   34 1     
   30   12   13 1     
   31   12   30 1     
   32   12   31 1     
   33   13   14 1     
   34   13   32 1     
   35   13   33 1     
   36   14   35 1     
   37   14   36 1     
   38   15   37 1     
@<TRIPOS>SUBSTRUCTURE
      1 S1             1
@<TRIPOS>SET
LONE_PAIRS      STATIC     ATOMS    <user>   **** ""
3 35 36 37
DONOR_HYDROGENS      STATIC     ATOMS    <user>   **** ""
2 29 34
ATOM$BLUE        STATIC     ATOMS    COLORGROUP SYSTEM
3 35 36 37
ATOM$RED        STATIC     ATOMS    COLORGROUP SYSTEM
2 29 34
