#       Name:                AV-unprocessed.smi:1015
#       Creating user name   scv26
#       Creation time:       Fri Mar 27 02:39:28 2020


#       File generated by GOLD software.
#

@<TRIPOS>MOLECULE
AV-unprocessed.smi:1015
    50    51     1
SMALL
NO_CHARGES


@<TRIPOS>ATOM
      1 ****        -4.2119   2.4696   1.9209 C.3            1 S1                 0.0000
      2 ****        -3.6786   1.6719   0.8787 O.3            1 S1                 0.0000
      3 ****        -3.4891   2.4009  -0.3234 C.3            1 S1                 0.0000
      4 ****        -2.8740   1.4968  -1.4051 C.3            1 S1                 0.0000
      5 ****        -1.4188   1.3425  -1.3501 N.3            1 S1                 0.0000
      6 ****        -0.9316   0.6511  -2.5439 C.3            1 S1                 0.0000
      7 ****         0.6014   0.5374  -2.5798 C.3            1 S1                 0.0000
      8 ****         1.1257  -0.1890  -1.3284 C.3            1 S1                 0.0000
      9 ****         2.6673  -0.2662  -1.3264 C.3            1 S1                 0.0000
     10 ****         3.1757  -0.9601  -0.1494 N.am           1 S1                 0.0000
     11 ****         3.1842  -2.2913   0.0181 C.2            1 S1                 0.0000
     12 ****         2.8603  -3.0906  -0.8597 O.2            1 S1                 0.0000
     13 ****         3.5875  -2.7963   1.4025 C.3            1 S1                 0.0000
     14 ****         2.5263  -2.5459   2.3603 N.pl3          1 S1                 0.0000
     15 ****         1.3838  -3.1957   2.5928 C.2            1 S1                 0.0000
     16 ****         0.6758  -2.6131   3.5483 N.2            1 S1                 0.0000
     17 ****         1.4637  -1.5329   3.9098 N.2            1 S1                 0.0000
     18 ****         2.5629  -1.4877   3.2082 N.2            1 S1                 0.0000
     19 ****         0.5579   0.5019  -0.0707 C.3            1 S1                 0.0000
     20 ****        -0.9724   0.6280  -0.1517 C.3            1 S1                 0.0000
     21 ****        -4.3445   1.8615   2.8157 H              1 S1                 0.0000
     22 ****        -5.1839   2.8812   1.6461 H              1 S1                 0.0000
     23 ****        -3.5402   3.2922   2.1695 H              1 S1                 0.0000
     24 ****        -4.4594   2.7619  -0.6677 H              1 S1                 0.0000
     25 ****        -2.8599   3.2769  -0.1565 H              1 S1                 0.0000
     26 ****        -3.3608   0.5205  -1.3940 H              1 S1                 0.0000
     27 ****        -3.1289   1.9424  -2.3675 H              1 S1                 0.0000
     28 ****        -1.3717  -0.3460  -2.5994 H              1 S1                 0.0000
     29 ****        -1.2624   1.1827  -3.4369 H              1 S1                 0.0000
     30 ****         0.9101   0.0047  -3.4799 H              1 S1                 0.0000
     31 ****         1.0384   1.5350  -2.6432 H              1 S1                 0.0000
     32 ****         0.7352  -1.2077  -1.3533 H              1 S1                 0.0000
     33 ****         3.0268  -0.7585  -2.2316 H              1 S1                 0.0000
     34 ****         3.0911   0.7384  -1.3333 H              1 S1                 0.0000
     35 ****         3.4653  -0.3834   0.6275 H              1 S1                 0.0000
     36 ****         3.7860  -3.8683   1.3702 H              1 S1                 0.0000
     37 ****         4.5039  -2.3041   1.7325 H              1 S1                 0.0000
     38 ****         1.0702  -4.0815   2.0603 H              1 S1                 0.0000
     39 ****         0.8229  -0.0563   0.8280 H              1 S1                 0.0000
     40 ****         0.9991   1.4936   0.0385 H              1 S1                 0.0000
     41 ****        -1.3079   1.1502   0.7430 H              1 S1                 0.0000
     42 ****        -1.4242  -0.3648  -0.1210 H              1 S1                 0.0000
     43 ****        -4.3086   0.9163   0.6993 LP             1 S1                 0.0000
     44 ****        -2.7959   1.3067   1.1745 LP             1 S1                 0.0000
     45 ****        -1.0347   2.2649  -1.3118 LP             1 S1                 0.0000
     46 ****         2.5705  -2.7576  -1.7569 LP             1 S1                 0.0000
     47 ****         2.8868  -4.0732  -0.6757 LP             1 S1                 0.0000
     48 ****        -0.2119  -2.8866   3.9188 LP             1 S1                 0.0000
     49 ****         1.2208  -0.8712   4.6191 LP             1 S1                 0.0000
     50 ****         3.2906  -0.8058   3.2814 LP             1 S1                 0.0000
@<TRIPOS>BOND
    1    1    2 1     
    2    1   21 1     
    3    1   22 1     
    4    1   23 1     
    5    2    3 1     
    6    3    4 1     
    7    3   24 1     
    8    3   25 1     
    9    4    5 1     
   10    4   26 1     
   11    4   27 1     
   12    5   20 1     
   13    5    6 1     
   14    6    7 1     
   15    6   28 1     
   16    6   29 1     
   17    7    8 1     
   18    7   30 1     
   19    7   31 1     
   20    8    9 1     
   21    8   19 1     
   22    8   32 1     
   23    9   10 1     
   24    9   33 1     
   25    9   34 1     
   26   10   11 am    
   27   10   35 1     
   28   11   12 2     
   29   11   13 1     
   30   13   14 1     
   31   13   36 1     
   32   13   37 1     
   33   14   18 1     
   34   14   15 1     
   35   15   16 2     
   36   15   38 1     
   37   16   17 1     
   38   17   18 2     
   39   19   20 1     
   40   19   39 1     
   41   19   40 1     
   42   20   41 1     
   43   20   42 1     
   44    2   43 1     
   45    2   44 1     
   46    5   45 1     
   47   12   46 1     
   48   12   47 1     
   49   16   48 1     
   50   17   49 1     
   51   18   50 1     
@<TRIPOS>SUBSTRUCTURE
      1 S1             1
@<TRIPOS>SET
LONE_PAIRS      STATIC     ATOMS    <user>   **** ""
8 43 44 45 46 47 48 49 50
DONOR_HYDROGENS      STATIC     ATOMS    <user>   **** ""
1 35
ATOM$BLUE        STATIC     ATOMS    COLORGROUP SYSTEM
8 43 44 45 46 47 48 49 50
ATOM$RED        STATIC     ATOMS    COLORGROUP SYSTEM
1 35
