#       Name:                AV-unprocessed.smi:2636
#       Creating user name   scv26
#       Creation time:       Fri Mar 27 14:26:59 2020


#       File generated by GOLD software.
#

@<TRIPOS>MOLECULE
AV-unprocessed.smi:2636
    42    43     1
SMALL
NO_CHARGES


@<TRIPOS>ATOM
      1 ****        -4.5942   2.6882  -1.8995 C.3            1 S1                 0.0000
      2 ****        -3.9514   2.1624  -0.6289 C.2            1 S1                 0.0000
      3 ****        -3.4972   0.8975  -0.5114 C.2            1 S1                 0.0000
      4 ****        -2.9013   0.4227   0.6683 N.am           1 S1                 0.0000
      5 ****        -2.3871  -0.9360   0.6932 C.3            1 S1                 0.0000
      6 ****        -1.0052  -0.8960   0.5514 O.3            1 S1                 0.0000
      7 ****        -0.3995  -2.1758   0.6397 C.3            1 S1                 0.0000
      8 ****         1.1021  -2.1115   0.4341 C.2            1 S1                 0.0000
      9 ****         1.8055  -0.9913   0.1800 C.2            1 S1                 0.0000
     10 ****         3.2626  -0.8978  -0.0250 C.ar           1 S1                 0.0000
     11 ****         4.1173  -2.0242   0.0402 C.ar           1 S1                 0.0000
     12 ****         5.5040  -1.8839  -0.1641 C.ar           1 S1                 0.0000
     13 ****         6.0530  -0.6177  -0.4379 C.ar           1 S1                 0.0000
     14 ****         5.2126   0.5088  -0.5065 C.ar           1 S1                 0.0000
     15 ****         3.8264   0.3674  -0.3004 C.ar           1 S1                 0.0000
     16 ****        -2.7266   1.2566   1.7363 C.2            1 S1                 0.0000
     17 ****        -2.1675   0.8308   2.7481 O.2            1 S1                 0.0000
     18 ****        -3.1882   2.5413   1.6431 N.pl3          1 S1                -1.0000
     19 ****        -3.7956   3.0463   0.5294 C.2            1 S1                 0.0000
     20 ****        -4.2077   4.2044   0.4716 O.2            1 S1                 0.0000
     21 ****        -4.6490   1.9123  -2.6635 H              1 S1                 0.0000
     22 ****        -4.0156   3.5202  -2.3021 H              1 S1                 0.0000
     23 ****        -5.6072   3.0377  -1.6982 H              1 S1                 0.0000
     24 ****        -3.5578   0.1774  -1.3142 H              1 S1                 0.0000
     25 ****        -2.6723  -1.4045   1.6377 H              1 S1                 0.0000
     26 ****        -2.8331  -1.5106  -0.1203 H              1 S1                 0.0000
     27 ****        -0.5961  -2.6142   1.6191 H              1 S1                 0.0000
     28 ****        -0.8215  -2.8438  -0.1124 H              1 S1                 0.0000
     29 ****         1.6031  -3.0644   0.5053 H              1 S1                 0.0000
     30 ****         1.2698  -0.0550   0.1156 H              1 S1                 0.0000
     31 ****         3.7283  -3.0090   0.2472 H              1 S1                 0.0000
     32 ****         6.1472  -2.7501  -0.1106 H              1 S1                 0.0000
     33 ****         7.1163  -0.5110  -0.5947 H              1 S1                 0.0000
     34 ****         5.6304   1.4824  -0.7159 H              1 S1                 0.0000
     35 ****         3.1939   1.2418  -0.3552 H              1 S1                 0.0000
     36 ****        -0.6279  -0.3149   1.2725 LP             1 S1                 0.0000
     37 ****        -0.7881  -0.5021  -0.3418 LP             1 S1                 0.0000
     38 ****        -1.8471  -0.1159   2.7815 LP             1 S1                 0.0000
     39 ****        -2.0340   1.4318   3.5361 LP             1 S1                 0.0000
     40 ****        -3.0745   3.1430   2.4336 LP             1 S1                 0.0000
     41 ****        -4.6463   4.5379  -0.3629 LP             1 S1                 0.0000
     42 ****        -4.1039   4.8119   1.2591 LP             1 S1                 0.0000
@<TRIPOS>BOND
    1    1    2 1     
    2    1   21 1     
    3    1   22 1     
    4    1   23 1     
    5    2   19 1     
    6    2    3 2     
    7    3    4 1     
    8    3   24 1     
    9    4    5 1     
   10    4   16 am    
   11    5    6 1     
   12    5   25 1     
   13    5   26 1     
   14    6    7 1     
   15    7    8 1     
   16    7   27 1     
   17    7   28 1     
   18    8    9 2     
   19    8   29 1     
   20    9   10 1     
   21    9   30 1     
   22   10   15 ar    
   23   10   11 ar    
   24   11   12 ar    
   25   11   31 1     
   26   12   13 ar    
   27   12   32 1     
   28   13   14 ar    
   29   13   33 1     
   30   14   15 ar    
   31   14   34 1     
   32   15   35 1     
   33   16   17 2     
   34   16   18 1     
   35   18   19 1     
   36   19   20 2     
   37    6   36 1     
   38    6   37 1     
   39   17   38 1     
   40   17   39 1     
   41   18   40 1     
   42   20   41 1     
   43   20   42 1     
@<TRIPOS>SUBSTRUCTURE
      1 S1             1
@<TRIPOS>SET
LONE_PAIRS      STATIC     ATOMS    <user>   **** ""
7 36 37 38 39 40 41 42
ATOM$BLUE        STATIC     ATOMS    COLORGROUP SYSTEM
7 36 37 38 39 40 41 42
