AV-unprocessed.smi:3183|AV-procd|sdf|12153|dock3
  -GOLD-   2272017593D 1   1.00000     0.00000
 Structure written by MMmdl.
 43 44  0  0  0  0  0  0  0  0  2 V2000
  152.9605  143.3239  162.2462 C   0  0  0  0  0  0  0  0  0  0  0  0
  152.7766  143.2789  160.7190 C   0  0  2  0  0  0  0  0  0  0  0  0
  151.6483  144.2445  160.3015 C   0  0  0  0  0  0  0  0  0  0  0  0
  151.4247  144.2489  158.7831 C   0  0  0  0  0  0  0  0  0  0  0  0
  151.1193  142.8342  158.2693 C   0  0  1  0  0  0  0  0  0  0  0  0
  150.9388  142.8491  156.8016 N   0  3  0  0  0  0  0  0  0  0  0  0
  150.6059  141.5393  156.2062 C   0  0  0  0  0  0  0  0  0  0  0  0
  151.8764  140.7285  155.9108 C   0  0  0  0  0  0  0  0  0  0  0  0
  151.6202  139.3383  155.4121 C   0  0  0  0  0  0  0  0  0  0  0  0
  150.8007  138.8803  154.4161 C   0  0  0  0  0  0  0  0  0  0  0  0
  150.9952  137.4720  154.4228 C   0  0  0  0  0  0  0  0  0  0  0  0
  151.8606  137.0855  155.3427 N   0  0  0  0  0  0  0  0  0  0  0  0
  152.2460  138.2265  155.9514 N   0  0  0  0  0  0  0  0  0  0  0  0
  153.2123  138.1399  157.0305 C   0  0  0  0  0  0  0  0  0  0  0  0
  152.2545  141.8728  158.6598 C   0  0  0  0  0  0  0  0  0  0  0  0
  152.5002  141.8482  160.1835 C   0  0  1  0  0  0  0  0  0  0  0  0
  153.6294  140.8555  160.5139 C   0  0  0  0  0  0  0  0  0  0  0  0
  152.0917  142.9151  162.7631 H   0  0  0  0  0  0  0  0  0  0  0  0
  153.0992  144.3485  162.5923 H   0  0  0  0  0  0  0  0  0  0  0  0
  153.8377  142.7626  162.5667 H   0  0  0  0  0  0  0  0  0  0  0  0
  153.7028  143.6376  160.2671 H   0  0  0  0  0  0  0  0  0  0  0  0
  150.7207  143.9649  160.8034 H   0  0  0  0  0  0  0  0  0  0  0  0
  151.8823  145.2565  160.6340 H   0  0  0  0  0  0  0  0  0  0  0  0
  150.6028  144.9222  158.5371 H   0  0  0  0  0  0  0  0  0  0  0  0
  152.3109  144.6458  158.2856 H   0  0  0  0  0  0  0  0  0  0  0  0
  150.1990  142.4888  158.7443 H   0  0  0  0  0  0  0  0  0  0  0  0
  150.1968  143.4977  156.5801 H   0  0  0  0  0  0  0  0  0  0  0  0
  149.9617  140.9891  156.8940 H   0  0  0  0  0  0  0  0  0  0  0  0
  150.0418  141.7001  155.2863 H   0  0  0  0  0  0  0  0  0  0  0  0
  152.4770  141.2630  155.1737 H   0  0  0  0  0  0  0  0  0  0  0  0
  152.4823  140.6733  156.8163 H   0  0  0  0  0  0  0  0  0  0  0  0
  150.1554  139.4609  153.7737 H   0  0  0  0  0  0  0  0  0  0  0  0
  150.5369  136.7253  153.7912 H   0  0  0  0  0  0  0  0  0  0  0  0
  153.4324  139.1258  157.4384 H   0  0  0  0  0  0  0  0  0  0  0  0
  154.1386  137.7003  156.6590 H   0  0  0  0  0  0  0  0  0  0  0  0
  152.8155  137.5118  157.8287 H   0  0  0  0  0  0  0  0  0  0  0  0
  152.0136  140.8675  158.3114 H   0  0  0  0  0  0  0  0  0  0  0  0
  153.1736  142.1629  158.1481 H   0  0  0  0  0  0  0  0  0  0  0  0
  151.5906  141.4781  160.6593 H   0  0  0  0  0  0  0  0  0  0  0  0
  154.5896  141.2030  160.1312 H   0  0  0  0  0  0  0  0  0  0  0  0
  153.4321  139.8780  160.0729 H   0  0  0  0  0  0  0  0  0  0  0  0
  153.7321  140.7008  161.5876 H   0  0  0  0  0  0  0  0  0  0  0  0
  151.7929  143.1852  156.3798 H   0  0  0  0  0  0  0  0  0  0  0  0
  1  2  1  0  0  0  0
  1 18  1  0  0  0  0
  1 19  1  0  0  0  0
  1 20  1  0  0  0  0
  2 16  1  0  0  0  0
  2  3  1  0  0  0  0
  2 21  1  0  0  0  0
  3  4  1  0  0  0  0
  3 22  1  0  0  0  0
  3 23  1  0  0  0  0
  4  5  1  0  0  0  0
  4 24  1  0  0  0  0
  4 25  1  0  0  0  0
  5  6  1  0  0  0  0
  5 15  1  0  0  0  0
  5 26  1  0  0  0  0
  6  7  1  0  0  0  0
  6 27  1  0  0  0  0
  6 43  1  0  0  0  0
  7  8  1  0  0  0  0
  7 28  1  0  0  0  0
  7 29  1  0  0  0  0
  8  9  1  0  0  0  0
  8 30  1  0  0  0  0
  8 31  1  0  0  0  0
  9 13  1  0  0  0  0
  9 10  2  0  0  0  0
 10 11  1  0  0  0  0
 10 32  1  0  0  0  0
 11 12  2  0  0  0  0
 11 33  1  0  0  0  0
 12 13  1  0  0  0  0
 13 14  1  0  0  0  0
 14 34  1  0  0  0  0
 14 35  1  0  0  0  0
 14 36  1  0  0  0  0
 15 16  1  0  0  0  0
 15 37  1  0  0  0  0
 15 38  1  0  0  0  0
 16 17  1  0  0  0  0
 16 39  1  0  0  0  0
 17 40  1  0  0  0  0
 17 41  1  0  0  0  0
 17 42  1  0  0  0  0
M  CHG  1   6   1
M  END
> <s_m_source_file>
AV-unprocessed.smi

> <i_m_source_file_index>
3183

> <i_lp_mmshare_version>
43012

> <i_f3d_flags>
0

> <s_epik_input>
W0NIM11bQ0BASF0xW0NIMl1bQ0gyXVtDQEhdKFtDSDJdW0NASF0xW0NIM10pW05IXVtDSDJdW0NIMl1jMltjSF1bY0hdbm4yW0NIM10=

> <s_epik_cmdline>
J2VwaWtfcHl0aG9uJywgJy1waCcsICc3LjAnLCAnLXRuJywgJzgnLCAnLW1hJywgJzIwMCcsICctbWV0YWxfYmluZGluZycsICctaW1hZScsICc8aW5maWxlLm1hZT4nLCAnLW9tYWUnLCAnPG91dGZpbGUubWFlPic=

> <r_lp_tautomer_probability>
1

> <r_epik_Ionization_Penalty>
0.000327718

> <r_epik_Ionization_Penalty_Charging>
0.000294043

> <r_epik_Ionization_Penalty_Neutral>
3.36755e-05

> <r_epik_State_Penalty>
-0

> <r_epik_Charging_Adjusted_Penalty>
0.000294043

> <i_epik_Tot_Q>
1

> <i_epik_Tot_abs_Q>
1

> <r_epik_Metal_State_Penalty>
-0

> <b_epik_Metal_Only>
0

> <s_lp_Force_Field>
OPLS_2005

> <r_lp_Energy>
14.1595

> <b_lp_Chiralities_Consistent>
1

> <s_lp_Variant>
AV-unprocessed.smi:3183-1

> <Gold.Version>
5.8.1

> <Gold.Id.Protein>
6NUR|6NUR_protein|mol2

> <Gold.PLP.Fitness>
54.1830

> <Gold.PLP.PLP>
-42.5680

> <Gold.PLP.part.hbond>
-2.0000

> <Gold.PLP.part.metal>
0.0000

> <Gold.PLP.part.buried>
-4.1822

> <Gold.PLP.part.nonpolar>
-35.3667

> <Gold.PLP.part.repulsive>
0.1170

> <Gold.PLP.ligand.clash>
0.0000

> <Gold.PLP.ligand.torsion>
0.2573

> <Gold.PLP.Chemscore.Hbond>
3.0000

> <Gold.PLP.Chemscore.CHOScore>
1.0407

> <Gold.PLP.Chemscore.Metal>
0.0000

> <Gold.Chemscore.Hbonds>
donor molecule, donor type, donor heavy atom, donor atom, acceptor molecule, acceptor atom, score
      L1  H     6    27       P1  8028  2.00
      P1  H 10752 10764       L1    12  0.99
      L1  C    11    33       P1  7948  0.52
      L1  C    11    33       P1  7949  0.52

> <Gold.PLP.Chemscore.Internal.Correction>
0.0075

> <Gold.Rescore>
     Score         DG    S(hbond)    S(metal)    S(lipo)     H(rot)  DE(clash)    DE(int)     intcor
     20.99     -23.05       1.94        0.00     125.04       1.38       1.70       0.36       ----

> <Gold.Chemscore.Fitness>
20.9906

> <Gold.Chemscore.DG>
-23.0512

> <Gold.Chemscore.ZeroCoef>
-5.4800

> <Gold.Chemscore.Hbond>
1.9360

> <Gold.Chemscore.Metal>
0.0000

> <Gold.Chemscore.Lipo>
125.0389

> <Gold.Chemscore.Internal_Hbond>
0.0000

> <Gold.Chemscore.DEClash>
1.6976

> <Gold.Chemscore.DEInternal>
0.3630

> <Gold.Chemscore.Rot>
1.3768

> <Gold.Chemscore.Internal.Correction>
   9.000000E+99

> <Gold.Chemscore.Hbonds>
donor molecule, donor type, donor heavy atom, donor atom, acceptor molecule, acceptor atom, score
      L1  H     6    27       P1  8028  0.95
      P1  H 10752 10764       L1    12  0.60

> <Gold.Chemscore.Hbond.Weighted>
-6.4664

> <Gold.Chemscore.Metal.Weighted>
-0.0000

> <Gold.Chemscore.Lipo.Weighted>
-14.6296

> <Gold.Chemscore.Internal_Hbond.Weighted>
0.0000

> <Gold.Chemscore.DEClash.Weighted>
1.6976

> <Gold.Chemscore.DEInternal.Weighted>
0.3630

> <Gold.Chemscore.Rot.Weighted>
3.5247

> <Gold.Chemscore.Internal.Correction.Weighted>
   9.000000E+99

> <Gold.Protein.RotatedTorsions>
[ 6907 6896 6895 6894 ] final   73.86 input  -60.11 | X-H torsion
[ 7974 7965 7964 7962 ] final  152.73 input  175.53 | X-H torsion
[ 8008 7997 7996 7995 ] final  123.54 input   59.86 | X-H torsion
[ 10167 10162 10161 10158 ] final   94.07 input  -65.29 | X-H torsion
[ 10718 10713 10712 10709 ] final  175.77 input   66.30 | X-H torsion
[ 10763 10752 10751 10750 ] final  -60.40 input  -60.55 | X-H torsion
[ 11005 11000 10999 10996 ] final   38.76 input  -57.11 | X-H torsion

> <Gold.Protein.ActiveResidues>
 VAL166  LYS551  ARG553  GLY616  TRP617  ASP618  TYR619  PRO620  LYS621  CYS622 
 ASP623  PHE694  ASN695  SER759  ASP760  ASP761  ALA762  ILE779  LEU786  VAL792 
 PHE793  MET794  SER795  GLU796  ALA797  LYS798  CYS799  TRP800  GLU811  SER814 

> <Gold.Protein.RotatedAtoms>
  152.4946  134.4358  159.9527 H   0  0  0  0  0  0  0  0  0  0  0  0  # atno 6907 bound_to 6896
  151.4339  133.3656  159.2780 H   0  0  0  0  0  0  0  0  0  0  0  0  # atno 6908 bound_to 6896
  150.9135  134.8575  159.7501 H   0  0  0  0  0  0  0  0  0  0  0  0  # atno 6909 bound_to 6896
  144.8202  139.6707  143.6104 H   0  0  0  0  0  0  0  0  0  0  0  0  # atno 7974 bound_to 7965
  156.2769  140.2760  156.1644 H   0  0  0  0  0  0  0  0  0  0  0  0  # atno 8008 bound_to 7997
  155.0720  140.0387  157.2629 H   0  0  0  0  0  0  0  0  0  0  0  0  # atno 8009 bound_to 7997
  154.7033  140.2653  155.6704 H   0  0  0  0  0  0  0  0  0  0  0  0  # atno 8010 bound_to 7997
  139.8118  144.6770  150.9630 H   0  0  0  0  0  0  0  0  0  0  0  0  # atno 10167 bound_to 10162
  156.9299  130.9968  151.2989 H   0  0  0  0  0  0  0  0  0  0  0  0  # atno 10718 bound_to 10713
  154.2686  135.6294  153.5301 H   0  0  0  0  0  0  0  0  0  0  0  0  # atno 10763 bound_to 10752
  152.9884  135.5604  154.5625 H   0  0  0  0  0  0  0  0  0  0  0  0  # atno 10764 bound_to 10752
  154.5190  135.2881  155.1254 H   0  0  0  0  0  0  0  0  0  0  0  0  # atno 10765 bound_to 10752
  140.2094  134.3773  155.8056 H   0  0  0  0  0  0  0  0  0  0  0  0  # atno 11005 bound_to 11000
  146.2507  139.6194  142.9429 LP  0  0  0  0  0  0  0  0  0  0  0  0  # atno 17320 bound_to 7965
  145.5122  141.0435  143.2481 LP  0  0  0  0  0  0  0  0  0  0  0  0  # atno 17321 bound_to 7965
  140.7817  143.4177  151.0891 LP  0  0  0  0  0  0  0  0  0  0  0  0  # atno 17342 bound_to 10162
  139.7843  143.8310  152.3142 LP  0  0  0  0  0  0  0  0  0  0  0  0  # atno 17343 bound_to 10162
  157.5853  130.8405  149.8581 LP  0  0  0  0  0  0  0  0  0  0  0  0  # atno 17370 bound_to 10713
  156.0452  130.3729  150.1336 LP  0  0  0  0  0  0  0  0  0  0  0  0  # atno 17371 bound_to 10713
  141.2226  133.7135  156.8392 LP  0  0  0  0  0  0  0  0  0  0  0  0  # atno 17394 bound_to 11000
  140.1967  134.8926  157.3123 LP  0  0  0  0  0  0  0  0  0  0  0  0  # atno 17395 bound_to 11000

$$$$
