AV-unprocessed.smi:2971|AV-procd|sdf|11335|dock2
  -GOLD-   2272016243D 1   1.00000     0.00000
 Structure written by MMmdl.
 37 39  0  0  0  0  0  0  0  0  2 V2000
  153.1900  138.9068  156.5742 O   0  0  0  0  0  0  0  0  0  0  0  0
  152.1677  139.7740  157.0239 C   0  0  1  0  0  0  0  0  0  0  0  0
  152.7228  140.6433  158.1611 C   0  0  0  0  0  0  0  0  0  0  0  0
  151.8810  141.7775  158.3205 O   0  0  0  0  0  0  0  0  0  0  0  0
  152.0255  142.5463  159.4557 C   0  0  0  0  0  0  0  0  0  0  0  0
  152.5879  142.0743  160.6693 C   0  0  0  0  0  0  0  0  0  0  0  0
  152.6992  142.9284  161.7837 C   0  0  0  0  0  0  0  0  0  0  0  0
  152.2526  144.2601  161.7015 C   0  0  0  0  0  0  0  0  0  0  0  0
  151.6925  144.7370  160.5021 C   0  0  0  0  0  0  0  0  0  0  0  0
  151.5791  143.8836  159.3873 C   0  0  0  0  0  0  0  0  0  0  0  0
  151.0377  144.3549  158.2385 F   0  0  0  0  0  0  0  0  0  0  0  0
  151.6421  140.6135  155.8420 C   0  0  0  0  0  0  0  0  0  0  0  0
  150.7192  139.8654  154.9792 N   0  0  0  0  0  0  0  0  0  0  0  0
  150.8792  138.6686  154.3517 C   0  0  0  0  0  0  0  0  0  0  0  0
  149.7289  138.4043  153.6715 N   0  3  0  0  0  0  0  0  0  0  0  0
  148.8215  139.4482  153.8662 C   0  0  0  0  0  0  0  0  0  0  0  0
  147.5292  139.6356  153.3856 C   0  0  0  0  0  0  0  0  0  0  0  0
  146.8732  140.8206  153.7794 C   0  0  0  0  0  0  0  0  0  0  0  0
  147.5015  141.7650  154.6173 C   0  0  0  0  0  0  0  0  0  0  0  0
  148.8127  141.5656  155.0977 C   0  0  0  0  0  0  0  0  0  0  0  0
  149.4527  140.3909  154.7047 C   0  0  0  0  0  0  0  0  0  0  0  0
  153.6076  138.5184  157.3279 H   0  0  0  0  0  0  0  0  0  0  0  0
  151.3645  139.1511  157.4191 H   0  0  0  0  0  0  0  0  0  0  0  0
  152.7372  140.0688  159.0890 H   0  0  0  0  0  0  0  0  0  0  0  0
  153.7459  140.9486  157.9345 H   0  0  0  0  0  0  0  0  0  0  0  0
  152.9409  141.0595  160.7722 H   0  0  0  0  0  0  0  0  0  0  0  0
  153.1284  142.5599  162.7040 H   0  0  0  0  0  0  0  0  0  0  0  0
  152.3392  144.9143  162.5565 H   0  0  0  0  0  0  0  0  0  0  0  0
  151.3495  145.7590  160.4359 H   0  0  0  0  0  0  0  0  0  0  0  0
  151.1284  141.5091  156.1938 H   0  0  0  0  0  0  0  0  0  0  0  0
  152.4698  140.9564  155.2197 H   0  0  0  0  0  0  0  0  0  0  0  0
  151.7575  138.0404  154.3894 H   0  0  0  0  0  0  0  0  0  0  0  0
  147.0452  138.9139  152.7439 H   0  0  0  0  0  0  0  0  0  0  0  0
  145.8676  141.0088  153.4321 H   0  0  0  0  0  0  0  0  0  0  0  0
  146.9668  142.6607  154.8985 H   0  0  0  0  0  0  0  0  0  0  0  0
  149.2860  142.2935  155.7405 H   0  0  0  0  0  0  0  0  0  0  0  0
  149.5768  137.5715  153.1172 H   0  0  0  0  0  0  0  0  0  0  0  0
  1  2  1  0  0  0  0
  1 22  1  0  0  0  0
  2  3  1  0  0  0  0
  2 12  1  0  0  0  0
  2 23  1  0  0  0  0
  3  4  1  0  0  0  0
  3 24  1  0  0  0  0
  3 25  1  0  0  0  0
  4  5  1  0  0  0  0
  5 10  1  0  0  0  0
  5  6  2  0  0  0  0
  6  7  1  0  0  0  0
  6 26  1  0  0  0  0
  7  8  2  0  0  0  0
  7 27  1  0  0  0  0
  8  9  1  0  0  0  0
  8 28  1  0  0  0  0
  9 10  2  0  0  0  0
  9 29  1  0  0  0  0
 10 11  1  0  0  0  0
 12 13  1  0  0  0  0
 12 30  1  0  0  0  0
 12 31  1  0  0  0  0
 13 21  1  0  0  0  0
 13 14  1  0  0  0  0
 14 15  2  0  0  0  0
 14 32  1  0  0  0  0
 15 16  1  0  0  0  0
 15 37  1  0  0  0  0
 16 21  2  0  0  0  0
 16 17  1  0  0  0  0
 17 18  2  0  0  0  0
 17 33  1  0  0  0  0
 18 19  1  0  0  0  0
 18 34  1  0  0  0  0
 19 20  2  0  0  0  0
 19 35  1  0  0  0  0
 20 21  1  0  0  0  0
 20 36  1  0  0  0  0
M  CHG  1  15   1
M  END
> <s_m_source_file>
AV-unprocessed.smi

> <i_m_source_file_index>
2971

> <i_lp_mmshare_version>
43012

> <i_f3d_flags>
0

> <s_epik_input>
W2NIXTFbY0hdW2NIXVtjSF1jKGMxMiluKFtjSF1uMilbQ0gyXVtDQEhdKFtPSF0pW0NIMl1PYzNbY0hdW2NIXVtjSF1bY0hdYzNG

> <s_epik_cmdline>
J2VwaWtfcHl0aG9uJywgJy1waCcsICc3LjAnLCAnLXRuJywgJzgnLCAnLW1hJywgJzIwMCcsICctbWV0YWxfYmluZGluZycsICctaW1hZScsICc8aW5maWxlLm1hZT4nLCAnLW9tYWUnLCAnPG91dGZpbGUubWFlPic=

> <r_lp_tautomer_probability>
1

> <r_epik_Ionization_Penalty>
1.38569

> <r_epik_Ionization_Penalty_Charging>
1.38568

> <r_epik_Ionization_Penalty_Neutral>
2.3993e-06

> <r_epik_State_Penalty>
1.46659

> <r_epik_Charging_Adjusted_Penalty>
2.85227

> <i_epik_Tot_Q>
1

> <i_epik_Tot_abs_Q>
1

> <r_epik_Metal_State_Penalty>
5.50731

> <b_epik_Metal_Only>
0

> <s_lp_Force_Field>
OPLS_2005

> <r_lp_Energy>
19.4551

> <b_lp_Chiralities_Consistent>
1

> <s_lp_Variant>
AV-unprocessed.smi:2971-4

> <Gold.Version>
5.8.1

> <Gold.Id.Protein>
6NUR|6NUR_protein|mol2

> <Gold.PLP.Fitness>
57.6972

> <Gold.PLP.PLP>
-51.3456

> <Gold.PLP.part.hbond>
-2.7908

> <Gold.PLP.part.metal>
0.0000

> <Gold.PLP.part.buried>
2.5008

> <Gold.PLP.part.nonpolar>
-50.1364

> <Gold.PLP.part.repulsive>
0.0578

> <Gold.PLP.ligand.clash>
0.0000

> <Gold.PLP.ligand.torsion>
0.7560

> <Gold.PLP.Chemscore.Hbond>
2.6000

> <Gold.PLP.Chemscore.CHOScore>
0.0000

> <Gold.PLP.Chemscore.Metal>
0.0000

> <Gold.Chemscore.Hbonds>
donor molecule, donor type, donor heavy atom, donor atom, acceptor molecule, acceptor atom, score
      L1  H    15    37       P1  7948  2.00
      P1  H  7997  8009       L1     1  0.41

> <Gold.PLP.Chemscore.Internal.Correction>
0.0638

> <Gold.Rescore>
     Score         DG    S(hbond)    S(metal)    S(lipo)     H(rot)  DE(clash)    DE(int)     intcor
     16.13     -17.03       0.98        0.00     124.42       2.46       0.29       0.61       ----

> <Gold.Chemscore.Fitness>
16.1282

> <Gold.Chemscore.DG>
-17.0283

> <Gold.Chemscore.ZeroCoef>
-5.4800

> <Gold.Chemscore.Hbond>
0.9835

> <Gold.Chemscore.Metal>
0.0000

> <Gold.Chemscore.Lipo>
124.4194

> <Gold.Chemscore.Internal_Hbond>
0.0000

> <Gold.Chemscore.DEClash>
0.2880

> <Gold.Chemscore.DEInternal>
0.6121

> <Gold.Chemscore.Rot>
2.4584

> <Gold.Chemscore.Internal.Correction>
   9.000000E+99

> <Gold.Chemscore.Hbonds>
donor molecule, donor type, donor heavy atom, donor atom, acceptor molecule, acceptor atom, score
      L1  H    15    37       P1  7948  0.78

> <Gold.Chemscore.Hbond.Weighted>
-3.2848

> <Gold.Chemscore.Metal.Weighted>
-0.0000

> <Gold.Chemscore.Lipo.Weighted>
-14.5571

> <Gold.Chemscore.Internal_Hbond.Weighted>
0.0000

> <Gold.Chemscore.DEClash.Weighted>
0.2880

> <Gold.Chemscore.DEInternal.Weighted>
0.6121

> <Gold.Chemscore.Rot.Weighted>
6.2936

> <Gold.Chemscore.Internal.Correction.Weighted>
   9.000000E+99

> <Gold.Protein.RotatedTorsions>
[ 6907 6896 6895 6894 ] final  145.68 input  -60.11 | X-H torsion
[ 7974 7965 7964 7962 ] final  134.11 input  175.53 | X-H torsion
[ 8008 7997 7996 7995 ] final -171.89 input   59.86 | X-H torsion
[ 10167 10162 10161 10158 ] final  -84.75 input  -65.29 | X-H torsion
[ 10718 10713 10712 10709 ] final  -11.14 input   66.30 | X-H torsion
[ 10763 10752 10751 10750 ] final   77.54 input  -60.55 | X-H torsion
[ 11005 11000 10999 10996 ] final    8.23 input  -57.11 | X-H torsion

> <Gold.Protein.ActiveResidues>
 VAL166  LYS551  ARG553  GLY616  TRP617  ASP618  TYR619  PRO620  LYS621  CYS622 
 ASP623  PHE694  ASN695  SER759  ASP760  ASP761  ALA762  ILE779  LEU786  VAL792 
 PHE793  MET794  SER795  GLU796  ALA797  LYS798  CYS799  TRP800  GLU811  SER814 

> <Gold.Protein.RotatedAtoms>
  152.1778  133.4686  159.4942 H   0  0  0  0  0  0  0  0  0  0  0  0  # atno 6907 bound_to 6896
  150.6929  134.1872  159.4280 H   0  0  0  0  0  0  0  0  0  0  0  0  # atno 6908 bound_to 6896
  151.9782  135.0042  160.0607 H   0  0  0  0  0  0  0  0  0  0  0  0  # atno 6909 bound_to 6896
  144.9796  139.4518  143.5392 H   0  0  0  0  0  0  0  0  0  0  0  0  # atno 7974 bound_to 7965
  155.9374  140.1102  157.1083 H   0  0  0  0  0  0  0  0  0  0  0  0  # atno 8008 bound_to 7997
  154.4082  140.1225  156.4948 H   0  0  0  0  0  0  0  0  0  0  0  0  # atno 8009 bound_to 7997
  155.7004  140.3472  155.4933 H   0  0  0  0  0  0  0  0  0  0  0  0  # atno 8010 bound_to 7997
  140.4103  143.2625  151.9027 H   0  0  0  0  0  0  0  0  0  0  0  0  # atno 10167 bound_to 10162
  156.6633  130.4988  149.6023 H   0  0  0  0  0  0  0  0  0  0  0  0  # atno 10718 bound_to 10713
  153.0806  135.4910  154.8495 H   0  0  0  0  0  0  0  0  0  0  0  0  # atno 10763 bound_to 10752
  154.7146  135.3027  154.9146 H   0  0  0  0  0  0  0  0  0  0  0  0  # atno 10764 bound_to 10752
  153.9829  135.6787  153.4804 H   0  0  0  0  0  0  0  0  0  0  0  0  # atno 10765 bound_to 10752
  140.5394  134.0389  155.7899 H   0  0  0  0  0  0  0  0  0  0  0  0  # atno 11005 bound_to 11000
  146.3404  139.9061  142.8787 LP  0  0  0  0  0  0  0  0  0  0  0  0  # atno 17320 bound_to 7965
  145.2439  141.0019  143.3920 LP  0  0  0  0  0  0  0  0  0  0  0  0  # atno 17321 bound_to 7965
  139.4783  144.5544  151.8336 LP  0  0  0  0  0  0  0  0  0  0  0  0  # atno 17342 bound_to 10162
  140.4645  144.1674  150.5910 LP  0  0  0  0  0  0  0  0  0  0  0  0  # atno 17343 bound_to 10162
  156.1994  130.6610  151.1151 LP  0  0  0  0  0  0  0  0  0  0  0  0  # atno 17370 bound_to 10713
  157.7102  131.0737  150.6527 LP  0  0  0  0  0  0  0  0  0  0  0  0  # atno 17371 bound_to 10713
  141.1236  133.9420  157.2680 LP  0  0  0  0  0  0  0  0  0  0  0  0  # atno 17394 bound_to 11000
  139.9512  135.0175  156.8999 LP  0  0  0  0  0  0  0  0  0  0  0  0  # atno 17395 bound_to 11000

$$$$
