AV-unprocessed.smi:2666|AV-procd|sdf|10332|dock2
  -GOLD-   2272014353D 1   1.00000     0.00000
 Structure written by MMmdl.
 43 44  0  0  0  0  0  0  0  0  1 V2000
  145.3525  138.4819  153.0873 O   0  0  0  0  0  0  0  0  0  0  0  0
  146.3097  137.7671  152.7923 C   0  0  0  0  0  0  0  0  0  0  0  0
  147.6025  138.0805  152.9832 N   0  0  0  0  0  0  0  0  0  0  0  0
  148.1550  139.2367  153.5979 C   0  0  0  0  0  0  0  0  0  0  0  0
  147.3847  140.4179  153.5927 C   0  0  0  0  0  0  0  0  0  0  0  0
  147.9130  141.5851  154.1760 C   0  0  0  0  0  0  0  0  0  0  0  0
  149.2027  141.5276  154.7382 C   0  0  0  0  0  0  0  0  0  0  0  0
  149.9598  140.4103  154.7398 N   0  0  0  0  0  0  0  0  0  0  0  0
  149.4463  139.2937  154.1795 C   0  0  0  0  0  0  0  0  0  0  0  0
  146.1892  136.5632  152.2128 N   0  0  0  0  0  0  0  0  0  0  0  0
  144.9340  135.8910  151.8683 C   0  0  2  0  0  0  0  0  0  0  0  0
  144.0736  135.7206  153.1474 C   0  0  0  0  0  0  0  0  0  0  0  0
  142.6851  135.0861  152.9306 C   0  0  0  0  0  0  0  0  0  0  0  0
  142.1673  134.5383  154.1257 O   0  0  0  0  0  0  0  0  0  0  0  0
  145.2354  134.5496  151.1370 C   0  0  0  0  0  0  0  0  0  0  0  0
  143.9715  133.9525  150.4647 C   0  0  0  0  0  0  0  0  0  0  0  0
  144.2572  132.6242  149.7470 C   0  0  0  0  0  0  0  0  0  0  0  0
  144.8712  131.5965  150.7047 C   0  0  0  0  0  0  0  0  0  0  0  0
  146.1412  132.1583  151.3546 C   0  0  0  0  0  0  0  0  0  0  0  0
  145.8634  133.4883  152.0745 C   0  0  0  0  0  0  0  0  0  0  0  0
  148.2754  137.4262  152.6115 H   0  0  0  0  0  0  0  0  0  0  0  0
  146.3991  140.4321  153.1505 H   0  0  0  0  0  0  0  0  0  0  0  0
  147.3441  142.5029  154.1914 H   0  0  0  0  0  0  0  0  0  0  0  0
  149.6400  142.4035  155.1941 H   0  0  0  0  0  0  0  0  0  0  0  0
  150.1095  138.4434  154.1885 H   0  0  0  0  0  0  0  0  0  0  0  0
  147.0372  136.0558  152.0073 H   0  0  0  0  0  0  0  0  0  0  0  0
  144.3640  136.5158  151.1783 H   0  0  0  0  0  0  0  0  0  0  0  0
  144.6016  135.0626  153.8354 H   0  0  0  0  0  0  0  0  0  0  0  0
  143.9702  136.6738  153.6679 H   0  0  0  0  0  0  0  0  0  0  0  0
  141.9833  135.8140  152.5220 H   0  0  0  0  0  0  0  0  0  0  0  0
  142.7606  134.2756  152.2053 H   0  0  0  0  0  0  0  0  0  0  0  0
  142.5238  133.6700  154.2367 H   0  0  0  0  0  0  0  0  0  0  0  0
  145.9577  134.7589  150.3463 H   0  0  0  0  0  0  0  0  0  0  0  0
  143.1963  133.7993  151.2168 H   0  0  0  0  0  0  0  0  0  0  0  0
  143.5553  134.6457  149.7341 H   0  0  0  0  0  0  0  0  0  0  0  0
  143.3357  132.2285  149.3193 H   0  0  0  0  0  0  0  0  0  0  0  0
  144.9361  132.7987  148.9113 H   0  0  0  0  0  0  0  0  0  0  0  0
  144.1469  131.3341  151.4769 H   0  0  0  0  0  0  0  0  0  0  0  0
  145.1015  130.6758  150.1677 H   0  0  0  0  0  0  0  0  0  0  0  0
  146.5476  131.4328  152.0599 H   0  0  0  0  0  0  0  0  0  0  0  0
  146.9063  132.3088  150.5920 H   0  0  0  0  0  0  0  0  0  0  0  0
  146.8065  133.8438  152.4864 H   0  0  0  0  0  0  0  0  0  0  0  0
  145.2019  133.3100  152.9236 H   0  0  0  0  0  0  0  0  0  0  0  0
  1  2  2  0  0  0  0
  2  3  1  0  0  0  0
  2 10  1  0  0  0  0
  3  4  1  0  0  0  0
  3 21  1  0  0  0  0
  4  9  1  0  0  0  0
  4  5  2  0  0  0  0
  5  6  1  0  0  0  0
  5 22  1  0  0  0  0
  6  7  2  0  0  0  0
  6 23  1  0  0  0  0
  7  8  1  0  0  0  0
  7 24  1  0  0  0  0
  8  9  2  0  0  0  0
  9 25  1  0  0  0  0
 10 11  1  0  0  0  0
 10 26  1  0  0  0  0
 11 12  1  0  0  0  0
 11 15  1  0  0  0  0
 11 27  1  0  0  0  0
 12 13  1  0  0  0  0
 12 28  1  0  0  0  0
 12 29  1  0  0  0  0
 13 14  1  0  0  0  0
 13 30  1  0  0  0  0
 13 31  1  0  0  0  0
 14 32  1  0  0  0  0
 15 20  1  0  0  0  0
 15 16  1  0  0  0  0
 15 33  1  0  0  0  0
 16 17  1  0  0  0  0
 16 34  1  0  0  0  0
 16 35  1  0  0  0  0
 17 18  1  0  0  0  0
 17 36  1  0  0  0  0
 17 37  1  0  0  0  0
 18 19  1  0  0  0  0
 18 38  1  0  0  0  0
 18 39  1  0  0  0  0
 19 20  1  0  0  0  0
 19 40  1  0  0  0  0
 19 41  1  0  0  0  0
 20 42  1  0  0  0  0
 20 43  1  0  0  0  0
M  END
> <s_m_source_file>
AV-unprocessed.smi

> <i_m_source_file_index>
2666

> <i_lp_mmshare_version>
43012

> <i_f3d_flags>
0

> <s_epik_input>
W2NIXTFuW2NIXVtjSF1bY0hdYzFbTkhdQyg9TylbTkhdW0NASF0oW0NIMl1bQ0gyXVtPSF0pW0NIXTJbQ0gyXVtDSDJdW0NIMl1bQ0gyXVtDSDJdMg==

> <s_epik_cmdline>
J2VwaWtfcHl0aG9uJywgJy1waCcsICc3LjAnLCAnLXRuJywgJzgnLCAnLW1hJywgJzIwMCcsICctbWV0YWxfYmluZGluZycsICctaW1hZScsICc8aW5maWxlLm1hZT4nLCAnLW9tYWUnLCAnPG91dGZpbGUubWFlPic=

> <r_epik_Ionization_Penalty>
0.00500145

> <r_epik_Ionization_Penalty_Charging>
0

> <r_epik_Ionization_Penalty_Neutral>
0.00500145

> <r_epik_State_Penalty>
0.00360517

> <r_epik_Charging_Adjusted_Penalty>
0.00360517

> <i_epik_Tot_Q>
0

> <i_epik_Tot_abs_Q>
0

> <r_epik_Metal_State_Penalty>
-0

> <b_epik_Metal_Only>
0

> <s_lp_Force_Field>
OPLS_2005

> <r_lp_Energy>
19.5826

> <b_lp_Chiralities_Consistent>
1

> <s_lp_Variant>
AV-unprocessed.smi:2666-1

> <Gold.Version>
5.8.1

> <Gold.Id.Protein>
6NUR|6NUR_protein|mol2

> <Gold.PLP.Fitness>
50.3391

> <Gold.PLP.PLP>
-35.9375

> <Gold.PLP.part.hbond>
-4.9399

> <Gold.PLP.part.metal>
0.0000

> <Gold.PLP.part.buried>
-2.4384

> <Gold.PLP.part.nonpolar>
-31.9076

> <Gold.PLP.part.repulsive>
3.0629

> <Gold.PLP.ligand.clash>
0.0000

> <Gold.PLP.ligand.torsion>
0.3404

> <Gold.PLP.Chemscore.Hbond>
4.0072

> <Gold.PLP.Chemscore.CHOScore>
1.0000

> <Gold.PLP.Chemscore.Metal>
0.0000

> <Gold.Chemscore.Hbonds>
donor molecule, donor type, donor heavy atom, donor atom, acceptor molecule, acceptor atom, score
      L1  H     3    21       P1  7948  1.00
      L1  H    10    26       P1  7948  0.88
      L1  H    14    32       P1 10957  1.00
      P1  H  7989  7998       L1     8  0.72
      P1  H 11000 11005       L1    14  0.12
      L1  C     7    24       P1  8028  1.00

> <Gold.PLP.Chemscore.Internal.Correction>
0.0608

> <Gold.Rescore>
     Score         DG    S(hbond)    S(metal)    S(lipo)     H(rot)  DE(clash)    DE(int)     intcor
     16.65     -20.92       3.09        0.00      92.53       2.23       1.62       2.65       ----

> <Gold.Chemscore.Fitness>
16.6506

> <Gold.Chemscore.DG>
-20.9226

> <Gold.Chemscore.ZeroCoef>
-5.4800

> <Gold.Chemscore.Hbond>
3.0877

> <Gold.Chemscore.Metal>
0.0000

> <Gold.Chemscore.Lipo>
92.5289

> <Gold.Chemscore.Internal_Hbond>
0.0000

> <Gold.Chemscore.DEClash>
1.6198

> <Gold.Chemscore.DEInternal>
2.6522

> <Gold.Chemscore.Rot>
2.2251

> <Gold.Chemscore.Internal.Correction>
   9.000000E+99

> <Gold.Chemscore.Hbonds>
donor molecule, donor type, donor heavy atom, donor atom, acceptor molecule, acceptor atom, score
      L1  H     3    21       P1  7948  0.95
      L1  H    10    26       P1  7948  0.86
      L1  H    14    32       P1 10957  0.97
      P1  H  7989  7998       L1     8  0.14

> <Gold.Chemscore.Hbond.Weighted>
-10.3129

> <Gold.Chemscore.Metal.Weighted>
-0.0000

> <Gold.Chemscore.Lipo.Weighted>
-10.8259

> <Gold.Chemscore.Internal_Hbond.Weighted>
0.0000

> <Gold.Chemscore.DEClash.Weighted>
1.6198

> <Gold.Chemscore.DEInternal.Weighted>
2.6522

> <Gold.Chemscore.Rot.Weighted>
5.6962

> <Gold.Chemscore.Internal.Correction.Weighted>
   9.000000E+99

> <Gold.Protein.RotatedTorsions>
[ 6907 6896 6895 6894 ] final  -57.85 input  -60.11 | X-H torsion
[ 7974 7965 7964 7962 ] final   31.67 input  175.53 | X-H torsion
[ 8008 7997 7996 7995 ] final  -15.92 input   59.86 | X-H torsion
[ 10167 10162 10161 10158 ] final  110.00 input  -65.29 | X-H torsion
[ 10718 10713 10712 10709 ] final  -63.51 input   66.30 | X-H torsion
[ 10763 10752 10751 10750 ] final -144.71 input  -60.55 | X-H torsion
[ 11005 11000 10999 10996 ] final    7.87 input  -57.11 | X-H torsion

> <Gold.Protein.ActiveResidues>
 VAL166  LYS551  ARG553  GLY616  TRP617  ASP618  TYR619  PRO620  LYS621  CYS622 
 ASP623  PHE694  ASN695  SER759  ASP760  ASP761  ALA762  ILE779  LEU786  VAL792 
 PHE793  MET794  SER795  GLU796  ALA797  LYS798  CYS799  TRP800  GLU811  SER814 

> <Gold.Protein.RotatedAtoms>
  150.8053  134.7175  159.6638 H   0  0  0  0  0  0  0  0  0  0  0  0  # atno 6907 bound_to 6896
  152.4173  134.6016  160.0011 H   0  0  0  0  0  0  0  0  0  0  0  0  # atno 6908 bound_to 6896
  151.6242  133.3300  159.3130 H   0  0  0  0  0  0  0  0  0  0  0  0  # atno 6909 bound_to 6896
  146.1535  139.6626  142.9082 H   0  0  0  0  0  0  0  0  0  0  0  0  # atno 7974 bound_to 7965
  154.5093  140.2183  155.9189 H   0  0  0  0  0  0  0  0  0  0  0  0  # atno 8008 bound_to 7997
  156.1532  140.3157  155.8649 H   0  0  0  0  0  0  0  0  0  0  0  0  # atno 8009 bound_to 7997
  155.3898  140.0477  157.3032 H   0  0  0  0  0  0  0  0  0  0  0  0  # atno 8010 bound_to 7997
  139.6722  144.7124  151.1667 H   0  0  0  0  0  0  0  0  0  0  0  0  # atno 10167 bound_to 10162
  156.0786  130.4222  150.1288 H   0  0  0  0  0  0  0  0  0  0  0  0  # atno 10718 bound_to 10713
  154.8416  135.3433  154.6389 H   0  0  0  0  0  0  0  0  0  0  0  0  # atno 10763 bound_to 10752
  153.7000  135.6970  153.5070 H   0  0  0  0  0  0  0  0  0  0  0  0  # atno 10764 bound_to 10752
  153.2530  135.4347  155.0771 H   0  0  0  0  0  0  0  0  0  0  0  0  # atno 10765 bound_to 10752
  140.5434  134.0352  155.7912 H   0  0  0  0  0  0  0  0  0  0  0  0  # atno 11005 bound_to 11000
  145.4765  141.0437  143.2670 LP  0  0  0  0  0  0  0  0  0  0  0  0  # atno 17320 bound_to 7965
  144.7934  139.6283  143.7103 LP  0  0  0  0  0  0  0  0  0  0  0  0  # atno 17321 bound_to 7965
  140.7622  143.5826  150.8878 LP  0  0  0  0  0  0  0  0  0  0  0  0  # atno 17342 bound_to 10162
  139.9493  143.6291  152.3033 LP  0  0  0  0  0  0  0  0  0  0  0  0  # atno 17343 bound_to 10162
  156.9324  130.9718  151.3530 LP  0  0  0  0  0  0  0  0  0  0  0  0  # atno 17370 bound_to 10713
  157.5893  130.8432  149.8635 LP  0  0  0  0  0  0  0  0  0  0  0  0  # atno 17371 bound_to 10713
  141.1214  133.9455  157.2722 LP  0  0  0  0  0  0  0  0  0  0  0  0  # atno 17394 bound_to 11000
  139.9492  135.0178  156.8944 LP  0  0  0  0  0  0  0  0  0  0  0  0  # atno 17395 bound_to 11000

$$$$
