AV-unprocessed.smi:2706|AV-procd|sdf|10446|dock1
  -GOLD-   2272014483D 1   1.00000     0.00000
 Structure written by MMmdl.
 43 46  0  0  0  0  0  0  0  0  1 V2000
  150.8232  141.5719  156.3044 C   0  0  0  0  0  0  0  0  0  0  0  0
  150.4977  140.4199  155.4692 N   0  0  0  0  0  0  0  0  0  0  0  0
  151.4330  139.3068  155.3661 C   0  0  0  0  0  0  0  0  0  0  0  0
  149.2750  140.3902  154.7609 C   0  0  0  0  0  0  0  0  0  0  0  0
  148.4374  141.5282  154.6771 C   0  0  0  0  0  0  0  0  0  0  0  0
  147.2352  141.4361  153.9531 C   0  0  0  0  0  0  0  0  0  0  0  0
  146.9021  140.2175  153.3351 C   0  0  0  0  0  0  0  0  0  0  0  0
  147.7793  139.1200  153.4610 C   0  0  0  0  0  0  0  0  0  0  0  0
  147.3639  137.9316  152.8031 N   0  0  0  0  0  0  0  0  0  0  0  0
  146.1166  137.4419  152.6872 C   0  0  0  0  0  0  0  0  0  0  0  0
  145.0972  137.9821  153.1187 O   0  0  0  0  0  0  0  0  0  0  0  0
  146.1139  136.2754  152.0274 N   0  0  0  0  0  0  0  0  0  0  0  0
  144.9550  135.5033  151.7106 C   0  0  2  0  0  0  0  0  0  0  0  0
  144.8237  134.0560  152.1694 C   0  0  2  0  0  0  0  0  0  0  0  0
  145.9284  133.0477  152.4937 C   0  0  1  0  0  0  0  0  0  0  0  0
  145.5385  131.7125  151.8236 C   0  0  0  0  0  0  0  0  0  0  0  0
  145.7596  132.0183  150.3199 C   0  0  0  0  0  0  0  0  0  0  0  0
  146.2439  133.4846  150.3478 C   0  0  2  0  0  0  0  0  0  0  0  0
  147.1112  133.4329  151.6056 C   0  0  0  0  0  0  0  0  0  0  0  0
  145.0376  134.3534  150.7130 C   0  0  2  0  0  0  0  0  0  0  0  0
  148.9347  139.2240  154.1611 N   0  0  0  0  0  0  0  0  0  0  0  0
  150.8809  142.4782  155.7006 H   0  0  0  0  0  0  0  0  0  0  0  0
  151.7820  141.4431  156.8064 H   0  0  0  0  0  0  0  0  0  0  0  0
  150.0621  141.7170  157.0722 H   0  0  0  0  0  0  0  0  0  0  0  0
  151.7386  139.1576  154.3302 H   0  0  0  0  0  0  0  0  0  0  0  0
  150.9763  138.3868  155.7323 H   0  0  0  0  0  0  0  0  0  0  0  0
  152.3323  139.4887  155.9547 H   0  0  0  0  0  0  0  0  0  0  0  0
  148.6923  142.4648  155.1493 H   0  0  0  0  0  0  0  0  0  0  0  0
  146.5780  142.2892  153.8720 H   0  0  0  0  0  0  0  0  0  0  0  0
  145.9826  140.1309  152.7746 H   0  0  0  0  0  0  0  0  0  0  0  0
  148.1011  137.3919  152.3747 H   0  0  0  0  0  0  0  0  0  0  0  0
  146.9995  135.9064  151.7135 H   0  0  0  0  0  0  0  0  0  0  0  0
  144.0185  136.0583  151.6777 H   0  0  0  0  0  0  0  0  0  0  0  0
  143.8262  133.7531  152.4832 H   0  0  0  0  0  0  0  0  0  0  0  0
  146.1416  132.9793  153.5604 H   0  0  0  0  0  0  0  0  0  0  0  0
  146.1906  130.9025  152.1529 H   0  0  0  0  0  0  0  0  0  0  0  0
  144.5098  131.4232  152.0424 H   0  0  0  0  0  0  0  0  0  0  0  0
  146.5218  131.3605  149.9002 H   0  0  0  0  0  0  0  0  0  0  0  0
  144.8497  131.8929  149.7315 H   0  0  0  0  0  0  0  0  0  0  0  0
  146.7484  133.8173  149.4404 H   0  0  0  0  0  0  0  0  0  0  0  0
  147.6053  134.3637  151.8688 H   0  0  0  0  0  0  0  0  0  0  0  0
  147.8867  132.6648  151.5636 H   0  0  0  0  0  0  0  0  0  0  0  0
  144.1849  134.2501  150.0443 H   0  0  0  0  0  0  0  0  0  0  0  0
  1  2  1  0  0  0  0
  1 22  1  0  0  0  0
  1 23  1  0  0  0  0
  1 24  1  0  0  0  0
  2  3  1  0  0  0  0
  2  4  1  0  0  0  0
  3 25  1  0  0  0  0
  3 26  1  0  0  0  0
  3 27  1  0  0  0  0
  4 21  1  0  0  0  0
  4  5  2  0  0  0  0
  5  6  1  0  0  0  0
  5 28  1  0  0  0  0
  6  7  2  0  0  0  0
  6 29  1  0  0  0  0
  7  8  1  0  0  0  0
  7 30  1  0  0  0  0
  8  9  1  0  0  0  0
  8 21  2  0  0  0  0
  9 10  1  0  0  0  0
  9 31  1  0  0  0  0
 10 11  2  0  0  0  0
 10 12  1  0  0  0  0
 12 13  1  0  0  0  0
 12 32  1  0  0  0  0
 13 20  1  0  0  0  0
 13 14  1  0  0  0  0
 13 33  1  0  0  0  0
 14 20  1  0  0  0  0
 14 15  1  0  0  0  0
 14 34  1  0  0  0  0
 15 19  1  0  0  0  0
 15 16  1  0  0  0  0
 15 35  1  0  0  0  0
 16 17  1  0  0  0  0
 16 36  1  0  0  0  0
 16 37  1  0  0  0  0
 17 18  1  0  0  0  0
 17 38  1  0  0  0  0
 17 39  1  0  0  0  0
 18 19  1  0  0  0  0
 18 20  1  0  0  0  0
 18 40  1  0  0  0  0
 19 41  1  0  0  0  0
 19 42  1  0  0  0  0
 20 43  1  0  0  0  0
M  END
> <s_m_source_file>
AV-unprocessed.smi

> <i_m_source_file_index>
2706

> <i_lp_mmshare_version>
43012

> <i_f3d_flags>
0

> <s_epik_input>
W0NIM11OKFtDSDNdKWMxW2NIXVtjSF1bY0hdYyhuMSlbTkhdQyg9TylbTkhdW0NASF0yW0NAQEhdM1tDQEBIXShbQ0gyXTQpW0NIMl1bQ0gyXVtDQEBIXTRbQ0BIXTIz

> <s_epik_cmdline>
J2VwaWtfcHl0aG9uJywgJy1waCcsICc3LjAnLCAnLXRuJywgJzgnLCAnLW1hJywgJzIwMCcsICctbWV0YWxfYmluZGluZycsICctaW1hZScsICc8aW5maWxlLm1hZT4nLCAnLW9tYWUnLCAnPG91dGZpbGUubWFlPic=

> <r_lp_tautomer_probability>
1

> <r_epik_Ionization_Penalty>
0.0296788

> <r_epik_Ionization_Penalty_Charging>
0

> <r_epik_Ionization_Penalty_Neutral>
0.0296788

> <r_epik_State_Penalty>
0.0248512

> <r_epik_Charging_Adjusted_Penalty>
0.0248512

> <i_epik_Tot_Q>
0

> <i_epik_Tot_abs_Q>
0

> <r_epik_Metal_State_Penalty>
0.0237882

> <b_epik_Metal_Only>
0

> <s_lp_Force_Field>
OPLS_2005

> <r_lp_Energy>
83.6561

> <b_lp_Chiralities_Consistent>
1

> <s_lp_Variant>
AV-unprocessed.smi:2706-3

> <Gold.Version>
5.8.1

> <Gold.Id.Protein>
6NUR|6NUR_protein|mol2

> <Gold.PLP.Fitness>
44.1777

> <Gold.PLP.PLP>
-39.3981

> <Gold.PLP.part.hbond>
-1.9189

> <Gold.PLP.part.metal>
0.0000

> <Gold.PLP.part.buried>
-3.5339

> <Gold.PLP.part.nonpolar>
-35.9344

> <Gold.PLP.part.repulsive>
1.6898

> <Gold.PLP.ligand.clash>
0.0000

> <Gold.PLP.ligand.torsion>
0.3957

> <Gold.PLP.Chemscore.Hbond>
1.8390

> <Gold.PLP.Chemscore.CHOScore>
0.0000

> <Gold.PLP.Chemscore.Metal>
0.0000

> <Gold.Chemscore.Hbonds>
donor molecule, donor type, donor heavy atom, donor atom, acceptor molecule, acceptor atom, score
      L1  H     9    31       P1  7948  0.96
      L1  H    12    32       P1  7948  0.85

> <Gold.PLP.Chemscore.Internal.Correction>
0.0539

> <Gold.Rescore>
     Score         DG    S(hbond)    S(metal)    S(lipo)     H(rot)  DE(clash)    DE(int)     intcor
     17.25     -19.01       1.91        0.00      82.94       1.00       0.05       1.71       ----

> <Gold.Chemscore.Fitness>
17.2476

> <Gold.Chemscore.DG>
-19.0137

> <Gold.Chemscore.ZeroCoef>
-5.4800

> <Gold.Chemscore.Hbond>
1.9132

> <Gold.Chemscore.Metal>
0.0000

> <Gold.Chemscore.Lipo>
82.9365

> <Gold.Chemscore.Internal_Hbond>
0.0000

> <Gold.Chemscore.DEClash>
0.0526

> <Gold.Chemscore.DEInternal>
1.7134

> <Gold.Chemscore.Rot>
1.0000

> <Gold.Chemscore.Internal.Correction>
   9.000000E+99

> <Gold.Chemscore.Hbonds>
donor molecule, donor type, donor heavy atom, donor atom, acceptor molecule, acceptor atom, score
      L1  H     9    31       P1  7948  0.91
      L1  H    12    32       P1  7948  0.84

> <Gold.Chemscore.Hbond.Weighted>
-6.3901

> <Gold.Chemscore.Metal.Weighted>
-0.0000

> <Gold.Chemscore.Lipo.Weighted>
-9.7036

> <Gold.Chemscore.Internal_Hbond.Weighted>
0.0000

> <Gold.Chemscore.DEClash.Weighted>
0.0526

> <Gold.Chemscore.DEInternal.Weighted>
1.7134

> <Gold.Chemscore.Rot.Weighted>
2.5600

> <Gold.Chemscore.Internal.Correction.Weighted>
   9.000000E+99

> <Gold.Protein.RotatedTorsions>
[ 6907 6896 6895 6894 ] final   11.31 input  -60.11 | X-H torsion
[ 7974 7965 7964 7962 ] final -106.90 input  175.53 | X-H torsion
[ 8008 7997 7996 7995 ] final  -53.24 input   59.86 | X-H torsion
[ 10167 10162 10161 10158 ] final   91.80 input  -65.29 | X-H torsion
[ 10718 10713 10712 10709 ] final -165.36 input   66.30 | X-H torsion
[ 10763 10752 10751 10750 ] final   32.30 input  -60.55 | X-H torsion
[ 11005 11000 10999 10996 ] final  -99.65 input  -57.11 | X-H torsion

> <Gold.Protein.ActiveResidues>
 VAL166  LYS551  ARG553  GLY616  TRP617  ASP618  TYR619  PRO620  LYS621  CYS622 
 ASP623  PHE694  ASN695  SER759  ASP760  ASP761  ALA762  ILE779  LEU786  VAL792 
 PHE793  MET794  SER795  GLU796  ALA797  LYS798  CYS799  TRP800  GLU811  SER814 

> <Gold.Protein.RotatedAtoms>
  151.7523  135.0830  160.0332 H   0  0  0  0  0  0  0  0  0  0  0  0  # atno 6907 bound_to 6896
  152.3408  133.6061  159.5884 H   0  0  0  0  0  0  0  0  0  0  0  0  # atno 6908 bound_to 6896
  150.7478  133.9641  159.3566 H   0  0  0  0  0  0  0  0  0  0  0  0  # atno 6909 bound_to 6896
  145.2121  140.9100  143.3308 H   0  0  0  0  0  0  0  0  0  0  0  0  # atno 7974 bound_to 7965
  154.4128  140.1205  156.5121 H   0  0  0  0  0  0  0  0  0  0  0  0  # atno 8008 bound_to 7997
  155.6788  140.3496  155.4828 H   0  0  0  0  0  0  0  0  0  0  0  0  # atno 8009 bound_to 7997
  155.9569  140.1115  157.0919 H   0  0  0  0  0  0  0  0  0  0  0  0  # atno 8010 bound_to 7997
  139.8339  144.6674  150.9366 H   0  0  0  0  0  0  0  0  0  0  0  0  # atno 10167 bound_to 10162
  156.6523  130.9012  151.3015 H   0  0  0  0  0  0  0  0  0  0  0  0  # atno 10718 bound_to 10713
  153.0269  135.6416  154.1334 H   0  0  0  0  0  0  0  0  0  0  0  0  # atno 10763 bound_to 10752
  154.1062  135.2856  155.3242 H   0  0  0  0  0  0  0  0  0  0  0  0  # atno 10764 bound_to 10752
  154.6364  135.5475  153.7802 H   0  0  0  0  0  0  0  0  0  0  0  0  # atno 10765 bound_to 10752
  141.1300  133.8338  157.1000 H   0  0  0  0  0  0  0  0  0  0  0  0  # atno 11005 bound_to 11000
  144.9846  139.3749  143.6245 LP  0  0  0  0  0  0  0  0  0  0  0  0  # atno 17320 bound_to 7965
  146.3395  139.9002  142.8795 LP  0  0  0  0  0  0  0  0  0  0  0  0  # atno 17321 bound_to 7965
  140.7804  143.3975  151.1205 LP  0  0  0  0  0  0  0  0  0  0  0  0  # atno 17342 bound_to 10162
  139.7627  143.8612  152.3104 LP  0  0  0  0  0  0  0  0  0  0  0  0  # atno 17343 bound_to 10162
  157.7137  130.9471  150.1178 LP  0  0  0  0  0  0  0  0  0  0  0  0  # atno 17370 bound_to 10713
  156.2075  130.3664  149.8712 LP  0  0  0  0  0  0  0  0  0  0  0  0  # atno 17371 bound_to 10713
  140.0339  134.9887  157.0834 LP  0  0  0  0  0  0  0  0  0  0  0  0  # atno 17394 bound_to 11000
  140.4241  134.1850  155.7165 LP  0  0  0  0  0  0  0  0  0  0  0  0  # atno 17395 bound_to 11000

$$$$
