AV-unprocessed.smi:3125|AV-procd|sdf|11906|dock5
  -GOLD-   2272017293D 1   1.00000     0.00000
 Structure written by MMmdl.
 29 30  0  0  0  0  0  0  0  0  3 V2000
  151.9890  139.5013  155.5419 C   0  0  0  0  0  0  0  0  0  0  0  0
  151.2881  140.6458  156.1273 N   0  0  0  0  0  0  0  0  0  0  0  0
  151.6580  141.3279  157.2582 C   0  0  0  0  0  0  0  0  0  0  0  0
  150.7309  142.3195  157.4407 C   0  0  0  0  0  0  0  0  0  0  0  0
  149.8328  142.2010  156.4156 N   0  3  0  0  0  0  0  0  0  0  0  0
  150.1667  141.1819  155.6127 C   0  0  0  0  0  0  0  0  0  0  0  0
  149.4062  140.7556  154.3866 C   0  0  2  0  0  0  0  0  0  0  0  0
  148.0199  141.4232  154.3122 C   0  0  0  0  0  0  0  0  0  0  0  0
  147.2666  140.9571  153.0566 C   0  0  0  0  0  0  0  0  0  0  0  0
  147.1811  139.4227  153.0034 C   0  0  0  0  0  0  0  0  0  0  0  0
  148.5302  138.8211  153.0807 N   0  3  0  0  0  0  0  0  0  0  0  0
  149.2738  139.2205  154.2967 C   0  0  0  0  0  0  0  0  0  0  0  0
  152.8686  139.2655  156.1421 H   0  0  0  0  0  0  0  0  0  0  0  0
  152.3030  139.7499  154.5276 H   0  0  0  0  0  0  0  0  0  0  0  0
  151.3226  138.6384  155.5256 H   0  0  0  0  0  0  0  0  0  0  0  0
  152.5332  141.0653  157.8355 H   0  0  0  0  0  0  0  0  0  0  0  0
  150.6457  143.0806  158.2027 H   0  0  0  0  0  0  0  0  0  0  0  0
  149.9847  141.0917  153.5263 H   0  0  0  0  0  0  0  0  0  0  0  0
  147.4345  141.1758  155.1987 H   0  0  0  0  0  0  0  0  0  0  0  0
  148.1240  142.5090  154.3001 H   0  0  0  0  0  0  0  0  0  0  0  0
  146.2648  141.3878  153.0409 H   0  0  0  0  0  0  0  0  0  0  0  0
  147.7757  141.3266  152.1653 H   0  0  0  0  0  0  0  0  0  0  0  0
  146.5718  139.0470  153.8266 H   0  0  0  0  0  0  0  0  0  0  0  0
  146.7004  139.1018  152.0789 H   0  0  0  0  0  0  0  0  0  0  0  0
  148.4407  137.8147  153.0653 H   0  0  0  0  0  0  0  0  0  0  0  0
  150.2599  138.7553  154.2726 H   0  0  0  0  0  0  0  0  0  0  0  0
  148.7564  138.8259  155.1726 H   0  0  0  0  0  0  0  0  0  0  0  0
  149.0568  139.1120  152.2691 H   0  0  0  0  0  0  0  0  0  0  0  0
  149.0297  142.8025  156.2808 H   0  0  0  0  0  0  0  0  0  0  0  0
  1  2  1  0  0  0  0
  1 13  1  0  0  0  0
  1 14  1  0  0  0  0
  1 15  1  0  0  0  0
  2  6  1  0  0  0  0
  2  3  1  0  0  0  0
  3  4  2  0  0  0  0
  3 16  1  0  0  0  0
  4  5  1  0  0  0  0
  4 17  1  0  0  0  0
  5  6  2  0  0  0  0
  5 29  1  0  0  0  0
  6  7  1  0  0  0  0
  7 12  1  0  0  0  0
  7  8  1  0  0  0  0
  7 18  1  0  0  0  0
  8  9  1  0  0  0  0
  8 19  1  0  0  0  0
  8 20  1  0  0  0  0
  9 10  1  0  0  0  0
  9 21  1  0  0  0  0
  9 22  1  0  0  0  0
 10 11  1  0  0  0  0
 10 23  1  0  0  0  0
 10 24  1  0  0  0  0
 11 12  1  0  0  0  0
 11 25  1  0  0  0  0
 11 28  1  0  0  0  0
 12 26  1  0  0  0  0
 12 27  1  0  0  0  0
M  CHG  1   5   1
M  CHG  1  11   1
M  END
> <s_m_source_file>
AV-unprocessed.smi

> <i_m_source_file_index>
3125

> <i_lp_mmshare_version>
43012

> <i_f3d_flags>
0

> <s_epik_input>
W0NIM11uMVtjSF1bY0hdbmMxW0NAQEhdMltDSDJdW0NIMl1bQ0gyXVtOSF1bQ0gyXTI=

> <s_epik_cmdline>
J2VwaWtfcHl0aG9uJywgJy1waCcsICc3LjAnLCAnLXRuJywgJzgnLCAnLW1hJywgJzIwMCcsICctbWV0YWxfYmluZGluZycsICctaW1hZScsICc8aW5maWxlLm1hZT4nLCAnLW9tYWUnLCAnPG91dGZpbGUubWFlPic=

> <r_lp_tautomer_probability>
1

> <r_epik_Ionization_Penalty>
0.803551

> <r_epik_Ionization_Penalty_Charging>
0.000747377

> <r_epik_Ionization_Penalty_Neutral>
0.802804

> <r_epik_State_Penalty>
0.360941

> <r_epik_Charging_Adjusted_Penalty>
0.361688

> <i_epik_Tot_Q>
2

> <i_epik_Tot_abs_Q>
2

> <r_epik_Metal_State_Penalty>
3.98724

> <b_epik_Metal_Only>
0

> <s_lp_Force_Field>
OPLS_2005

> <r_lp_Energy>
24.5109

> <b_lp_Chiralities_Consistent>
1

> <s_lp_Variant>
AV-unprocessed.smi:3125-1

> <Gold.Version>
5.8.1

> <Gold.Id.Protein>
6NUR|6NUR_protein|mol2

> <Gold.PLP.Fitness>
39.0105

> <Gold.PLP.PLP>
-28.3096

> <Gold.PLP.part.hbond>
-2.9207

> <Gold.PLP.part.metal>
0.0000

> <Gold.PLP.part.buried>
-0.7961

> <Gold.PLP.part.nonpolar>
-23.3826

> <Gold.PLP.part.repulsive>
0.1427

> <Gold.PLP.ligand.clash>
0.0000

> <Gold.PLP.ligand.torsion>
0.3644

> <Gold.PLP.Chemscore.Hbond>
3.8026

> <Gold.PLP.Chemscore.CHOScore>
0.0000

> <Gold.PLP.Chemscore.Metal>
0.0000

> <Gold.Chemscore.Hbonds>
donor molecule, donor type, donor heavy atom, donor atom, acceptor molecule, acceptor atom, score
      L1  H     5    29       P1  8028  1.28
      L1  H    11    25       P1  7948  1.47
      L1  H    11    28       P1  7957  1.00

> <Gold.PLP.Chemscore.Internal.Correction>
0.0220

> <Gold.Rescore>
     Score         DG    S(hbond)    S(metal)    S(lipo)     H(rot)  DE(clash)    DE(int)     intcor
     16.03     -17.95       2.47        0.00      57.93       1.00       0.06       1.86       ----

> <Gold.Chemscore.Fitness>
16.0317

> <Gold.Chemscore.DG>
-17.9499

> <Gold.Chemscore.ZeroCoef>
-5.4800

> <Gold.Chemscore.Hbond>
2.4705

> <Gold.Chemscore.Metal>
0.0000

> <Gold.Chemscore.Lipo>
57.9342

> <Gold.Chemscore.Internal_Hbond>
0.0000

> <Gold.Chemscore.DEClash>
0.0618

> <Gold.Chemscore.DEInternal>
1.8565

> <Gold.Chemscore.Rot>
1.0000

> <Gold.Chemscore.Internal.Correction>
   9.000000E+99

> <Gold.Chemscore.Hbonds>
donor molecule, donor type, donor heavy atom, donor atom, acceptor molecule, acceptor atom, score
      L1  H     5    29       P1  8028  0.60
      L1  H    11    25       P1  7948  0.70
      L1  H    11    28       P1  7957  0.92

> <Gold.Chemscore.Hbond.Weighted>
-8.2516

> <Gold.Chemscore.Metal.Weighted>
-0.0000

> <Gold.Chemscore.Lipo.Weighted>
-6.7783

> <Gold.Chemscore.Internal_Hbond.Weighted>
0.0000

> <Gold.Chemscore.DEClash.Weighted>
0.0618

> <Gold.Chemscore.DEInternal.Weighted>
1.8565

> <Gold.Chemscore.Rot.Weighted>
2.5600

> <Gold.Chemscore.Internal.Correction.Weighted>
   9.000000E+99

> <Gold.Protein.RotatedTorsions>
[ 6907 6896 6895 6894 ] final -136.56 input  -60.11 | X-H torsion
[ 7974 7965 7964 7962 ] final  -69.12 input  175.53 | X-H torsion
[ 8008 7997 7996 7995 ] final  148.63 input   59.86 | X-H torsion
[ 10167 10162 10161 10158 ] final  -24.31 input  -65.29 | X-H torsion
[ 10718 10713 10712 10709 ] final -143.25 input   66.30 | X-H torsion
[ 10763 10752 10751 10750 ] final -142.91 input  -60.55 | X-H torsion
[ 11005 11000 10999 10996 ] final  123.66 input  -57.11 | X-H torsion

> <Gold.Protein.ActiveResidues>
 VAL166  LYS551  ARG553  GLY616  TRP617  ASP618  TYR619  PRO620  LYS621  CYS622 
 ASP623  PHE694  ASN695  SER759  ASP760  ASP761  ALA762  ILE779  LEU786  VAL792 
 PHE793  MET794  SER795  GLU796  ALA797  LYS798  CYS799  TRP800  GLU811  SER814 

> <Gold.Protein.RotatedAtoms>
  151.0116  133.5960  159.2681 H   0  0  0  0  0  0  0  0  0  0  0  0  # atno 6907 bound_to 6896
  151.3110  135.0793  159.9282 H   0  0  0  0  0  0  0  0  0  0  0  0  # atno 6908 bound_to 6896
  152.5301  133.9780  159.7847 H   0  0  0  0  0  0  0  0  0  0  0  0  # atno 6909 bound_to 6896
  145.7079  140.9090  143.0696 H   0  0  0  0  0  0  0  0  0  0  0  0  # atno 7974 bound_to 7965
  156.2784  140.2123  156.5728 H   0  0  0  0  0  0  0  0  0  0  0  0  # atno 8008 bound_to 7997
  154.7121  140.0511  157.0583 H   0  0  0  0  0  0  0  0  0  0  0  0  # atno 8009 bound_to 7997
  155.0591  140.3164  155.4669 H   0  0  0  0  0  0  0  0  0  0  0  0  # atno 8010 bound_to 7997
  140.7288  143.4365  151.0722 H   0  0  0  0  0  0  0  0  0  0  0  0  # atno 10167 bound_to 10162
  156.3557  130.7711  151.1871 H   0  0  0  0  0  0  0  0  0  0  0  0  # atno 10718 bound_to 10713
  154.8491  135.3483  154.6103 H   0  0  0  0  0  0  0  0  0  0  0  0  # atno 10763 bound_to 10752
  153.6711  135.6985  153.5151 H   0  0  0  0  0  0  0  0  0  0  0  0  # atno 10764 bound_to 10752
  153.2741  135.4283  155.0973 H   0  0  0  0  0  0  0  0  0  0  0  0  # atno 10765 bound_to 10752
  139.9323  134.9641  156.8293 H   0  0  0  0  0  0  0  0  0  0  0  0  # atno 11005 bound_to 11000
  144.6950  139.9034  143.7460 LP  0  0  0  0  0  0  0  0  0  0  0  0  # atno 17320 bound_to 7965
  146.0739  139.3728  143.0506 LP  0  0  0  0  0  0  0  0  0  0  0  0  # atno 17321 bound_to 7965
  139.8027  143.8061  152.3164 LP  0  0  0  0  0  0  0  0  0  0  0  0  # atno 17342 bound_to 10162
  139.8083  144.7346  150.9731 LP  0  0  0  0  0  0  0  0  0  0  0  0  # atno 17343 bound_to 10162
  157.7467  131.0415  150.4647 LP  0  0  0  0  0  0  0  0  0  0  0  0  # atno 17370 bound_to 10713
  156.4850  130.4082  149.6439 LP  0  0  0  0  0  0  0  0  0  0  0  0  # atno 17371 bound_to 10713
  140.6169  134.0030  155.7601 LP  0  0  0  0  0  0  0  0  0  0  0  0  # atno 17394 bound_to 11000
  141.0918  133.9905  157.3225 LP  0  0  0  0  0  0  0  0  0  0  0  0  # atno 17395 bound_to 11000

$$$$
