AV-unprocessed.smi:2088|AV-procd|sdf|8526|dock10
  -GOLD-   2272011243D 1   1.00000     0.00000
 Structure written by MMmdl.
 33 34  0  0  0  0  0  0  0  0  1 V2000
  153.1762  139.4454  156.2942 O   0  0  0  0  0  0  0  0  0  0  0  0
  152.3249  139.7681  157.1230 C   0  0  0  0  0  0  0  0  0  0  0  0
  152.6299  139.6511  158.6177 C   0  0  0  0  0  0  0  0  0  0  0  0
  152.5093  140.9380  159.2794 N   0  0  0  0  0  0  0  0  0  0  0  0
  152.8950  141.2844  160.5567 C   0  0  0  0  0  0  0  0  0  0  0  0
  152.5858  142.6026  160.7304 C   0  0  0  0  0  0  0  0  0  0  0  0
  152.0047  142.9894  159.4878 C   0  0  0  0  0  0  0  0  0  0  0  0
  151.4672  144.3385  159.0887 C   0  0  0  0  0  0  0  0  0  0  0  0
  151.5526  145.1906  160.1102 F   0  0  0  0  0  0  0  0  0  0  0  0
  152.1692  144.8249  158.0652 F   0  0  0  0  0  0  0  0  0  0  0  0
  150.1888  144.2291  158.7273 F   0  0  0  0  0  0  0  0  0  0  0  0
  151.9617  141.9836  158.6234 N   0  0  0  0  0  0  0  0  0  0  0  0
  151.1097  140.2305  156.7909 N   0  0  0  0  0  0  0  0  0  0  0  0
  150.6293  140.4187  155.4267 C   0  0  0  0  0  0  0  0  0  0  0  0
  149.3326  141.2453  155.3860 C   0  0  2  0  0  0  0  0  0  0  0  0
  148.1104  140.4968  155.9102 C   0  0  0  0  0  0  0  0  0  0  0  0
  146.9842  141.2758  155.2699 C   0  0  0  0  0  0  0  0  0  0  0  0
  147.5671  141.6214  153.9008 C   0  0  0  0  0  0  0  0  0  0  0  0
  148.9857  141.5793  154.0454 O   0  0  0  0  0  0  0  0  0  0  0  0
  151.9639  138.9313  159.0971 H   0  0  0  0  0  0  0  0  0  0  0  0
  153.6479  139.2835  158.7517 H   0  0  0  0  0  0  0  0  0  0  0  0
  153.3547  140.5725  161.2265 H   0  0  0  0  0  0  0  0  0  0  0  0
  152.7510  143.2021  161.6132 H   0  0  0  0  0  0  0  0  0  0  0  0
  150.4714  140.4688  157.5360 H   0  0  0  0  0  0  0  0  0  0  0  0
  151.4097  140.9176  154.8515 H   0  0  0  0  0  0  0  0  0  0  0  0
  150.4723  139.4465  154.9568 H   0  0  0  0  0  0  0  0  0  0  0  0
  149.4474  142.1725  155.9502 H   0  0  0  0  0  0  0  0  0  0  0  0
  148.1048  139.4667  155.5509 H   0  0  0  0  0  0  0  0  0  0  0  0
  148.0553  140.4818  156.9991 H   0  0  0  0  0  0  0  0  0  0  0  0
  146.0529  140.7123  155.2079 H   0  0  0  0  0  0  0  0  0  0  0  0
  146.7939  142.1875  155.8376 H   0  0  0  0  0  0  0  0  0  0  0  0
  147.2722  140.8800  153.1575 H   0  0  0  0  0  0  0  0  0  0  0  0
  147.2356  142.6000  153.5525 H   0  0  0  0  0  0  0  0  0  0  0  0
  1  2  2  0  0  0  0
  2  3  1  0  0  0  0
  2 13  1  0  0  0  0
  3  4  1  0  0  0  0
  3 20  1  0  0  0  0
  3 21  1  0  0  0  0
  4 12  1  0  0  0  0
  4  5  1  0  0  0  0
  5  6  2  0  0  0  0
  5 22  1  0  0  0  0
  6  7  1  0  0  0  0
  6 23  1  0  0  0  0
  7  8  1  0  0  0  0
  7 12  2  0  0  0  0
  8  9  1  0  0  0  0
  8 10  1  0  0  0  0
  8 11  1  0  0  0  0
 13 14  1  0  0  0  0
 13 24  1  0  0  0  0
 14 15  1  0  0  0  0
 14 25  1  0  0  0  0
 14 26  1  0  0  0  0
 15 19  1  0  0  0  0
 15 16  1  0  0  0  0
 15 27  1  0  0  0  0
 16 17  1  0  0  0  0
 16 28  1  0  0  0  0
 16 29  1  0  0  0  0
 17 18  1  0  0  0  0
 17 30  1  0  0  0  0
 17 31  1  0  0  0  0
 18 19  1  0  0  0  0
 18 32  1  0  0  0  0
 18 33  1  0  0  0  0
M  END
> <s_m_source_file>
AV-unprocessed.smi

> <i_m_source_file_index>
2088

> <i_lp_mmshare_version>
43012

> <i_f3d_flags>
0

> <s_epik_input>
TzFbQ0gyXVtDSDJdW0NIMl1bQ0BIXTFbQ0gyXVtOSF1DKD1PKVtDSDJdbjJbY0hdW2NIXWMobjIpQyhGKShGKUY=

> <s_epik_cmdline>
J2VwaWtfcHl0aG9uJywgJy1waCcsICc3LjAnLCAnLXRuJywgJzgnLCAnLW1hJywgJzIwMCcsICctbWV0YWxfYmluZGluZycsICctaW1hZScsICc8aW5maWxlLm1hZT4nLCAnLW9tYWUnLCAnPG91dGZpbGUubWFlPic=

> <r_lp_tautomer_probability>
1

> <r_epik_Ionization_Penalty>
2.25732e-07

> <r_epik_Ionization_Penalty_Charging>
0

> <r_epik_Ionization_Penalty_Neutral>
2.25732e-07

> <r_epik_State_Penalty>
-0

> <r_epik_Charging_Adjusted_Penalty>
0

> <i_epik_Tot_Q>
0

> <i_epik_Tot_abs_Q>
0

> <r_epik_Metal_State_Penalty>
-0

> <b_epik_Metal_Only>
0

> <s_lp_Force_Field>
OPLS_2005

> <r_lp_Energy>
20.6352

> <b_lp_Chiralities_Consistent>
1

> <s_lp_Variant>
AV-unprocessed.smi:2088-1

> <Gold.Version>
5.8.1

> <Gold.Id.Protein>
6NUR|6NUR_protein|mol2

> <Gold.PLP.Fitness>
49.6216

> <Gold.PLP.PLP>
-45.4456

> <Gold.PLP.part.hbond>
-2.3988

> <Gold.PLP.part.metal>
0.0000

> <Gold.PLP.part.buried>
-5.8279

> <Gold.PLP.part.nonpolar>
-38.1436

> <Gold.PLP.part.repulsive>
0.2706

> <Gold.PLP.ligand.clash>
0.0000

> <Gold.PLP.ligand.torsion>
0.2459

> <Gold.PLP.Chemscore.Hbond>
1.5520

> <Gold.PLP.Chemscore.CHOScore>
0.0000

> <Gold.PLP.Chemscore.Metal>
0.0000

> <Gold.Chemscore.Hbonds>
donor molecule, donor type, donor heavy atom, donor atom, acceptor molecule, acceptor atom, score
      P1  H  7997  8010       L1     1  0.67
      P1  H  8011  8017       L1    19  0.58

> <Gold.PLP.Chemscore.Internal.Correction>
0.0118

> <Gold.Rescore>
     Score         DG    S(hbond)    S(metal)    S(lipo)     H(rot)  DE(clash)    DE(int)     intcor
     13.84     -14.12       1.40        0.00      75.19       1.89       0.12       0.17       ----

> <Gold.Chemscore.Fitness>
13.8356

> <Gold.Chemscore.DG>
-14.1225

> <Gold.Chemscore.ZeroCoef>
-5.4800

> <Gold.Chemscore.Hbond>
1.4045

> <Gold.Chemscore.Metal>
0.0000

> <Gold.Chemscore.Lipo>
75.1879

> <Gold.Chemscore.Internal_Hbond>
0.0000

> <Gold.Chemscore.DEClash>
0.1180

> <Gold.Chemscore.DEInternal>
0.1688

> <Gold.Chemscore.Rot>
1.8928

> <Gold.Chemscore.Internal.Correction>
   9.000000E+99

> <Gold.Chemscore.Hbonds>
donor molecule, donor type, donor heavy atom, donor atom, acceptor molecule, acceptor atom, score
      P1  H  7997  8010       L1     1  0.64
      P1  H  8011  8017       L1    19  0.34

> <Gold.Chemscore.Hbond.Weighted>
-4.6909

> <Gold.Chemscore.Metal.Weighted>
-0.0000

> <Gold.Chemscore.Lipo.Weighted>
-8.7970

> <Gold.Chemscore.Internal_Hbond.Weighted>
0.0000

> <Gold.Chemscore.DEClash.Weighted>
0.1180

> <Gold.Chemscore.DEInternal.Weighted>
0.1688

> <Gold.Chemscore.Rot.Weighted>
4.8455

> <Gold.Chemscore.Internal.Correction.Weighted>
   9.000000E+99

> <Gold.Protein.RotatedTorsions>
[ 6907 6896 6895 6894 ] final   79.32 input  -60.11 | X-H torsion
[ 7974 7965 7964 7962 ] final  -20.40 input  175.53 | X-H torsion
[ 8008 7997 7996 7995 ] final   91.70 input   59.86 | X-H torsion
[ 10167 10162 10161 10158 ] final  -48.93 input  -65.29 | X-H torsion
[ 10718 10713 10712 10709 ] final  105.71 input   66.30 | X-H torsion
[ 10763 10752 10751 10750 ] final   88.24 input  -60.55 | X-H torsion
[ 11005 11000 10999 10996 ] final  -76.02 input  -57.11 | X-H torsion

> <Gold.Protein.ActiveResidues>
 VAL166  LYS551  ARG553  GLY616  TRP617  ASP618  TYR619  PRO620  LYS621  CYS622 
 ASP623  PHE694  ASN695  SER759  ASP760  ASP761  ALA762  ILE779  LEU786  VAL792 
 PHE793  MET794  SER795  GLU796  ALA797  LYS798  CYS799  TRP800  GLU811  SER814 

> <Gold.Protein.RotatedAtoms>
  152.5194  134.3530  159.9257 H   0  0  0  0  0  0  0  0  0  0  0  0  # atno 6907 bound_to 6896
  151.3481  133.3930  159.2685 H   0  0  0  0  0  0  0  0  0  0  0  0  # atno 6908 bound_to 6896
  150.9749  134.9134  159.7868 H   0  0  0  0  0  0  0  0  0  0  0  0  # atno 6909 bound_to 6896
  146.1790  140.4196  142.8502 H   0  0  0  0  0  0  0  0  0  0  0  0  # atno 7974 bound_to 7965
  156.0268  140.3334  155.7096 H   0  0  0  0  0  0  0  0  0  0  0  0  # atno 8008 bound_to 7997
  155.5943  140.0649  157.2768 H   0  0  0  0  0  0  0  0  0  0  0  0  # atno 8009 bound_to 7997
  154.4337  140.1821  156.1095 H   0  0  0  0  0  0  0  0  0  0  0  0  # atno 8010 bound_to 7997
  140.6708  143.2719  151.4142 H   0  0  0  0  0  0  0  0  0  0  0  0  # atno 10167 bound_to 10162
  157.6695  131.0834  150.5897 H   0  0  0  0  0  0  0  0  0  0  0  0  # atno 10718 bound_to 10713
  153.1749  135.4514  154.9951 H   0  0  0  0  0  0  0  0  0  0  0  0  # atno 10763 bound_to 10752
  154.7991  135.3249  154.7597 H   0  0  0  0  0  0  0  0  0  0  0  0  # atno 10764 bound_to 10752
  153.8068  135.6958  153.4902 H   0  0  0  0  0  0  0  0  0  0  0  0  # atno 10765 bound_to 10752
  141.1650  133.6968  156.7605 H   0  0  0  0  0  0  0  0  0  0  0  0  # atno 11005 bound_to 11000
  144.8283  140.6666  143.6307 LP  0  0  0  0  0  0  0  0  0  0  0  0  # atno 17320 bound_to 7965
  145.4130  139.1577  143.4115 LP  0  0  0  0  0  0  0  0  0  0  0  0  # atno 17321 bound_to 7965
  139.5976  144.1364  152.2162 LP  0  0  0  0  0  0  0  0  0  0  0  0  # atno 17342 bound_to 10162
  140.0738  144.5757  150.7172 LP  0  0  0  0  0  0  0  0  0  0  0  0  # atno 17343 bound_to 10162
  156.6198  130.4402  149.5827 LP  0  0  0  0  0  0  0  0  0  0  0  0  # atno 17370 bound_to 10713
  156.2365  130.6825  151.1514 LP  0  0  0  0  0  0  0  0  0  0  0  0  # atno 17371 bound_to 10713
  140.2537  134.8520  157.3692 LP  0  0  0  0  0  0  0  0  0  0  0  0  # atno 17394 bound_to 11000
  140.1678  134.4647  155.7852 LP  0  0  0  0  0  0  0  0  0  0  0  0  # atno 17395 bound_to 11000

$$$$
