AV-unprocessed.smi:604|AV-procd|sdf|3038|dock4
  -GOLD-   2262023553D 1   1.00000     0.00000
 Structure written by MMmdl.
 49 51  0  0  0  0  0  0  0  0  2 V2000
  150.5697  141.9895  155.6095 O   0  0  0  0  0  0  0  0  0  0  0  0
  150.8145  141.0312  156.3417 C   0  0  0  0  0  0  0  0  0  0  0  0
  151.3010  141.1112  157.5921 N   0  0  0  0  0  0  0  0  0  0  0  0
  151.6251  142.2754  158.3404 C   0  0  0  0  0  0  0  0  0  0  0  0
  152.4732  142.2839  159.4745 C   0  0  0  0  0  0  0  0  0  0  0  0
  152.7308  143.5080  160.1213 C   0  0  0  0  0  0  0  0  0  0  0  0
  152.1386  144.6782  159.6084 C   0  0  0  0  0  0  0  0  0  0  0  0
  151.3401  144.6872  158.5203 N   0  0  0  0  0  0  0  0  0  0  0  0
  151.0989  143.5102  157.9044 C   0  0  0  0  0  0  0  0  0  0  0  0
  150.6463  139.7548  155.9663 N   0  0  0  0  0  0  0  0  0  0  0  0
  150.1518  139.3168  154.6609 C   0  0  2  0  0  0  0  0  0  0  0  0
  148.8113  138.5764  154.8119 C   0  0  0  0  0  0  0  0  0  0  0  0
  148.9831  137.1851  155.4510 C   0  0  0  0  0  0  0  0  0  0  0  0
  149.9641  136.3608  154.6982 N   0  3  2  0  0  0  0  0  0  0  0  0
  150.0518  134.9645  155.2000 C   0  0  0  0  0  0  0  0  0  0  0  0
  149.5748  133.9401  154.1517 C   0  0  0  0  0  0  0  0  0  0  0  0
  148.0653  133.9967  153.9010 C   0  0  0  0  0  0  0  0  0  0  0  0
  147.7176  132.6604  153.2371 C   0  0  0  0  0  0  0  0  0  0  0  0
  148.8230  131.6777  153.6490 C   0  0  0  0  0  0  0  0  0  0  0  0
  149.7986  132.4708  154.5247 C   0  0  0  0  0  0  0  0  0  0  0  0
  151.2871  137.0331  154.6148 C   0  0  0  0  0  0  0  0  0  0  0  0
  151.1659  138.4085  153.9370 C   0  0  0  0  0  0  0  0  0  0  0  0
  151.5257  140.2349  158.0399 H   0  0  0  0  0  0  0  0  0  0  0  0
  152.9393  141.3868  159.8507 H   0  0  0  0  0  0  0  0  0  0  0  0
  153.3723  143.5494  160.9893 H   0  0  0  0  0  0  0  0  0  0  0  0
  152.3159  145.6330  160.0809 H   0  0  0  0  0  0  0  0  0  0  0  0
  150.4579  143.5563  157.0359 H   0  0  0  0  0  0  0  0  0  0  0  0
  150.8706  139.0329  156.6355 H   0  0  0  0  0  0  0  0  0  0  0  0
  149.9798  140.2073  154.0534 H   0  0  0  0  0  0  0  0  0  0  0  0
  148.1118  139.1749  155.3972 H   0  0  0  0  0  0  0  0  0  0  0  0
  148.3567  138.4594  153.8272 H   0  0  0  0  0  0  0  0  0  0  0  0
  149.3052  137.2794  156.4892 H   0  0  0  0  0  0  0  0  0  0  0  0
  148.0156  136.6812  155.4640 H   0  0  0  0  0  0  0  0  0  0  0  0
  151.0623  134.7380  155.5440 H   0  0  0  0  0  0  0  0  0  0  0  0
  149.4132  134.8539  156.0780 H   0  0  0  0  0  0  0  0  0  0  0  0
  150.0777  134.1386  153.2034 H   0  0  0  0  0  0  0  0  0  0  0  0
  147.5342  134.0764  154.8508 H   0  0  0  0  0  0  0  0  0  0  0  0
  147.7740  134.8512  153.2892 H   0  0  0  0  0  0  0  0  0  0  0  0
  146.7283  132.3125  153.5359 H   0  0  0  0  0  0  0  0  0  0  0  0
  147.7098  132.7708  152.1521 H   0  0  0  0  0  0  0  0  0  0  0  0
  148.4235  130.8152  154.1830 H   0  0  0  0  0  0  0  0  0  0  0  0
  149.3327  131.3029  152.7607 H   0  0  0  0  0  0  0  0  0  0  0  0
  150.8310  132.1529  154.3761 H   0  0  0  0  0  0  0  0  0  0  0  0
  149.5491  132.3119  155.5750 H   0  0  0  0  0  0  0  0  0  0  0  0
  151.7064  137.1422  155.6161 H   0  0  0  0  0  0  0  0  0  0  0  0
  151.9888  136.4201  154.0512 H   0  0  0  0  0  0  0  0  0  0  0  0
  150.8460  138.2678  152.9037 H   0  0  0  0  0  0  0  0  0  0  0  0
  152.1445  138.8868  153.8837 H   0  0  0  0  0  0  0  0  0  0  0  0
  149.6069  136.2973  153.7553 H   0  0  0  0  0  0  0  0  0  0  0  0
  1  2  2  0  0  0  0
  2  3  1  0  0  0  0
  2 10  1  0  0  0  0
  3  4  1  0  0  0  0
  3 23  1  0  0  0  0
  4  9  1  0  0  0  0
  4  5  2  0  0  0  0
  5  6  1  0  0  0  0
  5 24  1  0  0  0  0
  6  7  2  0  0  0  0
  6 25  1  0  0  0  0
  7  8  1  0  0  0  0
  7 26  1  0  0  0  0
  8  9  2  0  0  0  0
  9 27  1  0  0  0  0
 10 11  1  0  0  0  0
 10 28  1  0  0  0  0
 11 22  1  0  0  0  0
 11 12  1  0  0  0  0
 11 29  1  0  0  0  0
 12 13  1  0  0  0  0
 12 30  1  0  0  0  0
 12 31  1  0  0  0  0
 13 14  1  0  0  0  0
 13 32  1  0  0  0  0
 13 33  1  0  0  0  0
 14 15  1  0  0  0  0
 14 21  1  0  0  0  0
 14 49  1  0  0  0  0
 15 16  1  0  0  0  0
 15 34  1  0  0  0  0
 15 35  1  0  0  0  0
 16 20  1  0  0  0  0
 16 17  1  0  0  0  0
 16 36  1  0  0  0  0
 17 18  1  0  0  0  0
 17 37  1  0  0  0  0
 17 38  1  0  0  0  0
 18 19  1  0  0  0  0
 18 39  1  0  0  0  0
 18 40  1  0  0  0  0
 19 20  1  0  0  0  0
 19 41  1  0  0  0  0
 19 42  1  0  0  0  0
 20 43  1  0  0  0  0
 20 44  1  0  0  0  0
 21 22  1  0  0  0  0
 21 45  1  0  0  0  0
 21 46  1  0  0  0  0
 22 47  1  0  0  0  0
 22 48  1  0  0  0  0
M  CHG  1  14   1
M  END
> <s_m_source_file>
AV-unprocessed.smi

> <i_m_source_file_index>
604

> <i_lp_mmshare_version>
43012

> <i_f3d_flags>
0

> <s_epik_input>
W2NIXTFuW2NIXVtjSF1bY0hdYzFbTkhdQyg9TylbTkhdW0NIXTJbQ0gyXVtDSDJdTihbQ0gyXVtDSDJdMilbQ0gyXVtDSF0zW0NIMl1bQ0gyXVtDSDJdW0NIMl0z

> <s_epik_cmdline>
J2VwaWtfcHl0aG9uJywgJy1waCcsICc3LjAnLCAnLXRuJywgJzgnLCAnLW1hJywgJzIwMCcsICctbWV0YWxfYmluZGluZycsICctaW1hZScsICc8aW5maWxlLm1hZT4nLCAnLW9tYWUnLCAnPG91dGZpbGUubWFlPic=

> <r_lp_tautomer_probability>
1

> <r_epik_Ionization_Penalty>
0.00608112

> <r_epik_Ionization_Penalty_Charging>
0.00207989

> <r_epik_Ionization_Penalty_Neutral>
0.00400122

> <r_epik_State_Penalty>
-0

> <r_epik_Charging_Adjusted_Penalty>
0.00207989

> <i_epik_Tot_Q>
1

> <i_epik_Tot_abs_Q>
1

> <r_epik_Metal_State_Penalty>
-0

> <b_epik_Metal_Only>
0

> <s_lp_Force_Field>
OPLS_2005

> <r_lp_Energy>
40.9588

> <b_lp_Chiralities_Consistent>
1

> <s_lp_Variant>
AV-unprocessed.smi:604-2

> <Gold.Version>
5.8.1

> <Gold.Id.Protein>
6NUR|6NUR_protein|mol2

> <Gold.PLP.Fitness>
47.9440

> <Gold.PLP.PLP>
-40.6266

> <Gold.PLP.part.hbond>
-1.7356

> <Gold.PLP.part.metal>
0.0000

> <Gold.PLP.part.buried>
-2.1070

> <Gold.PLP.part.nonpolar>
-36.6915

> <Gold.PLP.part.repulsive>
0.4277

> <Gold.PLP.ligand.clash>
0.0000

> <Gold.PLP.ligand.torsion>
0.8598

> <Gold.PLP.Chemscore.Hbond>
2.0000

> <Gold.PLP.Chemscore.CHOScore>
1.0000

> <Gold.PLP.Chemscore.Metal>
0.0000

> <Gold.Chemscore.Hbonds>
donor molecule, donor type, donor heavy atom, donor atom, acceptor molecule, acceptor atom, score
      L1  H    14    49       P1  7948  2.00
      L1  C     9    27       P1  8028  1.00

> <Gold.PLP.Chemscore.Internal.Correction>
0.0371

> <Gold.Rescore>
     Score         DG    S(hbond)    S(metal)    S(lipo)     H(rot)  DE(clash)    DE(int)     intcor
     15.83     -18.26       0.88        0.00     113.38       1.35       0.18       2.25       ----

> <Gold.Chemscore.Fitness>
15.8264

> <Gold.Chemscore.DG>
-18.2558

> <Gold.Chemscore.ZeroCoef>
-5.4800

> <Gold.Chemscore.Hbond>
0.8847

> <Gold.Chemscore.Metal>
0.0000

> <Gold.Chemscore.Lipo>
113.3787

> <Gold.Chemscore.Internal_Hbond>
0.0000

> <Gold.Chemscore.DEClash>
0.1841

> <Gold.Chemscore.DEInternal>
2.2453

> <Gold.Chemscore.Rot>
1.3455

> <Gold.Chemscore.Internal.Correction>
   9.000000E+99

> <Gold.Chemscore.Hbonds>
donor molecule, donor type, donor heavy atom, donor atom, acceptor molecule, acceptor atom, score
      L1  H    14    49       P1  7948  0.54

> <Gold.Chemscore.Hbond.Weighted>
-2.9550

> <Gold.Chemscore.Metal.Weighted>
-0.0000

> <Gold.Chemscore.Lipo.Weighted>
-13.2653

> <Gold.Chemscore.Internal_Hbond.Weighted>
0.0000

> <Gold.Chemscore.DEClash.Weighted>
0.1841

> <Gold.Chemscore.DEInternal.Weighted>
2.2453

> <Gold.Chemscore.Rot.Weighted>
3.4445

> <Gold.Chemscore.Internal.Correction.Weighted>
   9.000000E+99

> <Gold.Protein.RotatedTorsions>
[ 6907 6896 6895 6894 ] final  -46.04 input  -60.11 | X-H torsion
[ 7974 7965 7964 7962 ] final  -45.81 input  175.53 | X-H torsion
[ 8008 7997 7996 7995 ] final  179.53 input   59.86 | X-H torsion
[ 10167 10162 10161 10158 ] final   68.49 input  -65.29 | X-H torsion
[ 10718 10713 10712 10709 ] final -108.60 input   66.30 | X-H torsion
[ 10763 10752 10751 10750 ] final  -49.26 input  -60.55 | X-H torsion
[ 11005 11000 10999 10996 ] final  169.06 input  -57.11 | X-H torsion

> <Gold.Protein.ActiveResidues>
 VAL166  LYS551  ARG553  GLY616  TRP617  ASP618  TYR619  PRO620  LYS621  CYS622 
 ASP623  PHE694  ASN695  SER759  ASP760  ASP761  ALA762  ILE779  LEU786  VAL792 
 PHE793  MET794  SER795  GLU796  ALA797  LYS798  CYS799  TRP800  GLU811  SER814 

> <Gold.Protein.RotatedAtoms>
  150.9155  134.8572  159.7453 H   0  0  0  0  0  0  0  0  0  0  0  0  # atno 6907 bound_to 6896
  152.4966  134.4296  159.9518 H   0  0  0  0  0  0  0  0  0  0  0  0  # atno 6908 bound_to 6896
  151.4335  133.3624  159.2807 H   0  0  0  0  0  0  0  0  0  0  0  0  # atno 6909 bound_to 6896
  145.9783  140.7310  142.9376 H   0  0  0  0  0  0  0  0  0  0  0  0  # atno 7974 bound_to 7965
  156.0423  140.1306  157.0142 H   0  0  0  0  0  0  0  0  0  0  0  0  # atno 8008 bound_to 7997
  154.4397  140.1027  156.6326 H   0  0  0  0  0  0  0  0  0  0  0  0  # atno 8009 bound_to 7997
  155.5647  140.3465  155.4502 H   0  0  0  0  0  0  0  0  0  0  0  0  # atno 8010 bound_to 7997
  140.0781  144.5094  150.7181 H   0  0  0  0  0  0  0  0  0  0  0  0  # atno 10167 bound_to 10162
  156.0494  130.5721  150.7984 H   0  0  0  0  0  0  0  0  0  0  0  0  # atno 10718 bound_to 10713
  154.0911  135.6577  153.4853 H   0  0  0  0  0  0  0  0  0  0  0  0  # atno 10763 bound_to 10752
  153.0321  135.5203  154.7379 H   0  0  0  0  0  0  0  0  0  0  0  0  # atno 10764 bound_to 10752
  154.6503  135.3000  154.9963 H   0  0  0  0  0  0  0  0  0  0  0  0  # atno 10765 bound_to 10752
  140.2938  134.7651  157.3860 H   0  0  0  0  0  0  0  0  0  0  0  0  # atno 11005 bound_to 11000
  144.6854  140.2865  143.7284 LP  0  0  0  0  0  0  0  0  0  0  0  0  # atno 17320 bound_to 7965
  145.7806  139.1890  143.2160 LP  0  0  0  0  0  0  0  0  0  0  0  0  # atno 17321 bound_to 7965
  140.7092  143.2491  151.4635 LP  0  0  0  0  0  0  0  0  0  0  0  0  # atno 17342 bound_to 10162
  139.5796  144.1741  152.1950 LP  0  0  0  0  0  0  0  0  0  0  0  0  # atno 17343 bound_to 10162
  157.5404  131.0940  150.9835 LP  0  0  0  0  0  0  0  0  0  0  0  0  # atno 17370 bound_to 10713
  157.0119  130.5640  149.5322 LP  0  0  0  0  0  0  0  0  0  0  0  0  # atno 17371 bound_to 10713
  140.1171  134.5268  155.8215 LP  0  0  0  0  0  0  0  0  0  0  0  0  # atno 17394 bound_to 11000
  141.2141  133.6744  156.6797 LP  0  0  0  0  0  0  0  0  0  0  0  0  # atno 17395 bound_to 11000

$$$$
