AV-unprocessed.smi:3263|AV-procd|sdf|12492|dock3
  -GOLD-   2272018393D 1   1.00000     0.00000
 Structure written by MMmdl.
 42 44  0  0  0  0  0  0  0  0  2 V2000
  144.7034  135.1883  153.7908 O   0  0  0  0  0  0  0  0  0  0  0  0
  145.7035  135.2352  153.0744 C   0  0  0  0  0  0  0  0  0  0  0  0
  146.3064  133.9499  152.4971 C   0  0  0  0  0  0  0  0  0  0  0  0
  145.8474  133.6509  151.0520 C   0  0  2  0  0  0  0  0  0  0  0  0
  144.3636  133.9938  150.7724 C   0  0  0  0  0  0  0  0  0  0  0  0
  143.7947  132.6692  150.2328 C   0  0  1  0  0  0  0  0  0  0  0  0
  144.3877  132.3810  148.8411 C   0  0  0  0  0  0  0  0  0  0  0  0
  145.8410  131.9873  149.1670 C   0  0  0  0  0  0  0  0  0  0  0  0
  145.8999  132.1465  150.6983 C   0  0  2  0  0  0  0  0  0  0  0  0
  144.5153  131.6492  151.1042 C   0  0  0  0  0  0  0  0  0  0  0  0
  146.3212  136.3812  152.7499 N   0  0  0  0  0  0  0  0  0  0  0  0
  145.9153  137.7066  153.2013 C   0  0  0  0  0  0  0  0  0  0  0  0
  146.7290  138.8140  152.5112 C   0  0  0  0  0  0  0  0  0  0  0  0
  147.0499  139.9596  153.4511 C   0  0  0  0  0  0  0  0  0  0  0  0
  148.3492  140.1694  153.9619 C   0  0  0  0  0  0  0  0  0  0  0  0
  148.5820  141.2595  154.8263 C   0  0  0  0  0  0  0  0  0  0  0  0
  147.5125  142.1159  155.1610 C   0  0  0  0  0  0  0  0  0  0  0  0
  146.2352  141.8599  154.6219 C   0  0  0  0  0  0  0  0  0  0  0  0
  146.0522  140.8053  153.7971 N   0  3  0  0  0  0  0  0  0  0  0  0
  147.3917  134.0543  152.5196 H   0  0  0  0  0  0  0  0  0  0  0  0
  146.0671  133.1092  153.1498 H   0  0  0  0  0  0  0  0  0  0  0  0
  146.4917  134.2024  150.3653 H   0  0  0  0  0  0  0  0  0  0  0  0
  143.8403  134.2781  151.6863 H   0  0  0  0  0  0  0  0  0  0  0  0
  144.2545  134.8137  150.0616 H   0  0  0  0  0  0  0  0  0  0  0  0
  142.7062  132.6162  150.2648 H   0  0  0  0  0  0  0  0  0  0  0  0
  143.8658  131.5543  148.3574 H   0  0  0  0  0  0  0  0  0  0  0  0
  144.3296  133.2476  148.1815 H   0  0  0  0  0  0  0  0  0  0  0  0
  146.0291  130.9521  148.8800 H   0  0  0  0  0  0  0  0  0  0  0  0
  146.5701  132.6129  148.6510 H   0  0  0  0  0  0  0  0  0  0  0  0
  146.7336  131.6121  151.1545 H   0  0  0  0  0  0  0  0  0  0  0  0
  144.3025  131.7609  152.1685 H   0  0  0  0  0  0  0  0  0  0  0  0
  144.3232  130.6158  150.8099 H   0  0  0  0  0  0  0  0  0  0  0  0
  147.1366  136.3286  152.1564 H   0  0  0  0  0  0  0  0  0  0  0  0
  144.8479  137.8500  153.0245 H   0  0  0  0  0  0  0  0  0  0  0  0
  146.0596  137.7537  154.2810 H   0  0  0  0  0  0  0  0  0  0  0  0
  147.6613  138.4057  152.1185 H   0  0  0  0  0  0  0  0  0  0  0  0
  146.1808  139.2056  151.6532 H   0  0  0  0  0  0  0  0  0  0  0  0
  149.1591  139.5062  153.6943 H   0  0  0  0  0  0  0  0  0  0  0  0
  149.5693  141.4371  155.2267 H   0  0  0  0  0  0  0  0  0  0  0  0
  147.6704  142.9571  155.8203 H   0  0  0  0  0  0  0  0  0  0  0  0
  145.3614  142.4625  154.8232 H   0  0  0  0  0  0  0  0  0  0  0  0
  145.1197  140.6402  153.4176 H   0  0  0  0  0  0  0  0  0  0  0  0
  1  2  2  0  0  0  0
  2  3  1  0  0  0  0
  2 11  1  0  0  0  0
  3  4  1  0  0  0  0
  3 20  1  0  0  0  0
  3 21  1  0  0  0  0
  4  9  1  0  0  0  0
  4  5  1  0  0  0  0
  4 22  1  0  0  0  0
  5  6  1  0  0  0  0
  5 23  1  0  0  0  0
  5 24  1  0  0  0  0
  6 10  1  0  0  0  0
  6  7  1  0  0  0  0
  6 25  1  0  0  0  0
  7  8  1  0  0  0  0
  7 26  1  0  0  0  0
  7 27  1  0  0  0  0
  8  9  1  0  0  0  0
  8 28  1  0  0  0  0
  8 29  1  0  0  0  0
  9 10  1  0  0  0  0
  9 30  1  0  0  0  0
 10 31  1  0  0  0  0
 10 32  1  0  0  0  0
 11 12  1  0  0  0  0
 11 33  1  0  0  0  0
 12 13  1  0  0  0  0
 12 34  1  0  0  0  0
 12 35  1  0  0  0  0
 13 14  1  0  0  0  0
 13 36  1  0  0  0  0
 13 37  1  0  0  0  0
 14 19  1  0  0  0  0
 14 15  2  0  0  0  0
 15 16  1  0  0  0  0
 15 38  1  0  0  0  0
 16 17  2  0  0  0  0
 16 39  1  0  0  0  0
 17 18  1  0  0  0  0
 17 40  1  0  0  0  0
 18 19  2  0  0  0  0
 18 41  1  0  0  0  0
 19 42  1  0  0  0  0
M  CHG  1  19   1
M  END
> <s_m_source_file>
AV-unprocessed.smi

> <i_m_source_file_index>
3263

> <i_lp_mmshare_version>
43012

> <i_f3d_flags>
0

> <s_epik_input>
W0NIMl0xW0NIMl1bQ0BASF0oW0NIMl0yKVtDQEBIXShbQ0gyXVtDQEhdMTIpW0NIMl1DKD1PKVtOSF1bQ0gyXVtDSDJdYzNbY0hdW2NIXVtjSF1bY0hdbjM=

> <s_epik_cmdline>
J2VwaWtfcHl0aG9uJywgJy1waCcsICc3LjAnLCAnLXRuJywgJzgnLCAnLW1hJywgJzIwMCcsICctbWV0YWxfYmluZGluZycsICctaW1hZScsICc8aW5maWxlLm1hZT4nLCAnLW9tYWUnLCAnPG91dGZpbGUubWFlPic=

> <r_epik_Ionization_Penalty>
1.83579

> <r_epik_Ionization_Penalty_Charging>
1.83579

> <r_epik_Ionization_Penalty_Neutral>
2.47288e-08

> <r_epik_State_Penalty>
1.95213

> <r_epik_Charging_Adjusted_Penalty>
3.78793

> <i_epik_Tot_Q>
1

> <i_epik_Tot_abs_Q>
1

> <r_epik_Metal_State_Penalty>
1.97847

> <b_epik_Metal_Only>
0

> <s_lp_Force_Field>
OPLS_2005

> <r_lp_Energy>
51.8999

> <b_lp_Chiralities_Consistent>
1

> <s_lp_Variant>
AV-unprocessed.smi:3263-7

> <Gold.Version>
5.8.1

> <Gold.Id.Protein>
6NUR|6NUR_protein|mol2

> <Gold.PLP.Fitness>
46.8612

> <Gold.PLP.PLP>
-39.8674

> <Gold.PLP.part.hbond>
-2.0000

> <Gold.PLP.part.metal>
0.0000

> <Gold.PLP.part.buried>
1.4669

> <Gold.PLP.part.nonpolar>
-38.9216

> <Gold.PLP.part.repulsive>
0.0819

> <Gold.PLP.ligand.clash>
0.0000

> <Gold.PLP.ligand.torsion>
1.0189

> <Gold.PLP.Chemscore.Hbond>
3.0000

> <Gold.PLP.Chemscore.CHOScore>
0.0000

> <Gold.PLP.Chemscore.Metal>
0.0000

> <Gold.Chemscore.Hbonds>
donor molecule, donor type, donor heavy atom, donor atom, acceptor molecule, acceptor atom, score
      L1  H    11    33       P1  7948  1.00
      L1  H    19    42       P1 10175  2.00

> <Gold.PLP.Chemscore.Internal.Correction>
0.0317

> <Gold.Rescore>
     Score         DG    S(hbond)    S(metal)    S(lipo)     H(rot)  DE(clash)    DE(int)     intcor
     20.54     -21.80       1.96        0.00     117.83       1.56       0.38       0.89       ----

> <Gold.Chemscore.Fitness>
20.5358

> <Gold.Chemscore.DG>
-21.7980

> <Gold.Chemscore.ZeroCoef>
-5.4800

> <Gold.Chemscore.Hbond>
1.9569

> <Gold.Chemscore.Metal>
0.0000

> <Gold.Chemscore.Lipo>
117.8269

> <Gold.Chemscore.Internal_Hbond>
0.0000

> <Gold.Chemscore.DEClash>
0.3768

> <Gold.Chemscore.DEInternal>
0.8854

> <Gold.Chemscore.Rot>
1.5640

> <Gold.Chemscore.Internal.Correction>
   9.000000E+99

> <Gold.Chemscore.Hbonds>
donor molecule, donor type, donor heavy atom, donor atom, acceptor molecule, acceptor atom, score
      L1  H    11    33       P1  7948  0.98
      L1  H    19    42       P1 10175  0.94

> <Gold.Chemscore.Hbond.Weighted>
-6.5360

> <Gold.Chemscore.Metal.Weighted>
-0.0000

> <Gold.Chemscore.Lipo.Weighted>
-13.7857

> <Gold.Chemscore.Internal_Hbond.Weighted>
0.0000

> <Gold.Chemscore.DEClash.Weighted>
0.3768

> <Gold.Chemscore.DEInternal.Weighted>
0.8854

> <Gold.Chemscore.Rot.Weighted>
4.0038

> <Gold.Chemscore.Internal.Correction.Weighted>
   9.000000E+99

> <Gold.Protein.RotatedTorsions>
[ 6907 6896 6895 6894 ] final  113.88 input  -60.11 | X-H torsion
[ 7974 7965 7964 7962 ] final   60.33 input  175.53 | X-H torsion
[ 8008 7997 7996 7995 ] final -160.63 input   59.86 | X-H torsion
[ 10167 10162 10161 10158 ] final -178.28 input  -65.29 | X-H torsion
[ 10718 10713 10712 10709 ] final  176.70 input   66.30 | X-H torsion
[ 10763 10752 10751 10750 ] final  120.39 input  -60.55 | X-H torsion
[ 11005 11000 10999 10996 ] final  127.80 input  -57.11 | X-H torsion

> <Gold.Protein.ActiveResidues>
 VAL166  LYS551  ARG553  GLY616  TRP617  ASP618  TYR619  PRO620  LYS621  CYS622 
 ASP623  PHE694  ASN695  SER759  ASP760  ASP761  ALA762  ILE779  LEU786  VAL792 
 PHE793  MET794  SER795  GLU796  ALA797  LYS798  CYS799  TRP800  GLU811  SER814 

> <Gold.Protein.RotatedAtoms>
  152.4835  133.8313  159.7104 H   0  0  0  0  0  0  0  0  0  0  0  0  # atno 6907 bound_to 6896
  150.8903  133.7243  159.2913 H   0  0  0  0  0  0  0  0  0  0  0  0  # atno 6908 bound_to 6896
  151.4718  135.1050  159.9806 H   0  0  0  0  0  0  0  0  0  0  0  0  # atno 6909 bound_to 6896
  145.8972  139.3554  143.0614 H   0  0  0  0  0  0  0  0  0  0  0  0  # atno 7974 bound_to 7965
  155.7802  140.0864  157.2063 H   0  0  0  0  0  0  0  0  0  0  0  0  # atno 8008 bound_to 7997
  154.3990  140.1509  156.3101 H   0  0  0  0  0  0  0  0  0  0  0  0  # atno 8009 bound_to 7997
  155.8661  140.3428  155.5791 H   0  0  0  0  0  0  0  0  0  0  0  0  # atno 8010 bound_to 7997
  139.5439  144.2287  152.0951 H   0  0  0  0  0  0  0  0  0  0  0  0  # atno 10167 bound_to 10162
  156.9163  130.9926  151.3012 H   0  0  0  0  0  0  0  0  0  0  0  0  # atno 10718 bound_to 10713
  153.5978  135.3454  155.2934 H   0  0  0  0  0  0  0  0  0  0  0  0  # atno 10763 bound_to 10752
  154.8641  135.4220  154.2446 H   0  0  0  0  0  0  0  0  0  0  0  0  # atno 10764 bound_to 10752
  153.3268  135.7041  153.7054 H   0  0  0  0  0  0  0  0  0  0  0  0  # atno 10765 bound_to 10752
  139.9526  134.9619  156.8908 H   0  0  0  0  0  0  0  0  0  0  0  0  # atno 11005 bound_to 11000
  145.8836  140.9348  143.0589 LP  0  0  0  0  0  0  0  0  0  0  0  0  # atno 17320 bound_to 7965
  144.6733  140.0812  143.7469 LP  0  0  0  0  0  0  0  0  0  0  0  0  # atno 17321 bound_to 7965
  140.1770  144.4881  150.6548 LP  0  0  0  0  0  0  0  0  0  0  0  0  # atno 17342 bound_to 10162
  140.6681  143.2275  151.5694 LP  0  0  0  0  0  0  0  0  0  0  0  0  # atno 17343 bound_to 10162
  157.5936  130.8461  149.8696 LP  0  0  0  0  0  0  0  0  0  0  0  0  # atno 17370 bound_to 10713
  156.0512  130.3717  150.1197 LP  0  0  0  0  0  0  0  0  0  0  0  0  # atno 17371 bound_to 10713
  140.5683  134.0468  155.7421 LP  0  0  0  0  0  0  0  0  0  0  0  0  # atno 17394 bound_to 11000
  141.1192  133.9489  157.2762 LP  0  0  0  0  0  0  0  0  0  0  0  0  # atno 17395 bound_to 11000

$$$$
