AV-unprocessed.smi:1056|AV-procd|sdf|4647|dock10
  -GOLD-   22720 3153D 1   1.00000     0.00000
 Structure written by MMmdl.
 45 47  0  0  0  0  0  0  0  0  4 V2000
  152.3093  143.4663  160.2494 C   0  0  0  0  0  0  0  0  0  0  0  0
  151.9961  142.5411  159.0857 C   0  0  0  0  0  0  0  0  0  0  0  0
  151.1160  142.9983  158.0789 C   0  0  0  0  0  0  0  0  0  0  0  0
  150.8502  142.1300  157.0269 C   0  0  0  0  0  0  0  0  0  0  0  0
  150.0390  142.2783  155.8999 N   0  3  0  0  0  0  0  0  0  0  0  0
  150.0983  141.1466  155.1449 C   0  0  0  0  0  0  0  0  0  0  0  0
  150.9343  140.2770  155.7749 N   0  0  0  0  0  0  0  0  0  0  0  0
  151.3470  138.9201  155.3929 C   0  0  0  0  0  0  0  0  0  0  0  0
  150.1835  138.0682  154.8479 C   0  0  1  0  0  0  0  0  0  0  0  0
  149.9136  138.4580  153.5142 O   0  0  0  0  0  0  0  0  0  0  0  0
  150.5248  136.5646  154.8751 C   0  0  0  0  0  0  0  0  0  0  0  0
  149.3878  135.7116  154.4476 N   0  3  2  0  0  0  0  0  0  0  0  0
  148.1349  135.9635  155.2071 C   0  0  0  0  0  0  0  0  0  0  0  0
  146.9440  135.2835  154.5060 C   0  0  0  0  0  0  0  0  0  0  0  0
  147.2797  133.8960  154.1646 N   0  5  0  0  0  0  0  0  0  0  0  0
  148.5378  133.3762  154.0104 C   0  0  0  0  0  0  0  0  0  0  0  0
  148.7973  132.2466  153.6019 O   0  0  0  0  0  0  0  0  0  0  0  0
  149.7403  134.2646  154.4308 C   0  0  0  0  0  0  0  0  0  0  0  0
  151.4267  140.8471  156.9534 C   0  0  0  0  0  0  0  0  0  0  0  0
  152.2952  140.3802  157.9368 C   0  0  0  0  0  0  0  0  0  0  0  0
  152.5776  141.2483  159.0159 C   0  0  0  0  0  0  0  0  0  0  0  0
  153.5209  140.7673  160.1053 C   0  0  0  0  0  0  0  0  0  0  0  0
  151.7702  144.4103  160.1656 H   0  0  0  0  0  0  0  0  0  0  0  0
  153.3751  143.6934  160.2807 H   0  0  0  0  0  0  0  0  0  0  0  0
  152.0253  143.0038  161.1947 H   0  0  0  0  0  0  0  0  0  0  0  0
  150.6694  143.9810  158.1255 H   0  0  0  0  0  0  0  0  0  0  0  0
  149.5740  140.9695  154.2167 H   0  0  0  0  0  0  0  0  0  0  0  0
  152.1309  139.0173  154.6402 H   0  0  0  0  0  0  0  0  0  0  0  0
  151.8082  138.4446  156.2595 H   0  0  0  0  0  0  0  0  0  0  0  0
  149.2948  138.2703  155.4443 H   0  0  0  0  0  0  0  0  0  0  0  0
  149.9352  137.6928  152.9597 H   0  0  0  0  0  0  0  0  0  0  0  0
  151.3842  136.3910  154.2250 H   0  0  0  0  0  0  0  0  0  0  0  0
  150.8367  136.2591  155.8751 H   0  0  0  0  0  0  0  0  0  0  0  0
  148.2455  135.5848  156.2246 H   0  0  0  0  0  0  0  0  0  0  0  0
  147.9331  137.0304  155.2924 H   0  0  0  0  0  0  0  0  0  0  0  0
  146.0650  135.3457  155.1469 H   0  0  0  0  0  0  0  0  0  0  0  0
  146.6992  135.8525  153.6089 H   0  0  0  0  0  0  0  0  0  0  0  0
  150.5645  134.0971  153.7362 H   0  0  0  0  0  0  0  0  0  0  0  0
  150.0784  133.9524  155.4201 H   0  0  0  0  0  0  0  0  0  0  0  0
  152.7377  139.3965  157.8829 H   0  0  0  0  0  0  0  0  0  0  0  0
  153.8938  139.7641  159.8972 H   0  0  0  0  0  0  0  0  0  0  0  0
  153.0107  140.7398  161.0684 H   0  0  0  0  0  0  0  0  0  0  0  0
  154.3817  141.4316  160.1879 H   0  0  0  0  0  0  0  0  0  0  0  0
  149.1878  135.9499  153.4871 H   0  0  0  0  0  0  0  0  0  0  0  0
  149.4848  143.0908  155.6607 H   0  0  0  0  0  0  0  0  0  0  0  0
  1  2  1  0  0  0  0
  1 23  1  0  0  0  0
  1 24  1  0  0  0  0
  1 25  1  0  0  0  0
  2 21  1  0  0  0  0
  2  3  2  0  0  0  0
  3  4  1  0  0  0  0
  3 26  1  0  0  0  0
  4 19  2  0  0  0  0
  4  5  1  0  0  0  0
  5  6  2  0  0  0  0
  5 45  1  0  0  0  0
  6  7  1  0  0  0  0
  6 27  1  0  0  0  0
  7  8  1  0  0  0  0
  7 19  1  0  0  0  0
  8  9  1  0  0  0  0
  8 28  1  0  0  0  0
  8 29  1  0  0  0  0
  9 10  1  0  0  0  0
  9 11  1  0  0  0  0
  9 30  1  0  0  0  0
 10 31  1  0  0  0  0
 11 12  1  0  0  0  0
 11 32  1  0  0  0  0
 11 33  1  0  0  0  0
 12 18  1  0  0  0  0
 12 13  1  0  0  0  0
 12 44  1  0  0  0  0
 13 14  1  0  0  0  0
 13 34  1  0  0  0  0
 13 35  1  0  0  0  0
 14 15  1  0  0  0  0
 14 36  1  0  0  0  0
 14 37  1  0  0  0  0
 15 16  1  0  0  0  0
 16 17  2  0  0  0  0
 16 18  1  0  0  0  0
 18 38  1  0  0  0  0
 18 39  1  0  0  0  0
 19 20  1  0  0  0  0
 20 21  2  0  0  0  0
 20 40  1  0  0  0  0
 21 22  1  0  0  0  0
 22 41  1  0  0  0  0
 22 42  1  0  0  0  0
 22 43  1  0  0  0  0
M  CHG  1   5   1
M  CHG  1  12   1
M  CHG  1  15  -1
M  END
> <s_m_source_file>
AV-unprocessed.smi

> <i_m_source_file_index>
1056

> <i_lp_mmshare_version>
43012

> <i_f3d_flags>
0

> <s_epik_input>
W0NIM11jKFtjSF0xKWMoW0NIM10pW2NIXWMoYzEyKW4oW2NIXW4yKVtDSDJdW0NASF0oW09IXSlbQ0gyXU4zW0NIMl1bQ0gyXVtOSF1DKD1PKVtDSDJdMw==

> <s_epik_cmdline>
J2VwaWtfcHl0aG9uJywgJy1waCcsICc3LjAnLCAnLXRuJywgJzgnLCAnLW1hJywgJzIwMCcsICctbWV0YWxfYmluZGluZycsICctaW1hZScsICc8aW5maWxlLm1hZT4nLCAnLW9tYWUnLCAnPG91dGZpbGUubWFlPic=

> <r_epik_Ionization_Penalty>
6.22415

> <r_epik_Ionization_Penalty_Charging>
6.22415

> <r_epik_Ionization_Penalty_Neutral>
4.02797e-07

> <r_epik_State_Penalty>
6.37716

> <r_epik_Charging_Adjusted_Penalty>
12.6013

> <i_epik_Tot_Q>
1

> <i_epik_Tot_abs_Q>
3

> <r_epik_Metal_State_Penalty>
2.53509

> <b_epik_Metal_Only>
1

> <s_lp_Force_Field>
OPLS_2005

> <r_lp_Energy>
25.2777

> <b_lp_Chiralities_Consistent>
1

> <s_lp_Variant>
AV-unprocessed.smi:1056-18

> <Gold.Version>
5.8.1

> <Gold.Id.Protein>
6NUR|6NUR_protein|mol2

> <Gold.PLP.Fitness>
56.0331

> <Gold.PLP.PLP>
-41.8344

> <Gold.PLP.part.hbond>
-4.0000

> <Gold.PLP.part.metal>
0.0000

> <Gold.PLP.part.buried>
-4.5657

> <Gold.PLP.part.nonpolar>
-33.8926

> <Gold.PLP.part.repulsive>
0.3519

> <Gold.PLP.ligand.clash>
0.0000

> <Gold.PLP.ligand.torsion>
0.4159

> <Gold.PLP.Chemscore.Hbond>
5.0000

> <Gold.PLP.Chemscore.CHOScore>
0.0000

> <Gold.PLP.Chemscore.Metal>
0.0000

> <Gold.Chemscore.Hbonds>
donor molecule, donor type, donor heavy atom, donor atom, acceptor molecule, acceptor atom, score
      L1  H     5    45       P1  8028  2.00
      L1  H    10    31       P1  7948  1.00
      L1  H    12    44       P1  7948  2.00

> <Gold.PLP.Chemscore.Internal.Correction>
0.0304

> <Gold.Rescore>
     Score         DG    S(hbond)    S(metal)    S(lipo)     H(rot)  DE(clash)    DE(int)     intcor
     20.07     -20.44       2.92        0.00      96.40       2.37       0.02       0.36       ----

> <Gold.Chemscore.Fitness>
20.0659

> <Gold.Chemscore.DG>
-20.4403

> <Gold.Chemscore.ZeroCoef>
-5.4800

> <Gold.Chemscore.Hbond>
2.9206

> <Gold.Chemscore.Metal>
0.0000

> <Gold.Chemscore.Lipo>
96.4013

> <Gold.Chemscore.Internal_Hbond>
0.0000

> <Gold.Chemscore.DEClash>
0.0174

> <Gold.Chemscore.DEInternal>
0.3569

> <Gold.Chemscore.Rot>
2.3724

> <Gold.Chemscore.Internal.Correction>
   9.000000E+99

> <Gold.Chemscore.Hbonds>
donor molecule, donor type, donor heavy atom, donor atom, acceptor molecule, acceptor atom, score
      L1  H     5    45       P1  8028  1.00
      L1  H    10    31       P1  7948  0.27
      L1  H    12    44       P1  7948  0.78

> <Gold.Chemscore.Hbond.Weighted>
-9.7547

> <Gold.Chemscore.Metal.Weighted>
-0.0000

> <Gold.Chemscore.Lipo.Weighted>
-11.2789

> <Gold.Chemscore.Internal_Hbond.Weighted>
0.0000

> <Gold.Chemscore.DEClash.Weighted>
0.0174

> <Gold.Chemscore.DEInternal.Weighted>
0.3569

> <Gold.Chemscore.Rot.Weighted>
6.0734

> <Gold.Chemscore.Internal.Correction.Weighted>
   9.000000E+99

> <Gold.Protein.RotatedTorsions>
[ 6907 6896 6895 6894 ] final   71.44 input  -60.11 | X-H torsion
[ 7974 7965 7964 7962 ] final   -6.62 input  175.53 | X-H torsion
[ 8008 7997 7996 7995 ] final -116.34 input   59.86 | X-H torsion
[ 10167 10162 10161 10158 ] final  146.48 input  -65.29 | X-H torsion
[ 10718 10713 10712 10709 ] final -104.58 input   66.30 | X-H torsion
[ 10763 10752 10751 10750 ] final  159.88 input  -60.55 | X-H torsion
[ 11005 11000 10999 10996 ] final  -30.01 input  -57.11 | X-H torsion

> <Gold.Protein.ActiveResidues>
 VAL166  LYS551  ARG553  GLY616  TRP617  ASP618  TYR619  PRO620  LYS621  CYS622 
 ASP623  PHE694  ASN695  SER759  ASP760  ASP761  ALA762  ILE779  LEU786  VAL792 
 PHE793  MET794  SER795  GLU796  ALA797  LYS798  CYS799  TRP800  GLU811  SER814 

> <Gold.Protein.RotatedAtoms>
  152.4810  134.4720  159.9638 H   0  0  0  0  0  0  0  0  0  0  0  0  # atno 6907 bound_to 6896
  151.4726  133.3559  159.2833 H   0  0  0  0  0  0  0  0  0  0  0  0  # atno 6908 bound_to 6896
  150.8882  134.8308  159.7335 H   0  0  0  0  0  0  0  0  0  0  0  0  # atno 6909 bound_to 6896
  146.2326  140.2198  142.8337 H   0  0  0  0  0  0  0  0  0  0  0  0  # atno 7974 bound_to 7965
  155.0662  140.0393  157.2593 H   0  0  0  0  0  0  0  0  0  0  0  0  # atno 8008 bound_to 7997
  154.7019  140.2675  155.6687 H   0  0  0  0  0  0  0  0  0  0  0  0  # atno 8009 bound_to 7997
  156.2763  140.2739  156.1632 H   0  0  0  0  0  0  0  0  0  0  0  0  # atno 8010 bound_to 7997
  139.4906  144.5826  151.6841 H   0  0  0  0  0  0  0  0  0  0  0  0  # atno 10167 bound_to 10162
  156.0310  130.5522  150.7417 H   0  0  0  0  0  0  0  0  0  0  0  0  # atno 10718 bound_to 10713
  154.2387  135.2775  155.2862 H   0  0  0  0  0  0  0  0  0  0  0  0  # atno 10763 bound_to 10752
  154.5563  135.5660  153.6970 H   0  0  0  0  0  0  0  0  0  0  0  0  # atno 10764 bound_to 10752
  153.0004  135.6287  154.2530 H   0  0  0  0  0  0  0  0  0  0  0  0  # atno 10765 bound_to 10752
  140.9346  133.7317  156.0985 H   0  0  0  0  0  0  0  0  0  0  0  0  # atno 11005 bound_to 11000
  144.9641  140.8304  143.5495 LP  0  0  0  0  0  0  0  0  0  0  0  0  # atno 17320 bound_to 7965
  145.2172  139.2176  143.5112 LP  0  0  0  0  0  0  0  0  0  0  0  0  # atno 17321 bound_to 7965
  140.5436  144.0539  150.6098 LP  0  0  0  0  0  0  0  0  0  0  0  0  # atno 17342 bound_to 10162
  140.3570  143.2930  152.0425 LP  0  0  0  0  0  0  0  0  0  0  0  0  # atno 17343 bound_to 10162
  157.4984  131.0916  151.0343 LP  0  0  0  0  0  0  0  0  0  0  0  0  # atno 17370 bound_to 10713
  157.0731  130.5872  149.5406 LP  0  0  0  0  0  0  0  0  0  0  0  0  # atno 17371 bound_to 10713
  140.7817  134.3718  157.5486 LP  0  0  0  0  0  0  0  0  0  0  0  0  # atno 17394 bound_to 11000
  139.8804  134.9086  156.2971 LP  0  0  0  0  0  0  0  0  0  0  0  0  # atno 17395 bound_to 11000

$$$$
