AV-unprocessed.smi:1595|AV-procd|sdf|6415|dock7
  -GOLD-   22720 7 53D 1   1.00000     0.00000
 Structure written by MMmdl.
 29 30  0  0  0  0  0  0  0  0  1 V2000
  149.1932  140.0732  155.6917 O   0  0  0  0  0  0  0  0  0  0  0  0
  149.3164  141.2828  155.4928 C   0  0  0  0  0  0  0  0  0  0  0  0
  150.6744  141.9764  155.6740 C   0  0  0  0  0  0  0  0  0  0  0  0
  151.1815  141.9192  157.0556 N   0  0  0  0  0  0  0  0  0  0  0  0
  151.1613  143.1172  157.7967 C   0  0  0  0  0  0  0  0  0  0  0  0
  151.6072  143.2020  159.0650 C   0  0  0  0  0  0  0  0  0  0  0  0
  151.5285  144.4950  159.8618 C   0  0  0  0  0  0  0  0  0  0  0  0
  152.0689  144.3423  161.0708 F   0  0  0  0  0  0  0  0  0  0  0  0
  152.1966  145.4583  159.2288 F   0  0  0  0  0  0  0  0  0  0  0  0
  150.2657  144.8959  160.0151 F   0  0  0  0  0  0  0  0  0  0  0  0
  152.0894  141.9727  159.6627 C   0  0  0  0  0  0  0  0  0  0  0  0
  152.1126  140.8178  158.9691 C   0  0  0  0  0  0  0  0  0  0  0  0
  151.6485  140.7473  157.5816 C   0  0  0  0  0  0  0  0  0  0  0  0
  151.6756  139.7004  156.9339 O   0  0  0  0  0  0  0  0  0  0  0  0
  148.3077  142.0707  155.0932 N   0  0  0  0  0  0  0  0  0  0  0  0
  146.9669  141.6451  154.8530 C   0  0  0  0  0  0  0  0  0  0  0  0
  146.0301  142.6227  154.1764 C   0  0  0  0  0  0  0  0  0  0  0  0
  145.8643  142.3201  155.6401 C   0  0  0  0  0  0  0  0  0  0  0  0
  151.3851  141.5145  154.9871 H   0  0  0  0  0  0  0  0  0  0  0  0
  150.5962  143.0144  155.3454 H   0  0  0  0  0  0  0  0  0  0  0  0
  150.7626  143.9678  157.2630 H   0  0  0  0  0  0  0  0  0  0  0  0
  152.4439  141.9797  160.6829 H   0  0  0  0  0  0  0  0  0  0  0  0
  152.4824  139.9216  159.4455 H   0  0  0  0  0  0  0  0  0  0  0  0
  148.5037  143.0510  154.9506 H   0  0  0  0  0  0  0  0  0  0  0  0
  146.8097  140.5931  154.6190 H   0  0  0  0  0  0  0  0  0  0  0  0
  146.4218  143.6019  153.9076 H   0  0  0  0  0  0  0  0  0  0  0  0
  145.2892  142.2145  153.4918 H   0  0  0  0  0  0  0  0  0  0  0  0
  145.0124  141.7103  155.9336 H   0  0  0  0  0  0  0  0  0  0  0  0
  146.1466  143.0964  156.3487 H   0  0  0  0  0  0  0  0  0  0  0  0
  1  2  2  0  0  0  0
  2  3  1  0  0  0  0
  2 15  1  0  0  0  0
  3  4  1  0  0  0  0
  3 19  1  0  0  0  0
  3 20  1  0  0  0  0
  4 13  1  0  0  0  0
  4  5  1  0  0  0  0
  5  6  2  0  0  0  0
  5 21  1  0  0  0  0
  6  7  1  0  0  0  0
  6 11  1  0  0  0  0
  7  8  1  0  0  0  0
  7  9  1  0  0  0  0
  7 10  1  0  0  0  0
 11 12  2  0  0  0  0
 11 22  1  0  0  0  0
 12 13  1  0  0  0  0
 12 23  1  0  0  0  0
 13 14  2  0  0  0  0
 15 16  1  0  0  0  0
 15 24  1  0  0  0  0
 16 18  1  0  0  0  0
 16 17  1  0  0  0  0
 16 25  1  0  0  0  0
 17 18  1  0  0  0  0
 17 26  1  0  0  0  0
 17 27  1  0  0  0  0
 18 28  1  0  0  0  0
 18 29  1  0  0  0  0
M  END
> <s_m_source_file>
AV-unprocessed.smi

> <i_m_source_file_index>
1595

> <i_lp_mmshare_version>
43012

> <i_f3d_flags>
0

> <s_epik_input>
W0NIMl0xW0NIMl1bQ0hdMVtOSF1DKD1PKVtDSDJdbjJbY0hdYyhDKEYpKEYpRilbY0hdW2NIXWMyPU8=

> <s_epik_cmdline>
J2VwaWtfcHl0aG9uJywgJy1waCcsICc3LjAnLCAnLXRuJywgJzgnLCAnLW1hJywgJzIwMCcsICctbWV0YWxfYmluZGluZycsICctaW1hZScsICc8aW5maWxlLm1hZT4nLCAnLW9tYWUnLCAnPG91dGZpbGUubWFlPic=

> <r_lp_tautomer_probability>
1

> <r_epik_Ionization_Penalty>
3.87815e-08

> <r_epik_Ionization_Penalty_Charging>
1.81112e-08

> <r_epik_Ionization_Penalty_Neutral>
2.06703e-08

> <r_epik_State_Penalty>
-0

> <r_epik_Charging_Adjusted_Penalty>
1.81112e-08

> <i_epik_Tot_Q>
0

> <i_epik_Tot_abs_Q>
0

> <r_epik_Metal_State_Penalty>
-0

> <b_epik_Metal_Only>
0

> <s_lp_Force_Field>
OPLS_2005

> <r_lp_Energy>
27.3116

> <b_lp_Chiralities_Consistent>
1

> <s_lp_Variant>
AV-unprocessed.smi:1595-1

> <Gold.Version>
5.8.1

> <Gold.Id.Protein>
6NUR|6NUR_protein|mol2

> <Gold.PLP.Fitness>
45.4196

> <Gold.PLP.PLP>
-39.9513

> <Gold.PLP.part.hbond>
-1.0000

> <Gold.PLP.part.metal>
0.0000

> <Gold.PLP.part.buried>
-6.3111

> <Gold.PLP.part.nonpolar>
-32.9928

> <Gold.PLP.part.repulsive>
0.1904

> <Gold.PLP.ligand.clash>
0.0000

> <Gold.PLP.ligand.torsion>
0.2373

> <Gold.PLP.Chemscore.Hbond>
0.9600

> <Gold.PLP.Chemscore.CHOScore>
0.9973

> <Gold.PLP.Chemscore.Metal>
0.0000

> <Gold.Chemscore.Hbonds>
donor molecule, donor type, donor heavy atom, donor atom, acceptor molecule, acceptor atom, score
      L1  H    15    24       P1  8028  1.00
      L1  C     5    21       P1  8028  0.93

> <Gold.PLP.Chemscore.Internal.Correction>
0.0710

> <Gold.Rescore>
     Score         DG    S(hbond)    S(metal)    S(lipo)     H(rot)  DE(clash)    DE(int)     intcor
     11.31     -13.04       1.00        0.00      71.45       1.62       0.11       1.61       ----

> <Gold.Chemscore.Fitness>
11.3106

> <Gold.Chemscore.DG>
-13.0358

> <Gold.Chemscore.ZeroCoef>
-5.4800

> <Gold.Chemscore.Hbond>
1.0003

> <Gold.Chemscore.Metal>
0.0000

> <Gold.Chemscore.Lipo>
71.4526

> <Gold.Chemscore.Internal_Hbond>
0.0000

> <Gold.Chemscore.DEClash>
0.1112

> <Gold.Chemscore.DEInternal>
1.6140

> <Gold.Chemscore.Rot>
1.6192

> <Gold.Chemscore.Internal.Correction>
   9.000000E+99

> <Gold.Chemscore.Hbonds>
donor molecule, donor type, donor heavy atom, donor atom, acceptor molecule, acceptor atom, score
      L1  H    15    24       P1  8028  0.95

> <Gold.Chemscore.Hbond.Weighted>
-3.3411

> <Gold.Chemscore.Metal.Weighted>
-0.0000

> <Gold.Chemscore.Lipo.Weighted>
-8.3600

> <Gold.Chemscore.Internal_Hbond.Weighted>
0.0000

> <Gold.Chemscore.DEClash.Weighted>
0.1112

> <Gold.Chemscore.DEInternal.Weighted>
1.6140

> <Gold.Chemscore.Rot.Weighted>
4.1452

> <Gold.Chemscore.Internal.Correction.Weighted>
   9.000000E+99

> <Gold.Protein.RotatedTorsions>
[ 6907 6896 6895 6894 ] final   35.95 input  -60.11 | X-H torsion
[ 7974 7965 7964 7962 ] final  117.74 input  175.53 | X-H torsion
[ 8008 7997 7996 7995 ] final  -69.43 input   59.86 | X-H torsion
[ 10167 10162 10161 10158 ] final  167.18 input  -65.29 | X-H torsion
[ 10718 10713 10712 10709 ] final -112.70 input   66.30 | X-H torsion
[ 10763 10752 10751 10750 ] final  148.22 input  -60.55 | X-H torsion
[ 11005 11000 10999 10996 ] final -146.97 input  -57.11 | X-H torsion

> <Gold.Protein.ActiveResidues>
 VAL166  LYS551  ARG553  GLY616  TRP617  ASP618  TYR619  PRO620  LYS621  CYS622 
 ASP623  PHE694  ASN695  SER759  ASP760  ASP761  ALA762  ILE779  LEU786  VAL792 
 PHE793  MET794  SER795  GLU796  ALA797  LYS798  CYS799  TRP800  GLU811  SER814 

> <Gold.Protein.RotatedAtoms>
  152.1231  134.9191  160.0561 H   0  0  0  0  0  0  0  0  0  0  0  0  # atno 6907 bound_to 6896
  152.0324  133.3938  159.4311 H   0  0  0  0  0  0  0  0  0  0  0  0  # atno 6908 bound_to 6896
  150.6850  134.3427  159.4918 H   0  0  0  0  0  0  0  0  0  0  0  0  # atno 6909 bound_to 6896
  145.1637  139.3140  143.4504 H   0  0  0  0  0  0  0  0  0  0  0  0  # atno 7974 bound_to 7965
  154.4938  140.0854  156.7652 H   0  0  0  0  0  0  0  0  0  0  0  0  # atno 8008 bound_to 7997
  155.4167  140.3444  155.4250 H   0  0  0  0  0  0  0  0  0  0  0  0  # atno 8009 bound_to 7997
  156.1366  140.1517  156.8973 H   0  0  0  0  0  0  0  0  0  0  0  0  # atno 8010 bound_to 7997
  139.4940  144.3949  151.9475 H   0  0  0  0  0  0  0  0  0  0  0  0  # atno 10167 bound_to 10162
  156.0721  130.5934  150.8543 H   0  0  0  0  0  0  0  0  0  0  0  0  # atno 10718 bound_to 10713
  154.0512  135.2881  155.3340 H   0  0  0  0  0  0  0  0  0  0  0  0  # atno 10763 bound_to 10752
  154.6868  135.5242  153.8341 H   0  0  0  0  0  0  0  0  0  0  0  0  # atno 10764 bound_to 10752
  153.0560  135.6595  154.0708 H   0  0  0  0  0  0  0  0  0  0  0  0  # atno 10765 bound_to 10752
  140.7765  134.3128  157.5059 H   0  0  0  0  0  0  0  0  0  0  0  0  # atno 11005 bound_to 11000
  146.3479  140.1757  142.8589 LP  0  0  0  0  0  0  0  0  0  0  0  0  # atno 17320 bound_to 7965
  145.0304  140.8866  143.5113 LP  0  0  0  0  0  0  0  0  0  0  0  0  # atno 17321 bound_to 7965
  140.3387  144.3229  150.5971 LP  0  0  0  0  0  0  0  0  0  0  0  0  # atno 17342 bound_to 10162
  140.5584  143.2195  151.7808 LP  0  0  0  0  0  0  0  0  0  0  0  0  # atno 17343 bound_to 10162
  157.5798  131.0946  150.9289 LP  0  0  0  0  0  0  0  0  0  0  0  0  # atno 17370 bound_to 10713
  156.9487  130.5411  149.5282 LP  0  0  0  0  0  0  0  0  0  0  0  0  # atno 17371 bound_to 10713
  139.8748  134.9292  156.3472 LP  0  0  0  0  0  0  0  0  0  0  0  0  # atno 17394 bound_to 11000
  140.9524  133.7442  156.0289 LP  0  0  0  0  0  0  0  0  0  0  0  0  # atno 17395 bound_to 11000

$$$$
