AV-unprocessed.smi:72|AV-procd|sdf|707|dock10
  -GOLD-   2262017 23D 1   1.00000     0.00000
 Structure written by MMmdl.
 30 31  0  0  0  0  0  0  0  0  2 V2000
  148.8022  133.2947  157.7980 N   0  0  0  0  0  0  0  0  0  0  0  0
  149.5512  134.3426  157.3047 C   0  0  0  0  0  0  0  0  0  0  0  0
  148.9163  135.5590  157.1281 N   0  3  0  0  0  0  0  0  0  0  0  0
  149.5009  136.6696  156.6601 C   0  0  0  0  0  0  0  0  0  0  0  0
  150.7744  136.6345  156.3324 N   0  0  0  0  0  0  0  0  0  0  0  0
  151.4427  137.8744  155.8014 C   0  0  2  0  0  0  0  0  0  0  0  0
  150.5753  138.9425  156.0177 O   0  0  0  0  0  0  0  0  0  0  0  0
  150.7032  139.8525  154.9334 C   0  0  2  0  0  0  0  0  0  0  0  0
  149.5362  140.8554  154.8984 C   0  0  0  0  0  0  0  0  0  0  0  0
  149.1823  141.1418  153.5623 O   0  0  0  0  0  0  0  0  0  0  0  0
  150.8744  138.9305  153.7166 C   0  0  2  0  0  0  0  0  0  0  0  0
  149.6189  138.4839  153.2319 O   0  0  0  0  0  0  0  0  0  0  0  0
  151.7244  137.7940  154.2860 C   0  0  2  0  0  0  0  0  0  0  0  0
  151.4628  136.5366  153.6834 O   0  0  0  0  0  0  0  0  0  0  0  0
  151.5117  135.4310  156.4759 C   0  0  0  0  0  0  0  0  0  0  0  0
  152.6997  135.3781  156.1611 O   0  0  0  0  0  0  0  0  0  0  0  0
  150.8141  134.3226  156.9783 N   0  0  0  0  0  0  0  0  0  0  0  0
  152.3470  138.0466  156.3857 H   0  0  0  0  0  0  0  0  0  0  0  0
  151.6341  140.4014  155.0902 H   0  0  0  0  0  0  0  0  0  0  0  0
  151.3853  139.4401  152.8990 H   0  0  0  0  0  0  0  0  0  0  0  0
  152.7801  138.0295  154.1440 H   0  0  0  0  0  0  0  0  0  0  0  0
  149.1817  132.3723  157.9591 H   0  0  0  0  0  0  0  0  0  0  0  0
  147.8223  133.3615  158.0329 H   0  0  0  0  0  0  0  0  0  0  0  0
  148.9272  137.5814  156.5555 H   0  0  0  0  0  0  0  0  0  0  0  0
  148.6658  140.4858  155.4407 H   0  0  0  0  0  0  0  0  0  0  0  0
  149.8346  141.7876  155.3787 H   0  0  0  0  0  0  0  0  0  0  0  0
  149.3767  140.3854  153.0296 H   0  0  0  0  0  0  0  0  0  0  0  0
  149.4040  138.9746  152.4547 H   0  0  0  0  0  0  0  0  0  0  0  0
  151.1861  136.6847  152.7912 H   0  0  0  0  0  0  0  0  0  0  0  0
  147.9374  135.6092  157.3717 H   0  0  0  0  0  0  0  0  0  0  0  0
  1  2  1  0  0  0  0
  1 22  1  0  0  0  0
  1 23  1  0  0  0  0
  2 17  2  0  0  0  0
  2  3  1  0  0  0  0
  3  4  2  0  0  0  0
  3 30  1  0  0  0  0
  4  5  1  0  0  0  0
  4 24  1  0  0  0  0
  5  6  1  0  0  0  0
  5 15  1  0  0  0  0
  6 18  1  0  0  0  0
  6 13  1  0  0  0  0
  6  7  1  0  0  0  0
  7  8  1  0  0  0  0
  8 19  1  0  0  0  0
  8  9  1  0  0  0  0
  8 11  1  0  0  0  0
  9 10  1  0  0  0  0
  9 25  1  0  0  0  0
  9 26  1  0  0  0  0
 10 27  1  0  0  0  0
 11 20  1  0  0  0  0
 11 12  1  0  0  0  0
 11 13  1  0  0  0  0
 12 28  1  0  0  0  0
 13 21  1  0  0  0  0
 13 14  1  0  0  0  0
 14 29  1  0  0  0  0
 15 16  2  0  0  0  0
 15 17  1  0  0  0  0
M  CHG  1   3   1
M  END
> <s_m_source_file>
AV-unprocessed.smi

> <i_m_source_file_index>
72

> <i_lp_mmshare_version>
43012

> <i_f3d_flags>
0

> <s_epik_input>
W05IMl1jMW5bY0hdbihjKD1PKW4xKVtDQEBIXTJPW0NASF0oW0NIMl1bT0hdKVtDQEBIXShbT0hdKVtDQEhdMltPSF0=

> <s_epik_cmdline>
J2VwaWtfcHl0aG9uJywgJy1waCcsICc3LjAnLCAnLXRuJywgJzgnLCAnLW1hJywgJzIwMCcsICctbWV0YWxfYmluZGluZycsICctaW1hZScsICc8aW5maWxlLm1hZT4nLCAnLW9tYWUnLCAnPG91dGZpbGUubWFlPic=

> <r_lp_tautomer_probability>
4.77166e-05

> <r_epik_Ionization_Penalty>
0.104979

> <r_epik_Ionization_Penalty_Charging>
0.0999619

> <r_epik_Ionization_Penalty_Neutral>
0.00501745

> <r_epik_State_Penalty>
2.51541

> <r_epik_Charging_Adjusted_Penalty>
2.61537

> <i_epik_Tot_Q>
1

> <i_epik_Tot_abs_Q>
1

> <r_epik_Metal_State_Penalty>
3.53763

> <b_epik_Metal_Only>
0

> <s_epik_Chemistry_Notes>
This compound contains an acetal/aminal-like group ( X-CH(R)-Y where X, Y are N, S, or O) that may be acid/base labile, releasing an aldehyde.

> <s_lp_Force_Field>
OPLS_2005

> <r_lp_Energy>
39.1051

> <b_lp_Chiralities_Consistent>
1

> <s_lp_Variant>
AV-unprocessed.smi:72-45

> <Gold.Version>
5.8.1

> <Gold.Id.Protein>
6NUR|6NUR_protein|mol2

> <Gold.PLP.Fitness>
37.7882

> <Gold.PLP.PLP>
-22.6404

> <Gold.PLP.part.hbond>
-9.3922

> <Gold.PLP.part.metal>
0.0000

> <Gold.PLP.part.buried>
-2.0982

> <Gold.PLP.part.nonpolar>
-11.0972

> <Gold.PLP.part.repulsive>
0.0757

> <Gold.PLP.ligand.clash>
0.0000

> <Gold.PLP.ligand.torsion>
0.7598

> <Gold.PLP.Chemscore.Hbond>
5.5037

> <Gold.PLP.Chemscore.CHOScore>
0.0000

> <Gold.PLP.Chemscore.Metal>
0.0000

> <Gold.Chemscore.Hbonds>
donor molecule, donor type, donor heavy atom, donor atom, acceptor molecule, acceptor atom, score
      L1  H    10    27       P1  7957  0.72
      L1  H    12    28       P1  7957  1.00
      L1  H    14    29       P1  7949  0.68
      P1  H  8011  8017       L1    10  0.80
      P1  H 10752 10764       L1    14  1.00
      P1  H 10752 10765       L1    16  0.23

> <Gold.PLP.Chemscore.Internal.Correction>
0.1563

> <Gold.Rescore>
     Score         DG    S(hbond)    S(metal)    S(lipo)     H(rot)  DE(clash)    DE(int)     intcor
      9.95     -11.58       3.84        0.00      31.81       4.08       0.39       1.25       ----

> <Gold.Chemscore.Fitness>
9.9486

> <Gold.Chemscore.DG>
-11.5844

> <Gold.Chemscore.ZeroCoef>
-5.4800

> <Gold.Chemscore.Hbond>
3.8392

> <Gold.Chemscore.Metal>
0.0000

> <Gold.Chemscore.Lipo>
31.8101

> <Gold.Chemscore.Internal_Hbond>
0.0000

> <Gold.Chemscore.DEClash>
0.3868

> <Gold.Chemscore.DEInternal>
1.2490

> <Gold.Chemscore.Rot>
4.0783

> <Gold.Chemscore.Internal.Correction>
   9.000000E+99

> <Gold.Chemscore.Hbonds>
donor molecule, donor type, donor heavy atom, donor atom, acceptor molecule, acceptor atom, score
      L1  H    10    27       P1  7957  0.72
      L1  H    12    28       P1  7957  0.90
      L1  H    14    29       P1  7949  0.37
      P1  H  8011  8017       L1    10  0.11
      P1  H 10752 10764       L1    14  0.25
      P1  H 10752 10765       L1    16  0.22

> <Gold.Chemscore.Hbond.Weighted>
-12.8230

> <Gold.Chemscore.Metal.Weighted>
-0.0000

> <Gold.Chemscore.Lipo.Weighted>
-3.7218

> <Gold.Chemscore.Internal_Hbond.Weighted>
0.0000

> <Gold.Chemscore.DEClash.Weighted>
0.3868

> <Gold.Chemscore.DEInternal.Weighted>
1.2490

> <Gold.Chemscore.Rot.Weighted>
10.4404

> <Gold.Chemscore.Internal.Correction.Weighted>
   9.000000E+99

> <Gold.Protein.RotatedTorsions>
[ 6907 6896 6895 6894 ] final -100.43 input  -60.11 | X-H torsion
[ 7974 7965 7964 7962 ] final  173.78 input  175.53 | X-H torsion
[ 8008 7997 7996 7995 ] final  -91.54 input   59.86 | X-H torsion
[ 10167 10162 10161 10158 ] final  -87.13 input  -65.29 | X-H torsion
[ 10718 10713 10712 10709 ] final -127.36 input   66.30 | X-H torsion
[ 10763 10752 10751 10750 ] final  -91.44 input  -60.55 | X-H torsion
[ 11005 11000 10999 10996 ] final   66.35 input  -57.11 | X-H torsion

> <Gold.Protein.ActiveResidues>
 VAL166  LYS551  ARG553  GLY616  TRP617  ASP618  TYR619  PRO620  LYS621  CYS622 
 ASP623  PHE694  ASN695  SER759  ASP760  ASP761  ALA762  ILE779  LEU786  VAL792 
 PHE793  MET794  SER795  GLU796  ALA797  LYS798  CYS799  TRP800  GLU811  SER814 

> <Gold.Protein.RotatedAtoms>
  150.7116  134.0888  159.3924 H   0  0  0  0  0  0  0  0  0  0  0  0  # atno 6907 bound_to 6896
  151.8873  135.0428  160.0504 H   0  0  0  0  0  0  0  0  0  0  0  0  # atno 6908 bound_to 6896
  152.2519  133.5187  159.5367 H   0  0  0  0  0  0  0  0  0  0  0  0  # atno 6909 bound_to 6896
  144.7236  139.9699  143.6437 H   0  0  0  0  0  0  0  0  0  0  0  0  # atno 7974 bound_to 7965
  154.7120  140.0518  157.0559 H   0  0  0  0  0  0  0  0  0  0  0  0  # atno 8008 bound_to 7997
  155.0542  140.3182  155.4663 H   0  0  0  0  0  0  0  0  0  0  0  0  # atno 8009 bound_to 7997
  156.2792  140.2110  156.5668 H   0  0  0  0  0  0  0  0  0  0  0  0  # atno 8010 bound_to 7997
  140.3874  143.2720  151.9307 H   0  0  0  0  0  0  0  0  0  0  0  0  # atno 10167 bound_to 10162
  156.1850  130.6757  151.0353 H   0  0  0  0  0  0  0  0  0  0  0  0  # atno 10718 bound_to 10713
  154.6761  135.5267  153.8201 H   0  0  0  0  0  0  0  0  0  0  0  0  # atno 10763 bound_to 10752
  153.0533  135.6541  154.0649 H   0  0  0  0  0  0  0  0  0  0  0  0  # atno 10764 bound_to 10752
  154.0542  135.2967  155.3315 H   0  0  0  0  0  0  0  0  0  0  0  0  # atno 10765 bound_to 10752
  139.9837  134.6702  156.0215 H   0  0  0  0  0  0  0  0  0  0  0  0  # atno 11005 bound_to 11000
  146.0571  139.3567  143.0604 LP  0  0  0  0  0  0  0  0  0  0  0  0  # atno 17320 bound_to 7965
  145.8140  140.9712  143.0933 LP  0  0  0  0  0  0  0  0  0  0  0  0  # atno 17321 bound_to 7965
  139.4791  144.5760  151.8010 LP  0  0  0  0  0  0  0  0  0  0  0  0  # atno 17342 bound_to 10162
  140.4875  144.1359  150.5944 LP  0  0  0  0  0  0  0  0  0  0  0  0  # atno 17343 bound_to 10162
  157.6893  131.0815  150.7154 LP  0  0  0  0  0  0  0  0  0  0  0  0  # atno 17370 bound_to 10713
  156.7210  130.4680  149.5523 LP  0  0  0  0  0  0  0  0  0  0  0  0  # atno 17371 bound_to 10713
  141.1505  133.6549  156.4000 LP  0  0  0  0  0  0  0  0  0  0  0  0  # atno 17394 bound_to 11000
  140.5045  134.6454  157.5261 LP  0  0  0  0  0  0  0  0  0  0  0  0  # atno 17395 bound_to 11000

$$$$
