AV-unprocessed.smi:3220|AV-procd|sdf|12299|dock7
  -GOLD-   2272018143D 1   1.00000     0.00000
 Structure written by MMmdl.
 33 34  0  0  0  0  0  0  0  0  1 V2000
  152.0473  140.4554  155.2087 C   0  0  0  0  0  0  0  0  0  0  0  0
  151.0902  140.9697  156.2925 C   0  0  2  0  0  0  0  0  0  0  0  0
  150.0564  141.9557  155.7068 C   0  0  0  0  0  0  0  0  0  0  0  0
  149.1073  141.3124  154.8155 N   0  0  0  0  0  0  0  0  0  0  0  0
  147.9080  141.8017  154.3416 C   0  0  0  0  0  0  0  0  0  0  0  0
  147.3593  140.8341  153.5498 C   0  0  0  0  0  0  0  0  0  0  0  0
  148.3119  139.7782  153.5979 C   0  0  0  0  0  0  0  0  0  0  0  0
  149.3590  140.0691  154.3525 N   0  0  0  0  0  0  0  0  0  0  0  0
  151.8724  141.6059  157.3520 N   0  0  0  0  0  0  0  0  0  0  0  0
  151.3880  142.0729  158.5137 C   0  0  0  0  0  0  0  0  0  0  0  0
  150.2022  141.9944  158.8363 O   0  0  0  0  0  0  0  0  0  0  0  0
  152.4002  142.7349  159.4540 C   0  0  1  0  0  0  0  0  0  0  0  0
  152.1537  144.2405  159.6653 C   0  0  0  0  0  0  0  0  0  0  0  0
  151.7067  144.3340  161.1113 C   0  0  0  0  0  0  0  0  0  0  0  0
  152.4108  143.1378  161.7350 C   0  0  0  0  0  0  0  0  0  0  0  0
  152.2722  142.1351  160.7415 O   0  0  0  0  0  0  0  0  0  0  0  0
  151.5008  139.9557  154.4084 H   0  0  0  0  0  0  0  0  0  0  0  0
  152.7559  139.7359  155.6205 H   0  0  0  0  0  0  0  0  0  0  0  0
  152.6191  141.2700  154.7628 H   0  0  0  0  0  0  0  0  0  0  0  0
  150.5614  140.1016  156.6906 H   0  0  0  0  0  0  0  0  0  0  0  0
  149.5046  142.4527  156.5061 H   0  0  0  0  0  0  0  0  0  0  0  0
  150.5641  142.7417  155.1457 H   0  0  0  0  0  0  0  0  0  0  0  0
  147.5458  142.7828  154.6109 H   0  0  0  0  0  0  0  0  0  0  0  0
  146.4199  140.8732  153.0187 H   0  0  0  0  0  0  0  0  0  0  0  0
  148.2745  138.8157  153.1094 H   0  0  0  0  0  0  0  0  0  0  0  0
  152.8622  141.7105  157.1825 H   0  0  0  0  0  0  0  0  0  0  0  0
  153.4166  142.5773  159.0889 H   0  0  0  0  0  0  0  0  0  0  0  0
  153.0871  144.7873  159.5270 H   0  0  0  0  0  0  0  0  0  0  0  0
  151.4198  144.6726  158.9832 H   0  0  0  0  0  0  0  0  0  0  0  0
  151.9724  145.2808  161.5822 H   0  0  0  0  0  0  0  0  0  0  0  0
  150.6253  144.2075  161.1787 H   0  0  0  0  0  0  0  0  0  0  0  0
  153.4687  143.3484  161.8985 H   0  0  0  0  0  0  0  0  0  0  0  0
  151.9665  142.8306  162.6820 H   0  0  0  0  0  0  0  0  0  0  0  0
  1  2  1  0  0  0  0
  1 17  1  0  0  0  0
  1 18  1  0  0  0  0
  1 19  1  0  0  0  0
  2  3  1  0  0  0  0
  2  9  1  0  0  0  0
  2 20  1  0  0  0  0
  3  4  1  0  0  0  0
  3 21  1  0  0  0  0
  3 22  1  0  0  0  0
  4  8  1  0  0  0  0
  4  5  1  0  0  0  0
  5  6  2  0  0  0  0
  5 23  1  0  0  0  0
  6  7  1  0  0  0  0
  6 24  1  0  0  0  0
  7  8  2  0  0  0  0
  7 25  1  0  0  0  0
  9 10  1  0  0  0  0
  9 26  1  0  0  0  0
 10 11  2  0  0  0  0
 10 12  1  0  0  0  0
 12 16  1  0  0  0  0
 12 13  1  0  0  0  0
 12 27  1  0  0  0  0
 13 14  1  0  0  0  0
 13 28  1  0  0  0  0
 13 29  1  0  0  0  0
 14 15  1  0  0  0  0
 14 30  1  0  0  0  0
 14 31  1  0  0  0  0
 15 16  1  0  0  0  0
 15 32  1  0  0  0  0
 15 33  1  0  0  0  0
M  END
> <s_m_source_file>
AV-unprocessed.smi

> <i_m_source_file_index>
3220

> <i_lp_mmshare_version>
43012

> <i_f3d_flags>
0

> <s_epik_input>
bjFbY0hdW2NIXVtjSF1uMVtDSDJdW0NAQEhdKFtDSDNdKVtOSF1DKD1PKVtDQEBIXTJbQ0gyXVtDSDJdW0NIMl1PMg==

> <s_epik_cmdline>
J2VwaWtfcHl0aG9uJywgJy1waCcsICc3LjAnLCAnLXRuJywgJzgnLCAnLW1hJywgJzIwMCcsICctbWV0YWxfYmluZGluZycsICctaW1hZScsICc8aW5maWxlLm1hZT4nLCAnLW9tYWUnLCAnPG91dGZpbGUubWFlPic=

> <r_lp_tautomer_probability>
1

> <r_epik_Ionization_Penalty>
0.00033363

> <r_epik_Ionization_Penalty_Charging>
0

> <r_epik_Ionization_Penalty_Neutral>
0.00033363

> <r_epik_State_Penalty>
-0

> <r_epik_Charging_Adjusted_Penalty>
0

> <i_epik_Tot_Q>
0

> <i_epik_Tot_abs_Q>
0

> <r_epik_Metal_State_Penalty>
-0

> <b_epik_Metal_Only>
0

> <s_lp_Force_Field>
OPLS_2005

> <r_lp_Energy>
17.4241

> <b_lp_Chiralities_Consistent>
1

> <s_lp_Variant>
AV-unprocessed.smi:3220-3

> <Gold.Version>
5.8.1

> <Gold.Id.Protein>
6NUR|6NUR_protein|mol2

> <Gold.PLP.Fitness>
40.8243

> <Gold.PLP.PLP>
-38.5265

> <Gold.PLP.part.hbond>
-1.0001

> <Gold.PLP.part.metal>
0.0000

> <Gold.PLP.part.buried>
-3.1148

> <Gold.PLP.part.nonpolar>
-34.3278

> <Gold.PLP.part.repulsive>
0.3010

> <Gold.PLP.ligand.clash>
0.0000

> <Gold.PLP.ligand.torsion>
0.3413

> <Gold.PLP.Chemscore.Hbond>
0.0000

> <Gold.PLP.Chemscore.CHOScore>
0.9860

> <Gold.PLP.Chemscore.Metal>
0.0000

> <Gold.Chemscore.Hbonds>
donor molecule, donor type, donor heavy atom, donor atom, acceptor molecule, acceptor atom, score
      L1  C     5    23       P1  8028  0.95
      L1  C     7    25       P1  7948  0.01
      L1  C     7    25       P1  7957  0.07

> <Gold.PLP.Chemscore.Internal.Correction>
0.0223

> <Gold.Rescore>
     Score         DG    S(hbond)    S(metal)    S(lipo)     H(rot)  DE(clash)    DE(int)     intcor
     10.45     -12.23       0.00        0.00      93.15       1.62       0.08       1.70       ----

> <Gold.Chemscore.Fitness>
10.4492

> <Gold.Chemscore.DG>
-12.2268

> <Gold.Chemscore.ZeroCoef>
-5.4800

> <Gold.Chemscore.Hbond>
0.0000

> <Gold.Chemscore.Metal>
0.0000

> <Gold.Chemscore.Lipo>
93.1519

> <Gold.Chemscore.Internal_Hbond>
0.0000

> <Gold.Chemscore.DEClash>
0.0753

> <Gold.Chemscore.DEInternal>
1.7023

> <Gold.Chemscore.Rot>
1.6219

> <Gold.Chemscore.Internal.Correction>
   9.000000E+99

> <Gold.Chemscore.Hbond.Weighted>
-0.0000

> <Gold.Chemscore.Metal.Weighted>
-0.0000

> <Gold.Chemscore.Lipo.Weighted>
-10.8988

> <Gold.Chemscore.Internal_Hbond.Weighted>
0.0000

> <Gold.Chemscore.DEClash.Weighted>
0.0753

> <Gold.Chemscore.DEInternal.Weighted>
1.7023

> <Gold.Chemscore.Rot.Weighted>
4.1520

> <Gold.Chemscore.Internal.Correction.Weighted>
   9.000000E+99

> <Gold.Protein.RotatedTorsions>
[ 6907 6896 6895 6894 ] final -100.07 input  -60.11 | X-H torsion
[ 7974 7965 7964 7962 ] final   61.16 input  175.53 | X-H torsion
[ 8008 7997 7996 7995 ] final  142.25 input   59.86 | X-H torsion
[ 10167 10162 10161 10158 ] final   77.69 input  -65.29 | X-H torsion
[ 10718 10713 10712 10709 ] final  152.68 input   66.30 | X-H torsion
[ 10763 10752 10751 10750 ] final   50.25 input  -60.55 | X-H torsion
[ 11005 11000 10999 10996 ] final -165.03 input  -57.11 | X-H torsion

> <Gold.Protein.ActiveResidues>
 VAL166  LYS551  ARG553  GLY616  TRP617  ASP618  TYR619  PRO620  LYS621  CYS622 
 ASP623  PHE694  ASN695  SER759  ASP760  ASP761  ALA762  ILE779  LEU786  VAL792 
 PHE793  MET794  SER795  GLU796  ALA797  LYS798  CYS799  TRP800  GLU811  SER814 

> <Gold.Protein.RotatedAtoms>
  150.7102  134.0944  159.3942 H   0  0  0  0  0  0  0  0  0  0  0  0  # atno 6907 bound_to 6896
  151.8929  135.0407  160.0509 H   0  0  0  0  0  0  0  0  0  0  0  0  # atno 6908 bound_to 6896
  152.2477  133.5153  159.5343 H   0  0  0  0  0  0  0  0  0  0  0  0  # atno 6909 bound_to 6896
  145.8879  139.3489  143.0667 H   0  0  0  0  0  0  0  0  0  0  0  0  # atno 7974 bound_to 7965
  156.2952  140.2293  156.4698 H   0  0  0  0  0  0  0  0  0  0  0  0  # atno 8008 bound_to 7997
  154.7945  140.0452  157.1247 H   0  0  0  0  0  0  0  0  0  0  0  0  # atno 8009 bound_to 7997
  154.9605  140.3054  155.5036 H   0  0  0  0  0  0  0  0  0  0  0  0  # atno 8010 bound_to 7997
  139.9788  144.5841  150.7919 H   0  0  0  0  0  0  0  0  0  0  0  0  # atno 10167 bound_to 10162
  157.2546  131.0786  151.1707 H   0  0  0  0  0  0  0  0  0  0  0  0  # atno 10718 bound_to 10713
  152.9785  135.5885  154.4222 H   0  0  0  0  0  0  0  0  0  0  0  0  # atno 10763 bound_to 10752
  154.3845  135.2767  155.2193 H   0  0  0  0  0  0  0  0  0  0  0  0  # atno 10764 bound_to 10752
  154.4093  135.6085  153.5997 H   0  0  0  0  0  0  0  0  0  0  0  0  # atno 10765 bound_to 10752
  140.5802  134.5149  157.5177 H   0  0  0  0  0  0  0  0  0  0  0  0  # atno 11005 bound_to 11000
  145.8944  140.9283  143.0535 LP  0  0  0  0  0  0  0  0  0  0  0  0  # atno 17320 bound_to 7965
  144.6729  140.0949  143.7463 LP  0  0  0  0  0  0  0  0  0  0  0  0  # atno 17321 bound_to 7965
  140.7496  143.2942  151.3250 LP  0  0  0  0  0  0  0  0  0  0  0  0  # atno 17342 bound_to 10162
  139.6425  144.0512  152.2565 LP  0  0  0  0  0  0  0  0  0  0  0  0  # atno 17343 bound_to 10162
  157.3241  130.6952  149.6286 LP  0  0  0  0  0  0  0  0  0  0  0  0  # atno 17370 bound_to 10713
  155.9665  130.4327  150.4973 LP  0  0  0  0  0  0  0  0  0  0  0  0  # atno 17371 bound_to 10713
  139.9321  134.7945  156.0903 LP  0  0  0  0  0  0  0  0  0  0  0  0  # atno 17394 bound_to 11000
  141.1001  133.6680  156.2734 LP  0  0  0  0  0  0  0  0  0  0  0  0  # atno 17395 bound_to 11000

$$$$
