#       Name:                AV-unprocessed.smi:2027
#       Creating user name   scv26
#       Creation time:       Fri Mar 27 10:48:39 2020


#       File generated by GOLD software.
#

@<TRIPOS>MOLECULE
AV-unprocessed.smi:2027
    54    56     1
SMALL
NO_CHARGES


@<TRIPOS>ATOM
      1 ****        -2.0778   3.8095  -5.4917 C.3            1 S1                 0.0000
      2 ****        -1.9415   3.2906  -4.0702 C.ar           1 S1                 0.0000
      3 ****        -3.0804   2.7391  -3.4414 C.ar           1 S1                 0.0000
      4 ****        -2.9248   2.2753  -2.1406 C.ar           1 S1                 0.0000
      5 ****        -3.8402   1.6889  -1.2643 N.pl3          1 S1                 1.0000
      6 ****        -3.2214   1.4005  -0.0862 C.2            1 S1                 0.0000
      7 ****        -1.9223   1.7919  -0.1973 N.pl3          1 S1                 0.0000
      8 ****        -0.8335   1.7197   0.7885 C.3            1 S1                 0.0000
      9 ****        -0.1345   0.3466   0.8158 C.3            1 S1                 0.0000
     10 ****         0.4149   0.0675  -0.4570 O.3            1 S1                 0.0000
     11 ****         1.0007   0.3095   1.8587 C.3            1 S1                 0.0000
     12 ****         1.5695  -1.0524   2.0285 N.4            1 S1                 1.0000
     13 ****         2.9984  -1.0094   2.4206 C.3            1 S1                 0.0000
     14 ****         0.7544  -1.9144   2.9237 C.3            1 S1                 0.0000
     15 ****         1.0794  -3.3713   2.7341 C.2            1 S1                 0.0000
     16 ****         0.6447  -4.2312   1.6852 C.2            1 S1                 0.0000
     17 ****         1.1081  -5.4639   1.8056 N.2            1 S1                 0.0000
     18 ****         1.8470  -5.4373   2.9335 N.pl3          1 S1                 0.0000
     19 ****         2.5117  -6.6428   3.3804 C.3            1 S1                 0.0000
     20 ****         1.8458  -4.1889   3.5168 C.2            1 S1                 0.0000
     21 ****        -1.6912   2.3442  -1.4637 C.ar           1 S1                 0.0000
     22 ****        -0.5581   2.8813  -2.0712 C.ar           1 S1                 0.0000
     23 ****        -0.6960   3.3594  -3.3940 C.ar           1 S1                 0.0000
     24 ****         0.5230   3.9516  -4.0808 C.3            1 S1                 0.0000
     25 ****        -3.1044   3.7262  -5.8505 H              1 S1                 0.0000
     26 ****        -1.4401   3.2406  -6.1686 H              1 S1                 0.0000
     27 ****        -1.7919   4.8602  -5.5467 H              1 S1                 0.0000
     28 ****        -4.0315   2.6822  -3.9507 H              1 S1                 0.0000
     29 ****        -3.6808   0.9474   0.7806 H              1 S1                 0.0000
     30 ****        -0.1218   2.5240   0.6018 H              1 S1                 0.0000
     31 ****        -1.2745   1.9269   1.7643 H              1 S1                 0.0000
     32 ****        -0.8811  -0.4167   1.0339 H              1 S1                 0.0000
     33 ****        -0.2828   0.0807  -1.0950 H              1 S1                 0.0000
     34 ****         1.7801   1.0053   1.5424 H              1 S1                 0.0000
     35 ****         0.6496   0.6732   2.8259 H              1 S1                 0.0000
     36 ****         3.1202  -0.5495   3.4022 H              1 S1                 0.0000
     37 ****         3.5791  -0.4332   1.6995 H              1 S1                 0.0000
     38 ****         3.4326  -2.0085   2.4542 H              1 S1                 0.0000
     39 ****         0.9088  -1.6043   3.9583 H              1 S1                 0.0000
     40 ****        -0.3052  -1.7542   2.7281 H              1 S1                 0.0000
     41 ****         0.0116  -3.9950   0.8425 H              1 S1                 0.0000
     42 ****         3.1743  -6.4166   4.2163 H              1 S1                 0.0000
     43 ****         3.1017  -7.0659   2.5667 H              1 S1                 0.0000
     44 ****         1.7696  -7.3734   3.7033 H              1 S1                 0.0000
     45 ****         2.3862  -3.9869   4.4300 H              1 S1                 0.0000
     46 ****         0.3923   2.9331  -1.5610 H              1 S1                 0.0000
     47 ****         1.4030   3.9108  -3.4381 H              1 S1                 0.0000
     48 ****         0.3470   4.9964  -4.3381 H              1 S1                 0.0000
     49 ****         0.7527   3.4031  -4.9946 H              1 S1                 0.0000
     50 ****         1.5442  -1.4752   1.1110 H              1 S1                 0.0000
     51 ****        -4.8173   1.5032  -1.4527 H              1 S1                 0.0000
     52 ****         0.8462  -0.8346  -0.4476 LP             1 S1                 0.0000
     53 ****         1.0973   0.7608  -0.6891 LP             1 S1                 0.0000
     54 ****         0.9469  -6.2409   1.1972 LP             1 S1                 0.0000
@<TRIPOS>BOND
    1    1    2 1     
    2    1   25 1     
    3    1   26 1     
    4    1   27 1     
    5    2   23 ar    
    6    2    3 ar    
    7    3    4 ar    
    8    3   28 1     
    9    4   21 ar    
   10    4    5 1     
   11    5    6 2     
   12    5   51 1     
   13    6    7 1     
   14    6   29 1     
   15    7    8 1     
   16    7   21 1     
   17    8    9 1     
   18    8   30 1     
   19    8   31 1     
   20    9   10 1     
   21    9   11 1     
   22    9   32 1     
   23   10   33 1     
   24   11   12 1     
   25   11   34 1     
   26   11   35 1     
   27   12   13 1     
   28   12   14 1     
   29   12   50 1     
   30   13   36 1     
   31   13   37 1     
   32   13   38 1     
   33   14   15 1     
   34   14   39 1     
   35   14   40 1     
   36   15   20 2     
   37   15   16 1     
   38   16   17 2     
   39   16   41 1     
   40   17   18 1     
   41   18   19 1     
   42   18   20 1     
   43   19   42 1     
   44   19   43 1     
   45   19   44 1     
   46   20   45 1     
   47   21   22 ar    
   48   22   23 ar    
   49   22   46 1     
   50   23   24 1     
   51   24   47 1     
   52   24   48 1     
   53   24   49 1     
   54   10   52 1     
   55   10   53 1     
   56   17   54 1     
@<TRIPOS>SUBSTRUCTURE
      1 S1             1
@<TRIPOS>SET
LONE_PAIRS      STATIC     ATOMS    <user>   **** ""
3 52 53 54
DONOR_HYDROGENS      STATIC     ATOMS    <user>   **** ""
3 51 33 50
ATOM$BLUE        STATIC     ATOMS    COLORGROUP SYSTEM
3 52 53 54
ATOM$RED        STATIC     ATOMS    COLORGROUP SYSTEM
3 51 33 50
