AV-unprocessed.smi:3314|AV-procd|sdf|12742|dock8
  -GOLD-   2272019 83D 1   1.00000     0.00000
 Structure written by MMmdl.
 38 39  0  0  0  0  0  0  0  0  2 V2000
  153.4108  140.9518  159.7299 C   0  0  0  0  0  0  0  0  0  0  0  0
  152.5042  141.9488  159.0381 C   0  0  0  0  0  0  0  0  0  0  0  0
  152.4943  143.3041  159.4284 C   0  0  0  0  0  0  0  0  0  0  0  0
  151.6444  144.2041  158.7547 C   0  0  0  0  0  0  0  0  0  0  0  0
  151.5817  145.6755  159.1065 C   0  0  0  0  0  0  0  0  0  0  0  0
  150.8529  143.7559  157.7551 N   0  3  0  0  0  0  0  0  0  0  0  0
  150.8132  142.4663  157.3467 C   0  0  0  0  0  0  0  0  0  0  0  0
  149.9377  142.1615  156.2689 N   0  0  0  0  0  0  0  0  0  0  0  0
  150.0617  141.2234  155.3114 C   0  0  0  0  0  0  0  0  0  0  0  0
  150.9975  140.4275  155.2290 O   0  0  0  0  0  0  0  0  0  0  0  0
  148.9233  141.1914  154.2836 C   0  0  1  0  0  0  0  0  0  0  0  0
  148.3480  139.7763  154.0471 C   0  0  0  0  0  0  0  0  0  0  0  0
  147.2309  139.8007  153.1124 N   0  0  0  0  0  0  0  0  0  0  0  0
  146.6924  138.4685  152.8840 C   0  0  0  0  0  0  0  0  0  0  0  0
  146.2085  140.7181  153.5965 C   0  0  0  0  0  0  0  0  0  0  0  0
  146.7791  142.1258  153.8391 C   0  0  0  0  0  0  0  0  0  0  0  0
  147.8790  142.0496  154.7421 O   0  0  0  0  0  0  0  0  0  0  0  0
  151.6615  141.5274  157.9875 C   0  0  0  0  0  0  0  0  0  0  0  0
  153.9832  141.4217  160.5303 H   0  0  0  0  0  0  0  0  0  0  0  0
  154.1135  140.5214  159.0161 H   0  0  0  0  0  0  0  0  0  0  0  0
  152.8222  140.1425  160.1631 H   0  0  0  0  0  0  0  0  0  0  0  0
  153.1322  143.6500  160.2289 H   0  0  0  0  0  0  0  0  0  0  0  0
  152.2394  145.9074  159.9447 H   0  0  0  0  0  0  0  0  0  0  0  0
  150.5657  145.9582  159.3832 H   0  0  0  0  0  0  0  0  0  0  0  0
  151.8889  146.2830  158.2547 H   0  0  0  0  0  0  0  0  0  0  0  0
  149.0795  142.6931  156.2448 H   0  0  0  0  0  0  0  0  0  0  0  0
  149.3158  141.5843  153.3438 H   0  0  0  0  0  0  0  0  0  0  0  0
  149.1310  139.1222  153.6609 H   0  0  0  0  0  0  0  0  0  0  0  0
  148.0220  139.3471  154.9964 H   0  0  0  0  0  0  0  0  0  0  0  0
  145.8820  138.4997  152.1551 H   0  0  0  0  0  0  0  0  0  0  0  0
  146.3031  138.0369  153.8071 H   0  0  0  0  0  0  0  0  0  0  0  0
  147.4626  137.8017  152.4952 H   0  0  0  0  0  0  0  0  0  0  0  0
  145.3914  140.7759  152.8765 H   0  0  0  0  0  0  0  0  0  0  0  0
  145.7804  140.3378  154.5254 H   0  0  0  0  0  0  0  0  0  0  0  0
  147.1023  142.5781  152.9004 H   0  0  0  0  0  0  0  0  0  0  0  0
  146.0143  142.7773  154.2618 H   0  0  0  0  0  0  0  0  0  0  0  0
  151.6937  140.4916  157.6872 H   0  0  0  0  0  0  0  0  0  0  0  0
  150.2496  144.4313  157.2851 H   0  0  0  0  0  0  0  0  0  0  0  0
  1  2  1  0  0  0  0
  1 19  1  0  0  0  0
  1 20  1  0  0  0  0
  1 21  1  0  0  0  0
  2 18  1  0  0  0  0
  2  3  2  0  0  0  0
  3  4  1  0  0  0  0
  3 22  1  0  0  0  0
  4  5  1  0  0  0  0
  4  6  2  0  0  0  0
  5 23  1  0  0  0  0
  5 24  1  0  0  0  0
  5 25  1  0  0  0  0
  6  7  1  0  0  0  0
  6 38  1  0  0  0  0
  7  8  1  0  0  0  0
  7 18  2  0  0  0  0
  8  9  1  0  0  0  0
  8 26  1  0  0  0  0
  9 10  2  0  0  0  0
  9 11  1  0  0  0  0
 11 17  1  0  0  0  0
 11 12  1  0  0  0  0
 11 27  1  0  0  0  0
 12 13  1  0  0  0  0
 12 28  1  0  0  0  0
 12 29  1  0  0  0  0
 13 14  1  0  0  0  0
 13 15  1  0  0  0  0
 14 30  1  0  0  0  0
 14 31  1  0  0  0  0
 14 32  1  0  0  0  0
 15 16  1  0  0  0  0
 15 33  1  0  0  0  0
 15 34  1  0  0  0  0
 16 17  1  0  0  0  0
 16 35  1  0  0  0  0
 16 36  1  0  0  0  0
 18 37  1  0  0  0  0
M  CHG  1   6   1
M  END
> <s_m_source_file>
AV-unprocessed.smi

> <i_m_source_file_index>
3314

> <i_lp_mmshare_version>
43012

> <i_f3d_flags>
0

> <s_epik_input>
W0NIM11jMVtjSF1jKFtDSDNdKW5jKFtjSF0xKVtOSF1DKD1PKVtDQEBIXTJbQ0gyXU4oW0NIM10pW0NIMl1bQ0gyXU8y

> <s_epik_cmdline>
J2VwaWtfcHl0aG9uJywgJy1waCcsICc3LjAnLCAnLXRuJywgJzgnLCAnLW1hJywgJzIwMCcsICctbWV0YWxfYmluZGluZycsICctaW1hZScsICc8aW5maWxlLm1hZT4nLCAnLW9tYWUnLCAnPG91dGZpbGUubWFlPic=

> <r_epik_Ionization_Penalty>
2.57421

> <r_epik_Ionization_Penalty_Charging>
1.80498

> <r_epik_Ionization_Penalty_Neutral>
0.76923

> <r_epik_State_Penalty>
2.63884

> <r_epik_Charging_Adjusted_Penalty>
4.44382

> <i_epik_Tot_Q>
1

> <i_epik_Tot_abs_Q>
1

> <r_epik_Metal_State_Penalty>
6.15142

> <b_epik_Metal_Only>
0

> <s_lp_Force_Field>
OPLS_2005

> <r_lp_Energy>
30.3211

> <b_lp_Chiralities_Consistent>
1

> <s_lp_Variant>
AV-unprocessed.smi:3314-12

> <Gold.Version>
5.8.1

> <Gold.Id.Protein>
6NUR|6NUR_protein|mol2

> <Gold.PLP.Fitness>
43.3803

> <Gold.PLP.PLP>
-35.4002

> <Gold.PLP.part.hbond>
-3.0000

> <Gold.PLP.part.metal>
0.0000

> <Gold.PLP.part.buried>
-0.2335

> <Gold.PLP.part.nonpolar>
-33.4979

> <Gold.PLP.part.repulsive>
1.8649

> <Gold.PLP.ligand.clash>
0.0000

> <Gold.PLP.ligand.torsion>
0.3909

> <Gold.PLP.Chemscore.Hbond>
2.9198

> <Gold.PLP.Chemscore.CHOScore>
0.0000

> <Gold.PLP.Chemscore.Metal>
0.0000

> <Gold.Chemscore.Hbonds>
donor molecule, donor type, donor heavy atom, donor atom, acceptor molecule, acceptor atom, score
      L1  H     6    38       P1  8028  1.51
      L1  H     8    26       P1  8028  0.41
      P1  H  7989  7998       L1    10  0.95

> <Gold.PLP.Chemscore.Internal.Correction>
0.0023

> <Gold.Rescore>
     Score         DG    S(hbond)    S(metal)    S(lipo)     H(rot)  DE(clash)    DE(int)     intcor
     14.86     -18.76       1.32        0.00      97.62       1.00       2.73       1.17       ----

> <Gold.Chemscore.Fitness>
14.8577

> <Gold.Chemscore.DG>
-18.7636

> <Gold.Chemscore.ZeroCoef>
-5.4800

> <Gold.Chemscore.Hbond>
1.3241

> <Gold.Chemscore.Metal>
0.0000

> <Gold.Chemscore.Lipo>
97.6165

> <Gold.Chemscore.Internal_Hbond>
0.0000

> <Gold.Chemscore.DEClash>
2.7343

> <Gold.Chemscore.DEInternal>
1.1716

> <Gold.Chemscore.Rot>
1.0000

> <Gold.Chemscore.Internal.Correction>
   9.000000E+99

> <Gold.Chemscore.Hbonds>
donor molecule, donor type, donor heavy atom, donor atom, acceptor molecule, acceptor atom, score
      L1  H     6    38       P1  8028  0.42
      L1  H     8    26       P1  8028  0.40
      P1  H  7989  7998       L1    10  0.21

> <Gold.Chemscore.Hbond.Weighted>
-4.4224

> <Gold.Chemscore.Metal.Weighted>
-0.0000

> <Gold.Chemscore.Lipo.Weighted>
-11.4211

> <Gold.Chemscore.Internal_Hbond.Weighted>
0.0000

> <Gold.Chemscore.DEClash.Weighted>
2.7343

> <Gold.Chemscore.DEInternal.Weighted>
1.1716

> <Gold.Chemscore.Rot.Weighted>
2.5600

> <Gold.Chemscore.Internal.Correction.Weighted>
   9.000000E+99

> <Gold.Protein.RotatedTorsions>
[ 6907 6896 6895 6894 ] final  -13.09 input  -60.11 | X-H torsion
[ 7974 7965 7964 7962 ] final   90.69 input  175.53 | X-H torsion
[ 8008 7997 7996 7995 ] final  121.71 input   59.86 | X-H torsion
[ 10167 10162 10161 10158 ] final  159.00 input  -65.29 | X-H torsion
[ 10718 10713 10712 10709 ] final  112.71 input   66.30 | X-H torsion
[ 10763 10752 10751 10750 ] final  145.74 input  -60.55 | X-H torsion
[ 11005 11000 10999 10996 ] final -108.97 input  -57.11 | X-H torsion

> <Gold.Protein.ActiveResidues>
 VAL166  LYS551  ARG553  GLY616  TRP617  ASP618  TYR619  PRO620  LYS621  CYS622 
 ASP623  PHE694  ASN695  SER759  ASP760  ASP761  ALA762  ILE779  LEU786  VAL792 
 PHE793  MET794  SER795  GLU796  ALA797  LYS798  CYS799  TRP800  GLU811  SER814 

> <Gold.Protein.RotatedAtoms>
  151.3603  135.0902  159.9431 H   0  0  0  0  0  0  0  0  0  0  0  0  # atno 6907 bound_to 6896
  152.5164  133.9265  159.7570 H   0  0  0  0  0  0  0  0  0  0  0  0  # atno 6908 bound_to 6896
  150.9658  133.6342  159.2775 H   0  0  0  0  0  0  0  0  0  0  0  0  # atno 6909 bound_to 6896
  145.5157  139.2278  143.2700 H   0  0  0  0  0  0  0  0  0  0  0  0  # atno 7974 bound_to 7965
  156.2698  140.2802  156.1352 H   0  0  0  0  0  0  0  0  0  0  0  0  # atno 8008 bound_to 7997
  155.1012  140.0389  157.2715 H   0  0  0  0  0  0  0  0  0  0  0  0  # atno 8009 bound_to 7997
  154.6814  140.2609  155.6910 H   0  0  0  0  0  0  0  0  0  0  0  0  # atno 8010 bound_to 7997
  139.4830  144.4771  151.8496 H   0  0  0  0  0  0  0  0  0  0  0  0  # atno 10167 bound_to 10162
  157.6378  131.0972  150.6935 H   0  0  0  0  0  0  0  0  0  0  0  0  # atno 10718 bound_to 10713
  154.0104  135.2915  155.3393 H   0  0  0  0  0  0  0  0  0  0  0  0  # atno 10763 bound_to 10752
  154.7107  135.5151  153.8665 H   0  0  0  0  0  0  0  0  0  0  0  0  # atno 10764 bound_to 10752
  153.0726  135.6653  154.0336 H   0  0  0  0  0  0  0  0  0  0  0  0  # atno 10765 bound_to 10752
  141.0873  133.9117  157.2156 H   0  0  0  0  0  0  0  0  0  0  0  0  # atno 11005 bound_to 11000
  146.2138  140.5966  142.9047 LP  0  0  0  0  0  0  0  0  0  0  0  0  # atno 17320 bound_to 7965
  144.7703  140.5623  143.6674 LP  0  0  0  0  0  0  0  0  0  0  0  0  # atno 17321 bound_to 7965
  140.4244  144.2200  150.5887 LP  0  0  0  0  0  0  0  0  0  0  0  0  # atno 17342 bound_to 10162
  140.4842  143.2369  151.8912 LP  0  0  0  0  0  0  0  0  0  0  0  0  # atno 17343 bound_to 10162
  156.7264  130.4696  149.5510 LP  0  0  0  0  0  0  0  0  0  0  0  0  # atno 17370 bound_to 10713
  156.1631  130.6387  151.0744 LP  0  0  0  0  0  0  0  0  0  0  0  0  # atno 17371 bound_to 10713
  139.9693  135.0133  156.9470 LP  0  0  0  0  0  0  0  0  0  0  0  0  # atno 17394 bound_to 11000
  140.5333  134.0791  155.7321 LP  0  0  0  0  0  0  0  0  0  0  0  0  # atno 17395 bound_to 11000

$$$$
