AV-unprocessed.smi:267|AV-procd|sdf|2039|dock1
  -GOLD-   2262021253D 1   1.00000     0.00000
 Structure written by MMmdl.
 51 54  0  0  0  0  0  0  0  0  1 V2000
  148.8156  125.9823  149.9698 C   0  0  0  0  0  0  0  0  0  0  0  0
  148.2795  126.4980  151.1753 O   0  0  0  0  0  0  0  0  0  0  0  0
  147.4685  127.6422  150.9652 C   0  0  0  0  0  0  0  0  0  0  0  0
  146.9137  128.1571  152.3040 C   0  0  0  0  0  0  0  0  0  0  0  0
  147.8948  128.9715  153.0331 N   0  0  0  0  0  0  0  0  0  0  0  0
  147.4734  130.3573  153.2820 C   0  0  0  0  0  0  0  0  0  0  0  0
  148.6447  131.2982  153.5887 C   0  0  0  0  0  0  0  0  0  0  0  0
  149.5106  130.6835  154.5847 N   0  0  0  0  0  0  0  0  0  0  0  0
  150.2504  131.5131  155.3646 C   0  0  0  0  0  0  0  0  0  0  0  0
  151.0282  130.9911  156.3502 N   0  0  0  0  0  0  0  0  0  0  0  0
  151.7670  131.7910  157.1249 C   0  0  0  0  0  0  0  0  0  0  0  0
  151.8697  133.1209  157.0934 N   0  0  0  0  0  0  0  0  0  0  0  0
  151.0808  133.6525  156.1170 C   0  0  0  0  0  0  0  0  0  0  0  0
  150.2480  132.9299  155.2163 C   0  0  0  0  0  0  0  0  0  0  0  0
  149.5848  133.8174  154.3756 N   0  0  0  0  0  0  0  0  0  0  0  0
  150.0103  134.9934  154.7485 C   0  0  0  0  0  0  0  0  0  0  0  0
  150.9144  134.9852  155.7860 N   0  0  0  0  0  0  0  0  0  0  0  0
  151.5446  136.1386  156.4030 C   0  0  0  0  0  0  0  0  0  0  0  0
  151.0536  137.5033  155.8555 C   0  0  0  0  0  0  0  0  0  0  0  0
  149.5628  137.6575  156.1966 C   0  0  0  0  0  0  0  0  0  0  0  0
  149.0249  138.8458  155.6502 O   0  0  0  0  0  0  0  0  0  0  0  0
  151.8882  138.7716  156.1310 C   0  0  0  0  0  0  0  0  0  0  0  0
  151.8221  139.1725  154.7472 O   0  0  0  0  0  0  0  0  0  0  0  0
  151.4239  137.8297  154.3999 C   0  0  0  0  0  0  0  0  0  0  0  0
  150.0442  129.3566  154.2598 C   0  0  0  0  0  0  0  0  0  0  0  0
  149.0627  128.4532  153.4894 C   0  0  0  0  0  0  0  0  0  0  0  0
  149.3817  127.2772  153.3126 O   0  0  0  0  0  0  0  0  0  0  0  0
  149.4321  125.1100  150.1863 H   0  0  0  0  0  0  0  0  0  0  0  0
  149.4422  126.7214  149.4690 H   0  0  0  0  0  0  0  0  0  0  0  0
  148.0233  125.6733  149.2866 H   0  0  0  0  0  0  0  0  0  0  0  0
  148.0363  128.4267  150.4620 H   0  0  0  0  0  0  0  0  0  0  0  0
  146.6371  127.3760  150.3109 H   0  0  0  0  0  0  0  0  0  0  0  0
  146.0258  128.7608  152.1105 H   0  0  0  0  0  0  0  0  0  0  0  0
  146.5632  127.3223  152.9132 H   0  0  0  0  0  0  0  0  0  0  0  0
  146.9171  130.7430  152.4264 H   0  0  0  0  0  0  0  0  0  0  0  0
  146.7830  130.3510  154.1266 H   0  0  0  0  0  0  0  0  0  0  0  0
  149.2296  131.4678  152.6834 H   0  0  0  0  0  0  0  0  0  0  0  0
  148.2649  132.2721  153.8938 H   0  0  0  0  0  0  0  0  0  0  0  0
  152.3602  131.2936  157.8778 H   0  0  0  0  0  0  0  0  0  0  0  0
  149.6758  135.9039  154.2728 H   0  0  0  0  0  0  0  0  0  0  0  0
  151.3760  136.0784  157.4789 H   0  0  0  0  0  0  0  0  0  0  0  0
  152.6211  136.0115  156.2811 H   0  0  0  0  0  0  0  0  0  0  0  0
  148.9868  136.8063  155.8316 H   0  0  0  0  0  0  0  0  0  0  0  0
  149.4137  137.6903  157.2766 H   0  0  0  0  0  0  0  0  0  0  0  0
  148.0830  138.8080  155.7173 H   0  0  0  0  0  0  0  0  0  0  0  0
  151.4030  139.4842  156.7989 H   0  0  0  0  0  0  0  0  0  0  0  0
  152.9221  138.6066  156.4349 H   0  0  0  0  0  0  0  0  0  0  0  0
  152.2640  137.2501  154.0132 H   0  0  0  0  0  0  0  0  0  0  0  0
  150.5830  137.8055  153.7060 H   0  0  0  0  0  0  0  0  0  0  0  0
  150.9444  129.4609  153.6523 H   0  0  0  0  0  0  0  0  0  0  0  0
  150.3315  128.8473  155.1812 H   0  0  0  0  0  0  0  0  0  0  0  0
  1  2  1  0  0  0  0
  1 28  1  0  0  0  0
  1 29  1  0  0  0  0
  1 30  1  0  0  0  0
  2  3  1  0  0  0  0
  3  4  1  0  0  0  0
  3 31  1  0  0  0  0
  3 32  1  0  0  0  0
  4  5  1  0  0  0  0
  4 33  1  0  0  0  0
  4 34  1  0  0  0  0
  5 26  1  0  0  0  0
  5  6  1  0  0  0  0
  6  7  1  0  0  0  0
  6 35  1  0  0  0  0
  6 36  1  0  0  0  0
  7  8  1  0  0  0  0
  7 37  1  0  0  0  0
  7 38  1  0  0  0  0
  8  9  1  0  0  0  0
  8 25  1  0  0  0  0
  9 14  1  0  0  0  0
  9 10  2  0  0  0  0
 10 11  1  0  0  0  0
 11 12  2  0  0  0  0
 11 39  1  0  0  0  0
 12 13  1  0  0  0  0
 13 17  1  0  0  0  0
 13 14  2  0  0  0  0
 14 15  1  0  0  0  0
 15 16  2  0  0  0  0
 16 17  1  0  0  0  0
 16 40  1  0  0  0  0
 17 18  1  0  0  0  0
 18 19  1  0  0  0  0
 18 41  1  0  0  0  0
 18 42  1  0  0  0  0
 19 24  1  0  0  0  0
 19 20  1  0  0  0  0
 19 22  1  0  0  0  0
 20 21  1  0  0  0  0
 20 43  1  0  0  0  0
 20 44  1  0  0  0  0
 21 45  1  0  0  0  0
 22 23  1  0  0  0  0
 22 46  1  0  0  0  0
 22 47  1  0  0  0  0
 23 24  1  0  0  0  0
 24 48  1  0  0  0  0
 24 49  1  0  0  0  0
 25 26  1  0  0  0  0
 25 50  1  0  0  0  0
 25 51  1  0  0  0  0
 26 27  2  0  0  0  0
M  END
> <s_m_source_file>
AV-unprocessed.smi

> <i_m_source_file_index>
267

> <i_lp_mmshare_version>
43012

> <i_f3d_flags>
0

> <s_epik_input>
W0NIM11PW0NIMl1bQ0gyXU4xW0NIMl1bQ0gyXU4oW0NIMl1DMT1PKWMobltjSF1uMiljKGMyMyluW2NIXW4zW0NIMl1DNChbQ0gyXVtPSF0pW0NIMl1PW0NIMl00

> <s_epik_cmdline>
J2VwaWtfcHl0aG9uJywgJy1waCcsICc3LjAnLCAnLXRuJywgJzgnLCAnLW1hJywgJzIwMCcsICctbWV0YWxfYmluZGluZycsICctaW1hZScsICc8aW5maWxlLm1hZT4nLCAnLW9tYWUnLCAnPG91dGZpbGUubWFlPic=

> <r_lp_tautomer_probability>
1

> <r_epik_Ionization_Penalty>
0.000432285

> <r_epik_Ionization_Penalty_Charging>
0

> <r_epik_Ionization_Penalty_Neutral>
0.000432285

> <r_epik_State_Penalty>
0.000191954

> <r_epik_Charging_Adjusted_Penalty>
0.000191954

> <i_epik_Tot_Q>
0

> <i_epik_Tot_abs_Q>
0

> <r_epik_Metal_State_Penalty>
-0

> <b_epik_Metal_Only>
0

> <s_lp_Force_Field>
OPLS_2005

> <r_lp_Energy>
43.2758

> <b_lp_Chiralities_Consistent>
1

> <s_lp_Variant>
AV-unprocessed.smi:267-1

> <Gold.Version>
5.8.1

> <Gold.Id.Protein>
6NUR|6NUR_protein|mol2

> <Gold.PLP.Fitness>
49.7283

> <Gold.PLP.PLP>
-43.3546

> <Gold.PLP.part.hbond>
-2.0000

> <Gold.PLP.part.metal>
0.0000

> <Gold.PLP.part.buried>
-6.2481

> <Gold.PLP.part.nonpolar>
-36.2768

> <Gold.PLP.part.repulsive>
0.6246

> <Gold.PLP.ligand.clash>
0.0000

> <Gold.PLP.ligand.torsion>
0.5382

> <Gold.PLP.Chemscore.Hbond>
1.2783

> <Gold.PLP.Chemscore.CHOScore>
0.9597

> <Gold.PLP.Chemscore.Metal>
0.0000

> <Gold.Chemscore.Hbonds>
donor molecule, donor type, donor heavy atom, donor atom, acceptor molecule, acceptor atom, score
      P1  H  6896  6909       L1    12  0.21
      P1  H  7989  7998       L1    23  0.83
      L1  C    16    40       P1  7948  0.94

> <Gold.PLP.Chemscore.Internal.Correction>
0.7362

> <Gold.Rescore>
     Score         DG    S(hbond)    S(metal)    S(lipo)     H(rot)  DE(clash)    DE(int)     intcor
      5.67      -9.47       1.00        0.00      73.67       3.11       0.35       3.44       ----

> <Gold.Chemscore.Fitness>
5.6719

> <Gold.Chemscore.DG>
-9.4685

> <Gold.Chemscore.ZeroCoef>
-5.4800

> <Gold.Chemscore.Hbond>
0.9966

> <Gold.Chemscore.Metal>
0.0000

> <Gold.Chemscore.Lipo>
73.6735

> <Gold.Chemscore.Internal_Hbond>
0.0000

> <Gold.Chemscore.DEClash>
0.3546

> <Gold.Chemscore.DEInternal>
3.4420

> <Gold.Chemscore.Rot>
3.1093

> <Gold.Chemscore.Internal.Correction>
   9.000000E+99

> <Gold.Chemscore.Hbonds>
donor molecule, donor type, donor heavy atom, donor atom, acceptor molecule, acceptor atom, score
      P1  H  6896  6909       L1    12  0.03
      P1  H  7989  7998       L1    23  0.77

> <Gold.Chemscore.Hbond.Weighted>
-3.3285

> <Gold.Chemscore.Metal.Weighted>
-0.0000

> <Gold.Chemscore.Lipo.Weighted>
-8.6198

> <Gold.Chemscore.Internal_Hbond.Weighted>
0.0000

> <Gold.Chemscore.DEClash.Weighted>
0.3546

> <Gold.Chemscore.DEInternal.Weighted>
3.4420

> <Gold.Chemscore.Rot.Weighted>
7.9599

> <Gold.Chemscore.Internal.Correction.Weighted>
   9.000000E+99

> <Gold.Protein.RotatedTorsions>
[ 6907 6896 6895 6894 ] final  -25.83 input  -60.11 | X-H torsion
[ 7974 7965 7964 7962 ] final  -39.83 input  175.53 | X-H torsion
[ 8008 7997 7996 7995 ] final  155.66 input   59.86 | X-H torsion
[ 10167 10162 10161 10158 ] final  -37.50 input  -65.29 | X-H torsion
[ 10718 10713 10712 10709 ] final  -50.06 input   66.30 | X-H torsion
[ 10763 10752 10751 10750 ] final   41.82 input  -60.55 | X-H torsion
[ 11005 11000 10999 10996 ] final  -69.99 input  -57.11 | X-H torsion

> <Gold.Protein.ActiveResidues>
 VAL166  LYS551  ARG553  GLY616  TRP617  ASP618  TYR619  PRO620  LYS621  CYS622 
 ASP623  PHE694  ASN695  SER759  ASP760  ASP761  ALA762  ILE779  LEU786  VAL792 
 PHE793  MET794  SER795  GLU796  ALA797  LYS798  CYS799  TRP800  GLU811  SER814 

> <Gold.Protein.RotatedAtoms>
  151.1695  135.0311  159.8745 H   0  0  0  0  0  0  0  0  0  0  0  0  # atno 6907 bound_to 6896
  152.5449  134.1186  159.8399 H   0  0  0  0  0  0  0  0  0  0  0  0  # atno 6908 bound_to 6896
  151.1291  133.5003  159.2632 H   0  0  0  0  0  0  0  0  0  0  0  0  # atno 6909 bound_to 6896
  146.0360  140.6670  142.9110 H   0  0  0  0  0  0  0  0  0  0  0  0  # atno 7974 bound_to 7965
  156.2466  140.1933  156.6835 H   0  0  0  0  0  0  0  0  0  0  0  0  # atno 8008 bound_to 7997
  154.6304  140.0596  156.9751 H   0  0  0  0  0  0  0  0  0  0  0  0  # atno 8009 bound_to 7997
  155.1720  140.3269  155.4393 H   0  0  0  0  0  0  0  0  0  0  0  0  # atno 8010 bound_to 7997
  140.7117  143.3338  151.2509 H   0  0  0  0  0  0  0  0  0  0  0  0  # atno 10167 bound_to 10162
  156.1835  130.4151  149.9473 H   0  0  0  0  0  0  0  0  0  0  0  0  # atno 10718 bound_to 10713
  152.9898  135.6150  154.2850 H   0  0  0  0  0  0  0  0  0  0  0  0  # atno 10763 bound_to 10752
  154.2578  135.2783  155.2792 H   0  0  0  0  0  0  0  0  0  0  0  0  # atno 10764 bound_to 10752
  154.5232  135.5809  153.6755 H   0  0  0  0  0  0  0  0  0  0  0  0  # atno 10765 bound_to 10752
  141.1565  133.6778  156.6684 H   0  0  0  0  0  0  0  0  0  0  0  0  # atno 11005 bound_to 11000
  144.7052  140.3822  143.7124 LP  0  0  0  0  0  0  0  0  0  0  0  0  # atno 17320 bound_to 7965
  145.6962  139.1650  143.2618 LP  0  0  0  0  0  0  0  0  0  0  0  0  # atno 17321 bound_to 7965
  139.6827  143.9826  152.2817 LP  0  0  0  0  0  0  0  0  0  0  0  0  # atno 17342 bound_to 10162
  139.9461  144.6650  150.8217 LP  0  0  0  0  0  0  0  0  0  0  0  0  # atno 17343 bound_to 10162
  156.7235  130.9016  151.3620 LP  0  0  0  0  0  0  0  0  0  0  0  0  # atno 17370 bound_to 10713
  157.6884  130.9208  150.0446 LP  0  0  0  0  0  0  0  0  0  0  0  0  # atno 17371 bound_to 10713
  140.3194  134.8020  157.4240 LP  0  0  0  0  0  0  0  0  0  0  0  0  # atno 17394 bound_to 11000
  140.1110  134.5345  155.8266 LP  0  0  0  0  0  0  0  0  0  0  0  0  # atno 17395 bound_to 11000

$$$$
