AV-unprocessed.smi:2340|AV-procd|sdf|9346|dock6
  -GOLD-   2272012563D 1   1.00000     0.00000
 Structure written by MMmdl.
 40 41  0  0  0  0  0  0  0  0  1 V2000
  144.9393  136.3907  152.5378 C   0  0  0  0  0  0  0  0  0  0  0  0
  145.6018  135.1387  152.0562 C   0  0  0  0  0  0  0  0  0  0  0  0
  145.4007  134.5077  150.8540 C   0  0  0  0  0  0  0  0  0  0  0  0
  146.3831  133.0777  150.6989 S   0  0  0  0  0  0  0  0  0  0  0  0
  147.0411  133.3926  152.3016 C   0  0  0  0  0  0  0  0  0  0  0  0
  148.0838  132.5274  152.9427 C   0  0  2  0  0  0  0  0  0  0  0  0
  147.6103  131.0770  153.1129 C   0  0  0  0  0  0  0  0  0  0  0  0
  148.6589  133.1310  154.2443 C   0  0  0  0  0  0  0  0  0  0  0  0
  148.8377  134.5783  154.1690 N   0  0  0  0  0  0  0  0  0  0  0  0
  149.4377  135.3291  155.1017 C   0  0  0  0  0  0  0  0  0  0  0  0
  149.8603  134.8939  156.1731 O   0  0  0  0  0  0  0  0  0  0  0  0
  149.5474  136.6061  154.7137 N   0  0  0  0  0  0  0  0  0  0  0  0
  150.2075  137.6598  155.4820 C   0  0  1  0  0  0  0  0  0  0  0  0
  151.7252  137.6273  155.2872 C   0  0  0  0  0  0  0  0  0  0  0  0
  152.0850  139.0604  154.9081 C   0  0  0  0  0  0  0  0  0  0  0  0
  150.9173  139.5315  154.2593 O   0  0  0  0  0  0  0  0  0  0  0  0
  149.8080  139.0786  155.0211 C   0  0  1  0  0  0  0  0  0  0  0  0
  148.5108  139.2147  154.2074 C   0  0  0  0  0  0  0  0  0  0  0  0
  146.5384  134.4938  152.8683 N   0  0  0  0  0  0  0  0  0  0  0  0
  144.2029  136.7538  151.8205 H   0  0  0  0  0  0  0  0  0  0  0  0
  145.6684  137.1861  152.6931 H   0  0  0  0  0  0  0  0  0  0  0  0
  144.4234  136.2242  153.4837 H   0  0  0  0  0  0  0  0  0  0  0  0
  144.7376  134.7966  150.0521 H   0  0  0  0  0  0  0  0  0  0  0  0
  148.9102  132.4848  152.2321 H   0  0  0  0  0  0  0  0  0  0  0  0
  147.3080  130.6481  152.1572 H   0  0  0  0  0  0  0  0  0  0  0  0
  146.7582  131.0155  153.7904 H   0  0  0  0  0  0  0  0  0  0  0  0
  148.4044  130.4507  153.5200 H   0  0  0  0  0  0  0  0  0  0  0  0
  147.9718  132.9373  155.0685 H   0  0  0  0  0  0  0  0  0  0  0  0
  149.6012  132.6489  154.5092 H   0  0  0  0  0  0  0  0  0  0  0  0
  148.5265  135.0307  153.3218 H   0  0  0  0  0  0  0  0  0  0  0  0
  149.1719  136.8667  153.8135 H   0  0  0  0  0  0  0  0  0  0  0  0
  149.9517  137.5471  156.5371 H   0  0  0  0  0  0  0  0  0  0  0  0
  152.2553  137.2917  156.1790 H   0  0  0  0  0  0  0  0  0  0  0  0
  152.0012  136.9590  154.4696 H   0  0  0  0  0  0  0  0  0  0  0  0
  152.2760  139.6625  155.7978 H   0  0  0  0  0  0  0  0  0  0  0  0
  152.9590  139.1182  154.2591 H   0  0  0  0  0  0  0  0  0  0  0  0
  149.7354  139.7199  155.9015 H   0  0  0  0  0  0  0  0  0  0  0  0
  147.6549  138.8361  154.7665 H   0  0  0  0  0  0  0  0  0  0  0  0
  148.5678  138.6714  153.2637 H   0  0  0  0  0  0  0  0  0  0  0  0
  148.3142  140.2602  153.9695 H   0  0  0  0  0  0  0  0  0  0  0  0
  1  2  1  0  0  0  0
  1 20  1  0  0  0  0
  1 21  1  0  0  0  0
  1 22  1  0  0  0  0
  2 19  1  0  0  0  0
  2  3  2  0  0  0  0
  3  4  1  0  0  0  0
  3 23  1  0  0  0  0
  4  5  1  0  0  0  0
  5  6  1  0  0  0  0
  5 19  2  0  0  0  0
  6  7  1  0  0  0  0
  6  8  1  0  0  0  0
  6 24  1  0  0  0  0
  7 25  1  0  0  0  0
  7 26  1  0  0  0  0
  7 27  1  0  0  0  0
  8  9  1  0  0  0  0
  8 28  1  0  0  0  0
  8 29  1  0  0  0  0
  9 10  1  0  0  0  0
  9 30  1  0  0  0  0
 10 11  2  0  0  0  0
 10 12  1  0  0  0  0
 12 13  1  0  0  0  0
 12 31  1  0  0  0  0
 13 17  1  0  0  0  0
 13 14  1  0  0  0  0
 13 32  1  0  0  0  0
 14 15  1  0  0  0  0
 14 33  1  0  0  0  0
 14 34  1  0  0  0  0
 15 16  1  0  0  0  0
 15 35  1  0  0  0  0
 15 36  1  0  0  0  0
 16 17  1  0  0  0  0
 17 18  1  0  0  0  0
 17 37  1  0  0  0  0
 18 38  1  0  0  0  0
 18 39  1  0  0  0  0
 18 40  1  0  0  0  0
M  END
> <s_m_source_file>
AV-unprocessed.smi

> <i_m_source_file_index>
2340

> <i_lp_mmshare_version>
43012

> <i_f3d_flags>
0

> <s_epik_input>
W0NIM11jMVtjSF1zYyhuMSlbQ0BIXShbQ0gzXSlbQ0gyXVtOSF1DKD1PKVtOSF1bQ0BASF0yW0NIMl1bQ0gyXU9bQ0BIXTJbQ0gzXQ==

> <s_epik_cmdline>
J2VwaWtfcHl0aG9uJywgJy1waCcsICc3LjAnLCAnLXRuJywgJzgnLCAnLW1hJywgJzIwMCcsICctbWV0YWxfYmluZGluZycsICctaW1hZScsICc8aW5maWxlLm1hZT4nLCAnLW9tYWUnLCAnPG91dGZpbGUubWFlPic=

> <r_epik_Ionization_Penalty>
0.00156622

> <r_epik_Ionization_Penalty_Charging>
0

> <r_epik_Ionization_Penalty_Neutral>
0.00156622

> <r_epik_State_Penalty>
0.00101902

> <r_epik_Charging_Adjusted_Penalty>
0.00101902

> <i_epik_Tot_Q>
0

> <i_epik_Tot_abs_Q>
0

> <r_epik_Metal_State_Penalty>
-0

> <b_epik_Metal_Only>
0

> <s_lp_Force_Field>
OPLS_2005

> <r_lp_Energy>
5.02478

> <b_lp_Chiralities_Consistent>
1

> <s_lp_Variant>
AV-unprocessed.smi:2340-3

> <Gold.Version>
5.8.1

> <Gold.Id.Protein>
6NUR|6NUR_protein|mol2

> <Gold.PLP.Fitness>
40.8953

> <Gold.PLP.PLP>
-30.9132

> <Gold.PLP.part.hbond>
-3.0000

> <Gold.PLP.part.metal>
0.0000

> <Gold.PLP.part.buried>
-2.3588

> <Gold.PLP.part.nonpolar>
-26.4216

> <Gold.PLP.part.repulsive>
0.7025

> <Gold.PLP.ligand.clash>
0.0000

> <Gold.PLP.ligand.torsion>
0.5131

> <Gold.PLP.Chemscore.Hbond>
2.9200

> <Gold.PLP.Chemscore.CHOScore>
0.7101

> <Gold.PLP.Chemscore.Metal>
0.0000

> <Gold.Chemscore.Hbonds>
donor molecule, donor type, donor heavy atom, donor atom, acceptor molecule, acceptor atom, score
      L1  H     9    30       P1  7948  0.94
      L1  H    12    31       P1  7948  0.83
      P1  H  7989  7998       L1    16  0.85
      L1  C     3    23       P1  7921  0.21

> <Gold.PLP.Chemscore.Internal.Correction>
0.1181

> <Gold.Rescore>
     Score         DG    S(hbond)    S(metal)    S(lipo)     H(rot)  DE(clash)    DE(int)     intcor
     16.74     -18.85       2.64        0.00      72.41       1.53       0.07       2.05       ----

> <Gold.Chemscore.Fitness>
16.7361

> <Gold.Chemscore.DG>
-18.8549

> <Gold.Chemscore.ZeroCoef>
-5.4800

> <Gold.Chemscore.Hbond>
2.6426

> <Gold.Chemscore.Metal>
0.0000

> <Gold.Chemscore.Lipo>
72.4106

> <Gold.Chemscore.Internal_Hbond>
0.0000

> <Gold.Chemscore.DEClash>
0.0683

> <Gold.Chemscore.DEInternal>
2.0505

> <Gold.Chemscore.Rot>
1.5325

> <Gold.Chemscore.Internal.Correction>
   9.000000E+99

> <Gold.Chemscore.Hbonds>
donor molecule, donor type, donor heavy atom, donor atom, acceptor molecule, acceptor atom, score
      L1  H     9    30       P1  7948  0.71
      L1  H    12    31       P1  7948  0.77
      P1  H  7989  7998       L1    16  0.15

> <Gold.Chemscore.Hbond.Weighted>
-8.8262

> <Gold.Chemscore.Metal.Weighted>
-0.0000

> <Gold.Chemscore.Lipo.Weighted>
-8.4720

> <Gold.Chemscore.Internal_Hbond.Weighted>
0.0000

> <Gold.Chemscore.DEClash.Weighted>
0.0683

> <Gold.Chemscore.DEInternal.Weighted>
2.0505

> <Gold.Chemscore.Rot.Weighted>
3.9233

> <Gold.Chemscore.Internal.Correction.Weighted>
   9.000000E+99

> <Gold.Protein.RotatedTorsions>
[ 6907 6896 6895 6894 ] final   11.06 input  -60.11 | X-H torsion
[ 7974 7965 7964 7962 ] final   53.28 input  175.53 | X-H torsion
[ 8008 7997 7996 7995 ] final  -68.81 input   59.86 | X-H torsion
[ 10167 10162 10161 10158 ] final  170.44 input  -65.29 | X-H torsion
[ 10718 10713 10712 10709 ] final  -28.16 input   66.30 | X-H torsion
[ 10763 10752 10751 10750 ] final   77.48 input  -60.55 | X-H torsion
[ 11005 11000 10999 10996 ] final  167.92 input  -57.11 | X-H torsion

> <Gold.Protein.ActiveResidues>
 VAL166  LYS551  ARG553  GLY616  TRP617  ASP618  TYR619  PRO620  LYS621  CYS622 
 ASP623  PHE694  ASN695  SER759  ASP760  ASP761  ALA762  ILE779  LEU786  VAL792 
 PHE793  MET794  SER795  GLU796  ALA797  LYS798  CYS799  TRP800  GLU811  SER814 

> <Gold.Protein.RotatedAtoms>
  151.7483  135.0838  160.0326 H   0  0  0  0  0  0  0  0  0  0  0  0  # atno 6907 bound_to 6896
  152.3434  133.6089  159.5901 H   0  0  0  0  0  0  0  0  0  0  0  0  # atno 6908 bound_to 6896
  150.7493  133.9604  159.3555 H   0  0  0  0  0  0  0  0  0  0  0  0  # atno 6909 bound_to 6896
  145.9728  139.4165  143.0180 H   0  0  0  0  0  0  0  0  0  0  0  0  # atno 7974 bound_to 7965
  154.4894  140.0865  156.7560 H   0  0  0  0  0  0  0  0  0  0  0  0  # atno 8008 bound_to 7997
  155.4269  140.3448  155.4258 H   0  0  0  0  0  0  0  0  0  0  0  0  # atno 8009 bound_to 7997
  156.1308  140.1501  156.9056 H   0  0  0  0  0  0  0  0  0  0  0  0  # atno 8010 bound_to 7997
  139.5019  144.3596  151.9839 H   0  0  0  0  0  0  0  0  0  0  0  0  # atno 10167 bound_to 10162
  156.4288  130.4441  149.7131 H   0  0  0  0  0  0  0  0  0  0  0  0  # atno 10718 bound_to 10713
  153.0802  135.4912  154.8486 H   0  0  0  0  0  0  0  0  0  0  0  0  # atno 10763 bound_to 10752
  154.7140  135.3025  154.9155 H   0  0  0  0  0  0  0  0  0  0  0  0  # atno 10764 bound_to 10752
  153.9839  135.6786  153.4804 H   0  0  0  0  0  0  0  0  0  0  0  0  # atno 10765 bound_to 10752
  140.2819  134.7744  157.3765 H   0  0  0  0  0  0  0  0  0  0  0  0  # atno 11005 bound_to 11000
  145.7881  140.9826  143.1063 LP  0  0  0  0  0  0  0  0  0  0  0  0  # atno 17320 bound_to 7965
  144.6841  139.9649  143.7481 LP  0  0  0  0  0  0  0  0  0  0  0  0  # atno 17321 bound_to 7965
  140.3032  144.3623  150.6054 LP  0  0  0  0  0  0  0  0  0  0  0  0  # atno 17342 bound_to 10162
  140.5857  143.2170  151.7346 LP  0  0  0  0  0  0  0  0  0  0  0  0  # atno 17343 bound_to 10162
  156.4043  130.7690  151.2700 LP  0  0  0  0  0  0  0  0  0  0  0  0  # atno 17370 bound_to 10713
  157.7508  131.0230  150.3818 LP  0  0  0  0  0  0  0  0  0  0  0  0  # atno 17371 bound_to 10713
  140.1276  134.5138  155.8132 LP  0  0  0  0  0  0  0  0  0  0  0  0  # atno 17394 bound_to 11000
  141.2161  133.6778  156.6980 LP  0  0  0  0  0  0  0  0  0  0  0  0  # atno 17395 bound_to 11000

$$$$
