AV-unprocessed.smi:2224|AV-procd|sdf|8995|dock3
  -GOLD-   2272012203D 1   1.00000     0.00000
 Structure written by MMmdl.
 44 46  0  0  0  0  0  0  0  0  1 V2000
  145.2177  132.1523  149.9512 C   0  0  0  0  0  0  0  0  0  0  0  0
  144.8171  133.2458  150.9189 C   0  0  0  0  0  0  0  0  0  0  0  0
  143.5116  133.3064  151.4433 C   0  0  0  0  0  0  0  0  0  0  0  0
  143.2016  134.3517  152.3354 C   0  0  0  0  0  0  0  0  0  0  0  0
  141.8186  134.4758  152.9391 C   0  0  0  0  0  0  0  0  0  0  0  0
  144.0957  135.2927  152.7074 N   0  0  0  0  0  0  0  0  0  0  0  0
  145.3557  135.2440  152.2088 C   0  0  0  0  0  0  0  0  0  0  0  0
  146.3708  136.1796  152.5408 N   0  0  0  0  0  0  0  0  0  0  0  0
  146.2859  137.2415  153.3611 C   0  0  0  0  0  0  0  0  0  0  0  0
  145.2671  137.6143  153.9437 O   0  0  0  0  0  0  0  0  0  0  0  0
  147.4672  137.8651  153.4694 N   0  0  0  0  0  0  0  0  0  0  0  0
  147.7007  139.0661  154.2657 C   0  0  2  0  0  0  0  0  0  0  0  0
  147.8698  140.3202  153.3934 C   0  0  1  0  0  0  0  0  0  0  0  0
  146.8540  141.4281  153.4659 C   0  0  0  0  0  0  0  0  0  0  0  0
  147.4851  142.4050  154.4619 C   0  0  0  0  0  0  0  0  0  0  0  0
  148.3984  141.6103  155.2146 O   0  0  0  0  0  0  0  0  0  0  0  0
  149.0214  140.7002  154.3112 C   0  0  1  0  0  0  0  0  0  0  0  0
  149.1530  139.2365  154.7826 C   0  0  0  0  0  0  0  0  0  0  0  0
  149.3636  139.0349  156.2844 C   0  0  0  0  0  0  0  0  0  0  0  0
  150.2589  138.4436  154.0708 C   0  0  0  0  0  0  0  0  0  0  0  0
  145.7500  134.2268  151.3109 C   0  0  0  0  0  0  0  0  0  0  0  0
  144.3720  131.5087  149.7070 H   0  0  0  0  0  0  0  0  0  0  0  0
  146.0044  131.5342  150.3844 H   0  0  0  0  0  0  0  0  0  0  0  0
  145.5928  132.5872  149.0244 H   0  0  0  0  0  0  0  0  0  0  0  0
  142.7681  132.5721  151.1698 H   0  0  0  0  0  0  0  0  0  0  0  0
  141.1356  133.7374  152.5181 H   0  0  0  0  0  0  0  0  0  0  0  0
  141.4070  135.4671  152.7472 H   0  0  0  0  0  0  0  0  0  0  0  0
  141.8619  134.3244  154.0179 H   0  0  0  0  0  0  0  0  0  0  0  0
  147.2671  136.0193  152.1061 H   0  0  0  0  0  0  0  0  0  0  0  0
  148.2549  137.4938  152.9592 H   0  0  0  0  0  0  0  0  0  0  0  0
  146.9614  139.2185  155.0554 H   0  0  0  0  0  0  0  0  0  0  0  0
  148.2220  140.0893  152.3864 H   0  0  0  0  0  0  0  0  0  0  0  0
  146.6769  141.8996  152.4991 H   0  0  0  0  0  0  0  0  0  0  0  0
  145.8988  141.0569  153.8385 H   0  0  0  0  0  0  0  0  0  0  0  0
  148.0415  143.1823  153.9360 H   0  0  0  0  0  0  0  0  0  0  0  0
  146.7486  142.8873  155.1048 H   0  0  0  0  0  0  0  0  0  0  0  0
  149.8846  141.1203  153.7928 H   0  0  0  0  0  0  0  0  0  0  0  0
  150.3312  139.4197  156.6082 H   0  0  0  0  0  0  0  0  0  0  0  0
  149.3187  137.9801  156.5572 H   0  0  0  0  0  0  0  0  0  0  0  0
  148.6004  139.5478  156.8702 H   0  0  0  0  0  0  0  0  0  0  0  0
  151.2487  138.8120  154.3419 H   0  0  0  0  0  0  0  0  0  0  0  0
  150.1773  138.5177  152.9861 H   0  0  0  0  0  0  0  0  0  0  0  0
  150.2247  137.3841  154.3269 H   0  0  0  0  0  0  0  0  0  0  0  0
  146.7576  134.1981  150.9215 H   0  0  0  0  0  0  0  0  0  0  0  0
  1  2  1  0  0  0  0
  1 22  1  0  0  0  0
  1 23  1  0  0  0  0
  1 24  1  0  0  0  0
  2 21  1  0  0  0  0
  2  3  2  0  0  0  0
  3  4  1  0  0  0  0
  3 25  1  0  0  0  0
  4  5  1  0  0  0  0
  4  6  2  0  0  0  0
  5 26  1  0  0  0  0
  5 27  1  0  0  0  0
  5 28  1  0  0  0  0
  6  7  1  0  0  0  0
  7  8  1  0  0  0  0
  7 21  2  0  0  0  0
  8  9  1  0  0  0  0
  8 29  1  0  0  0  0
  9 10  2  0  0  0  0
  9 11  1  0  0  0  0
 11 12  1  0  0  0  0
 11 30  1  0  0  0  0
 12 18  1  0  0  0  0
 12 13  1  0  0  0  0
 12 31  1  0  0  0  0
 13 17  1  0  0  0  0
 13 14  1  0  0  0  0
 13 32  1  0  0  0  0
 14 15  1  0  0  0  0
 14 33  1  0  0  0  0
 14 34  1  0  0  0  0
 15 16  1  0  0  0  0
 15 35  1  0  0  0  0
 15 36  1  0  0  0  0
 16 17  1  0  0  0  0
 17 18  1  0  0  0  0
 17 37  1  0  0  0  0
 18 19  1  0  0  0  0
 18 20  1  0  0  0  0
 19 38  1  0  0  0  0
 19 39  1  0  0  0  0
 19 40  1  0  0  0  0
 20 41  1  0  0  0  0
 20 42  1  0  0  0  0
 20 43  1  0  0  0  0
 21 44  1  0  0  0  0
M  END
> <s_m_source_file>
AV-unprocessed.smi

> <i_m_source_file_index>
2224

> <i_lp_mmshare_version>
43012

> <i_f3d_flags>
0

> <s_epik_input>
W0NIM11jMVtjSF1jKFtDSDNdKW5jKFtjSF0xKVtOSF1DKD1PKVtOSF1bQ0BIXTJDKFtDSDNdKShbQ0gzXSlbQ0BIXShbQ0BASF0yMylPW0NIMl1bQ0gyXTM=

> <s_epik_cmdline>
J2VwaWtfcHl0aG9uJywgJy1waCcsICc3LjAnLCAnLXRuJywgJzgnLCAnLW1hJywgJzIwMCcsICctbWV0YWxfYmluZGluZycsICctaW1hZScsICc8aW5maWxlLm1hZT4nLCAnLW9tYWUnLCAnPG91dGZpbGUubWFlPic=

> <r_lp_tautomer_probability>
1

> <r_epik_Ionization_Penalty>
0.000276544

> <r_epik_Ionization_Penalty_Charging>
0

> <r_epik_Ionization_Penalty_Neutral>
0.000276544

> <r_epik_State_Penalty>
-0

> <r_epik_Charging_Adjusted_Penalty>
0

> <i_epik_Tot_Q>
0

> <i_epik_Tot_abs_Q>
0

> <r_epik_Metal_State_Penalty>
-0

> <b_epik_Metal_Only>
0

> <s_lp_Force_Field>
OPLS_2005

> <r_lp_Energy>
38.5894

> <b_lp_Chiralities_Consistent>
1

> <s_lp_Variant>
AV-unprocessed.smi:2224-5

> <Gold.Version>
5.8.1

> <Gold.Id.Protein>
6NUR|6NUR_protein|mol2

> <Gold.PLP.Fitness>
39.4079

> <Gold.PLP.PLP>
-33.7592

> <Gold.PLP.part.hbond>
-2.0000

> <Gold.PLP.part.metal>
0.0000

> <Gold.PLP.part.buried>
-2.4276

> <Gold.PLP.part.nonpolar>
-29.9257

> <Gold.PLP.part.repulsive>
0.3862

> <Gold.PLP.ligand.clash>
0.0000

> <Gold.PLP.ligand.torsion>
0.2631

> <Gold.PLP.Chemscore.Hbond>
2.0000

> <Gold.PLP.Chemscore.CHOScore>
0.0000

> <Gold.PLP.Chemscore.Metal>
0.0000

> <Gold.Chemscore.Hbonds>
donor molecule, donor type, donor heavy atom, donor atom, acceptor molecule, acceptor atom, score
      L1  H     8    29       P1  7948  1.00
      L1  H    11    30       P1  7948  1.00

> <Gold.PLP.Chemscore.Internal.Correction>
0.1749

> <Gold.Rescore>
     Score         DG    S(hbond)    S(metal)    S(lipo)     H(rot)  DE(clash)    DE(int)     intcor
     18.02     -19.69       1.94        0.00      87.84       1.00       0.09       1.58       ----

> <Gold.Chemscore.Fitness>
18.0221

> <Gold.Chemscore.DG>
-19.6861

> <Gold.Chemscore.ZeroCoef>
-5.4800

> <Gold.Chemscore.Hbond>
1.9427

> <Gold.Chemscore.Metal>
0.0000

> <Gold.Chemscore.Lipo>
87.8421

> <Gold.Chemscore.Internal_Hbond>
0.0000

> <Gold.Chemscore.DEClash>
0.0860

> <Gold.Chemscore.DEInternal>
1.5780

> <Gold.Chemscore.Rot>
1.0000

> <Gold.Chemscore.Internal.Correction>
   9.000000E+99

> <Gold.Chemscore.Hbonds>
donor molecule, donor type, donor heavy atom, donor atom, acceptor molecule, acceptor atom, score
      L1  H     8    29       P1  7948  0.99
      L1  H    11    30       P1  7948  0.95

> <Gold.Chemscore.Hbond.Weighted>
-6.4886

> <Gold.Chemscore.Metal.Weighted>
-0.0000

> <Gold.Chemscore.Lipo.Weighted>
-10.2775

> <Gold.Chemscore.Internal_Hbond.Weighted>
0.0000

> <Gold.Chemscore.DEClash.Weighted>
0.0860

> <Gold.Chemscore.DEInternal.Weighted>
1.5780

> <Gold.Chemscore.Rot.Weighted>
2.5600

> <Gold.Chemscore.Internal.Correction.Weighted>
   9.000000E+99

> <Gold.Protein.RotatedTorsions>
[ 6907 6896 6895 6894 ] final  -93.03 input  -60.11 | X-H torsion
[ 7974 7965 7964 7962 ] final   87.55 input  175.53 | X-H torsion
[ 8008 7997 7996 7995 ] final  -10.22 input   59.86 | X-H torsion
[ 10167 10162 10161 10158 ] final  107.71 input  -65.29 | X-H torsion
[ 10718 10713 10712 10709 ] final  -19.08 input   66.30 | X-H torsion
[ 10763 10752 10751 10750 ] final  -31.31 input  -60.55 | X-H torsion
[ 11005 11000 10999 10996 ] final   87.42 input  -57.11 | X-H torsion

> <Gold.Protein.ActiveResidues>
 VAL166  LYS551  ARG553  GLY616  TRP617  ASP618  TYR619  PRO620  LYS621  CYS622 
 ASP623  PHE694  ASN695  SER759  ASP760  ASP761  ALA762  ILE779  LEU786  VAL792 
 PHE793  MET794  SER795  GLU796  ALA797  LYS798  CYS799  TRP800  GLU811  SER814 

> <Gold.Protein.RotatedAtoms>
  150.6916  134.2030  159.4329 H   0  0  0  0  0  0  0  0  0  0  0  0  # atno 6907 bound_to 6896
  151.9995  134.9933  160.0574 H   0  0  0  0  0  0  0  0  0  0  0  0  # atno 6908 bound_to 6896
  152.1592  133.4536  159.4889 H   0  0  0  0  0  0  0  0  0  0  0  0  # atno 6909 bound_to 6896
  145.5574  139.2301  143.2478 H   0  0  0  0  0  0  0  0  0  0  0  0  # atno 7974 bound_to 7965
  154.5575  140.2334  155.8388 H   0  0  0  0  0  0  0  0  0  0  0  0  # atno 8008 bound_to 7997
  156.2000  140.3055  155.9468 H   0  0  0  0  0  0  0  0  0  0  0  0  # atno 8009 bound_to 7997
  155.2953  140.0428  157.3016 H   0  0  0  0  0  0  0  0  0  0  0  0  # atno 8010 bound_to 7997
  139.6905  144.7108  151.1357 H   0  0  0  0  0  0  0  0  0  0  0  0  # atno 10167 bound_to 10162
  156.5507  130.4701  149.6453 H   0  0  0  0  0  0  0  0  0  0  0  0  # atno 10718 bound_to 10713
  153.7952  135.6894  153.4865 H   0  0  0  0  0  0  0  0  0  0  0  0  # atno 10763 bound_to 10752
  153.1724  135.4538  154.9918 H   0  0  0  0  0  0  0  0  0  0  0  0  # atno 10764 bound_to 10752
  154.8028  135.3345  154.7445 H   0  0  0  0  0  0  0  0  0  0  0  0  # atno 10765 bound_to 10752
  139.8920  134.8421  156.2858 H   0  0  0  0  0  0  0  0  0  0  0  0  # atno 11005 bound_to 11000
  146.1874  140.6399  142.9161 LP  0  0  0  0  0  0  0  0  0  0  0  0  # atno 17320 bound_to 7965
  144.7499  140.5165  143.6809 LP  0  0  0  0  0  0  0  0  0  0  0  0  # atno 17321 bound_to 7965
  140.7681  143.5567  150.9144 LP  0  0  0  0  0  0  0  0  0  0  0  0  # atno 17342 bound_to 10162
  139.9244  143.6568  152.3090 LP  0  0  0  0  0  0  0  0  0  0  0  0  # atno 17343 bound_to 10162
  156.2887  130.7112  151.1955 LP  0  0  0  0  0  0  0  0  0  0  0  0  # atno 17370 bound_to 10713
  157.7388  131.0536  150.5272 LP  0  0  0  0  0  0  0  0  0  0  0  0  # atno 17371 bound_to 10713
  141.0009  133.7152  156.0958 LP  0  0  0  0  0  0  0  0  0  0  0  0  # atno 17394 bound_to 11000
  140.7499  134.4056  157.5543 LP  0  0  0  0  0  0  0  0  0  0  0  0  # atno 17395 bound_to 11000

$$$$
