AV-unprocessed.smi:1758|AV-procd|sdf|7082|dock4
  -GOLD-   22720 8303D 1   1.00000     0.00000
 Structure written by MMmdl.
 44 46  0  0  0  0  0  0  0  0  2 V2000
  149.5153  141.6798  156.8609 C   0  0  0  0  0  0  0  0  0  0  0  0
  149.8039  141.5785  155.3580 C   0  0  0  0  0  0  0  0  0  0  0  0
  148.8269  140.7512  154.6778 N   0  0  0  0  0  0  0  0  0  0  0  0
  149.0113  139.5086  154.1041 C   0  0  0  0  0  0  0  0  0  0  0  0
  147.7921  139.1496  153.6024 C   0  0  0  0  0  0  0  0  0  0  0  0
  147.4120  137.9652  152.9228 N   0  0  0  0  0  0  0  0  0  0  0  0
  146.1934  137.4025  152.8864 C   0  0  0  0  0  0  0  0  0  0  0  0
  145.1991  137.8256  153.4757 O   0  0  0  0  0  0  0  0  0  0  0  0
  146.1916  136.2941  152.1319 N   0  0  0  0  0  0  0  0  0  0  0  0
  145.0307  135.4388  151.8905 C   0  0  1  0  0  0  0  0  0  0  0  0
  144.6165  135.3929  150.4071 C   0  0  0  0  0  0  0  0  0  0  0  0
  144.2513  133.9268  150.1526 C   0  0  0  0  0  0  0  0  0  0  0  0
  145.1743  133.2032  151.0343 N   0  3  2  0  0  0  0  0  0  0  0  0
  144.9641  131.7568  151.2457 C   0  0  0  0  0  0  0  0  0  0  0  0
  146.1625  131.2034  152.0464 C   0  0  0  0  0  0  0  0  0  0  0  0
  146.4225  132.0061  153.3415 C   0  0  0  0  0  0  0  0  0  0  0  0
  146.5013  133.5242  153.0701 C   0  0  0  0  0  0  0  0  0  0  0  0
  145.2445  133.9607  152.2959 C   0  0  1  0  0  0  0  0  0  0  0  0
  146.9154  140.2225  153.9091 C   0  0  0  0  0  0  0  0  0  0  0  0
  147.5490  141.1886  154.5559 N   0  0  0  0  0  0  0  0  0  0  0  0
  150.2655  142.2945  157.3586 H   0  0  0  0  0  0  0  0  0  0  0  0
  149.5263  140.6958  157.3305 H   0  0  0  0  0  0  0  0  0  0  0  0
  148.5397  142.1295  157.0476 H   0  0  0  0  0  0  0  0  0  0  0  0
  149.8028  142.5695  154.9025 H   0  0  0  0  0  0  0  0  0  0  0  0
  150.7952  141.1546  155.1940 H   0  0  0  0  0  0  0  0  0  0  0  0
  149.9686  139.0087  154.1131 H   0  0  0  0  0  0  0  0  0  0  0  0
  148.1474  137.4971  152.4140 H   0  0  0  0  0  0  0  0  0  0  0  0
  147.0570  136.0242  151.6876 H   0  0  0  0  0  0  0  0  0  0  0  0
  144.1824  135.8275  152.4580 H   0  0  0  0  0  0  0  0  0  0  0  0
  143.7953  136.0730  150.1786 H   0  0  0  0  0  0  0  0  0  0  0  0
  145.4582  135.6687  149.7697 H   0  0  0  0  0  0  0  0  0  0  0  0
  143.2211  133.7291  150.4535 H   0  0  0  0  0  0  0  0  0  0  0  0
  144.3707  133.6369  149.1084 H   0  0  0  0  0  0  0  0  0  0  0  0
  144.0267  131.5857  151.7772 H   0  0  0  0  0  0  0  0  0  0  0  0
  144.8886  131.2504  150.2829 H   0  0  0  0  0  0  0  0  0  0  0  0
  146.0000  130.1517  152.2841 H   0  0  0  0  0  0  0  0  0  0  0  0
  147.0559  131.2401  151.4215 H   0  0  0  0  0  0  0  0  0  0  0  0
  145.6182  131.8094  154.0516 H   0  0  0  0  0  0  0  0  0  0  0  0
  147.3415  131.6625  153.8175 H   0  0  0  0  0  0  0  0  0  0  0  0
  146.5760  134.0629  154.0151 H   0  0  0  0  0  0  0  0  0  0  0  0
  147.4005  133.7554  152.4977 H   0  0  0  0  0  0  0  0  0  0  0  0
  144.3735  133.6809  152.8930 H   0  0  0  0  0  0  0  0  0  0  0  0
  145.8638  140.3313  153.6889 H   0  0  0  0  0  0  0  0  0  0  0  0
  146.0830  133.2980  150.6038 H   0  0  0  0  0  0  0  0  0  0  0  0
  1  2  1  0  0  0  0
  1 21  1  0  0  0  0
  1 22  1  0  0  0  0
  1 23  1  0  0  0  0
  2  3  1  0  0  0  0
  2 24  1  0  0  0  0
  2 25  1  0  0  0  0
  3 20  1  0  0  0  0
  3  4  1  0  0  0  0
  4  5  2  0  0  0  0
  4 26  1  0  0  0  0
  5  6  1  0  0  0  0
  5 19  1  0  0  0  0
  6  7  1  0  0  0  0
  6 27  1  0  0  0  0
  7  8  2  0  0  0  0
  7  9  1  0  0  0  0
  9 10  1  0  0  0  0
  9 28  1  0  0  0  0
 10 18  1  0  0  0  0
 10 11  1  0  0  0  0
 10 29  1  0  0  0  0
 11 12  1  0  0  0  0
 11 30  1  0  0  0  0
 11 31  1  0  0  0  0
 12 13  1  0  0  0  0
 12 32  1  0  0  0  0
 12 33  1  0  0  0  0
 13 18  1  0  0  0  0
 13 14  1  0  0  0  0
 13 44  1  0  0  0  0
 14 15  1  0  0  0  0
 14 34  1  0  0  0  0
 14 35  1  0  0  0  0
 15 16  1  0  0  0  0
 15 36  1  0  0  0  0
 15 37  1  0  0  0  0
 16 17  1  0  0  0  0
 16 38  1  0  0  0  0
 16 39  1  0  0  0  0
 17 18  1  0  0  0  0
 17 40  1  0  0  0  0
 17 41  1  0  0  0  0
 18 42  1  0  0  0  0
 19 20  2  0  0  0  0
 19 43  1  0  0  0  0
M  CHG  1  13   1
M  END
> <s_m_source_file>
AV-unprocessed.smi

> <i_m_source_file_index>
1758

> <i_lp_mmshare_version>
43012

> <i_f3d_flags>
0

> <s_epik_input>
W0NIM11bQ0gyXW4xW2NIXWMoW2NIXW4xKVtOSF1DKD1PKVtOSF1bQ0BIXShbQ0gyXVtDSDJdMilbQ0BASF0oTjIzKVtDSDJdW0NIMl1bQ0gyXVtDSDJdMw==

> <s_epik_cmdline>
J2VwaWtfcHl0aG9uJywgJy1waCcsICc3LjAnLCAnLXRuJywgJzgnLCAnLW1hJywgJzIwMCcsICctbWV0YWxfYmluZGluZycsICctaW1hZScsICc8aW5maWxlLm1hZT4nLCAnLW9tYWUnLCAnPG91dGZpbGUubWFlPic=

> <r_lp_tautomer_probability>
1

> <r_epik_Ionization_Penalty>
0.00111541

> <r_epik_Ionization_Penalty_Charging>
0.000974069

> <r_epik_Ionization_Penalty_Neutral>
0.000141346

> <r_epik_State_Penalty>
0.000633842

> <r_epik_Charging_Adjusted_Penalty>
0.00160791

> <i_epik_Tot_Q>
1

> <i_epik_Tot_abs_Q>
1

> <r_epik_Metal_State_Penalty>
-0

> <b_epik_Metal_Only>
0

> <s_lp_Force_Field>
OPLS_2005

> <r_lp_Energy>
45.3498

> <b_lp_Chiralities_Consistent>
1

> <s_lp_Variant>
AV-unprocessed.smi:1758-4

> <Gold.Version>
5.8.1

> <Gold.Id.Protein>
6NUR|6NUR_protein|mol2

> <Gold.PLP.Fitness>
37.8937

> <Gold.PLP.PLP>
-29.7786

> <Gold.PLP.part.hbond>
-2.0000

> <Gold.PLP.part.metal>
0.0000

> <Gold.PLP.part.buried>
-2.1873

> <Gold.PLP.part.nonpolar>
-26.1551

> <Gold.PLP.part.repulsive>
0.4122

> <Gold.PLP.ligand.clash>
0.0000

> <Gold.PLP.ligand.torsion>
0.2397

> <Gold.PLP.Chemscore.Hbond>
1.8640

> <Gold.PLP.Chemscore.CHOScore>
1.0000

> <Gold.PLP.Chemscore.Metal>
0.0000

> <Gold.Chemscore.Hbonds>
donor molecule, donor type, donor heavy atom, donor atom, acceptor molecule, acceptor atom, score
      L1  H     6    27       P1  7948  1.00
      L1  H     9    28       P1  7948  0.86
      L1  C    19    43       P1 10175  1.00

> <Gold.PLP.Chemscore.Internal.Correction>
0.0024

> <Gold.Rescore>
     Score         DG    S(hbond)    S(metal)    S(lipo)     H(rot)  DE(clash)    DE(int)     intcor
     16.64     -17.70       1.86        0.00      77.37       1.19       0.09       0.97       ----

> <Gold.Chemscore.Fitness>
16.6357

> <Gold.Chemscore.DG>
-17.6988

> <Gold.Chemscore.ZeroCoef>
-5.4800

> <Gold.Chemscore.Hbond>
1.8588

> <Gold.Chemscore.Metal>
0.0000

> <Gold.Chemscore.Lipo>
77.3728

> <Gold.Chemscore.Internal_Hbond>
0.0000

> <Gold.Chemscore.DEClash>
0.0947

> <Gold.Chemscore.DEInternal>
0.9684

> <Gold.Chemscore.Rot>
1.1884

> <Gold.Chemscore.Internal.Correction>
   9.000000E+99

> <Gold.Chemscore.Hbonds>
donor molecule, donor type, donor heavy atom, donor atom, acceptor molecule, acceptor atom, score
      L1  H     6    27       P1  7948  0.97
      L1  H     9    28       P1  7948  0.85

> <Gold.Chemscore.Hbond.Weighted>
-6.2085

> <Gold.Chemscore.Metal.Weighted>
-0.0000

> <Gold.Chemscore.Lipo.Weighted>
-9.0526

> <Gold.Chemscore.Internal_Hbond.Weighted>
0.0000

> <Gold.Chemscore.DEClash.Weighted>
0.0947

> <Gold.Chemscore.DEInternal.Weighted>
0.9684

> <Gold.Chemscore.Rot.Weighted>
3.0423

> <Gold.Chemscore.Internal.Correction.Weighted>
   9.000000E+99

> <Gold.Protein.RotatedTorsions>
[ 6907 6896 6895 6894 ] final  -59.78 input  -60.11 | X-H torsion
[ 7974 7965 7964 7962 ] final -164.92 input  175.53 | X-H torsion
[ 8008 7997 7996 7995 ] final -166.61 input   59.86 | X-H torsion
[ 10167 10162 10161 10158 ] final   10.89 input  -65.29 | X-H torsion
[ 10718 10713 10712 10709 ] final  133.70 input   66.30 | X-H torsion
[ 10763 10752 10751 10750 ] final   47.62 input  -60.55 | X-H torsion
[ 11005 11000 10999 10996 ] final  -95.01 input  -57.11 | X-H torsion

> <Gold.Protein.ActiveResidues>
 VAL166  LYS551  ARG553  GLY616  TRP617  ASP618  TYR619  PRO620  LYS621  CYS622 
 ASP623  PHE694  ASN695  SER759  ASP760  ASP761  ALA762  ILE779  LEU786  VAL792 
 PHE793  MET794  SER795  GLU796  ALA797  LYS798  CYS799  TRP800  GLU811  SER814 

> <Gold.Protein.RotatedAtoms>
  150.7904  134.6923  159.6503 H   0  0  0  0  0  0  0  0  0  0  0  0  # atno 6907 bound_to 6896
  152.4009  134.6285  160.0079 H   0  0  0  0  0  0  0  0  0  0  0  0  # atno 6908 bound_to 6896
  151.6557  133.3282  159.3198 H   0  0  0  0  0  0  0  0  0  0  0  0  # atno 6909 bound_to 6896
  144.7284  140.2890  143.6223 H   0  0  0  0  0  0  0  0  0  0  0  0  # atno 7974 bound_to 7965
  155.8662  140.0986  157.1581 H   0  0  0  0  0  0  0  0  0  0  0  0  # atno 8008 bound_to 7997
  154.3994  140.1356  156.4084 H   0  0  0  0  0  0  0  0  0  0  0  0  # atno 8009 bound_to 7997
  155.7802  140.3458  155.5295 H   0  0  0  0  0  0  0  0  0  0  0  0  # atno 8010 bound_to 7997
  140.6166  143.8295  150.7125 H   0  0  0  0  0  0  0  0  0  0  0  0  # atno 10167 bound_to 10162
  157.4747  131.1082  150.9758 H   0  0  0  0  0  0  0  0  0  0  0  0  # atno 10718 bound_to 10713
  152.9798  135.5970  154.3792 H   0  0  0  0  0  0  0  0  0  0  0  0  # atno 10763 bound_to 10752
  154.3458  135.2767  155.2400 H   0  0  0  0  0  0  0  0  0  0  0  0  # atno 10764 bound_to 10752
  154.4461  135.6001  153.6216 H   0  0  0  0  0  0  0  0  0  0  0  0  # atno 10765 bound_to 10752
  141.1454  133.7996  157.0377 H   0  0  0  0  0  0  0  0  0  0  0  0  # atno 11005 bound_to 11000
  145.7873  139.1914  143.2123 LP  0  0  0  0  0  0  0  0  0  0  0  0  # atno 17320 bound_to 7965
  146.0784  140.7791  142.9653 LP  0  0  0  0  0  0  0  0  0  0  0  0  # atno 17321 bound_to 7965
  140.1875  143.4063  152.1887 LP  0  0  0  0  0  0  0  0  0  0  0  0  # atno 17342 bound_to 10162
  139.5404  144.7250  151.4754 LP  0  0  0  0  0  0  0  0  0  0  0  0  # atno 17343 bound_to 10162
  157.0511  130.5787  149.5370 LP  0  0  0  0  0  0  0  0  0  0  0  0  # atno 17370 bound_to 10713
  156.0091  130.5181  150.7929 LP  0  0  0  0  0  0  0  0  0  0  0  0  # atno 17371 bound_to 10713
  140.0713  134.9701  157.1472 LP  0  0  0  0  0  0  0  0  0  0  0  0  # atno 17394 bound_to 11000
  140.3707  134.2393  155.7178 LP  0  0  0  0  0  0  0  0  0  0  0  0  # atno 17395 bound_to 11000

$$$$
