AV-unprocessed.smi:1565|AV-procd|sdf|6302|dock6
  -GOLD-   22720 6503D 1   1.00000     0.00000
 Structure written by MMmdl.
 39 40  0  0  0  0  0  0  0  0  2 V2000
  146.5075  128.7915  151.3697 C   0  0  0  0  0  0  0  0  0  0  0  0
  145.5799  129.7213  152.1723 C   0  0  1  0  0  0  0  0  0  0  0  0
  146.3076  130.4984  153.2865 C   0  0  0  0  0  0  0  0  0  0  0  0
  147.1027  131.5897  152.7313 N   0  0  0  0  0  0  0  0  0  0  0  0
  148.0228  132.1789  153.6243 C   0  0  0  0  0  0  0  0  0  0  0  0
  148.1542  133.5858  153.6778 C   0  0  0  0  0  0  0  0  0  0  0  0
  149.0842  134.1556  154.5687 C   0  0  0  0  0  0  0  0  0  0  0  0
  149.8574  133.3083  155.3948 C   0  0  0  0  0  0  0  0  0  0  0  0
  150.8979  133.8442  156.3408 C   0  0  0  0  0  0  0  0  0  0  0  0
  151.3036  133.0973  157.2383 O   0  0  0  0  0  0  0  0  0  0  0  0
  151.2159  135.1446  156.0833 N   0  5  0  0  0  0  0  0  0  0  0  0
  150.3153  136.2752  156.3221 C   0  0  0  0  0  0  0  0  0  0  0  0
  150.8731  137.5772  155.7118 C   0  0  0  0  0  0  0  0  0  0  0  0
  150.8988  137.4568  154.3844 F   0  0  0  0  0  0  0  0  0  0  0  0
  150.0973  138.6160  156.0250 F   0  0  0  0  0  0  0  0  0  0  0  0
  152.1155  137.8145  156.1350 F   0  0  0  0  0  0  0  0  0  0  0  0
  149.6576  131.9171  155.2648 C   0  0  0  0  0  0  0  0  0  0  0  0
  148.7659  131.3654  154.4138 N   0  0  0  0  0  0  0  0  0  0  0  0
  146.3352  132.4718  151.8572 C   0  0  0  0  0  0  0  0  0  0  0  0
  145.6474  131.6584  150.7466 C   0  0  2  0  0  0  0  0  0  0  0  0
  144.7256  132.5303  149.8880 C   0  0  0  0  0  0  0  0  0  0  0  0
  144.8577  130.6229  151.3305 O   0  0  0  0  0  0  0  0  0  0  0  0
  146.9399  128.0278  152.0163 H   0  0  0  0  0  0  0  0  0  0  0  0
  147.3353  129.3299  150.9092 H   0  0  0  0  0  0  0  0  0  0  0  0
  145.9574  128.2810  150.5789 H   0  0  0  0  0  0  0  0  0  0  0  0
  144.8319  129.0856  152.6467 H   0  0  0  0  0  0  0  0  0  0  0  0
  145.5740  130.9272  153.9704 H   0  0  0  0  0  0  0  0  0  0  0  0
  146.9131  129.8086  153.8734 H   0  0  0  0  0  0  0  0  0  0  0  0
  147.5506  134.2309  153.0569 H   0  0  0  0  0  0  0  0  0  0  0  0
  149.1966  135.2294  154.6055 H   0  0  0  0  0  0  0  0  0  0  0  0
  149.3142  136.0948  155.9270 H   0  0  0  0  0  0  0  0  0  0  0  0
  150.1717  136.4275  157.3923 H   0  0  0  0  0  0  0  0  0  0  0  0
  150.2256  131.2179  155.8612 H   0  0  0  0  0  0  0  0  0  0  0  0
  145.5916  133.0061  152.4505 H   0  0  0  0  0  0  0  0  0  0  0  0
  146.9906  133.2178  151.4056 H   0  0  0  0  0  0  0  0  0  0  0  0
  146.4021  131.2209  150.0932 H   0  0  0  0  0  0  0  0  0  0  0  0
  145.2820  133.3359  149.4083 H   0  0  0  0  0  0  0  0  0  0  0  0
  143.9355  132.9805  150.4894 H   0  0  0  0  0  0  0  0  0  0  0  0
  144.2521  131.9404  149.1029 H   0  0  0  0  0  0  0  0  0  0  0  0
  1  2  1  0  0  0  0
  1 23  1  0  0  0  0
  1 24  1  0  0  0  0
  1 25  1  0  0  0  0
  2 22  1  0  0  0  0
  2  3  1  0  0  0  0
  2 26  1  0  0  0  0
  3  4  1  0  0  0  0
  3 27  1  0  0  0  0
  3 28  1  0  0  0  0
  4  5  1  0  0  0  0
  4 19  1  0  0  0  0
  5 18  1  0  0  0  0
  5  6  2  0  0  0  0
  6  7  1  0  0  0  0
  6 29  1  0  0  0  0
  7  8  2  0  0  0  0
  7 30  1  0  0  0  0
  8  9  1  0  0  0  0
  8 17  1  0  0  0  0
  9 10  2  0  0  0  0
  9 11  1  0  0  0  0
 11 12  1  0  0  0  0
 12 13  1  0  0  0  0
 12 31  1  0  0  0  0
 12 32  1  0  0  0  0
 13 14  1  0  0  0  0
 13 15  1  0  0  0  0
 13 16  1  0  0  0  0
 17 18  2  0  0  0  0
 17 33  1  0  0  0  0
 19 20  1  0  0  0  0
 19 34  1  0  0  0  0
 19 35  1  0  0  0  0
 20 21  1  0  0  0  0
 20 22  1  0  0  0  0
 20 36  1  0  0  0  0
 21 37  1  0  0  0  0
 21 38  1  0  0  0  0
 21 39  1  0  0  0  0
M  CHG  1  11  -1
M  END
> <s_m_source_file>
AV-unprocessed.smi

> <i_m_source_file_index>
1565

> <i_lp_mmshare_version>
43012

> <i_f3d_flags>
0

> <s_epik_input>
W0NIM11bQ0BASF0xW0NIMl1OKFtDSDJdW0NASF0oTzEpW0NIM10pYzJbY0hdW2NIXWMoW2NIXW4yKUMoPU8pW05IXVtDSDJdQyhGKShGKUY=

> <s_epik_cmdline>
J2VwaWtfcHl0aG9uJywgJy1waCcsICc3LjAnLCAnLXRuJywgJzgnLCAnLW1hJywgJzIwMCcsICctbWV0YWxfYmluZGluZycsICctaW1hZScsICc8aW5maWxlLm1hZT4nLCAnLW9tYWUnLCAnPG91dGZpbGUubWFlPic=

> <r_lp_tautomer_probability>
1

> <r_epik_Ionization_Penalty>
6.78525

> <r_epik_Ionization_Penalty_Charging>
6.78469

> <r_epik_Ionization_Penalty_Neutral>
0.000559052

> <r_epik_State_Penalty>
6.78469

> <r_epik_Charging_Adjusted_Penalty>
13.5694

> <i_epik_Tot_Q>
-1

> <i_epik_Tot_abs_Q>
1

> <r_epik_Metal_State_Penalty>
2.70441

> <b_epik_Metal_Only>
1

> <s_lp_Force_Field>
OPLS_2005

> <r_lp_Energy>
29.3503

> <b_lp_Chiralities_Consistent>
1

> <s_lp_Variant>
AV-unprocessed.smi:1565-6

> <Gold.Version>
5.8.1

> <Gold.Id.Protein>
6NUR|6NUR_protein|mol2

> <Gold.PLP.Fitness>
43.5298

> <Gold.PLP.PLP>
-37.1595

> <Gold.PLP.part.hbond>
-2.0000

> <Gold.PLP.part.metal>
0.0000

> <Gold.PLP.part.buried>
-4.9260

> <Gold.PLP.part.nonpolar>
-30.6615

> <Gold.PLP.part.repulsive>
0.3887

> <Gold.PLP.ligand.clash>
0.0000

> <Gold.PLP.ligand.torsion>
1.0814

> <Gold.PLP.Chemscore.Hbond>
2.7360

> <Gold.PLP.Chemscore.CHOScore>
0.0000

> <Gold.PLP.Chemscore.Metal>
0.0000

> <Gold.Chemscore.Hbonds>
donor molecule, donor type, donor heavy atom, donor atom, acceptor molecule, acceptor atom, score
      P1  H  6896  6907       L1    10  0.75
      P1  H 10752 10764       L1    11  1.20

> <Gold.PLP.Chemscore.Internal.Correction>
0.3250

> <Gold.Rescore>
     Score         DG    S(hbond)    S(metal)    S(lipo)     H(rot)  DE(clash)    DE(int)     intcor
     14.88     -16.22       1.54        0.00      76.14       1.29       0.01       1.33       ----

> <Gold.Chemscore.Fitness>
14.8777

> <Gold.Chemscore.DG>
-16.2174

> <Gold.Chemscore.ZeroCoef>
-5.4800

> <Gold.Chemscore.Hbond>
1.5380

> <Gold.Chemscore.Metal>
0.0000

> <Gold.Chemscore.Lipo>
76.1377

> <Gold.Chemscore.Internal_Hbond>
0.0000

> <Gold.Chemscore.DEClash>
0.0052

> <Gold.Chemscore.DEInternal>
1.3345

> <Gold.Chemscore.Rot>
1.2921

> <Gold.Chemscore.Internal.Correction>
   9.000000E+99

> <Gold.Chemscore.Hbonds>
donor molecule, donor type, donor heavy atom, donor atom, acceptor molecule, acceptor atom, score
      P1  H  6896  6907       L1    10  0.72
      P1  H 10752 10764       L1    11  0.52

> <Gold.Chemscore.Hbond.Weighted>
-5.1370

> <Gold.Chemscore.Metal.Weighted>
-0.0000

> <Gold.Chemscore.Lipo.Weighted>
-8.9081

> <Gold.Chemscore.Internal_Hbond.Weighted>
0.0000

> <Gold.Chemscore.DEClash.Weighted>
0.0052

> <Gold.Chemscore.DEInternal.Weighted>
1.3345

> <Gold.Chemscore.Rot.Weighted>
3.3078

> <Gold.Chemscore.Internal.Correction.Weighted>
   9.000000E+99

> <Gold.Protein.RotatedTorsions>
[ 6907 6896 6895 6894 ] final -173.38 input  -60.11 | X-H torsion
[ 7974 7965 7964 7962 ] final   89.59 input  175.53 | X-H torsion
[ 8008 7997 7996 7995 ] final  -62.35 input   59.86 | X-H torsion
[ 10167 10162 10161 10158 ] final   27.07 input  -65.29 | X-H torsion
[ 10718 10713 10712 10709 ] final    7.05 input   66.30 | X-H torsion
[ 10763 10752 10751 10750 ] final  -41.11 input  -60.55 | X-H torsion
[ 11005 11000 10999 10996 ] final  -25.22 input  -57.11 | X-H torsion

> <Gold.Protein.ActiveResidues>
 VAL166  LYS551  ARG553  GLY616  TRP617  ASP618  TYR619  PRO620  LYS621  CYS622 
 ASP623  PHE694  ASN695  SER759  ASP760  ASP761  ALA762  ILE779  LEU786  VAL792 
 PHE793  MET794  SER795  GLU796  ALA797  LYS798  CYS799  TRP800  GLU811  SER814 

> <Gold.Protein.RotatedAtoms>
  151.5553  133.3411  159.2960 H   0  0  0  0  0  0  0  0  0  0  0  0  # atno 6907 bound_to 6896
  150.8454  134.7764  159.6978 H   0  0  0  0  0  0  0  0  0  0  0  0  # atno 6908 bound_to 6896
  152.4513  134.5395  159.9886 H   0  0  0  0  0  0  0  0  0  0  0  0  # atno 6909 bound_to 6896
  145.5303  139.2283  143.2622 H   0  0  0  0  0  0  0  0  0  0  0  0  # atno 7974 bound_to 7965
  154.4495  140.0998  156.6573 H   0  0  0  0  0  0  0  0  0  0  0  0  # atno 8008 bound_to 7997
  155.5332  140.3482  155.4412 H   0  0  0  0  0  0  0  0  0  0  0  0  # atno 8009 bound_to 7997
  156.0649  140.1335  156.9886 H   0  0  0  0  0  0  0  0  0  0  0  0  # atno 8010 bound_to 7997
  140.4969  144.0377  150.6318 H   0  0  0  0  0  0  0  0  0  0  0  0  # atno 10167 bound_to 10162
  156.9312  130.5826  149.5649 H   0  0  0  0  0  0  0  0  0  0  0  0  # atno 10718 bound_to 10713
  153.9570  135.6744  153.4744 H   0  0  0  0  0  0  0  0  0  0  0  0  # atno 10763 bound_to 10752
  153.0856  135.4900  154.8587 H   0  0  0  0  0  0  0  0  0  0  0  0  # atno 10764 bound_to 10752
  154.7294  135.3134  154.8877 H   0  0  0  0  0  0  0  0  0  0  0  0  # atno 10765 bound_to 10752
  140.8918  133.7583  156.0430 H   0  0  0  0  0  0  0  0  0  0  0  0  # atno 11005 bound_to 11000
  146.2048  140.6119  142.9086 LP  0  0  0  0  0  0  0  0  0  0  0  0  # atno 17320 bound_to 7965
  144.7629  140.5464  143.6723 LP  0  0  0  0  0  0  0  0  0  0  0  0  # atno 17321 bound_to 7965
  140.3662  143.2880  152.0329 LP  0  0  0  0  0  0  0  0  0  0  0  0  # atno 17342 bound_to 10162
  139.4863  144.6265  151.7154 LP  0  0  0  0  0  0  0  0  0  0  0  0  # atno 17343 bound_to 10162
  156.0446  130.5524  150.8852 LP  0  0  0  0  0  0  0  0  0  0  0  0  # atno 17370 bound_to 10713
  157.5846  131.0946  150.9217 LP  0  0  0  0  0  0  0  0  0  0  0  0  # atno 17371 bound_to 10713
  140.8338  134.3147  157.5339 LP  0  0  0  0  0  0  0  0  0  0  0  0  # atno 17394 bound_to 11000
  139.8730  134.9378  156.3697 LP  0  0  0  0  0  0  0  0  0  0  0  0  # atno 17395 bound_to 11000

$$$$
