#       Name:                AV-unprocessed.smi:240
#       Creating user name   scv26
#       Creation time:       Thu Mar 26 20:44:54 2020


#       File generated by GOLD software.
#

@<TRIPOS>MOLECULE
AV-unprocessed.smi:240
    67    71     1
SMALL
NO_CHARGES


@<TRIPOS>ATOM
      1 ****        -0.8344  -2.2253  -1.4334 O.3            1 S1                 0.0000
      2 ****        -1.0991  -2.7165  -0.1320 C.3            1 S1                 0.0000
      3 ****        -1.1439  -4.2473  -0.1896 C.3            1 S1                 0.0000
      4 ****        -2.6056  -4.6210  -0.4623 C.3            1 S1                 0.0000
      5 ****        -3.4016  -3.3126  -0.3919 C.3            1 S1                 0.0000
      6 ****        -2.5076  -2.3025   0.3509 C.3            1 S1                 0.0000
      7 ****        -2.9187  -0.7994   0.1876 C.3            1 S1                 0.0000
      8 ****        -4.4595  -0.6406   0.2840 C.3            1 S1                 0.0000
      9 ****        -4.8482   0.7236   0.1794 O.3            1 S1                 0.0000
     10 ****        -4.3137   1.5053   1.2360 C.3            1 S1                 0.0000
     11 ****        -2.7856   1.4671   1.1390 C.3            1 S1                 0.0000
     12 ****        -2.3069   0.0890   1.1911 N.3            1 S1                 0.0000
     13 ****        -0.9618   0.0659   1.3045 C.ar           1 S1                 0.0000
     14 ****        -0.4495  -0.3615   2.4844 N.ar           1 S1                 0.0000
     15 ****         0.8749  -0.4174   2.6545 C.ar           1 S1                 0.0000
     16 ****         1.8419  -0.0946   1.7928 N.ar           1 S1                 0.0000
     17 ****         1.3276   0.3521   0.6108 C.ar           1 S1                 0.0000
     18 ****        -0.0527   0.4641   0.2841 C.ar           1 S1                 0.0000
     19 ****        -0.1972   0.9430  -1.0120 N.2            1 S1                 0.0000
     20 ****         1.0290   1.1010  -1.4295 C.2            1 S1                 0.0000
     21 ****         2.0082   0.7831  -0.5149 N.pl3          1 S1                 0.0000
     22 ****         3.4478   0.8630  -0.7144 C.3            1 S1                 0.0000
     23 ****         4.0858   2.1928  -0.2355 C.3            1 S1                 0.0000
     24 ****         3.8384   2.3586   1.1485 O.3            1 S1                 0.0000
     25 ****         3.5911   3.4341  -0.9829 C.3            1 S1                 0.0000
     26 ****         4.7042   3.6996  -1.9861 C.3            1 S1                 0.0000
     27 ****         5.8653   3.4009  -1.2329 O.3            1 S1                 0.0000
     28 ****         5.6068   2.2150  -0.4920 C.3            1 S1                 0.0000
     29 ****        -0.8205  -1.2805  -1.4019 H              1 S1                 0.0000
     30 ****        -0.3043  -2.3913   0.5369 H              1 S1                 0.0000
     31 ****        -0.4597  -4.6633  -0.9304 H              1 S1                 0.0000
     32 ****        -0.8488  -4.6526   0.7791 H              1 S1                 0.0000
     33 ****        -2.7232  -5.0940  -1.4378 H              1 S1                 0.0000
     34 ****        -2.9577  -5.3290   0.2888 H              1 S1                 0.0000
     35 ****        -3.5965  -2.9586  -1.4054 H              1 S1                 0.0000
     36 ****        -4.3656  -3.4572   0.0968 H              1 S1                 0.0000
     37 ****        -2.5780  -2.5503   1.4118 H              1 S1                 0.0000
     38 ****        -2.6225  -0.4517  -0.8024 H              1 S1                 0.0000
     39 ****        -4.9574  -1.1716  -0.5267 H              1 S1                 0.0000
     40 ****        -4.8372  -1.0610   1.2179 H              1 S1                 0.0000
     41 ****        -4.6731   2.5298   1.1405 H              1 S1                 0.0000
     42 ****        -4.6579   1.1310   2.2016 H              1 S1                 0.0000
     43 ****        -2.4688   1.9366   0.2071 H              1 S1                 0.0000
     44 ****        -2.3517   2.0462   1.9558 H              1 S1                 0.0000
     45 ****         1.2078  -0.7737   3.6182 H              1 S1                 0.0000
     46 ****         1.2541   1.4609  -2.4230 H              1 S1                 0.0000
     47 ****         3.9079   0.0206  -0.1959 H              1 S1                 0.0000
     48 ****         3.6497   0.7120  -1.7757 H              1 S1                 0.0000
     49 ****         4.2645   3.1515   1.4364 H              1 S1                 0.0000
     50 ****         2.6194   3.3195  -1.4599 H              1 S1                 0.0000
     51 ****         3.5205   4.2893  -0.3084 H              1 S1                 0.0000
     52 ****         4.6317   3.0275  -2.8428 H              1 S1                 0.0000
     53 ****         4.7109   4.7276  -2.3489 H              1 S1                 0.0000
     54 ****         6.2007   2.2009   0.4229 H              1 S1                 0.0000
     55 ****         5.9185   1.3607  -1.0947 H              1 S1                 0.0000
     56 ****        -1.5503  -2.5310  -2.0610 LP             1 S1                 0.0000
     57 ****         0.0520  -2.5650  -1.7479 LP             1 S1                 0.0000
     58 ****        -5.8462   0.7791   0.2083 LP             1 S1                 0.0000
     59 ****        -4.5191   1.0882  -0.6917 LP             1 S1                 0.0000
     60 ****        -2.6423  -0.3402   2.0297 LP             1 S1                 0.0000
     61 ****        -1.0616  -0.6346   3.2265 LP             1 S1                 0.0000
     62 ****         2.8196  -0.1706   1.9889 LP             1 S1                 0.0000
     63 ****        -1.0451   1.1247  -1.5100 LP             1 S1                 0.0000
     64 ****         4.2048   1.5766   1.6528 LP             1 S1                 0.0000
     65 ****         2.8538   2.4273   1.3094 LP             1 S1                 0.0000
     66 ****         6.0696   4.1549  -0.6085 LP             1 S1                 0.0000
     67 ****         6.6416   3.2567  -1.8465 LP             1 S1                 0.0000
@<TRIPOS>BOND
    1    1    2 1     
    2    1   29 1     
    3    2    6 1     
    4    2    3 1     
    5    2   30 1     
    6    3    4 1     
    7    3   31 1     
    8    3   32 1     
    9    4    5 1     
   10    4   33 1     
   11    4   34 1     
   12    5    6 1     
   13    5   35 1     
   14    5   36 1     
   15    6    7 1     
   16    6   37 1     
   17    7   12 1     
   18    7    8 1     
   19    7   38 1     
   20    8    9 1     
   21    8   39 1     
   22    8   40 1     
   23    9   10 1     
   24   10   11 1     
   25   10   41 1     
   26   10   42 1     
   27   11   12 1     
   28   11   43 1     
   29   11   44 1     
   30   12   13 1     
   31   13   18 ar    
   32   13   14 ar    
   33   14   15 ar    
   34   15   16 ar    
   35   15   45 1     
   36   16   17 ar    
   37   17   21 1     
   38   17   18 ar    
   39   18   19 1     
   40   19   20 2     
   41   20   21 1     
   42   20   46 1     
   43   21   22 1     
   44   22   23 1     
   45   22   47 1     
   46   22   48 1     
   47   23   28 1     
   48   23   24 1     
   49   23   25 1     
   50   24   49 1     
   51   25   26 1     
   52   25   50 1     
   53   25   51 1     
   54   26   27 1     
   55   26   52 1     
   56   26   53 1     
   57   27   28 1     
   58   28   54 1     
   59   28   55 1     
   60    1   56 1     
   61    1   57 1     
   62    9   58 1     
   63    9   59 1     
   64   12   60 1     
   65   14   61 1     
   66   16   62 1     
   67   19   63 1     
   68   24   64 1     
   69   24   65 1     
   70   27   66 1     
   71   27   67 1     
@<TRIPOS>SUBSTRUCTURE
      1 S1             1
@<TRIPOS>SET
LONE_PAIRS      STATIC     ATOMS    <user>   **** ""
12 56 57 58 59 60 61 62 63 64 65 66 67
DONOR_HYDROGENS      STATIC     ATOMS    <user>   **** ""
2 29 49
ATOM$BLUE        STATIC     ATOMS    COLORGROUP SYSTEM
12 56 57 58 59 60 61 62 63 64 65 66 67
ATOM$RED        STATIC     ATOMS    COLORGROUP SYSTEM
2 29 49
