#       Name:                AV-unprocessed.smi:1554
#       Creating user name   scv26
#       Creation time:       Fri Mar 27 06:43:30 2020


#       File generated by GOLD software.
#

@<TRIPOS>MOLECULE
AV-unprocessed.smi:1554
    53    55     1
SMALL
NO_CHARGES


@<TRIPOS>ATOM
      1 ****        -2.3975   3.8961  -2.8740 C.3            1 S1                 0.0000
      2 ****        -2.4029   2.6181  -2.0535 C.ar           1 S1                 0.0000
      3 ****        -3.0153   2.6224  -0.7801 C.ar           1 S1                 0.0000
      4 ****        -3.0405   1.4563   0.0156 C.ar           1 S1                 0.0000
      5 ****        -3.5752   1.2383   1.2734 N.2            1 S1                 0.0000
      6 ****        -3.2794  -0.0424   1.4729 C.2            1 S1                 0.0000
      7 ****        -2.6030  -0.6786   0.4965 N.pl3          1 S1                 0.0000
      8 ****        -2.1644  -2.0632   0.4950 C.3            1 S1                 0.0000
      9 ****        -0.6287  -2.2012   0.5295 C.3            1 S1                 0.0000
     10 ****        -0.3233  -3.5809   0.5669 O.3            1 S1                 0.0000
     11 ****         0.0255  -1.5035   1.7444 C.3            1 S1                 0.0000
     12 ****         1.5059  -1.4472   1.6457 N.4            1 S1                 1.0000
     13 ****         2.1554  -1.3064   2.9703 C.3            1 S1                 0.0000
     14 ****         3.6860  -1.3030   2.8220 C.3            1 S1                 0.0000
     15 ****         4.0786  -0.2635   1.9342 O.3            1 S1                 0.0000
     16 ****         3.5347  -0.4330   0.6297 C.3            1 S1                 0.0000
     17 ****         4.0876   0.6777  -0.2704 C.3            1 S1                 0.0000
     18 ****         1.9971  -0.3971   0.7184 C.3            1 S1                 0.0000
     19 ****        -2.4308   0.2756  -0.5012 C.ar           1 S1                 0.0000
     20 ****        -1.8226   0.2578  -1.7691 C.ar           1 S1                 0.0000
     21 ****        -1.8034   1.4325  -2.5494 C.ar           1 S1                 0.0000
     22 ****        -1.1375   1.4039  -3.9138 C.3            1 S1                 0.0000
     23 ****        -2.9807   4.6814  -2.3920 H              1 S1                 0.0000
     24 ****        -2.8272   3.7223  -3.8607 H              1 S1                 0.0000
     25 ****        -1.3786   4.2628  -2.9989 H              1 S1                 0.0000
     26 ****        -3.4726   3.5252  -0.4024 H              1 S1                 0.0000
     27 ****        -3.5621  -0.5441   2.3872 H              1 S1                 0.0000
     28 ****        -2.6085  -2.5683   1.3543 H              1 S1                 0.0000
     29 ****        -2.5692  -2.5458  -0.3957 H              1 S1                 0.0000
     30 ****        -0.2302  -1.8015  -0.4012 H              1 S1                 0.0000
     31 ****         0.6017  -3.6956   0.4131 H              1 S1                 0.0000
     32 ****        -0.3443  -0.4846   1.8635 H              1 S1                 0.0000
     33 ****        -0.2690  -2.0362   2.6502 H              1 S1                 0.0000
     34 ****         1.8229  -0.3812   3.4444 H              1 S1                 0.0000
     35 ****         1.8530  -2.1277   3.6212 H              1 S1                 0.0000
     36 ****         4.1571  -1.1361   3.7910 H              1 S1                 0.0000
     37 ****         4.0447  -2.2661   2.4556 H              1 S1                 0.0000
     38 ****         3.8569  -1.3958   0.2285 H              1 S1                 0.0000
     39 ****         3.7055   0.5857  -1.2875 H              1 S1                 0.0000
     40 ****         5.1758   0.6331  -0.3201 H              1 S1                 0.0000
     41 ****         3.8113   1.6643   0.1030 H              1 S1                 0.0000
     42 ****         1.5751  -0.5362  -0.2763 H              1 S1                 0.0000
     43 ****         1.6654   0.5820   1.0685 H              1 S1                 0.0000
     44 ****        -1.3743  -0.6519  -2.1395 H              1 S1                 0.0000
     45 ****        -0.6783   0.4352  -4.1125 H              1 S1                 0.0000
     46 ****        -0.3566   2.1622  -3.9751 H              1 S1                 0.0000
     47 ****        -1.8694   1.5949  -4.6991 H              1 S1                 0.0000
     48 ****         1.8071  -2.3381   1.2772 H              1 S1                 0.0000
     49 ****        -4.0572   1.8762   1.8741 LP             1 S1                 0.0000
     50 ****        -0.8427  -4.0585  -0.1416 LP             1 S1                 0.0000
     51 ****        -0.5627  -3.9530   1.4637 LP             1 S1                 0.0000
     52 ****         5.0764  -0.2567   1.8681 LP             1 S1                 0.0000
     53 ****         3.7630   0.6108   2.3030 LP             1 S1                 0.0000
@<TRIPOS>BOND
    1    1    2 1     
    2    1   23 1     
    3    1   24 1     
    4    1   25 1     
    5    2   21 ar    
    6    2    3 ar    
    7    3    4 ar    
    8    3   26 1     
    9    4   19 ar    
   10    4    5 1     
   11    5    6 2     
   12    6    7 1     
   13    6   27 1     
   14    7    8 1     
   15    7   19 1     
   16    8    9 1     
   17    8   28 1     
   18    8   29 1     
   19    9   10 1     
   20    9   11 1     
   21    9   30 1     
   22   10   31 1     
   23   11   12 1     
   24   11   32 1     
   25   11   33 1     
   26   12   18 1     
   27   12   13 1     
   28   12   48 1     
   29   13   14 1     
   30   13   34 1     
   31   13   35 1     
   32   14   15 1     
   33   14   36 1     
   34   14   37 1     
   35   15   16 1     
   36   16   17 1     
   37   16   18 1     
   38   16   38 1     
   39   17   39 1     
   40   17   40 1     
   41   17   41 1     
   42   18   42 1     
   43   18   43 1     
   44   19   20 ar    
   45   20   21 ar    
   46   20   44 1     
   47   21   22 1     
   48   22   45 1     
   49   22   46 1     
   50   22   47 1     
   51    5   49 1     
   52   10   50 1     
   53   10   51 1     
   54   15   52 1     
   55   15   53 1     
@<TRIPOS>SUBSTRUCTURE
      1 S1             1
@<TRIPOS>SET
LONE_PAIRS      STATIC     ATOMS    <user>   **** ""
5 49 50 51 52 53
DONOR_HYDROGENS      STATIC     ATOMS    <user>   **** ""
2 31 48
ATOM$BLUE        STATIC     ATOMS    COLORGROUP SYSTEM
5 49 50 51 52 53
ATOM$RED        STATIC     ATOMS    COLORGROUP SYSTEM
2 31 48
