AV-unprocessed.smi:3116|AV-procd|sdf|11873|dock5
  -GOLD-   2272017253D 1   1.00000     0.00000
 Structure written by MMmdl.
 33 33  0  0  0  0  0  0  0  0  1 V2000
  152.6712  139.3884  154.9840 C   0  0  0  0  0  0  0  0  0  0  0  0
  151.6433  138.5029  155.7182 C   0  0  1  0  0  0  0  0  0  0  0  0
  150.5493  139.3106  156.2796 N   0  0  0  0  0  0  0  0  0  0  0  0
  151.0013  140.4115  157.1297 C   0  0  1  0  0  0  0  0  0  0  0  0
  149.7659  140.9172  157.8945 C   0  0  0  0  0  0  0  0  0  0  0  0
  152.1337  139.9034  158.0639 C   0  0  2  0  0  0  0  0  0  0  0  0
  151.7572  138.6169  158.8236 C   0  0  0  0  0  0  0  0  0  0  0  0
  152.5553  140.9336  159.0084 N   0  0  0  0  0  0  0  0  0  0  0  0
  153.5293  140.8475  159.9818 C   0  0  0  0  0  0  0  0  0  0  0  0
  153.5916  142.0594  160.6076 C   0  0  0  0  0  0  0  0  0  0  0  0
  152.6044  142.8354  159.9395 C   0  0  0  0  0  0  0  0  0  0  0  0
  151.9878  142.1613  158.9832 N   0  0  0  0  0  0  0  0  0  0  0  0
  151.0649  137.4137  154.8049 C   0  0  0  0  0  0  0  0  0  0  0  0
  150.3429  137.8306  153.7614 N   0  0  0  0  0  0  0  0  0  0  0  0
  151.2697  136.2198  155.0191 O   0  0  0  0  0  0  0  0  0  0  0  0
  153.4590  138.7859  154.5296 H   0  0  0  0  0  0  0  0  0  0  0  0
  153.1579  140.0855  155.6660 H   0  0  0  0  0  0  0  0  0  0  0  0
  152.2032  139.9762  154.1932 H   0  0  0  0  0  0  0  0  0  0  0  0
  152.1540  137.9791  156.5282 H   0  0  0  0  0  0  0  0  0  0  0  0
  149.9370  139.6608  155.5570 H   0  0  0  0  0  0  0  0  0  0  0  0
  151.3859  141.2377  156.5290 H   0  0  0  0  0  0  0  0  0  0  0  0
  149.9959  141.8052  158.4827 H   0  0  0  0  0  0  0  0  0  0  0  0
  149.3771  140.1575  158.5738 H   0  0  0  0  0  0  0  0  0  0  0  0
  148.9632  141.1923  157.2093 H   0  0  0  0  0  0  0  0  0  0  0  0
  153.0025  139.6687  157.4465 H   0  0  0  0  0  0  0  0  0  0  0  0
  151.6150  137.7768  158.1446 H   0  0  0  0  0  0  0  0  0  0  0  0
  150.8374  138.7433  159.3952 H   0  0  0  0  0  0  0  0  0  0  0  0
  152.5449  138.3315  159.5216 H   0  0  0  0  0  0  0  0  0  0  0  0
  154.0946  139.9414  160.1434 H   0  0  0  0  0  0  0  0  0  0  0  0
  154.2439  142.3479  161.4184 H   0  0  0  0  0  0  0  0  0  0  0  0
  152.3205  143.8619  160.1187 H   0  0  0  0  0  0  0  0  0  0  0  0
  149.9363  137.1533  153.1322 H   0  0  0  0  0  0  0  0  0  0  0  0
  150.2038  138.8190  153.6096 H   0  0  0  0  0  0  0  0  0  0  0  0
  1  2  1  0  0  0  0
  1 16  1  0  0  0  0
  1 17  1  0  0  0  0
  1 18  1  0  0  0  0
  2  3  1  0  0  0  0
  2 13  1  0  0  0  0
  2 19  1  0  0  0  0
  3  4  1  0  0  0  0
  3 20  1  0  0  0  0
  4  5  1  0  0  0  0
  4  6  1  0  0  0  0
  4 21  1  0  0  0  0
  5 22  1  0  0  0  0
  5 23  1  0  0  0  0
  5 24  1  0  0  0  0
  6  7  1  0  0  0  0
  6  8  1  0  0  0  0
  6 25  1  0  0  0  0
  7 26  1  0  0  0  0
  7 27  1  0  0  0  0
  7 28  1  0  0  0  0
  8 12  1  0  0  0  0
  8  9  1  0  0  0  0
  9 10  2  0  0  0  0
  9 29  1  0  0  0  0
 10 11  1  0  0  0  0
 10 30  1  0  0  0  0
 11 12  2  0  0  0  0
 11 31  1  0  0  0  0
 13 14  1  0  0  0  0
 13 15  2  0  0  0  0
 14 32  1  0  0  0  0
 14 33  1  0  0  0  0
M  END
> <s_m_source_file>
AV-unprocessed.smi

> <i_m_source_file_index>
3116

> <i_lp_mmshare_version>
43012

> <i_f3d_flags>
0

> <s_epik_input>
W05IMl1DKD1PKVtDQEhdKFtDSDNdKVtOSF1bQ0BIXShbQ0gzXSlbQ0BIXShbQ0gzXSluMVtjSF1bY0hdW2NIXW4x

> <s_epik_cmdline>
J2VwaWtfcHl0aG9uJywgJy1waCcsICc3LjAnLCAnLXRuJywgJzgnLCAnLW1hJywgJzIwMCcsICctbWV0YWxfYmluZGluZycsICctaW1hZScsICc8aW5maWxlLm1hZT4nLCAnLW9tYWUnLCAnPG91dGZpbGUubWFlPic=

> <r_lp_tautomer_probability>
1

> <r_epik_Ionization_Penalty>
0.865977

> <r_epik_Ionization_Penalty_Charging>
0

> <r_epik_Ionization_Penalty_Neutral>
0.865977

> <r_epik_State_Penalty>
0.901888

> <r_epik_Charging_Adjusted_Penalty>
0.901888

> <i_epik_Tot_Q>
0

> <i_epik_Tot_abs_Q>
0

> <r_epik_Metal_State_Penalty>
0.901181

> <b_epik_Metal_Only>
0

> <s_lp_Force_Field>
OPLS_2005

> <r_lp_Energy>
8.51746

> <b_lp_Chiralities_Consistent>
1

> <s_lp_Variant>
AV-unprocessed.smi:3116-12

> <Gold.Version>
5.8.1

> <Gold.Id.Protein>
6NUR|6NUR_protein|mol2

> <Gold.PLP.Fitness>
34.3582

> <Gold.PLP.PLP>
-28.7322

> <Gold.PLP.part.hbond>
-2.9528

> <Gold.PLP.part.metal>
0.0000

> <Gold.PLP.part.buried>
-2.5999

> <Gold.PLP.part.nonpolar>
-23.4660

> <Gold.PLP.part.repulsive>
0.2035

> <Gold.PLP.ligand.clash>
0.0000

> <Gold.PLP.ligand.torsion>
0.2381

> <Gold.PLP.Chemscore.Hbond>
2.0000

> <Gold.PLP.Chemscore.CHOScore>
0.0000

> <Gold.PLP.Chemscore.Metal>
0.0000

> <Gold.Chemscore.Hbonds>
donor molecule, donor type, donor heavy atom, donor atom, acceptor molecule, acceptor atom, score
      L1  H    14    32       P1  7948  0.95
      P1  H 10752 10765       L1    15  1.00

> <Gold.PLP.Chemscore.Internal.Correction>
0.1021

> <Gold.Rescore>
     Score         DG    S(hbond)    S(metal)    S(lipo)     H(rot)  DE(clash)    DE(int)     intcor
     11.47     -13.01       1.90        0.00      62.26       2.38       0.02       1.52       ----

> <Gold.Chemscore.Fitness>
11.4673

> <Gold.Chemscore.DG>
-13.0071

> <Gold.Chemscore.ZeroCoef>
-5.4800

> <Gold.Chemscore.Hbond>
1.8995

> <Gold.Chemscore.Metal>
0.0000

> <Gold.Chemscore.Lipo>
62.2625

> <Gold.Chemscore.Internal_Hbond>
0.0000

> <Gold.Chemscore.DEClash>
0.0174

> <Gold.Chemscore.DEInternal>
1.5224

> <Gold.Chemscore.Rot>
2.3836

> <Gold.Chemscore.Internal.Correction>
   9.000000E+99

> <Gold.Chemscore.Hbonds>
donor molecule, donor type, donor heavy atom, donor atom, acceptor molecule, acceptor atom, score
      L1  H    14    32       P1  7948  0.22
      P1  H 10752 10765       L1    15  0.94

> <Gold.Chemscore.Hbond.Weighted>
-6.3444

> <Gold.Chemscore.Metal.Weighted>
-0.0000

> <Gold.Chemscore.Lipo.Weighted>
-7.2847

> <Gold.Chemscore.Internal_Hbond.Weighted>
0.0000

> <Gold.Chemscore.DEClash.Weighted>
0.0174

> <Gold.Chemscore.DEInternal.Weighted>
1.5224

> <Gold.Chemscore.Rot.Weighted>
6.1020

> <Gold.Chemscore.Internal.Correction.Weighted>
   9.000000E+99

> <Gold.Protein.RotatedTorsions>
[ 6907 6896 6895 6894 ] final -121.50 input  -60.11 | X-H torsion
[ 7974 7965 7964 7962 ] final -105.88 input  175.53 | X-H torsion
[ 8008 7997 7996 7995 ] final -139.95 input   59.86 | X-H torsion
[ 10167 10162 10161 10158 ] final  172.68 input  -65.29 | X-H torsion
[ 10718 10713 10712 10709 ] final  -78.95 input   66.30 | X-H torsion
[ 10763 10752 10751 10750 ] final -179.59 input  -60.55 | X-H torsion
[ 11005 11000 10999 10996 ] final -105.23 input  -57.11 | X-H torsion

> <Gold.Protein.ActiveResidues>
 VAL166  LYS551  ARG553  GLY616  TRP617  ASP618  TYR619  PRO620  LYS621  CYS622 
 ASP623  PHE694  ASN695  SER759  ASP760  ASP761  ALA762  ILE779  LEU786  VAL792 
 PHE793  MET794  SER795  GLU796  ALA797  LYS798  CYS799  TRP800  GLU811  SER814 

> <Gold.Protein.RotatedAtoms>
  150.8489  133.7818  159.3032 H   0  0  0  0  0  0  0  0  0  0  0  0  # atno 6907 bound_to 6896
  151.5496  135.1066  159.9956 H   0  0  0  0  0  0  0  0  0  0  0  0  # atno 6908 bound_to 6896
  152.4536  133.7636  159.6816 H   0  0  0  0  0  0  0  0  0  0  0  0  # atno 6909 bound_to 6896
  145.2248  140.9148  143.3238 H   0  0  0  0  0  0  0  0  0  0  0  0  # atno 7974 bound_to 7965
  155.4532  140.0540  157.2999 H   0  0  0  0  0  0  0  0  0  0  0  0  # atno 8008 bound_to 7997
  154.4768  140.2064  155.9814 H   0  0  0  0  0  0  0  0  0  0  0  0  # atno 8009 bound_to 7997
  156.1144  140.3199  155.8123 H   0  0  0  0  0  0  0  0  0  0  0  0  # atno 8010 bound_to 7997
  139.5084  144.3346  152.0078 H   0  0  0  0  0  0  0  0  0  0  0  0  # atno 10167 bound_to 10162
  156.0104  130.4532  150.3573 H   0  0  0  0  0  0  0  0  0  0  0  0  # atno 10718 bound_to 10713
  154.5331  135.2801  155.1163 H   0  0  0  0  0  0  0  0  0  0  0  0  # atno 10763 bound_to 10752
  154.2675  135.6310  153.5301 H   0  0  0  0  0  0  0  0  0  0  0  0  # atno 10764 bound_to 10752
  152.9961  135.5620  154.5850 H   0  0  0  0  0  0  0  0  0  0  0  0  # atno 10765 bound_to 10752
  141.1063  133.8790  157.1708 H   0  0  0  0  0  0  0  0  0  0  0  0  # atno 11005 bound_to 11000
  144.9731  139.3859  143.6299 LP  0  0  0  0  0  0  0  0  0  0  0  0  # atno 17320 bound_to 7965
  146.3367  139.8838  142.8820 LP  0  0  0  0  0  0  0  0  0  0  0  0  # atno 17321 bound_to 7965
  140.2785  144.3885  150.6127 LP  0  0  0  0  0  0  0  0  0  0  0  0  # atno 17342 bound_to 10162
  140.6036  143.2167  151.7025 LP  0  0  0  0  0  0  0  0  0  0  0  0  # atno 17343 bound_to 10162
  157.1663  131.0358  151.2817 LP  0  0  0  0  0  0  0  0  0  0  0  0  # atno 17370 bound_to 10713
  157.4267  130.7468  149.6957 LP  0  0  0  0  0  0  0  0  0  0  0  0  # atno 17371 bound_to 10713
  139.9935  135.0055  157.0030 LP  0  0  0  0  0  0  0  0  0  0  0  0  # atno 17394 bound_to 11000
  140.4893  134.1210  155.7230 LP  0  0  0  0  0  0  0  0  0  0  0  0  # atno 17395 bound_to 11000

$$$$
