AV-unprocessed.smi:271|AV-procd|sdf|2050|dock2
  -GOLD-   2262021283D 1   1.00000     0.00000
 Structure written by MMmdl.
 58 60  0  0  0  0  0  0  0  0  1 V2000
  152.6994  142.4266  160.4360 C   0  0  0  0  0  0  0  0  0  0  0  0
  152.2818  143.0205  159.0819 C   0  0  0  0  0  0  0  0  0  0  0  0
  152.0250  144.5312  159.2155 C   0  0  0  0  0  0  0  0  0  0  0  0
  151.0638  142.2694  158.5094 C   0  0  0  0  0  0  0  0  0  0  0  0
  151.4117  141.3298  157.3357 C   0  0  0  0  0  0  0  0  0  0  0  0
  151.9074  140.0202  157.7593 N   0  0  0  0  0  0  0  0  0  0  0  0
  153.1550  140.0522  158.5194 C   0  0  0  0  0  0  0  0  0  0  0  0
  153.1218  139.1762  159.7821 C   0  0  0  0  0  0  0  0  0  0  0  0
  152.7444  137.7862  159.4882 C   0  0  0  0  0  0  0  0  0  0  0  0
  152.4472  136.6924  159.2564 N   0  0  0  0  0  0  0  0  0  0  0  0
  151.9184  139.0962  156.7715 C   0  0  0  0  0  0  0  0  0  0  0  0
  152.7167  139.3421  155.7037 N   0  0  0  0  0  0  0  0  0  0  0  0
  152.7755  138.4630  154.6992 C   0  0  0  0  0  0  0  0  0  0  0  0
  152.1326  137.3006  154.5687 N   0  0  0  0  0  0  0  0  0  0  0  0
  151.3298  137.0503  155.6429 C   0  0  0  0  0  0  0  0  0  0  0  0
  151.1595  137.8919  156.7774 C   0  0  0  0  0  0  0  0  0  0  0  0
  150.2550  137.3188  157.6620 N   0  0  0  0  0  0  0  0  0  0  0  0
  149.9119  136.2004  157.0842 C   0  0  0  0  0  0  0  0  0  0  0  0
  150.5231  135.9486  155.8756 N   0  0  0  0  0  0  0  0  0  0  0  0
  150.3327  134.7833  155.0228 C   0  0  0  0  0  0  0  0  0  0  0  0
  149.2715  133.7739  155.5427 C   0  0  1  0  0  0  0  0  0  0  0  0
  147.9644  133.8253  154.7166 C   0  0  0  0  0  0  0  0  0  0  0  0
  148.2460  133.8736  153.3336 O   0  0  0  0  0  0  0  0  0  0  0  0
  149.8249  132.3272  155.6364 C   0  0  2  0  0  0  0  0  0  0  0  0
  151.2498  132.2160  156.1540 C   0  0  0  0  0  0  0  0  0  0  0  0
  151.6736  130.8291  155.6784 C   0  0  0  0  0  0  0  0  0  0  0  0
  150.9139  130.5674  154.5034 O   0  0  0  0  0  0  0  0  0  0  0  0
  149.9829  131.6206  154.2859 C   0  0  0  0  0  0  0  0  0  0  0  0
  151.9020  142.5230  161.1736 H   0  0  0  0  0  0  0  0  0  0  0  0
  153.5817  142.9304  160.8323 H   0  0  0  0  0  0  0  0  0  0  0  0
  152.9417  141.3674  160.3446 H   0  0  0  0  0  0  0  0  0  0  0  0
  153.1187  142.8818  158.3961 H   0  0  0  0  0  0  0  0  0  0  0  0
  151.1722  144.7325  159.8648 H   0  0  0  0  0  0  0  0  0  0  0  0
  151.8252  144.9937  158.2493 H   0  0  0  0  0  0  0  0  0  0  0  0
  152.8916  145.0390  159.6400 H   0  0  0  0  0  0  0  0  0  0  0  0
  150.6089  141.6726  159.3012 H   0  0  0  0  0  0  0  0  0  0  0  0
  150.3095  142.9973  158.2075 H   0  0  0  0  0  0  0  0  0  0  0  0
  150.5477  141.1933  156.6858 H   0  0  0  0  0  0  0  0  0  0  0  0
  152.1808  141.8023  156.7235 H   0  0  0  0  0  0  0  0  0  0  0  0
  153.9848  139.7507  157.8789 H   0  0  0  0  0  0  0  0  0  0  0  0
  153.3532  141.0838  158.8124 H   0  0  0  0  0  0  0  0  0  0  0  0
  154.1008  139.1610  160.2615 H   0  0  0  0  0  0  0  0  0  0  0  0
  152.4068  139.5591  160.5108 H   0  0  0  0  0  0  0  0  0  0  0  0
  153.4332  138.7274  153.8843 H   0  0  0  0  0  0  0  0  0  0  0  0
  149.2021  135.5227  157.5342 H   0  0  0  0  0  0  0  0  0  0  0  0
  150.0735  135.1317  154.0231 H   0  0  0  0  0  0  0  0  0  0  0  0
  151.2959  134.2844  154.9109 H   0  0  0  0  0  0  0  0  0  0  0  0
  149.0183  134.0814  156.5585 H   0  0  0  0  0  0  0  0  0  0  0  0
  147.3224  132.9709  154.9316 H   0  0  0  0  0  0  0  0  0  0  0  0
  147.3864  134.7183  154.9510 H   0  0  0  0  0  0  0  0  0  0  0  0
  148.6572  134.7017  153.1386 H   0  0  0  0  0  0  0  0  0  0  0  0
  149.1843  131.7239  156.2812 H   0  0  0  0  0  0  0  0  0  0  0  0
  151.8823  132.9760  155.6928 H   0  0  0  0  0  0  0  0  0  0  0  0
  151.3272  132.3199  157.2365 H   0  0  0  0  0  0  0  0  0  0  0  0
  152.7442  130.7706  155.4808 H   0  0  0  0  0  0  0  0  0  0  0  0
  151.4253  130.0750  156.4260 H   0  0  0  0  0  0  0  0  0  0  0  0
  149.0441  131.2324  153.8927 H   0  0  0  0  0  0  0  0  0  0  0  0
  150.4012  132.3006  153.5422 H   0  0  0  0  0  0  0  0  0  0  0  0
  1  2  1  0  0  0  0
  1 29  1  0  0  0  0
  1 30  1  0  0  0  0
  1 31  1  0  0  0  0
  2  3  1  0  0  0  0
  2  4  1  0  0  0  0
  2 32  1  0  0  0  0
  3 33  1  0  0  0  0
  3 34  1  0  0  0  0
  3 35  1  0  0  0  0
  4  5  1  0  0  0  0
  4 36  1  0  0  0  0
  4 37  1  0  0  0  0
  5  6  1  0  0  0  0
  5 38  1  0  0  0  0
  5 39  1  0  0  0  0
  6  7  1  0  0  0  0
  6 11  1  0  0  0  0
  7  8  1  0  0  0  0
  7 40  1  0  0  0  0
  7 41  1  0  0  0  0
  8  9  1  0  0  0  0
  8 42  1  0  0  0  0
  8 43  1  0  0  0  0
  9 10  3  0  0  0  0
 11 16  1  0  0  0  0
 11 12  2  0  0  0  0
 12 13  1  0  0  0  0
 13 14  2  0  0  0  0
 13 44  1  0  0  0  0
 14 15  1  0  0  0  0
 15 19  1  0  0  0  0
 15 16  2  0  0  0  0
 16 17  1  0  0  0  0
 17 18  2  0  0  0  0
 18 19  1  0  0  0  0
 18 45  1  0  0  0  0
 19 20  1  0  0  0  0
 20 21  1  0  0  0  0
 20 46  1  0  0  0  0
 20 47  1  0  0  0  0
 21 22  1  0  0  0  0
 21 24  1  0  0  0  0
 21 48  1  0  0  0  0
 22 23  1  0  0  0  0
 22 49  1  0  0  0  0
 22 50  1  0  0  0  0
 23 51  1  0  0  0  0
 24 28  1  0  0  0  0
 24 25  1  0  0  0  0
 24 52  1  0  0  0  0
 25 26  1  0  0  0  0
 25 53  1  0  0  0  0
 25 54  1  0  0  0  0
 26 27  1  0  0  0  0
 26 55  1  0  0  0  0
 26 56  1  0  0  0  0
 27 28  1  0  0  0  0
 28 57  1  0  0  0  0
 28 58  1  0  0  0  0
M  END
> <s_m_source_file>
AV-unprocessed.smi

> <i_m_source_file_index>
271

> <i_lp_mmshare_version>
43012

> <i_f3d_flags>
0

> <s_epik_input>
W0NIM11bQ0hdKFtDSDNdKVtDSDJdW0NIMl1OKFtDSDJdW0NIMl1DI04pYyhuW2NIXW4xKWMoYzEyKW5bY0hdbjJbQ0gyXVtDQEhdKFtDSDJdW09IXSlbQ0BASF0zW0NIMl1bQ0gyXU9bQ0gyXTM=

> <s_epik_cmdline>
J2VwaWtfcHl0aG9uJywgJy1waCcsICc3LjAnLCAnLXRuJywgJzgnLCAnLW1hJywgJzIwMCcsICctbWV0YWxfYmluZGluZycsICctaW1hZScsICc8aW5maWxlLm1hZT4nLCAnLW9tYWUnLCAnPG91dGZpbGUubWFlPic=

> <r_lp_tautomer_probability>
1

> <r_epik_Ionization_Penalty>
0.000825874

> <r_epik_Ionization_Penalty_Charging>
0

> <r_epik_Ionization_Penalty_Neutral>
0.000825874

> <r_epik_State_Penalty>
0.000396768

> <r_epik_Charging_Adjusted_Penalty>
0.000396768

> <i_epik_Tot_Q>
0

> <i_epik_Tot_abs_Q>
0

> <r_epik_Metal_State_Penalty>
-0

> <b_epik_Metal_Only>
0

> <s_lp_Force_Field>
OPLS_2005

> <r_lp_Energy>
35.3128

> <b_lp_Chiralities_Consistent>
1

> <s_lp_Variant>
AV-unprocessed.smi:271-2

> <Gold.Version>
5.8.1

> <Gold.Id.Protein>
6NUR|6NUR_protein|mol2

> <Gold.PLP.Fitness>
53.3361

> <Gold.PLP.PLP>
-45.3097

> <Gold.PLP.part.hbond>
-4.0000

> <Gold.PLP.part.metal>
0.0000

> <Gold.PLP.part.buried>
-4.4172

> <Gold.PLP.part.nonpolar>
-36.3716

> <Gold.PLP.part.repulsive>
0.1922

> <Gold.PLP.ligand.clash>
0.0014

> <Gold.PLP.ligand.torsion>
2.6082

> <Gold.PLP.Chemscore.Hbond>
3.8880

> <Gold.PLP.Chemscore.CHOScore>
0.0000

> <Gold.PLP.Chemscore.Metal>
0.0000

> <Gold.Chemscore.Hbonds>
donor molecule, donor type, donor heavy atom, donor atom, acceptor molecule, acceptor atom, score
      L1  H    23    51       P1  7948  0.98
      P1  H  6896  6908       L1    10  1.00
      P1  H  7997  8010       L1    12  1.00
      P1  H 10752 10765       L1    14  0.85

> <Gold.PLP.Chemscore.Internal.Correction>
1.5801

> <Gold.Rescore>
     Score         DG    S(hbond)    S(metal)    S(lipo)     H(rot)  DE(clash)    DE(int)     intcor
     16.04     -18.50       3.41        0.00      96.45       3.77       0.00       2.45       ----

> <Gold.Chemscore.Fitness>
16.0449

> <Gold.Chemscore.DG>
-18.5027

> <Gold.Chemscore.ZeroCoef>
-5.4800

> <Gold.Chemscore.Hbond>
3.4088

> <Gold.Chemscore.Metal>
0.0000

> <Gold.Chemscore.Lipo>
96.4461

> <Gold.Chemscore.Internal_Hbond>
0.0000

> <Gold.Chemscore.DEClash>
0.0038

> <Gold.Chemscore.DEInternal>
2.4541

> <Gold.Chemscore.Rot>
3.7683

> <Gold.Chemscore.Internal.Correction>
   9.000000E+99

> <Gold.Chemscore.Hbonds>
donor molecule, donor type, donor heavy atom, donor atom, acceptor molecule, acceptor atom, score
      L1  H    23    51       P1  7948  0.27
      P1  H  6896  6908       L1    10  0.95
      P1  H  7997  8010       L1    12  0.77
      P1  H 10752 10765       L1    14  0.21

> <Gold.Chemscore.Hbond.Weighted>
-11.3853

> <Gold.Chemscore.Metal.Weighted>
-0.0000

> <Gold.Chemscore.Lipo.Weighted>
-11.2842

> <Gold.Chemscore.Internal_Hbond.Weighted>
0.0000

> <Gold.Chemscore.DEClash.Weighted>
0.0038

> <Gold.Chemscore.DEInternal.Weighted>
2.4541

> <Gold.Chemscore.Rot.Weighted>
9.6468

> <Gold.Chemscore.Internal.Correction.Weighted>
   9.000000E+99

> <Gold.Protein.RotatedTorsions>
[ 6907 6896 6895 6894 ] final -106.40 input  -60.11 | X-H torsion
[ 7974 7965 7964 7962 ] final  129.07 input  175.53 | X-H torsion
[ 8008 7997 7996 7995 ] final   87.13 input   59.86 | X-H torsion
[ 10167 10162 10161 10158 ] final  -86.75 input  -65.29 | X-H torsion
[ 10718 10713 10712 10709 ] final   58.70 input   66.30 | X-H torsion
[ 10763 10752 10751 10750 ] final  168.59 input  -60.55 | X-H torsion
[ 11005 11000 10999 10996 ] final    8.03 input  -57.11 | X-H torsion

> <Gold.Protein.ActiveResidues>
 VAL166  LYS551  ARG553  GLY616  TRP617  ASP618  TYR619  PRO620  LYS621  CYS622 
 ASP623  PHE694  ASN695  SER759  ASP760  ASP761  ALA762  ILE779  LEU786  VAL792 
 PHE793  MET794  SER795  GLU796  ALA797  LYS798  CYS799  TRP800  GLU811  SER814 

> <Gold.Protein.RotatedAtoms>
  150.7387  133.9981  159.3629 H   0  0  0  0  0  0  0  0  0  0  0  0  # atno 6907 bound_to 6896
  151.7934  135.0727  160.0399 H   0  0  0  0  0  0  0  0  0  0  0  0  # atno 6908 bound_to 6896
  152.3192  133.5799  159.5769 H   0  0  0  0  0  0  0  0  0  0  0  0  # atno 6909 bound_to 6896
  145.0327  139.4032  143.5141 H   0  0  0  0  0  0  0  0  0  0  0  0  # atno 7974 bound_to 7965
  155.9714  140.3385  155.6579 H   0  0  0  0  0  0  0  0  0  0  0  0  # atno 8008 bound_to 7997
  155.6669  140.0722  157.2552 H   0  0  0  0  0  0  0  0  0  0  0  0  # atno 8009 bound_to 7997
  154.4167  140.1698  156.1824 H   0  0  0  0  0  0  0  0  0  0  0  0  # atno 8010 bound_to 7997
  140.3911  143.2704  151.9263 H   0  0  0  0  0  0  0  0  0  0  0  0  # atno 10167 bound_to 10162
  157.5617  130.8841  149.9122 H   0  0  0  0  0  0  0  0  0  0  0  0  # atno 10718 bound_to 10713
  154.3707  135.2753  155.2268 H   0  0  0  0  0  0  0  0  0  0  0  0  # atno 10763 bound_to 10752
  154.4416  135.5953  153.6137 H   0  0  0  0  0  0  0  0  0  0  0  0  # atno 10764 bound_to 10752
  152.9838  135.6020  154.3938 H   0  0  0  0  0  0  0  0  0  0  0  0  # atno 10765 bound_to 10752
  140.5416  134.0369  155.7906 H   0  0  0  0  0  0  0  0  0  0  0  0  # atno 11005 bound_to 11000
  146.3500  139.9886  142.8688 LP  0  0  0  0  0  0  0  0  0  0  0  0  # atno 17320 bound_to 7965
  145.1750  140.9739  143.4300 LP  0  0  0  0  0  0  0  0  0  0  0  0  # atno 17321 bound_to 7965
  139.4789  144.5726  151.8063 LP  0  0  0  0  0  0  0  0  0  0  0  0  # atno 17342 bound_to 10162
  140.4838  144.1410  150.5937 LP  0  0  0  0  0  0  0  0  0  0  0  0  # atno 17343 bound_to 10162
  156.0669  130.3691  150.0858 LP  0  0  0  0  0  0  0  0  0  0  0  0  # atno 17370 bound_to 10713
  156.9022  130.9624  151.3575 LP  0  0  0  0  0  0  0  0  0  0  0  0  # atno 17371 bound_to 10713
  141.1224  133.9439  157.2703 LP  0  0  0  0  0  0  0  0  0  0  0  0  # atno 17394 bound_to 11000
  139.9501  135.0177  156.8969 LP  0  0  0  0  0  0  0  0  0  0  0  0  # atno 17395 bound_to 11000

$$$$
