AV-unprocessed.smi:1154|AV-procd|sdf|4900|dock6
  -GOLD-   22720 3473D 1   1.00000     0.00000
 Structure written by MMmdl.
 42 43  0  0  0  0  0  0  0  0  2 V2000
  147.1016  135.1216  154.0773 C   0  0  0  0  0  0  0  0  0  0  0  0
  145.7563  135.8478  153.9008 C   0  0  2  0  0  0  0  0  0  0  0  0
  144.8831  135.2333  152.7912 C   0  0  0  0  0  0  0  0  0  0  0  0
  145.4126  135.5847  151.3890 C   0  0  1  0  0  0  0  0  0  0  0  0
  144.4984  135.0245  150.2898 C   0  0  0  0  0  0  0  0  0  0  0  0
  145.5900  137.1092  151.2508 C   0  0  0  0  0  0  0  0  0  0  0  0
  146.4741  137.6515  152.3147 N   0  3  1  0  0  0  0  0  0  0  0  0
  146.7915  139.0869  152.1053 C   0  0  0  0  0  0  0  0  0  0  0  0
  147.8945  139.5851  153.0534 C   0  0  0  0  0  0  0  0  0  0  0  0
  148.8192  138.5068  153.3728 N   0  0  0  0  0  0  0  0  0  0  0  0
  149.9702  138.6714  154.0429 C   0  0  0  0  0  0  0  0  0  0  0  0
  150.3712  139.7680  154.4313 O   0  0  0  0  0  0  0  0  0  0  0  0
  150.8029  137.4147  154.3112 C   0  0  0  0  0  0  0  0  0  0  0  0
  152.0935  137.7386  154.8923 N   0  0  0  0  0  0  0  0  0  0  0  0
  152.9644  138.7087  154.6069 C   0  0  0  0  0  0  0  0  0  0  0  0
  154.0414  138.6404  155.3739 N   0  0  0  0  0  0  0  0  0  0  0  0
  153.7836  137.5455  156.1818 N   0  0  0  0  0  0  0  0  0  0  0  0
  152.6287  137.0069  155.9017 N   0  0  0  0  0  0  0  0  0  0  0  0
  145.9364  137.3615  153.6712 C   0  0  0  0  0  0  0  0  0  0  0  0
  147.7357  135.2146  153.1957 H   0  0  0  0  0  0  0  0  0  0  0  0
  146.9509  134.0584  154.2669 H   0  0  0  0  0  0  0  0  0  0  0  0
  147.6559  135.5278  154.9238 H   0  0  0  0  0  0  0  0  0  0  0  0
  145.2174  135.7231  154.8411 H   0  0  0  0  0  0  0  0  0  0  0  0
  144.8222  134.1513  152.9153 H   0  0  0  0  0  0  0  0  0  0  0  0
  143.8637  135.6081  152.8942 H   0  0  0  0  0  0  0  0  0  0  0  0
  146.3900  135.1176  151.2631 H   0  0  0  0  0  0  0  0  0  0  0  0
  143.4968  135.4519  150.3490 H   0  0  0  0  0  0  0  0  0  0  0  0
  144.4033  133.9415  150.3729 H   0  0  0  0  0  0  0  0  0  0  0  0
  144.8955  135.2442  149.2984 H   0  0  0  0  0  0  0  0  0  0  0  0
  146.0203  137.3293  150.2728 H   0  0  0  0  0  0  0  0  0  0  0  0
  144.6221  137.6120  151.2915 H   0  0  0  0  0  0  0  0  0  0  0  0
  147.1401  139.2323  151.0815 H   0  0  0  0  0  0  0  0  0  0  0  0
  145.8856  139.6861  152.2102 H   0  0  0  0  0  0  0  0  0  0  0  0
  148.4621  140.4018  152.6073 H   0  0  0  0  0  0  0  0  0  0  0  0
  147.4463  139.9671  153.9724 H   0  0  0  0  0  0  0  0  0  0  0  0
  148.5632  137.5744  153.0811 H   0  0  0  0  0  0  0  0  0  0  0  0
  150.2620  136.7557  154.9915 H   0  0  0  0  0  0  0  0  0  0  0  0
  150.9620  136.8620  153.3840 H   0  0  0  0  0  0  0  0  0  0  0  0
  152.8142  139.4534  153.8391 H   0  0  0  0  0  0  0  0  0  0  0  0
  144.9769  137.8682  153.7882 H   0  0  0  0  0  0  0  0  0  0  0  0
  146.5927  137.7645  154.4416 H   0  0  0  0  0  0  0  0  0  0  0  0
  147.3484  137.1523  152.2314 H   0  0  0  0  0  0  0  0  0  0  0  0
  1  2  1  0  0  0  0
  1 20  1  0  0  0  0
  1 21  1  0  0  0  0
  1 22  1  0  0  0  0
  2 19  1  0  0  0  0
  2  3  1  0  0  0  0
  2 23  1  0  0  0  0
  3  4  1  0  0  0  0
  3 24  1  0  0  0  0
  3 25  1  0  0  0  0
  4  5  1  0  0  0  0
  4  6  1  0  0  0  0
  4 26  1  0  0  0  0
  5 27  1  0  0  0  0
  5 28  1  0  0  0  0
  5 29  1  0  0  0  0
  6  7  1  0  0  0  0
  6 30  1  0  0  0  0
  6 31  1  0  0  0  0
  7  8  1  0  0  0  0
  7 19  1  0  0  0  0
  7 42  1  0  0  0  0
  8  9  1  0  0  0  0
  8 32  1  0  0  0  0
  8 33  1  0  0  0  0
  9 10  1  0  0  0  0
  9 34  1  0  0  0  0
  9 35  1  0  0  0  0
 10 11  1  0  0  0  0
 10 36  1  0  0  0  0
 11 12  2  0  0  0  0
 11 13  1  0  0  0  0
 13 14  1  0  0  0  0
 13 37  1  0  0  0  0
 13 38  1  0  0  0  0
 14 18  1  0  0  0  0
 14 15  1  0  0  0  0
 15 16  2  0  0  0  0
 15 39  1  0  0  0  0
 16 17  1  0  0  0  0
 17 18  2  0  0  0  0
 19 40  1  0  0  0  0
 19 41  1  0  0  0  0
M  CHG  1   7   1
M  END
> <s_m_source_file>
AV-unprocessed.smi

> <i_m_source_file_index>
1154

> <i_lp_mmshare_version>
43012

> <i_f3d_flags>
0

> <s_epik_input>
W0NIM11bQ0BASF0xW0NIMl1bQ0BASF0oW0NIM10pW0NIMl1OKFtDSDJdMSlbQ0gyXVtDSDJdW05IXUMoPU8pW0NIMl1uMltjSF1ubm4y

> <s_epik_cmdline>
J2VwaWtfcHl0aG9uJywgJy1waCcsICc3LjAnLCAnLXRuJywgJzgnLCAnLW1hJywgJzIwMCcsICctbWV0YWxfYmluZGluZycsICctaW1hZScsICc8aW5maWxlLm1hZT4nLCAnLW9tYWUnLCAnPG91dGZpbGUubWFlPic=

> <r_lp_tautomer_probability>
1

> <r_epik_Ionization_Penalty>
0.00217773

> <r_epik_Ionization_Penalty_Charging>
0.00217329

> <r_epik_Ionization_Penalty_Neutral>
4.43997e-06

> <r_epik_State_Penalty>
0.00149294

> <r_epik_Charging_Adjusted_Penalty>
0.00366623

> <i_epik_Tot_Q>
1

> <i_epik_Tot_abs_Q>
1

> <r_epik_Metal_State_Penalty>
-0

> <b_epik_Metal_Only>
0

> <s_lp_Force_Field>
OPLS_2005

> <r_lp_Energy>
22.5946

> <b_lp_Chiralities_Consistent>
1

> <s_lp_Variant>
AV-unprocessed.smi:1154-1

> <Gold.Version>
5.8.1

> <Gold.Id.Protein>
6NUR|6NUR_protein|mol2

> <Gold.PLP.Fitness>
45.3795

> <Gold.PLP.PLP>
-30.5701

> <Gold.PLP.part.hbond>
-6.5304

> <Gold.PLP.part.metal>
0.0000

> <Gold.PLP.part.buried>
4.9534

> <Gold.PLP.part.nonpolar>
-28.5526

> <Gold.PLP.part.repulsive>
0.2205

> <Gold.PLP.ligand.clash>
0.0000

> <Gold.PLP.ligand.torsion>
0.5426

> <Gold.PLP.Chemscore.Hbond>
5.2880

> <Gold.PLP.Chemscore.CHOScore>
0.0000

> <Gold.PLP.Chemscore.Metal>
0.0000

> <Gold.Chemscore.Hbonds>
donor molecule, donor type, donor heavy atom, donor atom, acceptor molecule, acceptor atom, score
      L1  H     7    42       P1  7948  2.00
      L1  H    10    36       P1  7948  0.85
      P1  H  7989  7998       L1    12  1.00
      P1  H  7997  8010       L1    16  0.62
      P1  H 10752 10765       L1    18  0.78

> <Gold.PLP.Chemscore.Internal.Correction>
0.0306

> <Gold.Rescore>
     Score         DG    S(hbond)    S(metal)    S(lipo)     H(rot)  DE(clash)    DE(int)     intcor
     13.03     -17.80       3.84        0.00      54.11       2.67       2.79       1.97       ----

> <Gold.Chemscore.Fitness>
13.0336

> <Gold.Chemscore.DG>
-17.7954

> <Gold.Chemscore.ZeroCoef>
-5.4800

> <Gold.Chemscore.Hbond>
3.8361

> <Gold.Chemscore.Metal>
0.0000

> <Gold.Chemscore.Lipo>
54.1144

> <Gold.Chemscore.Internal_Hbond>
0.0000

> <Gold.Chemscore.DEClash>
2.7926

> <Gold.Chemscore.DEInternal>
1.9692

> <Gold.Chemscore.Rot>
2.6674

> <Gold.Chemscore.Internal.Correction>
   9.000000E+99

> <Gold.Chemscore.Hbonds>
donor molecule, donor type, donor heavy atom, donor atom, acceptor molecule, acceptor atom, score
      L1  H     7    42       P1  7948  1.00
      L1  H    10    36       P1  7948  0.83
      P1  H  7989  7998       L1    12  0.99
      P1  H  7997  8010       L1    16  0.48
      P1  H 10752 10765       L1    18  0.08

> <Gold.Chemscore.Hbond.Weighted>
-12.8126

> <Gold.Chemscore.Metal.Weighted>
-0.0000

> <Gold.Chemscore.Lipo.Weighted>
-6.3314

> <Gold.Chemscore.Internal_Hbond.Weighted>
0.0000

> <Gold.Chemscore.DEClash.Weighted>
2.7926

> <Gold.Chemscore.DEInternal.Weighted>
1.9692

> <Gold.Chemscore.Rot.Weighted>
6.8286

> <Gold.Chemscore.Internal.Correction.Weighted>
   9.000000E+99

> <Gold.Protein.RotatedTorsions>
[ 6907 6896 6895 6894 ] final  175.86 input  -60.11 | X-H torsion
[ 7974 7965 7964 7962 ] final -145.68 input  175.53 | X-H torsion
[ 8008 7997 7996 7995 ] final  101.76 input   59.86 | X-H torsion
[ 10167 10162 10161 10158 ] final  134.80 input  -65.29 | X-H torsion
[ 10718 10713 10712 10709 ] final   74.13 input   66.30 | X-H torsion
[ 10763 10752 10751 10750 ] final -148.74 input  -60.55 | X-H torsion
[ 11005 11000 10999 10996 ] final  138.16 input  -57.11 | X-H torsion

> <Gold.Protein.ActiveResidues>
 VAL166  LYS551  ARG553  GLY616  TRP617  ASP618  TYR619  PRO620  LYS621  CYS622 
 ASP623  PHE694  ASN695  SER759  ASP760  ASP761  ALA762  ILE779  LEU786  VAL792 
 PHE793  MET794  SER795  GLU796  ALA797  LYS798  CYS799  TRP800  GLU811  SER814 

> <Gold.Protein.RotatedAtoms>
  151.7295  133.3317  159.3336 H   0  0  0  0  0  0  0  0  0  0  0  0  # atno 6907 bound_to 6896
  150.7619  134.6376  159.6229 H   0  0  0  0  0  0  0  0  0  0  0  0  # atno 6908 bound_to 6896
  152.3601  134.6887  160.0261 H   0  0  0  0  0  0  0  0  0  0  0  0  # atno 6909 bound_to 6896
  144.8211  140.5552  143.5578 H   0  0  0  0  0  0  0  0  0  0  0  0  # atno 7974 bound_to 7965
  156.1329  140.3192  155.8377 H   0  0  0  0  0  0  0  0  0  0  0  0  # atno 8008 bound_to 7997
  155.4297  140.0518  157.3036 H   0  0  0  0  0  0  0  0  0  0  0  0  # atno 8009 bound_to 7997
  154.4914  140.2093  155.9553 H   0  0  0  0  0  0  0  0  0  0  0  0  # atno 8010 bound_to 7997
  139.5242  144.6549  151.5192 H   0  0  0  0  0  0  0  0  0  0  0  0  # atno 10167 bound_to 10162
  157.6579  130.9663  150.1167 H   0  0  0  0  0  0  0  0  0  0  0  0  # atno 10718 bound_to 10713
  154.8216  135.3327  154.7020 H   0  0  0  0  0  0  0  0  0  0  0  0  # atno 10763 bound_to 10752
  153.7652  135.6929  153.4922 H   0  0  0  0  0  0  0  0  0  0  0  0  # atno 10764 bound_to 10752
  153.2082  135.4491  155.0297 H   0  0  0  0  0  0  0  0  0  0  0  0  # atno 10765 bound_to 10752
  140.0164  134.9416  157.0385 H   0  0  0  0  0  0  0  0  0  0  0  0  # atno 11005 bound_to 11000
  145.5104  139.1479  143.3608 LP  0  0  0  0  0  0  0  0  0  0  0  0  # atno 17320 bound_to 7965
  146.2516  140.5244  142.8891 LP  0  0  0  0  0  0  0  0  0  0  0  0  # atno 17321 bound_to 7965
  140.6370  143.8964  150.6657 LP  0  0  0  0  0  0  0  0  0  0  0  0  # atno 17342 bound_to 10162
  140.2286  143.3753  152.1584 LP  0  0  0  0  0  0  0  0  0  0  0  0  # atno 17343 bound_to 10162
  156.2049  130.3662  149.8741 LP  0  0  0  0  0  0  0  0  0  0  0  0  # atno 17370 bound_to 10713
  156.6635  130.8791  151.3551 LP  0  0  0  0  0  0  0  0  0  0  0  0  # atno 17371 bound_to 10713
  140.4463  134.1629  155.7177 LP  0  0  0  0  0  0  0  0  0  0  0  0  # atno 17394 bound_to 11000
  141.1746  133.8541  157.1464 LP  0  0  0  0  0  0  0  0  0  0  0  0  # atno 17395 bound_to 11000

$$$$
