AV-unprocessed.smi:1958|AV-procd|sdf|7907|dock4
  -GOLD-   2272010 63D 1   1.00000     0.00000
 Structure written by MMmdl.
 47 48  0  0  0  0  0  0  0  0  1 V2000
  152.2126  145.3178  158.6838 C   0  0  0  0  0  0  0  0  0  0  0  0
  152.1636  143.9022  158.6828 O   0  0  0  0  0  0  0  0  0  0  0  0
  151.5286  143.3805  157.5266 C   0  0  0  0  0  0  0  0  0  0  0  0
  150.8623  142.0383  157.8708 C   0  0  0  0  0  0  0  0  0  0  0  0
  150.5508  141.2593  156.6671 N   0  0  0  0  0  0  0  0  0  0  0  0
  149.4235  141.6946  155.9907 N   0  0  0  0  0  0  0  0  0  0  0  0
  149.0277  141.0810  154.9224 C   0  0  0  0  0  0  0  0  0  0  0  0
  147.8166  141.5135  154.1716 C   0  0  0  0  0  0  0  0  0  0  0  0
  147.4419  140.9310  153.1527 O   0  0  0  0  0  0  0  0  0  0  0  0
  147.1758  142.5806  154.6834 N   0  0  0  0  0  0  0  0  0  0  0  0
  145.9710  143.2012  154.1377 C   0  0  0  0  0  0  0  0  0  0  0  0
  144.7899  143.2231  155.1492 C   0  0  1  0  0  0  0  0  0  0  0  0
  145.3317  143.6034  156.5508 C   0  0  0  0  0  0  0  0  0  0  0  0
  143.6658  144.0878  154.7177 N   0  0  0  0  0  0  0  0  0  0  0  0
  144.0718  145.4852  154.5236 C   0  0  0  0  0  0  0  0  0  0  0  0
  142.9052  146.3959  154.1028 C   0  0  0  0  0  0  0  0  0  0  0  0
  141.8657  146.3192  155.0682 O   0  0  0  0  0  0  0  0  0  0  0  0
  141.3858  144.9917  155.2288 C   0  0  0  0  0  0  0  0  0  0  0  0
  142.5408  144.0716  155.6604 C   0  0  0  0  0  0  0  0  0  0  0  0
  149.7587  139.9344  154.4096 C   0  0  0  0  0  0  0  0  0  0  0  0
  150.8571  139.5217  155.0793 C   0  0  0  0  0  0  0  0  0  0  0  0
  151.3209  140.1929  156.2947 C   0  0  0  0  0  0  0  0  0  0  0  0
  152.3115  139.8291  156.9280 O   0  0  0  0  0  0  0  0  0  0  0  0
  152.7065  145.6659  159.5909 H   0  0  0  0  0  0  0  0  0  0  0  0
  151.2106  145.7479  158.6595 H   0  0  0  0  0  0  0  0  0  0  0  0
  152.7761  145.6929  157.8284 H   0  0  0  0  0  0  0  0  0  0  0  0
  150.7710  144.0846  157.1800 H   0  0  0  0  0  0  0  0  0  0  0  0
  152.2492  143.2568  156.7166 H   0  0  0  0  0  0  0  0  0  0  0  0
  151.5130  141.4670  158.5356 H   0  0  0  0  0  0  0  0  0  0  0  0
  149.9513  142.2166  158.4444 H   0  0  0  0  0  0  0  0  0  0  0  0
  147.5567  142.9949  155.5223 H   0  0  0  0  0  0  0  0  0  0  0  0
  146.1685  144.2096  153.7704 H   0  0  0  0  0  0  0  0  0  0  0  0
  145.7315  142.5990  153.2633 H   0  0  0  0  0  0  0  0  0  0  0  0
  144.4161  142.2004  155.2212 H   0  0  0  0  0  0  0  0  0  0  0  0
  146.1742  142.9831  156.8529 H   0  0  0  0  0  0  0  0  0  0  0  0
  144.5892  143.4666  157.3355 H   0  0  0  0  0  0  0  0  0  0  0  0
  145.6639  144.6418  156.5757 H   0  0  0  0  0  0  0  0  0  0  0  0
  144.5191  145.8715  155.4409 H   0  0  0  0  0  0  0  0  0  0  0  0
  144.8287  145.5617  153.7452 H   0  0  0  0  0  0  0  0  0  0  0  0
  143.2416  147.4298  154.0245 H   0  0  0  0  0  0  0  0  0  0  0  0
  142.5245  146.1084  153.1215 H   0  0  0  0  0  0  0  0  0  0  0  0
  140.5971  144.9871  155.9811 H   0  0  0  0  0  0  0  0  0  0  0  0
  140.9406  144.6411  154.2962 H   0  0  0  0  0  0  0  0  0  0  0  0
  142.1260  143.0696  155.7497 H   0  0  0  0  0  0  0  0  0  0  0  0
  142.8854  144.3642  156.6536 H   0  0  0  0  0  0  0  0  0  0  0  0
  149.4385  139.4191  153.5157 H   0  0  0  0  0  0  0  0  0  0  0  0
  151.4100  138.6709  154.7092 H   0  0  0  0  0  0  0  0  0  0  0  0
  1  2  1  0  0  0  0
  1 24  1  0  0  0  0
  1 25  1  0  0  0  0
  1 26  1  0  0  0  0
  2  3  1  0  0  0  0
  3  4  1  0  0  0  0
  3 27  1  0  0  0  0
  3 28  1  0  0  0  0
  4  5  1  0  0  0  0
  4 29  1  0  0  0  0
  4 30  1  0  0  0  0
  5 22  1  0  0  0  0
  5  6  1  0  0  0  0
  6  7  2  0  0  0  0
  7  8  1  0  0  0  0
  7 20  1  0  0  0  0
  8  9  2  0  0  0  0
  8 10  1  0  0  0  0
 10 11  1  0  0  0  0
 10 31  1  0  0  0  0
 11 12  1  0  0  0  0
 11 32  1  0  0  0  0
 11 33  1  0  0  0  0
 12 13  1  0  0  0  0
 12 14  1  0  0  0  0
 12 34  1  0  0  0  0
 13 35  1  0  0  0  0
 13 36  1  0  0  0  0
 13 37  1  0  0  0  0
 14 19  1  0  0  0  0
 14 15  1  0  0  0  0
 15 16  1  0  0  0  0
 15 38  1  0  0  0  0
 15 39  1  0  0  0  0
 16 17  1  0  0  0  0
 16 40  1  0  0  0  0
 16 41  1  0  0  0  0
 17 18  1  0  0  0  0
 18 19  1  0  0  0  0
 18 42  1  0  0  0  0
 18 43  1  0  0  0  0
 19 44  1  0  0  0  0
 19 45  1  0  0  0  0
 20 21  2  0  0  0  0
 20 46  1  0  0  0  0
 21 22  1  0  0  0  0
 21 47  1  0  0  0  0
 22 23  2  0  0  0  0
M  END
> <s_m_source_file>
AV-unprocessed.smi

> <i_m_source_file_index>
1958

> <i_lp_mmshare_version>
43012

> <i_f3d_flags>
0

> <s_epik_input>
W0NIM11PW0NIMl1bQ0gyXW4xbmMoW2NIXVtjSF1jMT1PKUMoPU8pW05IXVtDSDJdW0NASF0oW0NIM10pTjJbQ0gyXVtDSDJdT1tDSDJdW0NIMl0y

> <s_epik_cmdline>
J2VwaWtfcHl0aG9uJywgJy1waCcsICc3LjAnLCAnLXRuJywgJzgnLCAnLW1hJywgJzIwMCcsICctbWV0YWxfYmluZGluZycsICctaW1hZScsICc8aW5maWxlLm1hZT4nLCAnLW9tYWUnLCAnPG91dGZpbGUubWFlPic=

> <r_lp_tautomer_probability>
1

> <r_epik_Ionization_Penalty>
0.206669

> <r_epik_Ionization_Penalty_Charging>
5.75808e-09

> <r_epik_Ionization_Penalty_Neutral>
0.206669

> <r_epik_State_Penalty>
0.196651

> <r_epik_Charging_Adjusted_Penalty>
0.196651

> <i_epik_Tot_Q>
0

> <i_epik_Tot_abs_Q>
0

> <r_epik_Metal_State_Penalty>
0.198415

> <b_epik_Metal_Only>
0

> <s_lp_Force_Field>
OPLS_2005

> <r_lp_Energy>
50.1951

> <b_lp_Chiralities_Consistent>
1

> <s_lp_Variant>
AV-unprocessed.smi:1958-2

> <Gold.Version>
5.8.1

> <Gold.Id.Protein>
6NUR|6NUR_protein|mol2

> <Gold.PLP.Fitness>
41.1565

> <Gold.PLP.PLP>
-41.0906

> <Gold.PLP.part.hbond>
-1.7659

> <Gold.PLP.part.metal>
0.0000

> <Gold.PLP.part.buried>
-5.8985

> <Gold.PLP.part.nonpolar>
-33.0082

> <Gold.PLP.part.repulsive>
1.2869

> <Gold.PLP.ligand.clash>
0.0000

> <Gold.PLP.ligand.torsion>
0.6070

> <Gold.PLP.Chemscore.Hbond>
0.3775

> <Gold.PLP.Chemscore.CHOScore>
0.0000

> <Gold.PLP.Chemscore.Metal>
0.0000

> <Gold.Chemscore.Hbonds>
donor molecule, donor type, donor heavy atom, donor atom, acceptor molecule, acceptor atom, score
      L1  H    10    31       P1  8028  0.37

> <Gold.PLP.Chemscore.Internal.Correction>
0.1473

> <Gold.Rescore>
     Score         DG    S(hbond)    S(metal)    S(lipo)     H(rot)  DE(clash)    DE(int)     intcor
     10.29     -10.97       0.04        0.00      90.34       2.04       0.08       0.60       ----

> <Gold.Chemscore.Fitness>
10.2923

> <Gold.Chemscore.DG>
-10.9700

> <Gold.Chemscore.ZeroCoef>
-5.4800

> <Gold.Chemscore.Hbond>
0.0436

> <Gold.Chemscore.Metal>
0.0000

> <Gold.Chemscore.Lipo>
90.3430

> <Gold.Chemscore.Internal_Hbond>
0.0000

> <Gold.Chemscore.DEClash>
0.0798

> <Gold.Chemscore.DEInternal>
0.5979

> <Gold.Chemscore.Rot>
2.0413

> <Gold.Chemscore.Internal.Correction>
   9.000000E+99

> <Gold.Chemscore.Hbonds>
donor molecule, donor type, donor heavy atom, donor atom, acceptor molecule, acceptor atom, score
      L1  H    10    31       P1  8028  0.13

> <Gold.Chemscore.Hbond.Weighted>
-0.1456

> <Gold.Chemscore.Metal.Weighted>
-0.0000

> <Gold.Chemscore.Lipo.Weighted>
-10.5701

> <Gold.Chemscore.Internal_Hbond.Weighted>
0.0000

> <Gold.Chemscore.DEClash.Weighted>
0.0798

> <Gold.Chemscore.DEInternal.Weighted>
0.5979

> <Gold.Chemscore.Rot.Weighted>
5.2257

> <Gold.Chemscore.Internal.Correction.Weighted>
   9.000000E+99

> <Gold.Protein.RotatedTorsions>
[ 6907 6896 6895 6894 ] final  178.76 input  -60.11 | X-H torsion
[ 7974 7965 7964 7962 ] final -168.89 input  175.53 | X-H torsion
[ 8008 7997 7996 7995 ] final -120.28 input   59.86 | X-H torsion
[ 10167 10162 10161 10158 ] final -142.34 input  -65.29 | X-H torsion
[ 10718 10713 10712 10709 ] final  -50.29 input   66.30 | X-H torsion
[ 10763 10752 10751 10750 ] final    7.16 input  -60.55 | X-H torsion
[ 11005 11000 10999 10996 ] final -162.18 input  -57.11 | X-H torsion

> <Gold.Protein.ActiveResidues>
 VAL166  LYS551  ARG553  GLY616  TRP617  ASP618  TYR619  PRO620  LYS621  CYS622 
 ASP623  PHE694  ASN695  SER759  ASP760  ASP761  ALA762  ILE779  LEU786  VAL792 
 PHE793  MET794  SER795  GLU796  ALA797  LYS798  CYS799  TRP800  GLU811  SER814 

> <Gold.Protein.RotatedAtoms>
  151.6826  133.3312  159.3222 H   0  0  0  0  0  0  0  0  0  0  0  0  # atno 6907 bound_to 6896
  150.7816  134.6768  159.6431 H   0  0  0  0  0  0  0  0  0  0  0  0  # atno 6908 bound_to 6896
  152.3874  134.6498  160.0172 H   0  0  0  0  0  0  0  0  0  0  0  0  # atno 6909 bound_to 6896
  144.7195  140.2303  143.6305 H   0  0  0  0  0  0  0  0  0  0  0  0  # atno 7974 bound_to 7965
  155.1293  140.0400  157.2770 H   0  0  0  0  0  0  0  0  0  0  0  0  # atno 8008 bound_to 7997
  154.6554  140.2579  155.7141 H   0  0  0  0  0  0  0  0  0  0  0  0  # atno 8009 bound_to 7997
  156.2596  140.2827  156.1005 H   0  0  0  0  0  0  0  0  0  0  0  0  # atno 8010 bound_to 7997
  139.8098  143.7719  152.2663 H   0  0  0  0  0  0  0  0  0  0  0  0  # atno 10167 bound_to 10162
  156.1814  130.4150  149.9501 H   0  0  0  0  0  0  0  0  0  0  0  0  # atno 10718 bound_to 10713
  153.2395  135.6902  153.7799 H   0  0  0  0  0  0  0  0  0  0  0  0  # atno 10763 bound_to 10752
  153.6934  135.3309  155.3208 H   0  0  0  0  0  0  0  0  0  0  0  0  # atno 10764 bound_to 10752
  154.8349  135.4550  154.1311 H   0  0  0  0  0  0  0  0  0  0  0  0  # atno 10765 bound_to 10752
  140.6122  134.4838  157.5216 H   0  0  0  0  0  0  0  0  0  0  0  0  # atno 11005 bound_to 11000
  145.8417  139.2133  143.1823 LP  0  0  0  0  0  0  0  0  0  0  0  0  # atno 17320 bound_to 7965
  146.0340  140.8230  142.9862 LP  0  0  0  0  0  0  0  0  0  0  0  0  # atno 17321 bound_to 7965
  139.7864  144.7426  151.0016 LP  0  0  0  0  0  0  0  0  0  0  0  0  # atno 17342 bound_to 10162
  140.7818  143.4488  151.0443 LP  0  0  0  0  0  0  0  0  0  0  0  0  # atno 17343 bound_to 10162
  156.7270  130.9029  151.3623 LP  0  0  0  0  0  0  0  0  0  0  0  0  # atno 17370 bound_to 10713
  157.6870  130.9196  150.0414 LP  0  0  0  0  0  0  0  0  0  0  0  0  # atno 17371 bound_to 10713
  139.9187  134.8192  156.1280 LP  0  0  0  0  0  0  0  0  0  0  0  0  # atno 17394 bound_to 11000
  141.0800  133.6758  156.2317 LP  0  0  0  0  0  0  0  0  0  0  0  0  # atno 17395 bound_to 11000

$$$$
