AV-unprocessed.smi:1697|AV-procd|sdf|6808|dock5
  -GOLD-   22720 7583D 1   1.00000     0.00000
 Structure written by MMmdl.
 55 57  0  0  0  0  0  0  0  0  3 V2000
  144.7544  134.0163  150.0462 C   0  0  0  0  0  0  0  0  0  0  0  0
  145.5069  135.2227  150.6235 C   0  0  0  0  0  0  0  0  0  0  0  0
  144.6110  136.1315  151.2512 O   0  0  0  0  0  0  0  0  0  0  0  0
  145.2174  137.0804  152.1196 C   0  0  2  0  0  0  0  0  0  0  0  0
  146.2140  137.9057  151.2944 C   0  0  0  0  0  0  0  0  0  0  0  0
  146.9934  138.8849  152.1872 C   0  0  0  0  0  0  0  0  0  0  0  0
  147.7022  138.1691  153.2799 N   0  3  1  0  0  0  0  0  0  0  0  0
  148.5628  139.0808  154.0774 C   0  0  0  0  0  0  0  0  0  0  0  0
  149.5834  138.3313  154.9635 C   0  0  1  0  0  0  0  0  0  0  0  0
  149.9264  137.1086  154.3437 O   0  0  0  0  0  0  0  0  0  0  0  0
  150.8939  139.1167  155.1784 C   0  0  0  0  0  0  0  0  0  0  0  0
  150.7002  140.3853  155.8929 N   0  0  0  0  0  0  0  0  0  0  0  0
  150.0109  141.5012  155.5287 C   0  0  0  0  0  0  0  0  0  0  0  0
  150.1343  142.4070  156.5383 N   0  3  0  0  0  0  0  0  0  0  0  0
  150.9246  141.8670  157.5553 C   0  0  0  0  0  0  0  0  0  0  0  0
  151.3338  142.4001  158.7717 C   0  0  0  0  0  0  0  0  0  0  0  0
  152.1515  141.5877  159.5894 C   0  0  0  0  0  0  0  0  0  0  0  0
  152.6200  142.1416  160.9242 C   0  0  0  0  0  0  0  0  0  0  0  0
  152.5336  140.2851  159.1754 C   0  0  0  0  0  0  0  0  0  0  0  0
  153.4186  139.4234  160.0600 C   0  0  0  0  0  0  0  0  0  0  0  0
  152.1039  139.7597  157.9359 C   0  0  0  0  0  0  0  0  0  0  0  0
  151.2968  140.5725  157.1442 C   0  0  0  0  0  0  0  0  0  0  0  0
  146.7587  137.3741  154.1120 C   0  0  0  0  0  0  0  0  0  0  0  0
  145.9715  136.3680  153.2559 C   0  0  0  0  0  0  0  0  0  0  0  0
  145.4364  133.3562  149.5099 H   0  0  0  0  0  0  0  0  0  0  0  0
  143.9837  134.3373  149.3449 H   0  0  0  0  0  0  0  0  0  0  0  0
  144.2725  133.4261  150.8250 H   0  0  0  0  0  0  0  0  0  0  0  0
  146.2987  134.9025  151.3012 H   0  0  0  0  0  0  0  0  0  0  0  0
  145.9961  135.7541  149.8069 H   0  0  0  0  0  0  0  0  0  0  0  0
  144.4709  137.7573  152.5373 H   0  0  0  0  0  0  0  0  0  0  0  0
  146.9134  137.2412  150.7847 H   0  0  0  0  0  0  0  0  0  0  0  0
  145.6854  138.4551  150.5144 H   0  0  0  0  0  0  0  0  0  0  0  0
  147.7133  139.4280  151.5737 H   0  0  0  0  0  0  0  0  0  0  0  0
  146.3166  139.6268  152.6143 H   0  0  0  0  0  0  0  0  0  0  0  0
  149.1141  139.7475  153.4119 H   0  0  0  0  0  0  0  0  0  0  0  0
  147.9179  139.7226  154.6788 H   0  0  0  0  0  0  0  0  0  0  0  0
  149.1534  138.1021  155.9372 H   0  0  0  0  0  0  0  0  0  0  0  0
  149.6760  137.1416  153.4331 H   0  0  0  0  0  0  0  0  0  0  0  0
  151.6210  138.5212  155.7328 H   0  0  0  0  0  0  0  0  0  0  0  0
  151.3555  139.3525  154.2183 H   0  0  0  0  0  0  0  0  0  0  0  0
  149.4621  141.6422  154.6085 H   0  0  0  0  0  0  0  0  0  0  0  0
  151.0427  143.3942  159.0787 H   0  0  0  0  0  0  0  0  0  0  0  0
  152.3197  141.4857  161.7416 H   0  0  0  0  0  0  0  0  0  0  0  0
  152.1972  143.1281  161.1177 H   0  0  0  0  0  0  0  0  0  0  0  0
  153.7063  142.2358  160.9366 H   0  0  0  0  0  0  0  0  0  0  0  0
  153.6438  138.4666  159.5881 H   0  0  0  0  0  0  0  0  0  0  0  0
  152.9259  139.2184  161.0107 H   0  0  0  0  0  0  0  0  0  0  0  0
  154.3652  139.9259  160.2607 H   0  0  0  0  0  0  0  0  0  0  0  0
  152.3971  138.7695  157.6192 H   0  0  0  0  0  0  0  0  0  0  0  0
  147.2979  136.8283  154.8853 H   0  0  0  0  0  0  0  0  0  0  0  0
  146.0688  138.0457  154.6254 H   0  0  0  0  0  0  0  0  0  0  0  0
  145.2774  135.8165  153.8899 H   0  0  0  0  0  0  0  0  0  0  0  0
  146.6575  135.6310  152.8362 H   0  0  0  0  0  0  0  0  0  0  0  0
  148.3225  137.5142  152.8254 H   0  0  0  0  0  0  0  0  0  0  0  0
  149.7155  143.3286  156.5283 H   0  0  0  0  0  0  0  0  0  0  0  0
  1  2  1  0  0  0  0
  1 25  1  0  0  0  0
  1 26  1  0  0  0  0
  1 27  1  0  0  0  0
  2  3  1  0  0  0  0
  2 28  1  0  0  0  0
  2 29  1  0  0  0  0
  3  4  1  0  0  0  0
  4 24  1  0  0  0  0
  4  5  1  0  0  0  0
  4 30  1  0  0  0  0
  5  6  1  0  0  0  0
  5 31  1  0  0  0  0
  5 32  1  0  0  0  0
  6  7  1  0  0  0  0
  6 33  1  0  0  0  0
  6 34  1  0  0  0  0
  7  8  1  0  0  0  0
  7 23  1  0  0  0  0
  7 54  1  0  0  0  0
  8  9  1  0  0  0  0
  8 35  1  0  0  0  0
  8 36  1  0  0  0  0
  9 10  1  0  0  0  0
  9 11  1  0  0  0  0
  9 37  1  0  0  0  0
 10 38  1  0  0  0  0
 11 12  1  0  0  0  0
 11 39  1  0  0  0  0
 11 40  1  0  0  0  0
 12 22  1  0  0  0  0
 12 13  1  0  0  0  0
 13 14  2  0  0  0  0
 13 41  1  0  0  0  0
 14 15  1  0  0  0  0
 14 55  1  0  0  0  0
 15 22  2  0  0  0  0
 15 16  1  0  0  0  0
 16 17  2  0  0  0  0
 16 42  1  0  0  0  0
 17 18  1  0  0  0  0
 17 19  1  0  0  0  0
 18 43  1  0  0  0  0
 18 44  1  0  0  0  0
 18 45  1  0  0  0  0
 19 20  1  0  0  0  0
 19 21  2  0  0  0  0
 20 46  1  0  0  0  0
 20 47  1  0  0  0  0
 20 48  1  0  0  0  0
 21 22  1  0  0  0  0
 21 49  1  0  0  0  0
 23 24  1  0  0  0  0
 23 50  1  0  0  0  0
 23 51  1  0  0  0  0
 24 52  1  0  0  0  0
 24 53  1  0  0  0  0
M  CHG  1   7   1
M  CHG  1  14   1
M  END
> <s_m_source_file>
AV-unprocessed.smi

> <i_m_source_file_index>
1697

> <i_lp_mmshare_version>
43012

> <i_f3d_flags>
0

> <s_epik_input>
W0NIM11bQ0gyXU9bQ0hdMVtDSDJdW0NIMl1OKFtDSDJdW0NIMl0xKVtDSDJdW0NASF0oW09IXSlbQ0gyXW4oW2NIXW4yKWMoYzIzKVtjSF1jKFtDSDNdKWMoW2NIXTMpW0NIM10=

> <s_epik_cmdline>
J2VwaWtfcHl0aG9uJywgJy1waCcsICc3LjAnLCAnLXRuJywgJzgnLCAnLW1hJywgJzIwMCcsICctbWV0YWxfYmluZGluZycsICctaW1hZScsICc8aW5maWxlLm1hZT4nLCAnLW9tYWUnLCAnPG91dGZpbGUubWFlPic=

> <r_epik_Ionization_Penalty>
1.20016

> <r_epik_Ionization_Penalty_Charging>
1.20016

> <r_epik_Ionization_Penalty_Neutral>
1.70998e-06

> <r_epik_State_Penalty>
1.27959

> <r_epik_Charging_Adjusted_Penalty>
2.47975

> <i_epik_Tot_Q>
2

> <i_epik_Tot_abs_Q>
2

> <r_epik_Metal_State_Penalty>
5.29682

> <b_epik_Metal_Only>
0

> <s_lp_Force_Field>
OPLS_2005

> <r_lp_Energy>
35.517

> <b_lp_Chiralities_Consistent>
1

> <s_lp_Variant>
AV-unprocessed.smi:1697-6

> <Gold.Version>
5.8.1

> <Gold.Id.Protein>
6NUR|6NUR_protein|mol2

> <Gold.PLP.Fitness>
59.9174

> <Gold.PLP.PLP>
-45.8608

> <Gold.PLP.part.hbond>
-3.2438

> <Gold.PLP.part.metal>
0.0000

> <Gold.PLP.part.buried>
-0.6840

> <Gold.PLP.part.nonpolar>
-42.6879

> <Gold.PLP.part.repulsive>
0.3377

> <Gold.PLP.ligand.clash>
0.0000

> <Gold.PLP.ligand.torsion>
0.5433

> <Gold.PLP.Chemscore.Hbond>
4.9920

> <Gold.PLP.Chemscore.CHOScore>
0.0000

> <Gold.PLP.Chemscore.Metal>
0.0000

> <Gold.Chemscore.Hbonds>
donor molecule, donor type, donor heavy atom, donor atom, acceptor molecule, acceptor atom, score
      L1  H     7    54       P1  7948  2.00
      L1  H    10    38       P1  7948  0.99
      L1  H    14    55       P1  8028  2.00

> <Gold.PLP.Chemscore.Internal.Correction>
0.1671

> <Gold.Rescore>
     Score         DG    S(hbond)    S(metal)    S(lipo)     H(rot)  DE(clash)    DE(int)     intcor
     20.95     -22.65       2.80        0.00     118.26       2.35       1.01       0.69       ----

> <Gold.Chemscore.Fitness>
20.9505

> <Gold.Chemscore.DG>
-22.6489

> <Gold.Chemscore.ZeroCoef>
-5.4800

> <Gold.Chemscore.Hbond>
2.7965

> <Gold.Chemscore.Metal>
0.0000

> <Gold.Chemscore.Lipo>
118.2580

> <Gold.Chemscore.Internal_Hbond>
0.0000

> <Gold.Chemscore.DEClash>
1.0089

> <Gold.Chemscore.DEInternal>
0.6895

> <Gold.Chemscore.Rot>
2.3468

> <Gold.Chemscore.Internal.Correction>
   9.000000E+99

> <Gold.Chemscore.Hbonds>
donor molecule, donor type, donor heavy atom, donor atom, acceptor molecule, acceptor atom, score
      L1  H     7    54       P1  7948  1.00
      L1  H    10    38       P1  7948  0.65
      L1  H    14    55       P1  8028  0.96

> <Gold.Chemscore.Hbond.Weighted>
-9.3405

> <Gold.Chemscore.Metal.Weighted>
-0.0000

> <Gold.Chemscore.Lipo.Weighted>
-13.8362

> <Gold.Chemscore.Internal_Hbond.Weighted>
0.0000

> <Gold.Chemscore.DEClash.Weighted>
1.0089

> <Gold.Chemscore.DEInternal.Weighted>
0.6895

> <Gold.Chemscore.Rot.Weighted>
6.0077

> <Gold.Chemscore.Internal.Correction.Weighted>
   9.000000E+99

> <Gold.Protein.RotatedTorsions>
[ 6907 6896 6895 6894 ] final  -23.39 input  -60.11 | X-H torsion
[ 7974 7965 7964 7962 ] final -131.84 input  175.53 | X-H torsion
[ 8008 7997 7996 7995 ] final -120.72 input   59.86 | X-H torsion
[ 10167 10162 10161 10158 ] final  -31.74 input  -65.29 | X-H torsion
[ 10718 10713 10712 10709 ] final -140.82 input   66.30 | X-H torsion
[ 10763 10752 10751 10750 ] final -129.19 input  -60.55 | X-H torsion
[ 11005 11000 10999 10996 ] final   43.80 input  -57.11 | X-H torsion

> <Gold.Protein.ActiveResidues>
 VAL166  LYS551  ARG553  GLY616  TRP617  ASP618  TYR619  PRO620  LYS621  CYS622 
 ASP623  PHE694  ASN695  SER759  ASP760  ASP761  ALA762  ILE779  LEU786  VAL792 
 PHE793  MET794  SER795  GLU796  ALA797  LYS798  CYS799  TRP800  GLU811  SER814 

> <Gold.Protein.RotatedAtoms>
  151.2047  135.0457  159.8886 H   0  0  0  0  0  0  0  0  0  0  0  0  # atno 6907 bound_to 6896
  152.5430  134.0811  159.8246 H   0  0  0  0  0  0  0  0  0  0  0  0  # atno 6908 bound_to 6896
  151.0956  133.5235  159.2644 H   0  0  0  0  0  0  0  0  0  0  0  0  # atno 6909 bound_to 6896
  144.9341  140.7163  143.4887 H   0  0  0  0  0  0  0  0  0  0  0  0  # atno 7974 bound_to 7965
  155.1364  140.0401  157.2787 H   0  0  0  0  0  0  0  0  0  0  0  0  # atno 8008 bound_to 7997
  154.6505  140.2568  155.7193 H   0  0  0  0  0  0  0  0  0  0  0  0  # atno 8009 bound_to 7997
  156.2575  140.2837  156.0937 H   0  0  0  0  0  0  0  0  0  0  0  0  # atno 8010 bound_to 7997
  140.7232  143.3748  151.1710 H   0  0  0  0  0  0  0  0  0  0  0  0  # atno 10167 bound_to 10162
  156.3268  130.7564  151.1674 H   0  0  0  0  0  0  0  0  0  0  0  0  # atno 10718 bound_to 10713
  154.8757  135.3903  154.3880 H   0  0  0  0  0  0  0  0  0  0  0  0  # atno 10763 bound_to 10752
  153.4619  135.7029  153.6050 H   0  0  0  0  0  0  0  0  0  0  0  0  # atno 10764 bound_to 10752
  153.4545  135.3826  155.2271 H   0  0  0  0  0  0  0  0  0  0  0  0  # atno 10765 bound_to 10752
  140.1611  134.4340  155.8317 H   0  0  0  0  0  0  0  0  0  0  0  0  # atno 11005 bound_to 11000
  145.3094  139.1823  143.4647 LP  0  0  0  0  0  0  0  0  0  0  0  0  # atno 17320 bound_to 7965
  146.3259  140.3097  142.8626 LP  0  0  0  0  0  0  0  0  0  0  0  0  # atno 17321 bound_to 7965
  139.7326  143.9049  152.3024 LP  0  0  0  0  0  0  0  0  0  0  0  0  # atno 17342 bound_to 10162
  139.8843  144.7000  150.8842 LP  0  0  0  0  0  0  0  0  0  0  0  0  # atno 17343 bound_to 10162
  157.7423  131.0492  150.5036 LP  0  0  0  0  0  0  0  0  0  0  0  0  # atno 17370 bound_to 10713
  156.5196  130.4158  149.6258 LP  0  0  0  0  0  0  0  0  0  0  0  0  # atno 17371 bound_to 10713
  141.2209  133.6914  156.7596 LP  0  0  0  0  0  0  0  0  0  0  0  0  # atno 17394 bound_to 11000
  140.2488  134.8556  157.3647 LP  0  0  0  0  0  0  0  0  0  0  0  0  # atno 17395 bound_to 11000

$$$$
