AV-unprocessed.smi:1047|AV-procd|sdf|4567|dock5
  -GOLD-   22720 3 13D 1   1.00000     0.00000
 Structure written by MMmdl.
 57 59  0  0  0  0  0  0  0  0  3 V2000
  146.6802  133.9358  151.3107 C   0  0  0  0  0  0  0  0  0  0  0  0
  146.8355  132.6989  152.2073 C   0  0  0  0  0  0  0  0  0  0  0  0
  148.1490  132.6544  152.8978 N   0  3  2  0  0  0  0  0  0  0  0  0
  148.2924  131.4551  153.7574 C   0  0  0  0  0  0  0  0  0  0  0  0
  149.6887  131.4152  154.4008 C   0  0  0  0  0  0  0  0  0  0  0  0
  149.9085  132.6074  155.1453 O   0  0  0  0  0  0  0  0  0  0  0  0
  149.8511  133.7715  154.3281 C   0  0  2  0  0  0  0  0  0  0  0  0
  150.2320  134.9964  155.1779 C   0  0  0  0  0  0  0  0  0  0  0  0
  150.4195  136.2107  154.3564 N   0  3  0  0  0  0  0  0  0  0  0  0
  150.1135  137.4708  155.0634 C   0  0  0  0  0  0  0  0  0  0  0  0
  150.5651  138.6906  154.2443 C   0  0  1  0  0  0  0  0  0  0  0  0
  149.7466  138.7945  153.0944 O   0  0  0  0  0  0  0  0  0  0  0  0
  150.4819  139.9968  155.0578 C   0  0  0  0  0  0  0  0  0  0  0  0
  151.4477  140.0378  156.1413 N   0  0  0  0  0  0  0  0  0  0  0  0
  152.4021  139.1259  156.4102 C   0  0  0  0  0  0  0  0  0  0  0  0
  153.1917  139.3604  157.4538 N   0  0  0  0  0  0  0  0  0  0  0  0
  152.6891  140.5634  157.9193 C   0  0  0  0  0  0  0  0  0  0  0  0
  153.0888  141.3616  159.0133 C   0  0  0  0  0  0  0  0  0  0  0  0
  152.4208  142.5707  159.3109 C   0  0  0  0  0  0  0  0  0  0  0  0
  152.8830  143.3959  160.4990 C   0  0  0  0  0  0  0  0  0  0  0  0
  151.3327  142.9974  158.5077 C   0  0  0  0  0  0  0  0  0  0  0  0
  150.5945  144.2886  158.8130 C   0  0  0  0  0  0  0  0  0  0  0  0
  150.9232  142.2143  157.4083 C   0  0  0  0  0  0  0  0  0  0  0  0
  151.5957  141.0128  157.1224 C   0  0  0  0  0  0  0  0  0  0  0  0
  148.4584  133.8829  153.6715 C   0  0  0  0  0  0  0  0  0  0  0  0
  145.7521  133.8810  150.7410 H   0  0  0  0  0  0  0  0  0  0  0  0
  147.5005  134.0116  150.5963 H   0  0  0  0  0  0  0  0  0  0  0  0
  146.6478  134.8591  151.8881 H   0  0  0  0  0  0  0  0  0  0  0  0
  146.0252  132.6488  152.9361 H   0  0  0  0  0  0  0  0  0  0  0  0
  146.7382  131.8148  151.5756 H   0  0  0  0  0  0  0  0  0  0  0  0
  147.5234  131.4642  154.5315 H   0  0  0  0  0  0  0  0  0  0  0  0
  148.1390  130.5526  153.1644 H   0  0  0  0  0  0  0  0  0  0  0  0
  149.7681  130.5603  155.0727 H   0  0  0  0  0  0  0  0  0  0  0  0
  150.4642  131.2960  153.6424 H   0  0  0  0  0  0  0  0  0  0  0  0
  150.6005  133.6755  153.5401 H   0  0  0  0  0  0  0  0  0  0  0  0
  149.4500  135.1865  155.9143 H   0  0  0  0  0  0  0  0  0  0  0  0
  151.1480  134.7916  155.7337 H   0  0  0  0  0  0  0  0  0  0  0  0
  151.3774  136.2482  154.0385 H   0  0  0  0  0  0  0  0  0  0  0  0
  149.0451  137.5288  155.2777 H   0  0  0  0  0  0  0  0  0  0  0  0
  150.6317  137.4591  156.0232 H   0  0  0  0  0  0  0  0  0  0  0  0
  151.5954  138.5440  153.9162 H   0  0  0  0  0  0  0  0  0  0  0  0
  150.0828  139.4844  152.5424 H   0  0  0  0  0  0  0  0  0  0  0  0
  150.6419  140.8617  154.4128 H   0  0  0  0  0  0  0  0  0  0  0  0
  149.4855  140.1108  155.4870 H   0  0  0  0  0  0  0  0  0  0  0  0
  152.5264  138.2414  155.8026 H   0  0  0  0  0  0  0  0  0  0  0  0
  153.9161  141.0348  159.6261 H   0  0  0  0  0  0  0  0  0  0  0  0
  152.1046  143.4338  161.2610 H   0  0  0  0  0  0  0  0  0  0  0  0
  153.1180  144.4151  160.1921 H   0  0  0  0  0  0  0  0  0  0  0  0
  153.7781  142.9713  160.9540 H   0  0  0  0  0  0  0  0  0  0  0  0
  149.7525  144.4350  158.1361 H   0  0  0  0  0  0  0  0  0  0  0  0
  151.2622  145.1440  158.7082 H   0  0  0  0  0  0  0  0  0  0  0  0
  150.2048  144.2750  159.8312 H   0  0  0  0  0  0  0  0  0  0  0  0
  150.0975  142.5306  156.7884 H   0  0  0  0  0  0  0  0  0  0  0  0
  148.4390  134.7551  153.0187 H   0  0  0  0  0  0  0  0  0  0  0  0
  147.6876  134.0324  154.4289 H   0  0  0  0  0  0  0  0  0  0  0  0
  149.8151  136.1494  153.5486 H   0  0  0  0  0  0  0  0  0  0  0  0
  148.8502  132.5710  152.1753 H   0  0  0  0  0  0  0  0  0  0  0  0
  1  2  1  0  0  0  0
  1 26  1  0  0  0  0
  1 27  1  0  0  0  0
  1 28  1  0  0  0  0
  2  3  1  0  0  0  0
  2 29  1  0  0  0  0
  2 30  1  0  0  0  0
  3 25  1  0  0  0  0
  3  4  1  0  0  0  0
  3 57  1  0  0  0  0
  4  5  1  0  0  0  0
  4 31  1  0  0  0  0
  4 32  1  0  0  0  0
  5  6  1  0  0  0  0
  5 33  1  0  0  0  0
  5 34  1  0  0  0  0
  6  7  1  0  0  0  0
  7  8  1  0  0  0  0
  7 25  1  0  0  0  0
  7 35  1  0  0  0  0
  8  9  1  0  0  0  0
  8 36  1  0  0  0  0
  8 37  1  0  0  0  0
  9 10  1  0  0  0  0
  9 38  1  0  0  0  0
  9 56  1  0  0  0  0
 10 11  1  0  0  0  0
 10 39  1  0  0  0  0
 10 40  1  0  0  0  0
 11 12  1  0  0  0  0
 11 13  1  0  0  0  0
 11 41  1  0  0  0  0
 12 42  1  0  0  0  0
 13 14  1  0  0  0  0
 13 43  1  0  0  0  0
 13 44  1  0  0  0  0
 14 24  1  0  0  0  0
 14 15  1  0  0  0  0
 15 16  2  0  0  0  0
 15 45  1  0  0  0  0
 16 17  1  0  0  0  0
 17 24  2  0  0  0  0
 17 18  1  0  0  0  0
 18 19  2  0  0  0  0
 18 46  1  0  0  0  0
 19 20  1  0  0  0  0
 19 21  1  0  0  0  0
 20 47  1  0  0  0  0
 20 48  1  0  0  0  0
 20 49  1  0  0  0  0
 21 22  1  0  0  0  0
 21 23  2  0  0  0  0
 22 50  1  0  0  0  0
 22 51  1  0  0  0  0
 22 52  1  0  0  0  0
 23 24  1  0  0  0  0
 23 53  1  0  0  0  0
 25 54  1  0  0  0  0
 25 55  1  0  0  0  0
M  CHG  1   3   1
M  CHG  1   9   1
M  END
> <s_m_source_file>
AV-unprocessed.smi

> <i_m_source_file_index>
1047

> <i_lp_mmshare_version>
43012

> <i_f3d_flags>
0

> <s_epik_input>
W0NIM11bQ0gyXU4xW0NIMl1bQ0gyXU9bQ0BIXShbQ0gyXTEpW0NIMl1bTkhdW0NIMl1bQ0BIXShbT0hdKVtDSDJdbihbY0hdbjIpYyhjMjMpW2NIXWMoW0NIM10pYyhbY0hdMylbQ0gzXQ==

> <s_epik_cmdline>
J2VwaWtfcHl0aG9uJywgJy1waCcsICc3LjAnLCAnLXRuJywgJzgnLCAnLW1hJywgJzIwMCcsICctbWV0YWxfYmluZGluZycsICctaW1hZScsICc8aW5maWxlLm1hZT4nLCAnLW9tYWUnLCAnPG91dGZpbGUubWFlPic=

> <r_epik_Ionization_Penalty>
0.528991

> <r_epik_Ionization_Penalty_Charging>
0.438567

> <r_epik_Ionization_Penalty_Neutral>
0.0904237

> <r_epik_State_Penalty>
0.533036

> <r_epik_Charging_Adjusted_Penalty>
0.971603

> <i_epik_Tot_Q>
2

> <i_epik_Tot_abs_Q>
2

> <r_epik_Metal_State_Penalty>
0.448985

> <b_epik_Metal_Only>
0

> <s_lp_Force_Field>
OPLS_2005

> <r_lp_Energy>
32.051

> <b_lp_Chiralities_Consistent>
1

> <s_lp_Variant>
AV-unprocessed.smi:1047-8

> <Gold.Version>
5.8.1

> <Gold.Id.Protein>
6NUR|6NUR_protein|mol2

> <Gold.PLP.Fitness>
60.3777

> <Gold.PLP.PLP>
-49.3615

> <Gold.PLP.part.hbond>
-4.8864

> <Gold.PLP.part.metal>
0.0000

> <Gold.PLP.part.buried>
-5.2907

> <Gold.PLP.part.nonpolar>
-38.8485

> <Gold.PLP.part.repulsive>
0.0715

> <Gold.PLP.ligand.clash>
0.0000

> <Gold.PLP.ligand.torsion>
0.3474

> <Gold.PLP.Chemscore.Hbond>
3.8480

> <Gold.PLP.Chemscore.CHOScore>
0.0000

> <Gold.PLP.Chemscore.Metal>
0.0000

> <Gold.Chemscore.Hbonds>
donor molecule, donor type, donor heavy atom, donor atom, acceptor molecule, acceptor atom, score
      L1  H     9    56       P1  7948  1.70
      L1  H    12    42       P1  7957  0.64
      P1  H  7997  8010       L1    16  0.65

> <Gold.PLP.Chemscore.Internal.Correction>
0.1671

> <Gold.Rescore>
     Score         DG    S(hbond)    S(metal)    S(lipo)     H(rot)  DE(clash)    DE(int)     intcor
     19.17     -19.79       2.36        0.00     114.04       2.70       0.01       0.62       ----

> <Gold.Chemscore.Fitness>
19.1656

> <Gold.Chemscore.DG>
-19.7914

> <Gold.Chemscore.ZeroCoef>
-5.4800

> <Gold.Chemscore.Hbond>
2.3584

> <Gold.Chemscore.Metal>
0.0000

> <Gold.Chemscore.Lipo>
114.0381

> <Gold.Chemscore.Internal_Hbond>
0.0000

> <Gold.Chemscore.DEClash>
0.0067

> <Gold.Chemscore.DEInternal>
0.6191

> <Gold.Chemscore.Rot>
2.6985

> <Gold.Chemscore.Internal.Correction>
   9.000000E+99

> <Gold.Chemscore.Hbonds>
donor molecule, donor type, donor heavy atom, donor atom, acceptor molecule, acceptor atom, score
      L1  H     9    56       P1  7948  0.15
      L1  H    12    42       P1  7957  0.55
      P1  H  7997  8010       L1    16  0.03

> <Gold.Chemscore.Hbond.Weighted>
-7.8771

> <Gold.Chemscore.Metal.Weighted>
-0.0000

> <Gold.Chemscore.Lipo.Weighted>
-13.3425

> <Gold.Chemscore.Internal_Hbond.Weighted>
0.0000

> <Gold.Chemscore.DEClash.Weighted>
0.0067

> <Gold.Chemscore.DEInternal.Weighted>
0.6191

> <Gold.Chemscore.Rot.Weighted>
6.9081

> <Gold.Chemscore.Internal.Correction.Weighted>
   9.000000E+99

> <Gold.Protein.RotatedTorsions>
[ 6907 6896 6895 6894 ] final -109.41 input  -60.11 | X-H torsion
[ 7974 7965 7964 7962 ] final  -53.79 input  175.53 | X-H torsion
[ 8008 7997 7996 7995 ] final   44.56 input   59.86 | X-H torsion
[ 10167 10162 10161 10158 ] final  -57.07 input  -65.29 | X-H torsion
[ 10718 10713 10712 10709 ] final   72.34 input   66.30 | X-H torsion
[ 10763 10752 10751 10750 ] final   25.07 input  -60.55 | X-H torsion
[ 11005 11000 10999 10996 ] final   43.08 input  -57.11 | X-H torsion

> <Gold.Protein.ActiveResidues>
 VAL166  LYS551  ARG553  GLY616  TRP617  ASP618  TYR619  PRO620  LYS621  CYS622 
 ASP623  PHE694  ASN695  SER759  ASP760  ASP761  ALA762  ILE779  LEU786  VAL792 
 PHE793  MET794  SER795  GLU796  ALA797  LYS798  CYS799  TRP800  GLU811  SER814 

> <Gold.Protein.RotatedAtoms>
  150.7560  133.9533  159.3492 H   0  0  0  0  0  0  0  0  0  0  0  0  # atno 6907 bound_to 6896
  151.7452  135.0843  160.0331 H   0  0  0  0  0  0  0  0  0  0  0  0  # atno 6908 bound_to 6896
  152.3502  133.6133  159.5975 H   0  0  0  0  0  0  0  0  0  0  0  0  # atno 6909 bound_to 6896
  145.8929  140.8056  142.9782 H   0  0  0  0  0  0  0  0  0  0  0  0  # atno 7974 bound_to 7965
  155.3213  140.3397  155.4241 H   0  0  0  0  0  0  0  0  0  0  0  0  # atno 8008 bound_to 7997
  156.1908  140.1697  156.8134 H   0  0  0  0  0  0  0  0  0  0  0  0  # atno 8009 bound_to 7997
  154.5439  140.0719  156.8540 H   0  0  0  0  0  0  0  0  0  0  0  0  # atno 8010 bound_to 7997
  140.6280  143.2446  151.5314 H   0  0  0  0  0  0  0  0  0  0  0  0  # atno 10167 bound_to 10162
  157.6496  130.9574  150.0915 H   0  0  0  0  0  0  0  0  0  0  0  0  # atno 10718 bound_to 10713
  153.0718  135.6591  154.0230 H   0  0  0  0  0  0  0  0  0  0  0  0  # atno 10763 bound_to 10752
  153.9874  135.2949  155.3416 H   0  0  0  0  0  0  0  0  0  0  0  0  # atno 10764 bound_to 10752
  154.7095  135.5211  153.8715 H   0  0  0  0  0  0  0  0  0  0  0  0  # atno 10765 bound_to 10752
  140.1678  134.4260  155.8276 H   0  0  0  0  0  0  0  0  0  0  0  0  # atno 11005 bound_to 11000
  144.6731  140.1557  143.7426 LP  0  0  0  0  0  0  0  0  0  0  0  0  # atno 17320 bound_to 7965
  145.8886  139.2363  143.1563 LP  0  0  0  0  0  0  0  0  0  0  0  0  # atno 17321 bound_to 7965
  139.5497  144.2427  152.1508 LP  0  0  0  0  0  0  0  0  0  0  0  0  # atno 17342 bound_to 10162
  140.1663  144.4978  150.6604 LP  0  0  0  0  0  0  0  0  0  0  0  0  # atno 17343 bound_to 10162
  156.1863  130.3652  149.8969 LP  0  0  0  0  0  0  0  0  0  0  0  0  # atno 17370 bound_to 10713
  156.6908  130.8895  151.3588 LP  0  0  0  0  0  0  0  0  0  0  0  0  # atno 17371 bound_to 10713
  141.2215  133.6942  156.7710 LP  0  0  0  0  0  0  0  0  0  0  0  0  # atno 17394 bound_to 11000
  140.2413  134.8611  157.3576 LP  0  0  0  0  0  0  0  0  0  0  0  0  # atno 17395 bound_to 11000

$$$$
