AV-unprocessed.smi:1047|AV-procd|sdf|4567|dock3
  -GOLD-   22720 3 13D 1   1.00000     0.00000
 Structure written by MMmdl.
 57 59  0  0  0  0  0  0  0  0  3 V2000
  144.6858  137.0694  152.5348 C   0  0  0  0  0  0  0  0  0  0  0  0
  145.4509  137.7195  153.6967 C   0  0  0  0  0  0  0  0  0  0  0  0
  145.7806  139.1438  153.4383 N   0  3  2  0  0  0  0  0  0  0  0  0
  146.6963  139.3089  152.2841 C   0  0  0  0  0  0  0  0  0  0  0  0
  146.9590  140.7994  152.0115 C   0  0  0  0  0  0  0  0  0  0  0  0
  147.4912  141.4145  153.1787 O   0  0  0  0  0  0  0  0  0  0  0  0
  146.5977  141.3364  154.2841 C   0  0  2  0  0  0  0  0  0  0  0  0
  147.1862  142.1382  155.4583 C   0  0  0  0  0  0  0  0  0  0  0  0
  148.5499  142.6308  155.1716 N   0  3  0  0  0  0  0  0  0  0  0  0
  149.6172  141.6488  155.4504 C   0  0  0  0  0  0  0  0  0  0  0  0
  150.0476  141.7006  156.9252 C   0  0  1  0  0  0  0  0  0  0  0  0
  150.4948  140.4152  157.3137 O   0  0  0  0  0  0  0  0  0  0  0  0
  151.1672  142.7319  157.1654 C   0  0  0  0  0  0  0  0  0  0  0  0
  151.2627  143.1325  158.5578 N   0  0  0  0  0  0  0  0  0  0  0  0
  150.4685  144.0071  159.2051 C   0  0  0  0  0  0  0  0  0  0  0  0
  150.7267  144.2283  160.4905 N   0  0  0  0  0  0  0  0  0  0  0  0
  151.8184  143.4037  160.7017 C   0  0  0  0  0  0  0  0  0  0  0  0
  152.5790  143.1712  161.8684 C   0  0  0  0  0  0  0  0  0  0  0  0
  153.6709  142.2743  161.8553 C   0  0  0  0  0  0  0  0  0  0  0  0
  154.4627  142.0571  163.1329 C   0  0  0  0  0  0  0  0  0  0  0  0
  154.0172  141.5942  160.6601 C   0  0  0  0  0  0  0  0  0  0  0  0
  155.1913  140.6323  160.6197 C   0  0  0  0  0  0  0  0  0  0  0  0
  153.2652  141.8115  159.4866 C   0  0  0  0  0  0  0  0  0  0  0  0
  152.1809  142.7066  159.5121 C   0  0  0  0  0  0  0  0  0  0  0  0
  146.3139  139.8578  154.6254 C   0  0  0  0  0  0  0  0  0  0  0  0
  144.5545  136.0018  152.7133 H   0  0  0  0  0  0  0  0  0  0  0  0
  145.2257  137.1815  151.5941 H   0  0  0  0  0  0  0  0  0  0  0  0
  143.6920  137.4976  152.4079 H   0  0  0  0  0  0  0  0  0  0  0  0
  144.8884  137.6261  154.6268 H   0  0  0  0  0  0  0  0  0  0  0  0
  146.3779  137.1623  153.8387 H   0  0  0  0  0  0  0  0  0  0  0  0
  147.6369  138.7934  152.4851 H   0  0  0  0  0  0  0  0  0  0  0  0
  146.2618  138.8475  151.3963 H   0  0  0  0  0  0  0  0  0  0  0  0
  147.6744  140.9116  151.1965 H   0  0  0  0  0  0  0  0  0  0  0  0
  146.0435  141.3065  151.7022 H   0  0  0  0  0  0  0  0  0  0  0  0
  145.6582  141.8146  154.0010 H   0  0  0  0  0  0  0  0  0  0  0  0
  146.5420  142.9911  155.6764 H   0  0  0  0  0  0  0  0  0  0  0  0
  147.2074  141.5191  156.3562 H   0  0  0  0  0  0  0  0  0  0  0  0
  148.6064  142.8953  154.1985 H   0  0  0  0  0  0  0  0  0  0  0  0
  149.2799  140.6454  155.1859 H   0  0  0  0  0  0  0  0  0  0  0  0
  150.4694  141.8788  154.8097 H   0  0  0  0  0  0  0  0  0  0  0  0
  149.1875  141.9627  157.5435 H   0  0  0  0  0  0  0  0  0  0  0  0
  150.7009  140.4303  158.2363 H   0  0  0  0  0  0  0  0  0  0  0  0
  152.1315  142.3326  156.8487 H   0  0  0  0  0  0  0  0  0  0  0  0
  150.9907  143.6264  156.5664 H   0  0  0  0  0  0  0  0  0  0  0  0
  149.6520  144.5070  158.7048 H   0  0  0  0  0  0  0  0  0  0  0  0
  152.3162  143.6913  162.7778 H   0  0  0  0  0  0  0  0  0  0  0  0
  155.4839  142.4185  163.0129 H   0  0  0  0  0  0  0  0  0  0  0  0
  154.4973  140.9983  163.3892 H   0  0  0  0  0  0  0  0  0  0  0  0
  154.0150  142.5880  163.9732 H   0  0  0  0  0  0  0  0  0  0  0  0
  155.3528  140.2438  159.6139 H   0  0  0  0  0  0  0  0  0  0  0  0
  155.0135  139.7851  161.2824 H   0  0  0  0  0  0  0  0  0  0  0  0
  156.1072  141.1332  160.9343 H   0  0  0  0  0  0  0  0  0  0  0  0
  153.5183  141.2972  158.5713 H   0  0  0  0  0  0  0  0  0  0  0  0
  145.5996  139.8106  155.4467 H   0  0  0  0  0  0  0  0  0  0  0  0
  147.2240  139.3601  154.9633 H   0  0  0  0  0  0  0  0  0  0  0  0
  148.7218  143.4503  155.7378 H   0  0  0  0  0  0  0  0  0  0  0  0
  144.9149  139.5964  153.1804 H   0  0  0  0  0  0  0  0  0  0  0  0
  1  2  1  0  0  0  0
  1 26  1  0  0  0  0
  1 27  1  0  0  0  0
  1 28  1  0  0  0  0
  2  3  1  0  0  0  0
  2 29  1  0  0  0  0
  2 30  1  0  0  0  0
  3 25  1  0  0  0  0
  3  4  1  0  0  0  0
  3 57  1  0  0  0  0
  4  5  1  0  0  0  0
  4 31  1  0  0  0  0
  4 32  1  0  0  0  0
  5  6  1  0  0  0  0
  5 33  1  0  0  0  0
  5 34  1  0  0  0  0
  6  7  1  0  0  0  0
  7  8  1  0  0  0  0
  7 25  1  0  0  0  0
  7 35  1  0  0  0  0
  8  9  1  0  0  0  0
  8 36  1  0  0  0  0
  8 37  1  0  0  0  0
  9 10  1  0  0  0  0
  9 38  1  0  0  0  0
  9 56  1  0  0  0  0
 10 11  1  0  0  0  0
 10 39  1  0  0  0  0
 10 40  1  0  0  0  0
 11 12  1  0  0  0  0
 11 13  1  0  0  0  0
 11 41  1  0  0  0  0
 12 42  1  0  0  0  0
 13 14  1  0  0  0  0
 13 43  1  0  0  0  0
 13 44  1  0  0  0  0
 14 24  1  0  0  0  0
 14 15  1  0  0  0  0
 15 16  2  0  0  0  0
 15 45  1  0  0  0  0
 16 17  1  0  0  0  0
 17 24  2  0  0  0  0
 17 18  1  0  0  0  0
 18 19  2  0  0  0  0
 18 46  1  0  0  0  0
 19 20  1  0  0  0  0
 19 21  1  0  0  0  0
 20 47  1  0  0  0  0
 20 48  1  0  0  0  0
 20 49  1  0  0  0  0
 21 22  1  0  0  0  0
 21 23  2  0  0  0  0
 22 50  1  0  0  0  0
 22 51  1  0  0  0  0
 22 52  1  0  0  0  0
 23 24  1  0  0  0  0
 23 53  1  0  0  0  0
 25 54  1  0  0  0  0
 25 55  1  0  0  0  0
M  CHG  1   3   1
M  CHG  1   9   1
M  END
> <s_m_source_file>
AV-unprocessed.smi

> <i_m_source_file_index>
1047

> <i_lp_mmshare_version>
43012

> <i_f3d_flags>
0

> <s_epik_input>
W0NIM11bQ0gyXU4xW0NIMl1bQ0gyXU9bQ0BIXShbQ0gyXTEpW0NIMl1bTkhdW0NIMl1bQ0BIXShbT0hdKVtDSDJdbihbY0hdbjIpYyhjMjMpW2NIXWMoW0NIM10pYyhbY0hdMylbQ0gzXQ==

> <s_epik_cmdline>
J2VwaWtfcHl0aG9uJywgJy1waCcsICc3LjAnLCAnLXRuJywgJzgnLCAnLW1hJywgJzIwMCcsICctbWV0YWxfYmluZGluZycsICctaW1hZScsICc8aW5maWxlLm1hZT4nLCAnLW9tYWUnLCAnPG91dGZpbGUubWFlPic=

> <r_epik_Ionization_Penalty>
0.528991

> <r_epik_Ionization_Penalty_Charging>
0.438567

> <r_epik_Ionization_Penalty_Neutral>
0.0904237

> <r_epik_State_Penalty>
0.533036

> <r_epik_Charging_Adjusted_Penalty>
0.971603

> <i_epik_Tot_Q>
2

> <i_epik_Tot_abs_Q>
2

> <r_epik_Metal_State_Penalty>
0.448985

> <b_epik_Metal_Only>
0

> <s_lp_Force_Field>
OPLS_2005

> <r_lp_Energy>
32.051

> <b_lp_Chiralities_Consistent>
1

> <s_lp_Variant>
AV-unprocessed.smi:1047-8

> <Gold.Version>
5.8.1

> <Gold.Id.Protein>
6NUR|6NUR_protein|mol2

> <Gold.PLP.Fitness>
62.4316

> <Gold.PLP.PLP>
-50.6512

> <Gold.PLP.part.hbond>
-1.9944

> <Gold.PLP.part.metal>
0.0000

> <Gold.PLP.part.buried>
-2.9551

> <Gold.PLP.part.nonpolar>
-46.9164

> <Gold.PLP.part.repulsive>
1.8453

> <Gold.PLP.ligand.clash>
0.0000

> <Gold.PLP.ligand.torsion>
1.8359

> <Gold.PLP.Chemscore.Hbond>
4.0000

> <Gold.PLP.Chemscore.CHOScore>
1.0950

> <Gold.PLP.Chemscore.Metal>
0.0000

> <Gold.Chemscore.Hbonds>
donor molecule, donor type, donor heavy atom, donor atom, acceptor molecule, acceptor atom, score
      L1  H     3    57       P1 10175  2.00
      L1  H     9    56       P1  8028  0.59
      L1  C    15    45       P1  8029  0.63

> <Gold.PLP.Chemscore.Internal.Correction>
0.1671

> <Gold.Rescore>
     Score         DG    S(hbond)    S(metal)    S(lipo)     H(rot)  DE(clash)    DE(int)     intcor
     18.68     -21.06       1.98        0.00     135.74       2.70       0.75       1.63       ----

> <Gold.Chemscore.Fitness>
18.6787

> <Gold.Chemscore.DG>
-21.0640

> <Gold.Chemscore.ZeroCoef>
-5.4800

> <Gold.Chemscore.Hbond>
1.9793

> <Gold.Chemscore.Metal>
0.0000

> <Gold.Chemscore.Lipo>
135.7374

> <Gold.Chemscore.Internal_Hbond>
0.0000

> <Gold.Chemscore.DEClash>
0.7547

> <Gold.Chemscore.DEInternal>
1.6306

> <Gold.Chemscore.Rot>
2.6985

> <Gold.Chemscore.Internal.Correction>
   9.000000E+99

> <Gold.Chemscore.Hbonds>
donor molecule, donor type, donor heavy atom, donor atom, acceptor molecule, acceptor atom, score
      L1  H     3    57       P1 10175  1.00
      L1  H     9    56       P1  8028  0.31

> <Gold.Chemscore.Hbond.Weighted>
-6.6108

> <Gold.Chemscore.Metal.Weighted>
-0.0000

> <Gold.Chemscore.Lipo.Weighted>
-15.8813

> <Gold.Chemscore.Internal_Hbond.Weighted>
0.0000

> <Gold.Chemscore.DEClash.Weighted>
0.7547

> <Gold.Chemscore.DEInternal.Weighted>
1.6306

> <Gold.Chemscore.Rot.Weighted>
6.9081

> <Gold.Chemscore.Internal.Correction.Weighted>
   9.000000E+99

> <Gold.Protein.RotatedTorsions>
[ 6907 6896 6895 6894 ] final -142.59 input  -60.11 | X-H torsion
[ 7974 7965 7964 7962 ] final  172.71 input  175.53 | X-H torsion
[ 8008 7997 7996 7995 ] final   -6.31 input   59.86 | X-H torsion
[ 10167 10162 10161 10158 ] final -139.50 input  -65.29 | X-H torsion
[ 10718 10713 10712 10709 ] final  135.04 input   66.30 | X-H torsion
[ 10763 10752 10751 10750 ] final -115.56 input  -60.55 | X-H torsion
[ 11005 11000 10999 10996 ] final   31.64 input  -57.11 | X-H torsion

> <Gold.Protein.ActiveResidues>
 VAL166  LYS551  ARG553  GLY616  TRP617  ASP618  TYR619  PRO620  LYS621  CYS622 
 ASP623  PHE694  ASN695  SER759  ASP760  ASP761  ALA762  ILE779  LEU786  VAL792 
 PHE793  MET794  SER795  GLU796  ALA797  LYS798  CYS799  TRP800  GLU811  SER814 

> <Gold.Protein.RotatedAtoms>
  151.0891  133.5330  159.2615 H   0  0  0  0  0  0  0  0  0  0  0  0  # atno 6907 bound_to 6896
  151.2204  135.0516  159.8957 H   0  0  0  0  0  0  0  0  0  0  0  0  # atno 6908 bound_to 6896
  152.5432  134.0694  159.8241 H   0  0  0  0  0  0  0  0  0  0  0  0  # atno 6909 bound_to 6896
  144.7261  139.9539  143.6433 H   0  0  0  0  0  0  0  0  0  0  0  0  # atno 7974 bound_to 7965
  154.5950  140.2436  155.7868 H   0  0  0  0  0  0  0  0  0  0  0  0  # atno 8008 bound_to 7997
  156.2273  140.2978  156.0053 H   0  0  0  0  0  0  0  0  0  0  0  0  # atno 8009 bound_to 7997
  155.2308  140.0403  157.2952 H   0  0  0  0  0  0  0  0  0  0  0  0  # atno 8010 bound_to 7997
  139.8373  143.7367  152.2664 H   0  0  0  0  0  0  0  0  0  0  0  0  # atno 10167 bound_to 10162
  157.4611  131.1073  150.9919 H   0  0  0  0  0  0  0  0  0  0  0  0  # atno 10718 bound_to 10713
  154.8486  135.4377  154.1682 H   0  0  0  0  0  0  0  0  0  0  0  0  # atno 10763 bound_to 10752
  153.2802  135.6953  153.7399 H   0  0  0  0  0  0  0  0  0  0  0  0  # atno 10764 bound_to 10752
  153.6606  135.3435  155.3101 H   0  0  0  0  0  0  0  0  0  0  0  0  # atno 10765 bound_to 10752
  140.2818  134.2964  155.7799 H   0  0  0  0  0  0  0  0  0  0  0  0  # atno 11005 bound_to 11000
  146.0690  139.3679  143.0535 LP  0  0  0  0  0  0  0  0  0  0  0  0  # atno 17320 bound_to 7965
  145.7993  140.9778  143.1007 LP  0  0  0  0  0  0  0  0  0  0  0  0  # atno 17321 bound_to 7965
  139.7594  144.7511  151.0387 LP  0  0  0  0  0  0  0  0  0  0  0  0  # atno 17342 bound_to 10162
  140.7801  143.4769  151.0071 LP  0  0  0  0  0  0  0  0  0  0  0  0  # atno 17343 bound_to 10162
  157.0716  130.5866  149.5403 LP  0  0  0  0  0  0  0  0  0  0  0  0  # atno 17370 bound_to 10713
  156.0029  130.5111  150.7727 LP  0  0  0  0  0  0  0  0  0  0  0  0  # atno 17371 bound_to 10713
  141.2161  133.7530  156.9492 LP  0  0  0  0  0  0  0  0  0  0  0  0  # atno 17394 bound_to 11000
  140.1277  134.9376  157.2292 LP  0  0  0  0  0  0  0  0  0  0  0  0  # atno 17395 bound_to 11000

$$$$
