AV-unprocessed.smi:3348|AV-procd|sdf|12923|dock10
  -GOLD-   2272019343D 1   1.00000     0.00000
 Structure written by MMmdl.
 46 47  0  0  0  0  0  0  0  0  1 V2000
  150.2046  140.0355  156.9338 C   0  0  0  0  0  0  0  0  0  0  0  0
  150.0741  139.8538  158.4525 C   0  0  2  0  0  0  0  0  0  0  0  0
  151.3219  140.4382  159.1647 C   0  0  0  0  0  0  0  0  0  0  0  0
  151.5265  141.8643  158.9703 N   0  0  0  0  0  0  0  0  0  0  0  0
  152.5075  142.6656  159.5174 C   0  0  0  0  0  0  0  0  0  0  0  0
  152.3218  143.9280  159.0324 C   0  0  0  0  0  0  0  0  0  0  0  0
  151.2015  143.7946  158.1657 C   0  0  0  0  0  0  0  0  0  0  0  0
  150.7359  142.5567  158.1207 N   0  0  0  0  0  0  0  0  0  0  0  0
  149.8663  138.4282  158.7361 N   0  0  0  0  0  0  0  0  0  0  0  0
  148.4752  137.9863  158.8163 C   0  0  0  0  0  0  0  0  0  0  0  0
  148.3342  136.7642  159.7390 C   0  0  0  0  0  0  0  0  0  0  0  0
  147.3913  136.9812  160.7831 O   0  0  0  0  0  0  0  0  0  0  0  0
  147.0732  135.8360  161.5675 C   0  0  2  0  0  0  0  0  0  0  0  0
  146.7279  134.6929  160.5954 C   0  0  0  0  0  0  0  0  0  0  0  0
  146.2811  133.4337  161.3503 C   0  0  0  0  0  0  0  0  0  0  0  0
  145.0914  133.7431  162.2713 C   0  0  0  0  0  0  0  0  0  0  0  0
  145.4196  134.8918  163.2385 C   0  0  0  0  0  0  0  0  0  0  0  0
  145.8781  136.1612  162.4909 C   0  0  1  0  0  0  0  0  0  0  0  0
  146.2118  137.2863  163.4839 C   0  0  0  0  0  0  0  0  0  0  0  0
  150.3044  141.0890  156.6708 H   0  0  0  0  0  0  0  0  0  0  0  0
  149.3250  139.6535  156.4144 H   0  0  0  0  0  0  0  0  0  0  0  0
  151.0777  139.5112  156.5431 H   0  0  0  0  0  0  0  0  0  0  0  0
  149.1882  140.4134  158.7552 H   0  0  0  0  0  0  0  0  0  0  0  0
  151.2778  140.2306  160.2348 H   0  0  0  0  0  0  0  0  0  0  0  0
  152.2210  139.9421  158.7971 H   0  0  0  0  0  0  0  0  0  0  0  0
  153.2450  142.2760  160.2035 H   0  0  0  0  0  0  0  0  0  0  0  0
  152.9020  144.8105  159.2573 H   0  0  0  0  0  0  0  0  0  0  0  0
  150.7189  144.5538  157.5682 H   0  0  0  0  0  0  0  0  0  0  0  0
  150.3555  137.8702  158.0437 H   0  0  0  0  0  0  0  0  0  0  0  0
  147.8217  138.7853  159.1547 H   0  0  0  0  0  0  0  0  0  0  0  0
  148.1293  137.7101  157.8198 H   0  0  0  0  0  0  0  0  0  0  0  0
  148.0385  135.8874  159.1614 H   0  0  0  0  0  0  0  0  0  0  0  0
  149.2985  136.5224  160.1869 H   0  0  0  0  0  0  0  0  0  0  0  0
  147.9153  135.5281  162.1906 H   0  0  0  0  0  0  0  0  0  0  0  0
  145.9322  135.0127  159.9211 H   0  0  0  0  0  0  0  0  0  0  0  0
  147.5866  134.4628  159.9652 H   0  0  0  0  0  0  0  0  0  0  0  0
  146.0109  132.6510  160.6413 H   0  0  0  0  0  0  0  0  0  0  0  0
  147.1129  133.0454  161.9395 H   0  0  0  0  0  0  0  0  0  0  0  0
  144.2226  134.0106  161.6686 H   0  0  0  0  0  0  0  0  0  0  0  0
  144.8150  132.8507  162.8336 H   0  0  0  0  0  0  0  0  0  0  0  0
  144.5437  135.1141  163.8491 H   0  0  0  0  0  0  0  0  0  0  0  0
  146.2007  134.5696  163.9287 H   0  0  0  0  0  0  0  0  0  0  0  0
  145.0495  136.5024  161.8686 H   0  0  0  0  0  0  0  0  0  0  0  0
  147.0513  137.0141  164.1245 H   0  0  0  0  0  0  0  0  0  0  0  0
  145.3599  137.5081  164.1273 H   0  0  0  0  0  0  0  0  0  0  0  0
  146.4753  138.2079  162.9646 H   0  0  0  0  0  0  0  0  0  0  0  0
  1  2  1  0  0  0  0
  1 20  1  0  0  0  0
  1 21  1  0  0  0  0
  1 22  1  0  0  0  0
  2  3  1  0  0  0  0
  2  9  1  0  0  0  0
  2 23  1  0  0  0  0
  3  4  1  0  0  0  0
  3 24  1  0  0  0  0
  3 25  1  0  0  0  0
  4  8  1  0  0  0  0
  4  5  1  0  0  0  0
  5  6  2  0  0  0  0
  5 26  1  0  0  0  0
  6  7  1  0  0  0  0
  6 27  1  0  0  0  0
  7  8  2  0  0  0  0
  7 28  1  0  0  0  0
  9 10  1  0  0  0  0
  9 29  1  0  0  0  0
 10 11  1  0  0  0  0
 10 30  1  0  0  0  0
 10 31  1  0  0  0  0
 11 12  1  0  0  0  0
 11 32  1  0  0  0  0
 11 33  1  0  0  0  0
 12 13  1  0  0  0  0
 13 18  1  0  0  0  0
 13 14  1  0  0  0  0
 13 34  1  0  0  0  0
 14 15  1  0  0  0  0
 14 35  1  0  0  0  0
 14 36  1  0  0  0  0
 15 16  1  0  0  0  0
 15 37  1  0  0  0  0
 15 38  1  0  0  0  0
 16 17  1  0  0  0  0
 16 39  1  0  0  0  0
 16 40  1  0  0  0  0
 17 18  1  0  0  0  0
 17 41  1  0  0  0  0
 17 42  1  0  0  0  0
 18 19  1  0  0  0  0
 18 43  1  0  0  0  0
 19 44  1  0  0  0  0
 19 45  1  0  0  0  0
 19 46  1  0  0  0  0
M  END
> <s_m_source_file>
AV-unprocessed.smi

> <i_m_source_file_index>
3348

> <i_lp_mmshare_version>
43012

> <i_f3d_flags>
0

> <s_epik_input>
bjFbY0hdW2NIXVtjSF1uMVtDSDJdW0NAQEhdKFtDSDNdKVtOSF1bQ0gyXVtDSDJdT1tDQEBIXTJbQ0gyXVtDSDJdW0NIMl1bQ0gyXVtDQEhdMltDSDNd

> <s_epik_cmdline>
J2VwaWtfcHl0aG9uJywgJy1waCcsICc3LjAnLCAnLXRuJywgJzgnLCAnLW1hJywgJzIwMCcsICctbWV0YWxfYmluZGluZycsICctaW1hZScsICc8aW5maWxlLm1hZT4nLCAnLW9tYWUnLCAnPG91dGZpbGUubWFlPic=

> <r_lp_tautomer_probability>
1

> <r_epik_Ionization_Penalty>
2.46945

> <r_epik_Ionization_Penalty_Charging>
0

> <r_epik_Ionization_Penalty_Neutral>
2.46945

> <r_epik_State_Penalty>
2.6322

> <r_epik_Charging_Adjusted_Penalty>
2.6322

> <i_epik_Tot_Q>
0

> <i_epik_Tot_abs_Q>
0

> <r_epik_Metal_State_Penalty>
2.63217

> <b_epik_Metal_Only>
0

> <s_lp_Force_Field>
OPLS_2005

> <r_lp_Energy>
18.2161

> <b_lp_Chiralities_Consistent>
1

> <s_lp_Variant>
AV-unprocessed.smi:3348-9

> <Gold.Version>
5.8.1

> <Gold.Id.Protein>
6NUR|6NUR_protein|mol2

> <Gold.PLP.Fitness>
46.9675

> <Gold.PLP.PLP>
-43.6748

> <Gold.PLP.part.hbond>
-1.9356

> <Gold.PLP.part.metal>
0.0000

> <Gold.PLP.part.buried>
-4.0548

> <Gold.PLP.part.nonpolar>
-39.0871

> <Gold.PLP.part.repulsive>
0.0913

> <Gold.PLP.ligand.clash>
0.0000

> <Gold.PLP.ligand.torsion>
1.0630

> <Gold.PLP.Chemscore.Hbond>
0.7495

> <Gold.PLP.Chemscore.CHOScore>
1.0000

> <Gold.PLP.Chemscore.Metal>
0.0000

> <Gold.Chemscore.Hbonds>
donor molecule, donor type, donor heavy atom, donor atom, acceptor molecule, acceptor atom, score
      P1  H  6931  6943       L1    12  0.06
      P1  H  6934  6947       L1    12  0.94
      L1  C     7    28       P1  8028  0.79

> <Gold.PLP.Chemscore.Internal.Correction>
0.1703

> <Gold.Rescore>
     Score         DG    S(hbond)    S(metal)    S(lipo)     H(rot)  DE(clash)    DE(int)     intcor
     15.30     -16.51       0.52        0.00     117.23       1.72       0.10       1.11       ----

> <Gold.Chemscore.Fitness>
15.3036

> <Gold.Chemscore.DG>
-16.5121

> <Gold.Chemscore.ZeroCoef>
-5.4800

> <Gold.Chemscore.Hbond>
0.5175

> <Gold.Chemscore.Metal>
0.0000

> <Gold.Chemscore.Lipo>
117.2326

> <Gold.Chemscore.Internal_Hbond>
0.0000

> <Gold.Chemscore.DEClash>
0.0976

> <Gold.Chemscore.DEInternal>
1.1109

> <Gold.Chemscore.Rot>
1.7237

> <Gold.Chemscore.Internal.Correction>
   9.000000E+99

> <Gold.Chemscore.Hbonds>
donor molecule, donor type, donor heavy atom, donor atom, acceptor molecule, acceptor atom, score
      P1  H  6934  6947       L1    12  0.49

> <Gold.Chemscore.Hbond.Weighted>
-1.7285

> <Gold.Chemscore.Metal.Weighted>
-0.0000

> <Gold.Chemscore.Lipo.Weighted>
-13.7162

> <Gold.Chemscore.Internal_Hbond.Weighted>
0.0000

> <Gold.Chemscore.DEClash.Weighted>
0.0976

> <Gold.Chemscore.DEInternal.Weighted>
1.1109

> <Gold.Chemscore.Rot.Weighted>
4.4126

> <Gold.Chemscore.Internal.Correction.Weighted>
   9.000000E+99

> <Gold.Protein.RotatedTorsions>
[ 6907 6896 6895 6894 ] final  -86.72 input  -60.11 | X-H torsion
[ 7974 7965 7964 7962 ] final  179.13 input  175.53 | X-H torsion
[ 8008 7997 7996 7995 ] final   70.31 input   59.86 | X-H torsion
[ 10167 10162 10161 10158 ] final  -12.17 input  -65.29 | X-H torsion
[ 10718 10713 10712 10709 ] final  119.34 input   66.30 | X-H torsion
[ 10763 10752 10751 10750 ] final  147.80 input  -60.55 | X-H torsion
[ 11005 11000 10999 10996 ] final  -62.33 input  -57.11 | X-H torsion

> <Gold.Protein.ActiveResidues>
 VAL166  LYS551  ARG553  GLY616  TRP617  ASP618  TYR619  PRO620  LYS621  CYS622 
 ASP623  PHE694  ASN695  SER759  ASP760  ASP761  ALA762  ILE779  LEU786  VAL792 
 PHE793  MET794  SER795  GLU796  ALA797  LYS798  CYS799  TRP800  GLU811  SER814 

> <Gold.Protein.RotatedAtoms>
  150.6866  134.3007  159.4705 H   0  0  0  0  0  0  0  0  0  0  0  0  # atno 6907 bound_to 6896
  152.0903  134.9409  160.0581 H   0  0  0  0  0  0  0  0  0  0  0  0  # atno 6908 bound_to 6896
  152.0727  133.4080  159.4503 H   0  0  0  0  0  0  0  0  0  0  0  0  # atno 6909 bound_to 6896
  144.7149  140.0502  143.6435 H   0  0  0  0  0  0  0  0  0  0  0  0  # atno 7974 bound_to 7965
  155.7369  140.3491  155.5086 H   0  0  0  0  0  0  0  0  0  0  0  0  # atno 8008 bound_to 7997
  155.9130  140.1054  157.1286 H   0  0  0  0  0  0  0  0  0  0  0  0  # atno 8009 bound_to 7997
  154.4058  140.1264  156.4569 H   0  0  0  0  0  0  0  0  0  0  0  0  # atno 8010 bound_to 7997
  140.7155  143.5561  150.9247 H   0  0  0  0  0  0  0  0  0  0  0  0  # atno 10167 bound_to 10162
  157.5968  131.1057  150.7882 H   0  0  0  0  0  0  0  0  0  0  0  0  # atno 10718 bound_to 10713
  154.0443  135.2887  155.3350 H   0  0  0  0  0  0  0  0  0  0  0  0  # atno 10763 bound_to 10752
  154.6909  135.5227  153.8394 H   0  0  0  0  0  0  0  0  0  0  0  0  # atno 10764 bound_to 10752
  153.0587  135.6605  154.0645 H   0  0  0  0  0  0  0  0  0  0  0  0  # atno 10765 bound_to 10752
  141.1356  133.6639  156.5511 H   0  0  0  0  0  0  0  0  0  0  0  0  # atno 11005 bound_to 11000
  145.9950  139.3045  143.0962 LP  0  0  0  0  0  0  0  0  0  0  0  0  # atno 17320 bound_to 7965
  145.8859  140.9334  143.0577 LP  0  0  0  0  0  0  0  0  0  0  0  0  # atno 17321 bound_to 7965
  139.9286  143.6520  152.3081 LP  0  0  0  0  0  0  0  0  0  0  0  0  # atno 17342 bound_to 10162
  139.6963  144.7641  151.1351 LP  0  0  0  0  0  0  0  0  0  0  0  0  # atno 17343 bound_to 10162
  156.8290  130.5009  149.5334 LP  0  0  0  0  0  0  0  0  0  0  0  0  # atno 17370 bound_to 10713
  156.1033  130.5985  150.9929 LP  0  0  0  0  0  0  0  0  0  0  0  0  # atno 17371 bound_to 10713
  140.4063  134.7312  157.4810 LP  0  0  0  0  0  0  0  0  0  0  0  0  # atno 17394 bound_to 11000
  140.0459  134.6200  155.8921 LP  0  0  0  0  0  0  0  0  0  0  0  0  # atno 17395 bound_to 11000

$$$$
