AV-unprocessed.smi:1200|AV-procd|sdf|5025|dock1
  -GOLD-   22720 4 43D 1   1.00000     0.00000
 Structure written by MMmdl.
 42 43  0  0  0  0  0  0  0  0  3 V2000
  145.4458  135.8275  150.7824 C   0  0  0  0  0  0  0  0  0  0  0  0
  145.1117  136.0278  152.1874 N   0  5  0  0  0  0  0  0  0  0  0  0
  145.7471  136.9238  152.9891 C   0  0  0  0  0  0  0  0  0  0  0  0
  146.0257  136.8741  154.1918 O   0  0  0  0  0  0  0  0  0  0  0  0
  146.1828  138.1625  152.1978 C   0  0  0  0  0  0  0  0  0  0  0  0
  146.8488  139.1335  153.1008 N   0  3  2  0  0  0  0  0  0  0  0  0
  147.0607  140.4533  152.4545 C   0  0  0  0  0  0  0  0  0  0  0  0
  147.6079  141.4808  153.4596 C   0  0  0  0  0  0  0  0  0  0  0  0
  148.9100  140.9858  154.1097 C   0  0  1  0  0  0  0  0  0  0  0  0
  149.3512  141.9379  155.1250 N   0  0  0  0  0  0  0  0  0  0  0  0
  150.2541  141.6833  156.0831 C   0  0  0  0  0  0  0  0  0  0  0  0
  150.8318  140.6030  156.1969 O   0  0  0  0  0  0  0  0  0  0  0  0
  150.4360  142.7562  156.8726 N   0  0  0  0  0  0  0  0  0  0  0  0
  151.2760  142.9053  158.0110 C   0  0  0  0  0  0  0  0  0  0  0  0
  151.8631  144.1249  158.4301 C   0  0  0  0  0  0  0  0  0  0  0  0
  152.6863  144.1265  159.5727 C   0  0  0  0  0  0  0  0  0  0  0  0
  152.8983  142.9115  160.2520 C   0  0  0  0  0  0  0  0  0  0  0  0
  152.3540  141.7407  159.8600 N   0  0  0  0  0  0  0  0  0  0  0  0
  151.5655  141.7471  158.7640 C   0  0  0  0  0  0  0  0  0  0  0  0
  148.6802  139.5963  154.7314 C   0  0  0  0  0  0  0  0  0  0  0  0
  148.1060  138.6108  153.7006 C   0  0  0  0  0  0  0  0  0  0  0  0
  144.8303  135.0527  150.3259 H   0  0  0  0  0  0  0  0  0  0  0  0
  146.4829  135.5225  150.6398 H   0  0  0  0  0  0  0  0  0  0  0  0
  145.2972  136.7294  150.1879 H   0  0  0  0  0  0  0  0  0  0  0  0
  146.8280  137.9228  151.3497 H   0  0  0  0  0  0  0  0  0  0  0  0
  145.2765  138.6022  151.7790 H   0  0  0  0  0  0  0  0  0  0  0  0
  147.7475  140.3423  151.6138 H   0  0  0  0  0  0  0  0  0  0  0  0
  146.1174  140.8204  152.0480 H   0  0  0  0  0  0  0  0  0  0  0  0
  147.7793  142.4330  152.9557 H   0  0  0  0  0  0  0  0  0  0  0  0
  146.8560  141.6684  154.2280 H   0  0  0  0  0  0  0  0  0  0  0  0
  149.6720  140.9073  153.3316 H   0  0  0  0  0  0  0  0  0  0  0  0
  148.9299  142.8551  155.1026 H   0  0  0  0  0  0  0  0  0  0  0  0
  149.9226  143.5854  156.6118 H   0  0  0  0  0  0  0  0  0  0  0  0
  151.7134  145.0534  157.9031 H   0  0  0  0  0  0  0  0  0  0  0  0
  153.1481  145.0394  159.9185 H   0  0  0  0  0  0  0  0  0  0  0  0
  153.5252  142.8786  161.1308 H   0  0  0  0  0  0  0  0  0  0  0  0
  151.1499  140.7913  158.4794 H   0  0  0  0  0  0  0  0  0  0  0  0
  149.6156  139.2023  155.1310 H   0  0  0  0  0  0  0  0  0  0  0  0
  147.9934  139.6758  155.5757 H   0  0  0  0  0  0  0  0  0  0  0  0
  147.9229  137.6546  154.1912 H   0  0  0  0  0  0  0  0  0  0  0  0
  148.8368  138.4243  152.9122 H   0  0  0  0  0  0  0  0  0  0  0  0
  146.2010  139.2879  153.8604 H   0  0  0  0  0  0  0  0  0  0  0  0
  1  2  1  0  0  0  0
  1 22  1  0  0  0  0
  1 23  1  0  0  0  0
  1 24  1  0  0  0  0
  2  3  1  0  0  0  0
  3  4  2  0  0  0  0
  3  5  1  0  0  0  0
  5  6  1  0  0  0  0
  5 25  1  0  0  0  0
  5 26  1  0  0  0  0
  6 21  1  0  0  0  0
  6  7  1  0  0  0  0
  6 42  1  0  0  0  0
  7  8  1  0  0  0  0
  7 27  1  0  0  0  0
  7 28  1  0  0  0  0
  8  9  1  0  0  0  0
  8 29  1  0  0  0  0
  8 30  1  0  0  0  0
  9 10  1  0  0  0  0
  9 20  1  0  0  0  0
  9 31  1  0  0  0  0
 10 11  1  0  0  0  0
 10 32  1  0  0  0  0
 11 12  2  0  0  0  0
 11 13  1  0  0  0  0
 13 14  1  0  0  0  0
 13 33  1  0  0  0  0
 14 19  1  0  0  0  0
 14 15  2  0  0  0  0
 15 16  1  0  0  0  0
 15 34  1  0  0  0  0
 16 17  2  0  0  0  0
 16 35  1  0  0  0  0
 17 18  1  0  0  0  0
 17 36  1  0  0  0  0
 18 19  2  0  0  0  0
 19 37  1  0  0  0  0
 20 21  1  0  0  0  0
 20 38  1  0  0  0  0
 20 39  1  0  0  0  0
 21 40  1  0  0  0  0
 21 41  1  0  0  0  0
M  CHG  1   2  -1
M  CHG  1   6   1
M  END
> <s_m_source_file>
AV-unprocessed.smi

> <i_m_source_file_index>
1200

> <i_lp_mmshare_version>
43012

> <i_f3d_flags>
0

> <s_epik_input>
W0NIM11bTkhdQyg9TylbQ0gyXU4xW0NIMl1bQ0gyXVtDSF0oW0NIMl1bQ0gyXTEpW05IXUMoPU8pW05IXWMyW2NIXVtjSF1bY0hdbltjSF0y

> <s_epik_cmdline>
J2VwaWtfcHl0aG9uJywgJy1waCcsICc3LjAnLCAnLXRuJywgJzgnLCAnLW1hJywgJzIwMCcsICctbWV0YWxfYmluZGluZycsICctaW1hZScsICc8aW5maWxlLm1hZT4nLCAnLW9tYWUnLCAnPG91dGZpbGUubWFlPic=

> <r_epik_Ionization_Penalty>
6.14345

> <r_epik_Ionization_Penalty_Charging>
6.13946

> <r_epik_Ionization_Penalty_Neutral>
0.00398477

> <r_epik_State_Penalty>
6.94483

> <r_epik_Charging_Adjusted_Penalty>
13.0843

> <i_epik_Tot_Q>
0

> <i_epik_Tot_abs_Q>
2

> <r_epik_Metal_State_Penalty>
2.87819

> <b_epik_Metal_Only>
1

> <s_lp_Force_Field>
OPLS_2005

> <r_lp_Energy>
13.1486

> <b_lp_Chiralities_Consistent>
1

> <s_lp_Variant>
AV-unprocessed.smi:1200-4

> <Gold.Version>
5.8.1

> <Gold.Id.Protein>
6NUR|6NUR_protein|mol2

> <Gold.PLP.Fitness>
43.8649

> <Gold.PLP.PLP>
-39.0978

> <Gold.PLP.part.hbond>
-2.0000

> <Gold.PLP.part.metal>
0.0000

> <Gold.PLP.part.buried>
-2.7474

> <Gold.PLP.part.nonpolar>
-34.3484

> <Gold.PLP.part.repulsive>
0.4935

> <Gold.PLP.ligand.clash>
0.0000

> <Gold.PLP.ligand.torsion>
0.6647

> <Gold.PLP.Chemscore.Hbond>
1.9920

> <Gold.PLP.Chemscore.CHOScore>
0.0000

> <Gold.PLP.Chemscore.Metal>
0.0000

> <Gold.Chemscore.Hbonds>
donor molecule, donor type, donor heavy atom, donor atom, acceptor molecule, acceptor atom, score
      L1  H    10    32       P1  8028  1.00
      L1  H    13    33       P1  8028  1.00

> <Gold.PLP.Chemscore.Internal.Correction>
0.1205

> <Gold.Rescore>
     Score         DG    S(hbond)    S(metal)    S(lipo)     H(rot)  DE(clash)    DE(int)     intcor
     14.94     -20.33       1.93        0.00     107.63       1.63       0.58       4.81       ----

> <Gold.Chemscore.Fitness>
14.9368

> <Gold.Chemscore.DG>
-20.3268

> <Gold.Chemscore.ZeroCoef>
-5.4800

> <Gold.Chemscore.Hbond>
1.9260

> <Gold.Chemscore.Metal>
0.0000

> <Gold.Chemscore.Lipo>
107.6284

> <Gold.Chemscore.Internal_Hbond>
0.0000

> <Gold.Chemscore.DEClash>
0.5822

> <Gold.Chemscore.DEInternal>
4.8078

> <Gold.Chemscore.Rot>
1.6323

> <Gold.Chemscore.Internal.Correction>
   9.000000E+99

> <Gold.Chemscore.Hbonds>
donor molecule, donor type, donor heavy atom, donor atom, acceptor molecule, acceptor atom, score
      L1  H    10    32       P1  8028  0.96
      L1  H    13    33       P1  8028  1.00

> <Gold.Chemscore.Hbond.Weighted>
-6.4329

> <Gold.Chemscore.Metal.Weighted>
-0.0000

> <Gold.Chemscore.Lipo.Weighted>
-12.5925

> <Gold.Chemscore.Internal_Hbond.Weighted>
0.0000

> <Gold.Chemscore.DEClash.Weighted>
0.5822

> <Gold.Chemscore.DEInternal.Weighted>
4.8078

> <Gold.Chemscore.Rot.Weighted>
4.1786

> <Gold.Chemscore.Internal.Correction.Weighted>
   9.000000E+99

> <Gold.Protein.RotatedTorsions>
[ 6907 6896 6895 6894 ] final   81.87 input  -60.11 | X-H torsion
[ 7974 7965 7964 7962 ] final  -27.33 input  175.53 | X-H torsion
[ 8008 7997 7996 7995 ] final  -47.94 input   59.86 | X-H torsion
[ 10167 10162 10161 10158 ] final  -14.88 input  -65.29 | X-H torsion
[ 10718 10713 10712 10709 ] final  -18.13 input   66.30 | X-H torsion
[ 10763 10752 10751 10750 ] final   53.01 input  -60.55 | X-H torsion
[ 11005 11000 10999 10996 ] final  101.76 input  -57.11 | X-H torsion

> <Gold.Protein.ActiveResidues>
 VAL166  LYS551  ARG553  GLY616  TRP617  ASP618  TYR619  PRO620  LYS621  CYS622 
 ASP623  PHE694  ASN695  SER759  ASP760  ASP761  ALA762  ILE779  LEU786  VAL792 
 PHE793  MET794  SER795  GLU796  ALA797  LYS798  CYS799  TRP800  GLU811  SER814 

> <Gold.Protein.RotatedAtoms>
  152.5282  134.3137  159.9122 H   0  0  0  0  0  0  0  0  0  0  0  0  # atno 6907 bound_to 6896
  151.3086  133.4084  159.2653 H   0  0  0  0  0  0  0  0  0  0  0  0  # atno 6908 bound_to 6896
  151.0058  134.9374  159.8036 H   0  0  0  0  0  0  0  0  0  0  0  0  # atno 6909 bound_to 6896
  146.1365  140.5138  142.8670 H   0  0  0  0  0  0  0  0  0  0  0  0  # atno 7974 bound_to 7965
  154.4022  140.1334  156.4257 H   0  0  0  0  0  0  0  0  0  0  0  0  # atno 8008 bound_to 7997
  155.7600  140.3486  155.5173 H   0  0  0  0  0  0  0  0  0  0  0  0  # atno 8009 bound_to 7997
  155.8868  140.0996  157.1437 H   0  0  0  0  0  0  0  0  0  0  0  0  # atno 8010 bound_to 7997
  140.7209  143.5275  150.9559 H   0  0  0  0  0  0  0  0  0  0  0  0  # atno 10167 bound_to 10162
  156.5638  130.4732  149.6394 H   0  0  0  0  0  0  0  0  0  0  0  0  # atno 10718 bound_to 10713
  152.9792  135.5793  154.4672 H   0  0  0  0  0  0  0  0  0  0  0  0  # atno 10763 bound_to 10752
  154.4240  135.2772  155.1959 H   0  0  0  0  0  0  0  0  0  0  0  0  # atno 10764 bound_to 10752
  154.3696  135.6171  153.5786 H   0  0  0  0  0  0  0  0  0  0  0  0  # atno 10765 bound_to 10752
  139.8774  134.9196  156.4955 H   0  0  0  0  0  0  0  0  0  0  0  0  # atno 11005 bound_to 11000
  144.7745  140.5710  143.6647 LP  0  0  0  0  0  0  0  0  0  0  0  0  # atno 17320 bound_to 7965
  145.5144  139.1478  143.3587 LP  0  0  0  0  0  0  0  0  0  0  0  0  # atno 17321 bound_to 7965
  139.8994  143.6854  152.3133 LP  0  0  0  0  0  0  0  0  0  0  0  0  # atno 17342 bound_to 10162
  139.7198  144.7605  151.0974 LP  0  0  0  0  0  0  0  0  0  0  0  0  # atno 17343 bound_to 10162
  156.2775  130.7052  151.1867 LP  0  0  0  0  0  0  0  0  0  0  0  0  # atno 17370 bound_to 10713
  157.7363  131.0564  150.5422 LP  0  0  0  0  0  0  0  0  0  0  0  0  # atno 17371 bound_to 10713
  140.8628  133.8047  155.9282 LP  0  0  0  0  0  0  0  0  0  0  0  0  # atno 17394 bound_to 11000
  140.9032  134.2352  157.5029 LP  0  0  0  0  0  0  0  0  0  0  0  0  # atno 17395 bound_to 11000

$$$$
