#       Name:                AV-unprocessed.smi:549
#       Creating user name   scv26
#       Creation time:       Thu Mar 26 23:38:50 2020


#       File generated by GOLD software.
#

@<TRIPOS>MOLECULE
AV-unprocessed.smi:549
    46    47     1
SMALL
NO_CHARGES


@<TRIPOS>ATOM
      1 ****        -7.7718  -0.3942   1.0641 C.3            1 S1                 0.0000
      2 ****        -6.8876  -1.5202   0.8059 N.pl3          1 S1                 0.0000
      3 ****        -5.4978  -1.3438   0.7640 C.ar           1 S1                 0.0000
      4 ****        -4.6793  -2.4708   0.5459 C.ar           1 S1                 0.0000
      5 ****        -3.2831  -2.2967   0.5010 C.ar           1 S1                 0.0000
      6 ****        -2.7455  -1.0046   0.6643 C.ar           1 S1                 0.0000
      7 ****        -1.3329  -0.8591   0.6340 N.am           1 S1                 0.0000
      8 ****        -0.6152   0.2467   0.3733 C.2            1 S1                 0.0000
      9 ****        -1.0829   1.3425   0.0647 O.2            1 S1                 0.0000
     10 ****         0.6996   0.0032   0.4666 N.am           1 S1                 0.0000
     11 ****         1.7553   0.9828   0.2284 C.3            1 S1                 0.0000
     12 ****         2.0626   1.1017  -1.2738 C.3            1 S1                 0.0000
     13 ****         3.2270   2.0737  -1.5323 C.3            1 S1                 0.0000
     14 ****         4.4251   1.7119  -0.7484 N.pl3          1 S1                 0.0000
     15 ****         5.7470   0.8790  -1.5151 S.o2           1 S1                 0.0000
     16 ****         5.1541  -0.8549  -1.6756 C.3            1 S1                 0.0000
     17 ****         5.9061   1.4363  -2.8670 O.2            1 S1                 0.0000
     18 ****         6.8856   0.8893  -0.5839 O.2            1 S1                 0.0000
     19 ****         4.1866   1.5436   0.6992 C.3            1 S1                 0.0000
     20 ****         3.0306   0.5664   0.9753 C.3            1 S1                 0.0000
     21 ****        -3.6498   0.0611   0.8910 C.ar           1 S1                 0.0000
     22 ****        -4.9895  -0.1013   0.9375 N.ar           1 S1                 0.0000
     23 ****        -8.8092  -0.7279   1.0631 H              1 S1                 0.0000
     24 ****        -7.6589   0.3713   0.2959 H              1 S1                 0.0000
     25 ****        -7.5573   0.0503   2.0365 H              1 S1                 0.0000
     26 ****        -7.2850  -2.4406   0.6845 H              1 S1                 0.0000
     27 ****        -5.1093  -3.4534   0.4160 H              1 S1                 0.0000
     28 ****        -2.6361  -3.1465   0.3384 H              1 S1                 0.0000
     29 ****        -0.8065  -1.7081   0.7787 H              1 S1                 0.0000
     30 ****         0.9931  -0.9285   0.7210 H              1 S1                 0.0000
     31 ****         1.4364   1.9555   0.6082 H              1 S1                 0.0000
     32 ****         2.3000   0.1201  -1.6827 H              1 S1                 0.0000
     33 ****         1.1790   1.4482  -1.8109 H              1 S1                 0.0000
     34 ****         3.4639   2.1079  -2.5953 H              1 S1                 0.0000
     35 ****         2.9257   3.0838  -1.2524 H              1 S1                 0.0000
     36 ****         5.9325  -1.4535  -2.1482 H              1 S1                 0.0000
     37 ****         4.2599  -0.8856  -2.2957 H              1 S1                 0.0000
     38 ****         4.9411  -1.2674  -0.6912 H              1 S1                 0.0000
     39 ****         5.0950   1.2068   1.1978 H              1 S1                 0.0000
     40 ****         3.9475   2.5193   1.1235 H              1 S1                 0.0000
     41 ****         2.8372   0.5279   2.0479 H              1 S1                 0.0000
     42 ****         3.3199  -0.4426   0.6831 H              1 S1                 0.0000
     43 ****        -3.3117   1.0709   1.0633 H              1 S1                 0.0000
     44 ****        -2.0732   1.4607  -0.0087 LP             1 S1                 0.0000
     45 ****        -0.4727   2.1146  -0.1127 LP             1 S1                 0.0000
     46 ****        -5.5933   0.6797   1.0967 LP             1 S1                 0.0000
@<TRIPOS>BOND
    1    1    2 1     
    2    1   23 1     
    3    1   24 1     
    4    1   25 1     
    5    2    3 1     
    6    2   26 1     
    7    3   22 ar    
    8    3    4 ar    
    9    4    5 ar    
   10    4   27 1     
   11    5    6 ar    
   12    5   28 1     
   13    6    7 1     
   14    6   21 ar    
   15    7    8 am    
   16    7   29 1     
   17    8    9 2     
   18    8   10 am    
   19   10   11 1     
   20   10   30 1     
   21   11   20 1     
   22   11   12 1     
   23   11   31 1     
   24   12   13 1     
   25   12   32 1     
   26   12   33 1     
   27   13   14 1     
   28   13   34 1     
   29   13   35 1     
   30   14   15 1     
   31   14   19 1     
   32   15   16 1     
   33   15   17 2     
   34   15   18 2     
   35   16   36 1     
   36   16   37 1     
   37   16   38 1     
   38   19   20 1     
   39   19   39 1     
   40   19   40 1     
   41   20   41 1     
   42   20   42 1     
   43   21   22 ar    
   44   21   43 1     
   45    9   44 1     
   46    9   45 1     
   47   22   46 1     
@<TRIPOS>SUBSTRUCTURE
      1 S1             1
@<TRIPOS>SET
LONE_PAIRS      STATIC     ATOMS    <user>   **** ""
5 44 45 17 18 46
DONOR_HYDROGENS      STATIC     ATOMS    <user>   **** ""
3 26 29 30
ATOM$BLUE        STATIC     ATOMS    COLORGROUP SYSTEM
5 44 45 17 18 46
ATOM$RED        STATIC     ATOMS    COLORGROUP SYSTEM
3 26 29 30
