AV-unprocessed.smi:2556|AV-procd|sdf|10024|dock3
  -GOLD-   2272014 73D 1   1.00000     0.00000
 Structure written by MMmdl.
 35 37  0  0  0  0  0  0  0  0  1 V2000
  145.9431  142.3439  155.0421 C   0  0  0  0  0  0  0  0  0  0  0  0
  147.2083  141.6308  154.8548 N   0  0  0  0  0  0  0  0  0  0  0  0
  147.5719  141.1017  153.6400 C   0  0  0  0  0  0  0  0  0  0  0  0
  146.8660  141.1956  152.6365 O   0  0  0  0  0  0  0  0  0  0  0  0
  148.7728  140.4483  153.5640 N   0  0  0  0  0  0  0  0  0  0  0  0
  149.6721  140.2568  154.5599 C   0  0  0  0  0  0  0  0  0  0  0  0
  150.7353  139.6569  154.4152 O   0  0  0  0  0  0  0  0  0  0  0  0
  149.2456  140.8439  155.8335 C   0  0  0  0  0  0  0  0  0  0  0  0
  148.0674  141.5031  155.9816 C   0  0  0  0  0  0  0  0  0  0  0  0
  147.9083  141.9604  157.2851 N   0  0  0  0  0  0  0  0  0  0  0  0
  149.0337  141.5398  157.8670 C   0  0  0  0  0  0  0  0  0  0  0  0
  149.8871  140.8660  157.0682 N   0  0  0  0  0  0  0  0  0  0  0  0
  151.1743  140.3039  157.4459 C   0  0  0  0  0  0  0  0  0  0  0  0
  151.6526  140.7873  158.8297 C   0  0  1  0  0  0  0  0  0  0  0  0
  152.8245  140.0891  159.2059 O   0  0  0  0  0  0  0  0  0  0  0  0
  151.8467  142.2955  158.8487 C   0  0  0  0  0  0  0  0  0  0  0  0
  152.2658  142.9549  160.0258 C   0  0  0  0  0  0  0  0  0  0  0  0
  152.4517  144.3510  160.0298 C   0  0  0  0  0  0  0  0  0  0  0  0
  152.2234  145.0959  158.8571 C   0  0  0  0  0  0  0  0  0  0  0  0
  151.8096  144.4436  157.6799 C   0  0  0  0  0  0  0  0  0  0  0  0
  151.6231  143.0474  157.6752 C   0  0  0  0  0  0  0  0  0  0  0  0
  149.0162  140.0660  152.6619 H   0  0  0  0  0  0  0  0  0  0  0  0
  145.3124  142.3722  154.1530 H   0  0  0  0  0  0  0  0  0  0  0  0
  146.1376  143.3749  155.3387 H   0  0  0  0  0  0  0  0  0  0  0  0
  145.3630  141.8712  155.8355 H   0  0  0  0  0  0  0  0  0  0  0  0
  149.2460  141.7310  158.9089 H   0  0  0  0  0  0  0  0  0  0  0  0
  151.0936  139.2160  157.4334 H   0  0  0  0  0  0  0  0  0  0  0  0
  151.9029  140.5641  156.6775 H   0  0  0  0  0  0  0  0  0  0  0  0
  150.8960  140.5358  159.5735 H   0  0  0  0  0  0  0  0  0  0  0  0
  152.9818  140.2434  160.1250 H   0  0  0  0  0  0  0  0  0  0  0  0
  152.4492  142.3923  160.9296 H   0  0  0  0  0  0  0  0  0  0  0  0
  152.7717  144.8500  160.9326 H   0  0  0  0  0  0  0  0  0  0  0  0
  152.3677  146.1663  158.8602 H   0  0  0  0  0  0  0  0  0  0  0  0
  151.6370  145.0142  156.7793 H   0  0  0  0  0  0  0  0  0  0  0  0
  151.3100  142.5553  156.7658 H   0  0  0  0  0  0  0  0  0  0  0  0
  1  2  1  0  0  0  0
  1 23  1  0  0  0  0
  1 24  1  0  0  0  0
  1 25  1  0  0  0  0
  2  9  1  0  0  0  0
  2  3  1  0  0  0  0
  3  4  2  0  0  0  0
  3  5  1  0  0  0  0
  5 22  1  0  0  0  0
  5  6  1  0  0  0  0
  6  7  2  0  0  0  0
  6  8  1  0  0  0  0
  8 12  1  0  0  0  0
  8  9  2  0  0  0  0
  9 10  1  0  0  0  0
 10 11  2  0  0  0  0
 11 12  1  0  0  0  0
 11 26  1  0  0  0  0
 12 13  1  0  0  0  0
 13 14  1  0  0  0  0
 13 27  1  0  0  0  0
 13 28  1  0  0  0  0
 14 15  1  0  0  0  0
 14 16  1  0  0  0  0
 14 29  1  0  0  0  0
 15 30  1  0  0  0  0
 16 21  1  0  0  0  0
 16 17  2  0  0  0  0
 17 18  1  0  0  0  0
 17 31  1  0  0  0  0
 18 19  2  0  0  0  0
 18 32  1  0  0  0  0
 19 20  1  0  0  0  0
 19 33  1  0  0  0  0
 20 21  2  0  0  0  0
 20 34  1  0  0  0  0
 21 35  1  0  0  0  0
M  END
> <s_m_source_file>
AV-unprocessed.smi

> <i_m_source_file_index>
2556

> <i_lp_mmshare_version>
43012

> <i_f3d_flags>
0

> <s_epik_input>
Tz1jMVtuSF1jKD1PKW4oW0NIM10pYyhjMTIpbltjSF1uMltDSDJdW0NASF0oW09IXSljM1tjSF1bY0hdW2NIXVtjSF1bY0hdMw==

> <s_epik_cmdline>
J2VwaWtfcHl0aG9uJywgJy1waCcsICc3LjAnLCAnLXRuJywgJzgnLCAnLW1hJywgJzIwMCcsICctbWV0YWxfYmluZGluZycsICctaW1hZScsICc8aW5maWxlLm1hZT4nLCAnLW9tYWUnLCAnPG91dGZpbGUubWFlPic=

> <r_lp_tautomer_probability>
1

> <r_epik_Ionization_Penalty>
0.000177505

> <r_epik_Ionization_Penalty_Charging>
0.000176585

> <r_epik_Ionization_Penalty_Neutral>
9.19728e-07

> <r_epik_State_Penalty>
-0

> <r_epik_Charging_Adjusted_Penalty>
0.000176585

> <i_epik_Tot_Q>
0

> <i_epik_Tot_abs_Q>
0

> <r_epik_Metal_State_Penalty>
0.122509

> <b_epik_Metal_Only>
0

> <s_lp_Force_Field>
OPLS_2005

> <r_lp_Energy>
28.4521

> <b_lp_Chiralities_Consistent>
1

> <s_lp_Variant>
AV-unprocessed.smi:2556-2

> <Gold.Version>
5.8.1

> <Gold.Id.Protein>
6NUR|6NUR_protein|mol2

> <Gold.PLP.Fitness>
46.2567

> <Gold.PLP.PLP>
-40.5244

> <Gold.PLP.part.hbond>
-2.0000

> <Gold.PLP.part.metal>
0.0000

> <Gold.PLP.part.buried>
-5.2683

> <Gold.PLP.part.nonpolar>
-33.9321

> <Gold.PLP.part.repulsive>
0.6389

> <Gold.PLP.ligand.clash>
0.0000

> <Gold.PLP.ligand.torsion>
0.1451

> <Gold.PLP.Chemscore.Hbond>
2.0000

> <Gold.PLP.Chemscore.CHOScore>
0.0000

> <Gold.PLP.Chemscore.Metal>
0.0000

> <Gold.Chemscore.Hbonds>
donor molecule, donor type, donor heavy atom, donor atom, acceptor molecule, acceptor atom, score
      L1  H     5    22       P1  7957  1.00
      P1  H  7989  7998       L1     7  1.00

> <Gold.PLP.Chemscore.Internal.Correction>
0.0224

> <Gold.Rescore>
     Score         DG    S(hbond)    S(metal)    S(lipo)     H(rot)  DE(clash)    DE(int)     intcor
     16.28     -19.40       2.68        0.00      93.14       2.31       1.69       1.43       ----

> <Gold.Chemscore.Fitness>
16.2791

> <Gold.Chemscore.DG>
-19.3997

> <Gold.Chemscore.ZeroCoef>
-5.4800

> <Gold.Chemscore.Hbond>
2.6767

> <Gold.Chemscore.Metal>
0.0000

> <Gold.Chemscore.Lipo>
93.1364

> <Gold.Chemscore.Internal_Hbond>
0.0000

> <Gold.Chemscore.DEClash>
1.6884

> <Gold.Chemscore.DEInternal>
1.4322

> <Gold.Chemscore.Rot>
2.3115

> <Gold.Chemscore.Internal.Correction>
   9.000000E+99

> <Gold.Chemscore.Hbonds>
donor molecule, donor type, donor heavy atom, donor atom, acceptor molecule, acceptor atom, score
      L1  H     5    22       P1  7957  0.98
      P1  H  7989  7998       L1     7  0.26

> <Gold.Chemscore.Hbond.Weighted>
-8.9401

> <Gold.Chemscore.Metal.Weighted>
-0.0000

> <Gold.Chemscore.Lipo.Weighted>
-10.8970

> <Gold.Chemscore.Internal_Hbond.Weighted>
0.0000

> <Gold.Chemscore.DEClash.Weighted>
1.6884

> <Gold.Chemscore.DEInternal.Weighted>
1.4322

> <Gold.Chemscore.Rot.Weighted>
5.9174

> <Gold.Chemscore.Internal.Correction.Weighted>
   9.000000E+99

> <Gold.Protein.RotatedTorsions>
[ 6907 6896 6895 6894 ] final   56.89 input  -60.11 | X-H torsion
[ 7974 7965 7964 7962 ] final -119.29 input  175.53 | X-H torsion
[ 8008 7997 7996 7995 ] final   20.14 input   59.86 | X-H torsion
[ 10167 10162 10161 10158 ] final  -95.36 input  -65.29 | X-H torsion
[ 10718 10713 10712 10709 ] final   92.21 input   66.30 | X-H torsion
[ 10763 10752 10751 10750 ] final -131.17 input  -60.55 | X-H torsion
[ 11005 11000 10999 10996 ] final -165.64 input  -57.11 | X-H torsion

> <Gold.Protein.ActiveResidues>
 VAL166  LYS551  ARG553  GLY616  TRP617  ASP618  TYR619  PRO620  LYS621  CYS622 
 ASP623  PHE694  ASN695  SER759  ASP760  ASP761  ALA762  ILE779  LEU786  VAL792 
 PHE793  MET794  SER795  GLU796  ALA797  LYS798  CYS799  TRP800  GLU811  SER814 

> <Gold.Protein.RotatedAtoms>
  152.3679  134.6777  160.0185 H   0  0  0  0  0  0  0  0  0  0  0  0  # atno 6907 bound_to 6896
  151.7079  133.3306  159.3291 H   0  0  0  0  0  0  0  0  0  0  0  0  # atno 6908 bound_to 6896
  150.7652  134.6493  159.6324 H   0  0  0  0  0  0  0  0  0  0  0  0  # atno 6909 bound_to 6896
  145.0641  140.8312  143.4134 H   0  0  0  0  0  0  0  0  0  0  0  0  # atno 7974 bound_to 7965
  154.9312  140.3040  155.5167 H   0  0  0  0  0  0  0  0  0  0  0  0  # atno 8008 bound_to 7997
  156.3003  140.2353  156.4308 H   0  0  0  0  0  0  0  0  0  0  0  0  # atno 8009 bound_to 7997
  154.8236  140.0422  157.1416 H   0  0  0  0  0  0  0  0  0  0  0  0  # atno 8010 bound_to 7997
  140.3049  143.3139  152.0209 H   0  0  0  0  0  0  0  0  0  0  0  0  # atno 10167 bound_to 10162
  157.6959  131.0435  150.3847 H   0  0  0  0  0  0  0  0  0  0  0  0  # atno 10718 bound_to 10713
  154.8752  135.3838  154.4203 H   0  0  0  0  0  0  0  0  0  0  0  0  # atno 10763 bound_to 10752
  153.4907  135.7030  153.5891 H   0  0  0  0  0  0  0  0  0  0  0  0  # atno 10764 bound_to 10752
  153.4265  135.3889  155.2111 H   0  0  0  0  0  0  0  0  0  0  0  0  # atno 10765 bound_to 10752
  140.5735  134.5214  157.5166 H   0  0  0  0  0  0  0  0  0  0  0  0  # atno 11005 bound_to 11000
  145.1372  139.2595  143.5509 LP  0  0  0  0  0  0  0  0  0  0  0  0  # atno 17320 bound_to 7965
  146.3526  140.1039  142.8607 LP  0  0  0  0  0  0  0  0  0  0  0  0  # atno 17321 bound_to 7965
  139.4906  144.6428  151.6842 LP  0  0  0  0  0  0  0  0  0  0  0  0  # atno 17342 bound_to 10162
  140.5618  144.0255  150.6173 LP  0  0  0  0  0  0  0  0  0  0  0  0  # atno 17343 bound_to 10162
  156.4257  130.3962  149.6794 LP  0  0  0  0  0  0  0  0  0  0  0  0  # atno 17370 bound_to 10713
  156.4029  130.7684  151.2693 LP  0  0  0  0  0  0  0  0  0  0  0  0  # atno 17371 bound_to 10713
  139.9351  134.7891  156.0826 LP  0  0  0  0  0  0  0  0  0  0  0  0  # atno 17394 bound_to 11000
  141.1041  133.6666  156.2823 LP  0  0  0  0  0  0  0  0  0  0  0  0  # atno 17395 bound_to 11000

$$$$
