AV-unprocessed.smi:738|AV-procd|sdf|3540|dock4
  -GOLD-   22720 0533D 1   1.00000     0.00000
 Structure written by MMmdl.
 35 37  0  0  0  0  0  0  0  0  1 V2000
  147.7342  140.7487  152.4096 N   0  0  0  0  0  0  0  0  0  0  0  0
  147.5063  141.1811  153.6536 C   0  0  0  0  0  0  0  0  0  0  0  0
  146.4137  141.6184  154.0095 O   0  0  0  0  0  0  0  0  0  0  0  0
  148.6827  141.1688  154.5864 C   0  0  0  0  0  0  0  0  0  0  0  0
  148.7003  141.9959  155.7308 C   0  0  0  0  0  0  0  0  0  0  0  0
  149.7164  142.0186  156.6191 N   0  0  0  0  0  0  0  0  0  0  0  0
  150.7744  141.1979  156.4137 C   0  0  0  0  0  0  0  0  0  0  0  0
  151.8259  141.2336  157.3445 N   0  0  0  0  0  0  0  0  0  0  0  0
  152.0413  139.9496  158.0132 C   0  0  0  0  0  0  0  0  0  0  0  0
  153.2387  140.0217  158.9928 C   0  0  0  0  0  0  0  0  0  0  0  0
  153.0973  141.1192  159.9008 O   0  0  0  0  0  0  0  0  0  0  0  0
  152.9869  142.3370  159.1770 C   0  0  2  0  0  0  0  0  0  0  0  0
  152.7916  143.6063  160.0017 C   0  0  0  0  0  0  0  0  0  0  0  0
  152.0885  144.5783  159.0297 C   0  0  0  0  0  0  0  0  0  0  0  0
  151.6116  143.7332  157.8300 C   0  0  0  0  0  0  0  0  0  0  0  0
  151.7187  142.2940  158.3380 C   0  0  1  0  0  0  0  0  0  0  0  0
  150.8480  140.3224  155.3054 C   0  0  0  0  0  0  0  0  0  0  0  0
  152.2077  139.2826  155.0625 Cl  0  0  0  0  0  0  0  0  0  0  0  0
  149.7838  140.3072  154.3831 C   0  0  0  0  0  0  0  0  0  0  0  0
  146.9803  140.7405  151.7379 H   0  0  0  0  0  0  0  0  0  0  0  0
  148.6565  140.4377  152.1422 H   0  0  0  0  0  0  0  0  0  0  0  0
  147.8805  142.6663  155.9439 H   0  0  0  0  0  0  0  0  0  0  0  0
  151.1425  139.6685  158.5642 H   0  0  0  0  0  0  0  0  0  0  0  0
  152.2147  139.1718  157.2683 H   0  0  0  0  0  0  0  0  0  0  0  0
  153.3103  139.0964  159.5643 H   0  0  0  0  0  0  0  0  0  0  0  0
  154.1748  140.1216  158.4412 H   0  0  0  0  0  0  0  0  0  0  0  0
  153.8640  142.4683  158.5384 H   0  0  0  0  0  0  0  0  0  0  0  0
  152.1407  143.4006  160.8524 H   0  0  0  0  0  0  0  0  0  0  0  0
  153.7317  144.0007  160.3884 H   0  0  0  0  0  0  0  0  0  0  0  0
  151.2488  145.0669  159.5252 H   0  0  0  0  0  0  0  0  0  0  0  0
  152.7691  145.3616  158.6946 H   0  0  0  0  0  0  0  0  0  0  0  0
  150.6013  143.9902  157.5106 H   0  0  0  0  0  0  0  0  0  0  0  0
  152.2806  143.8860  156.9817 H   0  0  0  0  0  0  0  0  0  0  0  0
  150.8681  142.0873  158.9910 H   0  0  0  0  0  0  0  0  0  0  0  0
  149.8205  139.6376  153.5362 H   0  0  0  0  0  0  0  0  0  0  0  0
  1  2  1  0  0  0  0
  1 20  1  0  0  0  0
  1 21  1  0  0  0  0
  2  3  2  0  0  0  0
  2  4  1  0  0  0  0
  4 19  1  0  0  0  0
  4  5  2  0  0  0  0
  5  6  1  0  0  0  0
  5 22  1  0  0  0  0
  6  7  2  0  0  0  0
  7  8  1  0  0  0  0
  7 17  1  0  0  0  0
  8 16  1  0  0  0  0
  8  9  1  0  0  0  0
  9 10  1  0  0  0  0
  9 23  1  0  0  0  0
  9 24  1  0  0  0  0
 10 11  1  0  0  0  0
 10 25  1  0  0  0  0
 10 26  1  0  0  0  0
 11 12  1  0  0  0  0
 12 16  1  0  0  0  0
 12 13  1  0  0  0  0
 12 27  1  0  0  0  0
 13 14  1  0  0  0  0
 13 28  1  0  0  0  0
 13 29  1  0  0  0  0
 14 15  1  0  0  0  0
 14 30  1  0  0  0  0
 14 31  1  0  0  0  0
 15 16  1  0  0  0  0
 15 32  1  0  0  0  0
 15 33  1  0  0  0  0
 16 34  1  0  0  0  0
 17 18  1  0  0  0  0
 17 19  2  0  0  0  0
 19 35  1  0  0  0  0
M  END
> <s_m_source_file>
AV-unprocessed.smi

> <i_m_source_file_index>
738

> <i_lp_mmshare_version>
43012

> <i_f3d_flags>
0

> <s_epik_input>
W05IMl1DKD1PKWMxW2NIXW5jKGMoQ2wpW2NIXTEpTihbQ0gyXVtDSDJdTzIpW0NASF0oW0NASF0yMylbQ0gyXVtDSDJdW0NIMl0z

> <s_epik_cmdline>
J2VwaWtfcHl0aG9uJywgJy1waCcsICc3LjAnLCAnLXRuJywgJzgnLCAnLW1hJywgJzIwMCcsICctbWV0YWxfYmluZGluZycsICctaW1hZScsICc8aW5maWxlLm1hZT4nLCAnLW9tYWUnLCAnPG91dGZpbGUubWFlPic=

> <r_lp_tautomer_probability>
1

> <r_epik_Ionization_Penalty>
6.75978e-06

> <r_epik_Ionization_Penalty_Charging>
0

> <r_epik_Ionization_Penalty_Neutral>
6.75978e-06

> <r_epik_State_Penalty>
-0

> <r_epik_Charging_Adjusted_Penalty>
0

> <i_epik_Tot_Q>
0

> <i_epik_Tot_abs_Q>
0

> <r_epik_Metal_State_Penalty>
-0

> <b_epik_Metal_Only>
0

> <s_lp_Force_Field>
OPLS_2005

> <r_lp_Energy>
40.6009

> <b_lp_Chiralities_Consistent>
1

> <s_lp_Variant>
AV-unprocessed.smi:738-3

> <Gold.Version>
5.8.1

> <Gold.Id.Protein>
6NUR|6NUR_protein|mol2

> <Gold.PLP.Fitness>
41.9954

> <Gold.PLP.PLP>
-38.5225

> <Gold.PLP.part.hbond>
-0.6154

> <Gold.PLP.part.metal>
0.0000

> <Gold.PLP.part.buried>
-2.4386

> <Gold.PLP.part.nonpolar>
-35.5178

> <Gold.PLP.part.repulsive>
0.4064

> <Gold.PLP.ligand.clash>
0.0000

> <Gold.PLP.ligand.torsion>
0.2600

> <Gold.PLP.Chemscore.Hbond>
0.8480

> <Gold.PLP.Chemscore.CHOScore>
0.4668

> <Gold.PLP.Chemscore.Metal>
0.0000

> <Gold.Chemscore.Hbonds>
donor molecule, donor type, donor heavy atom, donor atom, acceptor molecule, acceptor atom, score
      L1  H     1    21       P1  7957  0.70
      L1  C     5    22       P1  8028  0.45

> <Gold.PLP.Chemscore.Internal.Correction>
0.0484

> <Gold.Rescore>
     Score         DG    S(hbond)    S(metal)    S(lipo)     H(rot)  DE(clash)    DE(int)     intcor
     16.40     -18.34       0.99        0.00     103.70       1.00       0.19       1.76       ----

> <Gold.Chemscore.Fitness>
16.3981

> <Gold.Chemscore.DG>
-18.3424

> <Gold.Chemscore.ZeroCoef>
-5.4800

> <Gold.Chemscore.Hbond>
0.9850

> <Gold.Chemscore.Metal>
0.0000

> <Gold.Chemscore.Lipo>
103.6956

> <Gold.Chemscore.Internal_Hbond>
0.0000

> <Gold.Chemscore.DEClash>
0.1873

> <Gold.Chemscore.DEInternal>
1.7571

> <Gold.Chemscore.Rot>
1.0000

> <Gold.Chemscore.Internal.Correction>
   9.000000E+99

> <Gold.Chemscore.Hbonds>
donor molecule, donor type, donor heavy atom, donor atom, acceptor molecule, acceptor atom, score
      L1  H     1    21       P1  7957  0.67

> <Gold.Chemscore.Hbond.Weighted>
-3.2901

> <Gold.Chemscore.Metal.Weighted>
-0.0000

> <Gold.Chemscore.Lipo.Weighted>
-12.1324

> <Gold.Chemscore.Internal_Hbond.Weighted>
0.0000

> <Gold.Chemscore.DEClash.Weighted>
0.1873

> <Gold.Chemscore.DEInternal.Weighted>
1.7571

> <Gold.Chemscore.Rot.Weighted>
2.5600

> <Gold.Chemscore.Internal.Correction.Weighted>
   9.000000E+99

> <Gold.Protein.RotatedTorsions>
[ 6907 6896 6895 6894 ] final  127.17 input  -60.11 | X-H torsion
[ 7974 7965 7964 7962 ] final -157.10 input  175.53 | X-H torsion
[ 8008 7997 7996 7995 ] final  -36.57 input   59.86 | X-H torsion
[ 10167 10162 10161 10158 ] final -136.83 input  -65.29 | X-H torsion
[ 10718 10713 10712 10709 ] final  -37.27 input   66.30 | X-H torsion
[ 10763 10752 10751 10750 ] final  146.38 input  -60.55 | X-H torsion
[ 11005 11000 10999 10996 ] final -165.93 input  -57.11 | X-H torsion

> <Gold.Protein.ActiveResidues>
 VAL166  LYS551  ARG553  GLY616  TRP617  ASP618  TYR619  PRO620  LYS621  CYS622 
 ASP623  PHE694  ASN695  SER759  ASP760  ASP761  ALA762  ILE779  LEU786  VAL792 
 PHE793  MET794  SER795  GLU796  ALA797  LYS798  CYS799  TRP800  GLU811  SER814 

> <Gold.Protein.RotatedAtoms>
  152.3837  133.6581  159.6181 H   0  0  0  0  0  0  0  0  0  0  0  0  # atno 6907 bound_to 6896
  150.7761  133.9071  159.3367 H   0  0  0  0  0  0  0  0  0  0  0  0  # atno 6908 bound_to 6896
  151.6872  135.0953  160.0278 H   0  0  0  0  0  0  0  0  0  0  0  0  # atno 6909 bound_to 6896
  144.7563  140.4017  143.6010 H   0  0  0  0  0  0  0  0  0  0  0  0  # atno 7974 bound_to 7965
  154.4070  140.1627  156.2395 H   0  0  0  0  0  0  0  0  0  0  0  0  # atno 8008 bound_to 7997
  155.9213  140.3421  155.6152 H   0  0  0  0  0  0  0  0  0  0  0  0  # atno 8009 bound_to 7997
  155.7218  140.0769  157.2318 H   0  0  0  0  0  0  0  0  0  0  0  0  # atno 8010 bound_to 7997
  139.8639  143.7042  152.2647 H   0  0  0  0  0  0  0  0  0  0  0  0  # atno 10167 bound_to 10162
  156.3172  130.4260  149.7994 H   0  0  0  0  0  0  0  0  0  0  0  0  # atno 10718 bound_to 10713
  154.0209  135.2906  155.3381 H   0  0  0  0  0  0  0  0  0  0  0  0  # atno 10763 bound_to 10752
  154.7047  135.5174  153.8580 H   0  0  0  0  0  0  0  0  0  0  0  0  # atno 10764 bound_to 10752
  153.0681  135.6638  154.0431 H   0  0  0  0  0  0  0  0  0  0  0  0  # atno 10765 bound_to 10752
  140.5702  134.5245  157.5160 H   0  0  0  0  0  0  0  0  0  0  0  0  # atno 11005 bound_to 11000
  145.6767  139.1610  143.2724 LP  0  0  0  0  0  0  0  0  0  0  0  0  # atno 17320 bound_to 7965
  146.1577  140.6833  142.9292 LP  0  0  0  0  0  0  0  0  0  0  0  0  # atno 17321 bound_to 7965
  139.7348  144.7574  151.0745 LP  0  0  0  0  0  0  0  0  0  0  0  0  # atno 17342 bound_to 10162
  140.7771  143.5044  150.9730 LP  0  0  0  0  0  0  0  0  0  0  0  0  # atno 17343 bound_to 10162
  156.5316  130.8260  151.3239 LP  0  0  0  0  0  0  0  0  0  0  0  0  # atno 17370 bound_to 10713
  157.7404  130.9849  150.2375 LP  0  0  0  0  0  0  0  0  0  0  0  0  # atno 17371 bound_to 10713
  139.9365  134.7865  156.0788 LP  0  0  0  0  0  0  0  0  0  0  0  0  # atno 17394 bound_to 11000
  141.1061  133.6659  156.2867 LP  0  0  0  0  0  0  0  0  0  0  0  0  # atno 17395 bound_to 11000

$$$$
