#       Name:                AV-unprocessed.smi:89
#       Creating user name   scv26
#       Creation time:       Thu Mar 26 17:24:14 2020


#       File generated by GOLD software.
#

@<TRIPOS>MOLECULE
AV-unprocessed.smi:89
    62    64     1
SMALL
NO_CHARGES


@<TRIPOS>ATOM
      1 ****        -1.2624   2.7875  -0.4527 C.3            1 S1                 0.0000
      2 ****         0.2112   2.5881  -0.0614 C.3            1 S1                 0.0000
      3 ****         0.8511   1.4631  -0.7464 N.3            1 S1                 0.0000
      4 ****         0.2216   0.2690  -0.6170 C.ar           1 S1                 0.0000
      5 ****        -0.1340  -0.3707  -1.7592 N.ar           1 S1                 0.0000
      6 ****        -0.7668  -1.5454  -1.7023 C.ar           1 S1                 0.0000
      7 ****        -1.1414  -2.2396  -0.6261 N.ar           1 S1                 0.0000
      8 ****        -0.8005  -1.5928   0.5252 C.ar           1 S1                 0.0000
      9 ****        -0.1205  -0.3457   0.6216 C.ar           1 S1                 0.0000
     10 ****         0.0598  -0.0094   1.9579 N.2            1 S1                 0.0000
     11 ****        -0.4816  -0.9993   2.6127 C.2            1 S1                 0.0000
     12 ****        -1.0386  -1.9862   1.8308 N.pl3          1 S1                 0.0000
     13 ****        -1.7163  -3.1868   2.2963 C.3            1 S1                 0.0000
     14 ****        -3.2480  -3.0314   2.4942 C.3            1 S1                 0.0000
     15 ****        -3.7381  -4.2611   2.9922 O.3            1 S1                 0.0000
     16 ****        -3.6523  -1.9009   3.4383 C.3            1 S1                 0.0000
     17 ****        -3.9858  -0.7225   2.5155 C.3            1 S1                 0.0000
     18 ****        -3.9370  -1.2265   1.1856 O.3            1 S1                 0.0000
     19 ****        -4.0123  -2.6432   1.2252 C.3            1 S1                 0.0000
     20 ****         2.3230   1.4405  -0.7599 C.3            1 S1                 0.0000
     21 ****         2.9254   1.1703   0.6320 C.3            1 S1                 0.0000
     22 ****         2.9333   0.4825  -1.8113 C.3            1 S1                 0.0000
     23 ****         2.6180   1.0093  -3.5610 S.o2           1 S1                 0.0000
     24 ****         2.4885  -0.2022  -4.3846 O.2            1 S1                 0.0000
     25 ****         1.5572   2.0284  -3.5822 O.2            1 S1                 0.0000
     26 ****         4.2094   1.8272  -4.0204 C.3            1 S1                 0.0000
     27 ****         4.4617   3.1061  -3.2138 C.3            1 S1                 0.0000
     28 ****        -1.6657   3.6839   0.0179 H              1 S1                 0.0000
     29 ****        -1.8847   1.9485  -0.1403 H              1 S1                 0.0000
     30 ****        -1.3686   2.9033  -1.5318 H              1 S1                 0.0000
     31 ****         0.7609   3.4969  -0.3076 H              1 S1                 0.0000
     32 ****         0.2936   2.4683   1.0184 H              1 S1                 0.0000
     33 ****        -1.0091  -1.9911  -2.6558 H              1 S1                 0.0000
     34 ****        -0.4990  -1.0312   3.6923 H              1 S1                 0.0000
     35 ****        -1.5095  -3.9894   1.5869 H              1 S1                 0.0000
     36 ****        -1.2510  -3.4882   3.2360 H              1 S1                 0.0000
     37 ****        -3.5779  -4.9313   2.3455 H              1 S1                 0.0000
     38 ****        -4.5517  -2.1691   3.9953 H              1 S1                 0.0000
     39 ****        -2.8836  -1.6610   4.1729 H              1 S1                 0.0000
     40 ****        -4.9797  -0.3283   2.7294 H              1 S1                 0.0000
     41 ****        -3.2696   0.0924   2.6227 H              1 S1                 0.0000
     42 ****        -3.6142  -3.1035   0.3211 H              1 S1                 0.0000
     43 ****        -5.0647  -2.9225   1.3040 H              1 S1                 0.0000
     44 ****         2.6316   2.4487  -1.0353 H              1 S1                 0.0000
     45 ****         4.0098   1.2813   0.6130 H              1 S1                 0.0000
     46 ****         2.7092   0.1580   0.9733 H              1 S1                 0.0000
     47 ****         2.5451   1.8665   1.3794 H              1 S1                 0.0000
     48 ****         4.0139   0.4201  -1.6870 H              1 S1                 0.0000
     49 ****         2.5647  -0.5354  -1.6872 H              1 S1                 0.0000
     50 ****         5.0191   1.1114  -3.8793 H              1 S1                 0.0000
     51 ****         4.1634   2.0597  -5.0844 H              1 S1                 0.0000
     52 ****         5.3698   3.6027  -3.5557 H              1 S1                 0.0000
     53 ****         4.5882   2.8906  -2.1535 H              1 S1                 0.0000
     54 ****         3.6375   3.8115  -3.3218 H              1 S1                 0.0000
     55 ****         0.6801   1.6843  -1.7065 LP             1 S1                 0.0000
     56 ****         0.0783   0.0386  -2.6465 LP             1 S1                 0.0000
     57 ****        -1.6120  -3.1214  -0.6594 LP             1 S1                 0.0000
     58 ****         0.5031   0.8051   2.3320 LP             1 S1                 0.0000
     59 ****        -4.7202  -4.1875   3.1658 LP             1 S1                 0.0000
     60 ****        -3.2659  -4.4930   3.8426 LP             1 S1                 0.0000
     61 ****        -3.0795  -0.9483   0.7530 LP             1 S1                 0.0000
     62 ****        -4.7077  -0.8644   0.6614 LP             1 S1                 0.0000
@<TRIPOS>BOND
    1    1    2 1     
    2    1   28 1     
    3    1   29 1     
    4    1   30 1     
    5    2    3 1     
    6    2   31 1     
    7    2   32 1     
    8    3    4 1     
    9    3   20 1     
   10    4    9 ar    
   11    4    5 ar    
   12    5    6 ar    
   13    6    7 ar    
   14    6   33 1     
   15    7    8 ar    
   16    8   12 1     
   17    8    9 ar    
   18    9   10 1     
   19   10   11 2     
   20   11   12 1     
   21   11   34 1     
   22   12   13 1     
   23   13   14 1     
   24   13   35 1     
   25   13   36 1     
   26   14   19 1     
   27   14   15 1     
   28   14   16 1     
   29   15   37 1     
   30   16   17 1     
   31   16   38 1     
   32   16   39 1     
   33   17   18 1     
   34   17   40 1     
   35   17   41 1     
   36   18   19 1     
   37   19   42 1     
   38   19   43 1     
   39   20   21 1     
   40   20   22 1     
   41   20   44 1     
   42   21   45 1     
   43   21   46 1     
   44   21   47 1     
   45   22   23 1     
   46   22   48 1     
   47   22   49 1     
   48   23   24 2     
   49   23   25 2     
   50   23   26 1     
   51   26   27 1     
   52   26   50 1     
   53   26   51 1     
   54   27   52 1     
   55   27   53 1     
   56   27   54 1     
   57    3   55 1     
   58    5   56 1     
   59    7   57 1     
   60   10   58 1     
   61   15   59 1     
   62   15   60 1     
   63   18   61 1     
   64   18   62 1     
@<TRIPOS>SUBSTRUCTURE
      1 S1             1
@<TRIPOS>SET
LONE_PAIRS      STATIC     ATOMS    <user>   **** ""
10 55 56 57 58 59 60 61 62 24 25
DONOR_HYDROGENS      STATIC     ATOMS    <user>   **** ""
1 37
ATOM$BLUE        STATIC     ATOMS    COLORGROUP SYSTEM
10 55 56 57 58 59 60 61 62 24 25
ATOM$RED        STATIC     ATOMS    COLORGROUP SYSTEM
1 37
