AV-unprocessed.smi:185|AV-procd|sdf|1465|dock9
  -GOLD-   2262019273D 1   1.00000     0.00000
 Structure written by MMmdl.
 53 56  0  0  0  0  0  0  0  0  1 V2000
  153.2449  142.5059  162.2039 C   0  0  0  0  0  0  0  0  0  0  0  0
  153.3253  141.9041  160.8751 N   0  0  0  0  0  0  0  0  0  0  0  0
  154.5950  141.2740  160.5160 C   0  0  0  0  0  0  0  0  0  0  0  0
  155.0437  140.2139  161.5409 C   0  0  0  0  0  0  0  0  0  0  0  0
  154.4999  138.8995  161.2157 N   0  0  0  0  0  0  0  0  0  0  0  0
  154.1901  137.9404  162.2625 C   0  0  0  0  0  0  0  0  0  0  0  0
  153.8647  136.6338  161.5239 C   0  0  0  0  0  0  0  0  0  0  0  0
  153.6952  137.0168  160.0494 C   0  0  0  0  0  0  0  0  0  0  0  0
  154.2482  138.4304  159.9875 C   0  0  0  0  0  0  0  0  0  0  0  0
  154.4284  139.0310  158.9285 O   0  0  0  0  0  0  0  0  0  0  0  0
  152.5919  142.4640  159.8703 C   0  0  0  0  0  0  0  0  0  0  0  0
  152.3763  143.8080  159.8806 N   0  0  0  0  0  0  0  0  0  0  0  0
  151.7014  144.4006  158.8922 C   0  0  0  0  0  0  0  0  0  0  0  0
  151.1620  143.8499  157.8051 N   0  0  0  0  0  0  0  0  0  0  0  0
  151.3576  142.5010  157.7877 C   0  0  0  0  0  0  0  0  0  0  0  0
  152.0413  141.7320  158.7743 C   0  0  0  0  0  0  0  0  0  0  0  0
  152.0016  140.3875  158.4194 N   0  0  0  0  0  0  0  0  0  0  0  0
  151.3642  140.3670  157.2824 C   0  0  0  0  0  0  0  0  0  0  0  0
  150.9552  141.5961  156.8209 N   0  0  0  0  0  0  0  0  0  0  0  0
  150.2451  141.8661  155.5803 C   0  0  0  0  0  0  0  0  0  0  0  0
  148.7503  141.4578  155.6130 C   0  0  0  0  0  0  0  0  0  0  0  0
  148.6887  140.0436  155.6798 O   0  0  0  0  0  0  0  0  0  0  0  0
  148.0006  142.0336  156.8352 C   0  0  0  0  0  0  0  0  0  0  0  0
  146.4818  141.8016  156.7464 C   0  0  0  0  0  0  0  0  0  0  0  0
  145.9755  142.3292  155.5264 O   0  0  0  0  0  0  0  0  0  0  0  0
  146.5204  141.6846  154.3815 C   0  0  0  0  0  0  0  0  0  0  0  0
  148.0413  141.9137  154.3218 C   0  0  0  0  0  0  0  0  0  0  0  0
  152.2066  142.6147  162.5197 H   0  0  0  0  0  0  0  0  0  0  0  0
  153.7185  143.4884  162.2148 H   0  0  0  0  0  0  0  0  0  0  0  0
  153.7486  141.8804  162.9413 H   0  0  0  0  0  0  0  0  0  0  0  0
  154.4854  140.7981  159.5410 H   0  0  0  0  0  0  0  0  0  0  0  0
  155.3667  142.0253  160.3691 H   0  0  0  0  0  0  0  0  0  0  0  0
  156.1319  140.1367  161.5655 H   0  0  0  0  0  0  0  0  0  0  0  0
  154.7364  140.5081  162.5451 H   0  0  0  0  0  0  0  0  0  0  0  0
  155.0272  137.8157  162.9504 H   0  0  0  0  0  0  0  0  0  0  0  0
  153.3293  138.2947  162.8314 H   0  0  0  0  0  0  0  0  0  0  0  0
  154.6898  135.9281  161.6300 H   0  0  0  0  0  0  0  0  0  0  0  0
  152.9712  136.1553  161.9263 H   0  0  0  0  0  0  0  0  0  0  0  0
  154.2381  136.3459  159.3829 H   0  0  0  0  0  0  0  0  0  0  0  0
  152.6443  137.0263  159.7587 H   0  0  0  0  0  0  0  0  0  0  0  0
  151.5836  145.4703  158.9818 H   0  0  0  0  0  0  0  0  0  0  0  0
  151.1846  139.4499  156.7407 H   0  0  0  0  0  0  0  0  0  0  0  0
  150.3349  142.9329  155.3711 H   0  0  0  0  0  0  0  0  0  0  0  0
  150.7628  141.3542  154.7677 H   0  0  0  0  0  0  0  0  0  0  0  0
  148.8617  139.6938  154.8193 H   0  0  0  0  0  0  0  0  0  0  0  0
  148.3787  141.6039  157.7639 H   0  0  0  0  0  0  0  0  0  0  0  0
  148.1846  143.1071  156.8962 H   0  0  0  0  0  0  0  0  0  0  0  0
  146.2414  140.7402  156.8246 H   0  0  0  0  0  0  0  0  0  0  0  0
  145.9811  142.2987  157.5773 H   0  0  0  0  0  0  0  0  0  0  0  0
  146.2821  140.6201  154.4000 H   0  0  0  0  0  0  0  0  0  0  0  0
  146.0472  142.0970  153.4902 H   0  0  0  0  0  0  0  0  0  0  0  0
  148.2222  142.9785  154.1677 H   0  0  0  0  0  0  0  0  0  0  0  0
  148.4622  141.4044  153.4537 H   0  0  0  0  0  0  0  0  0  0  0  0
  1  2  1  0  0  0  0
  1 28  1  0  0  0  0
  1 29  1  0  0  0  0
  1 30  1  0  0  0  0
  2  3  1  0  0  0  0
  2 11  1  0  0  0  0
  3  4  1  0  0  0  0
  3 31  1  0  0  0  0
  3 32  1  0  0  0  0
  4  5  1  0  0  0  0
  4 33  1  0  0  0  0
  4 34  1  0  0  0  0
  5  9  1  0  0  0  0
  5  6  1  0  0  0  0
  6  7  1  0  0  0  0
  6 35  1  0  0  0  0
  6 36  1  0  0  0  0
  7  8  1  0  0  0  0
  7 37  1  0  0  0  0
  7 38  1  0  0  0  0
  8  9  1  0  0  0  0
  8 39  1  0  0  0  0
  8 40  1  0  0  0  0
  9 10  2  0  0  0  0
 11 16  1  0  0  0  0
 11 12  2  0  0  0  0
 12 13  1  0  0  0  0
 13 14  2  0  0  0  0
 13 41  1  0  0  0  0
 14 15  1  0  0  0  0
 15 19  1  0  0  0  0
 15 16  2  0  0  0  0
 16 17  1  0  0  0  0
 17 18  2  0  0  0  0
 18 19  1  0  0  0  0
 18 42  1  0  0  0  0
 19 20  1  0  0  0  0
 20 21  1  0  0  0  0
 20 43  1  0  0  0  0
 20 44  1  0  0  0  0
 21 27  1  0  0  0  0
 21 22  1  0  0  0  0
 21 23  1  0  0  0  0
 22 45  1  0  0  0  0
 23 24  1  0  0  0  0
 23 46  1  0  0  0  0
 23 47  1  0  0  0  0
 24 25  1  0  0  0  0
 24 48  1  0  0  0  0
 24 49  1  0  0  0  0
 25 26  1  0  0  0  0
 26 27  1  0  0  0  0
 26 50  1  0  0  0  0
 26 51  1  0  0  0  0
 27 52  1  0  0  0  0
 27 53  1  0  0  0  0
M  END
> <s_m_source_file>
AV-unprocessed.smi

> <i_m_source_file_index>
185

> <i_lp_mmshare_version>
43012

> <i_f3d_flags>
0

> <s_epik_input>
Tz1DMVtDSDJdW0NIMl1bQ0gyXU4xW0NIMl1bQ0gyXU4oW0NIM10pYyhuW2NIXW4yKWMoYzIzKW5bY0hdbjNbQ0gyXUM0KFtPSF0pW0NIMl1bQ0gyXU9bQ0gyXVtDSDJdNA==

> <s_epik_cmdline>
J2VwaWtfcHl0aG9uJywgJy1waCcsICc3LjAnLCAnLXRuJywgJzgnLCAnLW1hJywgJzIwMCcsICctbWV0YWxfYmluZGluZycsICctaW1hZScsICc8aW5maWxlLm1hZT4nLCAnLW9tYWUnLCAnPG91dGZpbGUubWFlPic=

> <r_lp_tautomer_probability>
1

> <r_epik_Ionization_Penalty>
0.00150291

> <r_epik_Ionization_Penalty_Charging>
0

> <r_epik_Ionization_Penalty_Neutral>
0.00150291

> <r_epik_State_Penalty>
0.000836254

> <r_epik_Charging_Adjusted_Penalty>
0.000836254

> <i_epik_Tot_Q>
0

> <i_epik_Tot_abs_Q>
0

> <r_epik_Metal_State_Penalty>
-0

> <b_epik_Metal_Only>
0

> <s_lp_Force_Field>
OPLS_2005

> <r_lp_Energy>
31.6945

> <b_lp_Chiralities_Consistent>
1

> <s_lp_Variant>
AV-unprocessed.smi:185-1

> <Gold.Version>
5.8.1

> <Gold.Id.Protein>
6NUR|6NUR_protein|mol2

> <Gold.PLP.Fitness>
51.0910

> <Gold.PLP.PLP>
-50.9859

> <Gold.PLP.part.hbond>
-1.0000

> <Gold.PLP.part.metal>
0.0000

> <Gold.PLP.part.buried>
-6.2227

> <Gold.PLP.part.nonpolar>
-43.8878

> <Gold.PLP.part.repulsive>
0.4086

> <Gold.PLP.ligand.clash>
0.0000

> <Gold.PLP.ligand.torsion>
1.7592

> <Gold.PLP.Chemscore.Hbond>
1.0000

> <Gold.PLP.Chemscore.CHOScore>
0.0000

> <Gold.PLP.Chemscore.Metal>
0.0000

> <Gold.Chemscore.Hbonds>
donor molecule, donor type, donor heavy atom, donor atom, acceptor molecule, acceptor atom, score
      P1  H  7997  8009       L1    10  0.93

> <Gold.PLP.Chemscore.Internal.Correction>
0.6234

> <Gold.Rescore>
     Score         DG    S(hbond)    S(metal)    S(lipo)     H(rot)  DE(clash)    DE(int)     intcor
      9.09     -11.89       0.97        0.00      86.70       2.73       0.21       2.58       ----

> <Gold.Chemscore.Fitness>
9.0925

> <Gold.Chemscore.DG>
-11.8854

> <Gold.Chemscore.ZeroCoef>
-5.4800

> <Gold.Chemscore.Hbond>
0.9746

> <Gold.Chemscore.Metal>
0.0000

> <Gold.Chemscore.Lipo>
86.6983

> <Gold.Chemscore.Internal_Hbond>
0.0000

> <Gold.Chemscore.DEClash>
0.2112

> <Gold.Chemscore.DEInternal>
2.5817

> <Gold.Chemscore.Rot>
2.7318

> <Gold.Chemscore.Internal.Correction>
   9.000000E+99

> <Gold.Chemscore.Hbonds>
donor molecule, donor type, donor heavy atom, donor atom, acceptor molecule, acceptor atom, score
      P1  H  7997  8009       L1    10  0.85

> <Gold.Chemscore.Hbond.Weighted>
-3.2550

> <Gold.Chemscore.Metal.Weighted>
-0.0000

> <Gold.Chemscore.Lipo.Weighted>
-10.1437

> <Gold.Chemscore.Internal_Hbond.Weighted>
0.0000

> <Gold.Chemscore.DEClash.Weighted>
0.2112

> <Gold.Chemscore.DEInternal.Weighted>
2.5817

> <Gold.Chemscore.Rot.Weighted>
6.9933

> <Gold.Chemscore.Internal.Correction.Weighted>
   9.000000E+99

> <Gold.Protein.RotatedTorsions>
[ 6907 6896 6895 6894 ] final   16.99 input  -60.11 | X-H torsion
[ 7974 7965 7964 7962 ] final  -63.59 input  175.53 | X-H torsion
[ 8008 7997 7996 7995 ] final  146.12 input   59.86 | X-H torsion
[ 10167 10162 10161 10158 ] final   37.64 input  -65.29 | X-H torsion
[ 10718 10713 10712 10709 ] final  -85.46 input   66.30 | X-H torsion
[ 10763 10752 10751 10750 ] final  125.55 input  -60.55 | X-H torsion
[ 11005 11000 10999 10996 ] final  -46.74 input  -57.11 | X-H torsion

> <Gold.Protein.ActiveResidues>
 VAL166  LYS551  ARG553  GLY616  TRP617  ASP618  TYR619  PRO620  LYS621  CYS622 
 ASP623  PHE694  ASN695  SER759  ASP760  ASP761  ALA762  ILE779  LEU786  VAL792 
 PHE793  MET794  SER795  GLU796  ALA797  LYS798  CYS799  TRP800  GLU811  SER814 

> <Gold.Protein.RotatedAtoms>
  151.8425  135.0585  160.0449 H   0  0  0  0  0  0  0  0  0  0  0  0  # atno 6907 bound_to 6896
  152.2798  133.5455  159.5499 H   0  0  0  0  0  0  0  0  0  0  0  0  # atno 6908 bound_to 6896
  150.7185  134.0496  159.3836 H   0  0  0  0  0  0  0  0  0  0  0  0  # atno 6909 bound_to 6896
  145.7771  140.8782  143.0349 H   0  0  0  0  0  0  0  0  0  0  0  0  # atno 7974 bound_to 7965
  156.2864  140.2191  156.5325 H   0  0  0  0  0  0  0  0  0  0  0  0  # atno 8008 bound_to 7997
  154.7437  140.0486  157.0855 H   0  0  0  0  0  0  0  0  0  0  0  0  # atno 8009 bound_to 7997
  155.0198  140.3123  155.4801 H   0  0  0  0  0  0  0  0  0  0  0  0  # atno 8010 bound_to 7997
  140.4013  144.1719  150.6134 H   0  0  0  0  0  0  0  0  0  0  0  0  # atno 10167 bound_to 10162
  155.9996  130.4732  150.4566 H   0  0  0  0  0  0  0  0  0  0  0  0  # atno 10718 bound_to 10713
  153.6791  135.3317  155.3173 H   0  0  0  0  0  0  0  0  0  0  0  0  # atno 10763 bound_to 10752
  154.8471  135.4404  154.1625 H   0  0  0  0  0  0  0  0  0  0  0  0  # atno 10764 bound_to 10752
  153.2637  135.6993  153.7629 H   0  0  0  0  0  0  0  0  0  0  0  0  # atno 10765 bound_to 10752
  141.0598  133.6713  156.3198 H   0  0  0  0  0  0  0  0  0  0  0  0  # atno 11005 bound_to 11000
  144.6802  139.9937  143.7484 LP  0  0  0  0  0  0  0  0  0  0  0  0  # atno 17320 bound_to 7965
  146.0111  139.3171  143.0869 LP  0  0  0  0  0  0  0  0  0  0  0  0  # atno 17321 bound_to 7965
  140.4736  143.2404  151.9054 LP  0  0  0  0  0  0  0  0  0  0  0  0  # atno 17342 bound_to 10162
  139.4784  144.5343  151.8621 LP  0  0  0  0  0  0  0  0  0  0  0  0  # atno 17343 bound_to 10162
  157.2594  131.0563  151.2330 LP  0  0  0  0  0  0  0  0  0  0  0  0  # atno 17370 bound_to 10713
  157.3450  130.7053  149.6405 LP  0  0  0  0  0  0  0  0  0  0  0  0  # atno 17371 bound_to 10713
  140.5892  134.5668  157.5496 LP  0  0  0  0  0  0  0  0  0  0  0  0  # atno 17394 bound_to 11000
  139.9422  134.7766  156.0650 LP  0  0  0  0  0  0  0  0  0  0  0  0  # atno 17395 bound_to 11000

$$$$
