AV-unprocessed.smi:2779|AV-procd|sdf|10712|dock6
  -GOLD-   2272015153D 1   1.00000     0.00000
 Structure written by MMmdl.
 38 39  0  0  0  0  0  0  0  0  1 V2000
  149.6416  135.6302  157.5147 O   0  0  0  0  0  0  0  0  0  0  0  0
  148.9775  135.7433  158.5446 C   0  0  0  0  0  0  0  0  0  0  0  0
  148.1798  134.6556  159.1056 C   0  0  0  0  0  0  0  0  0  0  0  0
  147.4658  134.8104  160.2410 C   0  0  0  0  0  0  0  0  0  0  0  0
  147.4836  136.0906  160.9289 C   0  0  0  0  0  0  0  0  0  0  0  0
  146.7221  136.3631  162.2027 C   0  0  0  0  0  0  0  0  0  0  0  0
  146.1321  135.2564  162.6554 F   0  0  0  0  0  0  0  0  0  0  0  0
  147.5506  136.8163  163.1441 F   0  0  0  0  0  0  0  0  0  0  0  0
  145.7835  137.2851  161.9865 F   0  0  0  0  0  0  0  0  0  0  0  0
  148.1864  137.0589  160.4357 N   0  0  0  0  0  0  0  0  0  0  0  0
  148.9192  136.8966  159.2719 N   0  0  0  0  0  0  0  0  0  0  0  0
  149.6798  138.0868  158.8740 C   0  0  0  0  0  0  0  0  0  0  0  0
  149.3891  138.4882  157.4108 C   0  0  1  0  0  0  0  0  0  0  0  0
  148.0221  138.8257  157.2855 O   0  0  0  0  0  0  0  0  0  0  0  0
  150.1960  139.7193  156.9702 C   0  0  0  0  0  0  0  0  0  0  0  0
  149.4933  140.8940  157.3420 O   0  0  0  0  0  0  0  0  0  0  0  0
  150.1783  142.0820  156.9846 C   0  0  0  0  0  0  0  0  0  0  0  0
  151.0242  142.5943  158.1321 C   0  0  0  0  0  0  0  0  0  0  0  0
  151.8989  141.7177  158.8072 C   0  0  0  0  0  0  0  0  0  0  0  0
  152.6876  142.1888  159.8749 C   0  0  0  0  0  0  0  0  0  0  0  0
  152.6064  143.5386  160.2688 C   0  0  0  0  0  0  0  0  0  0  0  0
  151.7364  144.4172  159.5944 C   0  0  0  0  0  0  0  0  0  0  0  0
  150.9463  143.9462  158.5275 C   0  0  0  0  0  0  0  0  0  0  0  0
  149.6073  137.6628  156.7317 H   0  0  0  0  0  0  0  0  0  0  0  0
  148.1634  133.7025  158.5974 H   0  0  0  0  0  0  0  0  0  0  0  0
  146.8844  133.9913  160.6374 H   0  0  0  0  0  0  0  0  0  0  0  0
  149.5186  138.9260  159.5535 H   0  0  0  0  0  0  0  0  0  0  0  0
  150.7397  137.8488  158.9804 H   0  0  0  0  0  0  0  0  0  0  0  0
  147.5180  138.2504  157.8404 H   0  0  0  0  0  0  0  0  0  0  0  0
  151.1728  139.7184  157.4573 H   0  0  0  0  0  0  0  0  0  0  0  0
  150.3663  139.7012  155.8922 H   0  0  0  0  0  0  0  0  0  0  0  0
  150.8121  141.8996  156.1152 H   0  0  0  0  0  0  0  0  0  0  0  0
  149.4633  142.8568  156.7028 H   0  0  0  0  0  0  0  0  0  0  0  0
  151.9663  140.6822  158.5074 H   0  0  0  0  0  0  0  0  0  0  0  0
  153.3552  141.5149  160.3916 H   0  0  0  0  0  0  0  0  0  0  0  0
  153.2114  143.8998  161.0874 H   0  0  0  0  0  0  0  0  0  0  0  0
  151.6754  145.4527  159.8952 H   0  0  0  0  0  0  0  0  0  0  0  0
  150.2821  144.6259  158.0139 H   0  0  0  0  0  0  0  0  0  0  0  0
  1  2  2  0  0  0  0
  2 11  1  0  0  0  0
  2  3  1  0  0  0  0
  3  4  2  0  0  0  0
  3 25  1  0  0  0  0
  4  5  1  0  0  0  0
  4 26  1  0  0  0  0
  5  6  1  0  0  0  0
  5 10  2  0  0  0  0
  6  7  1  0  0  0  0
  6  8  1  0  0  0  0
  6  9  1  0  0  0  0
 10 11  1  0  0  0  0
 11 12  1  0  0  0  0
 12 13  1  0  0  0  0
 12 27  1  0  0  0  0
 12 28  1  0  0  0  0
 13 24  1  0  0  0  0
 13 14  1  0  0  0  0
 13 15  1  0  0  0  0
 14 29  1  0  0  0  0
 15 16  1  0  0  0  0
 15 30  1  0  0  0  0
 15 31  1  0  0  0  0
 16 17  1  0  0  0  0
 17 18  1  0  0  0  0
 17 32  1  0  0  0  0
 17 33  1  0  0  0  0
 18 23  1  0  0  0  0
 18 19  2  0  0  0  0
 19 20  1  0  0  0  0
 19 34  1  0  0  0  0
 20 21  2  0  0  0  0
 20 35  1  0  0  0  0
 21 22  1  0  0  0  0
 21 36  1  0  0  0  0
 22 23  2  0  0  0  0
 22 37  1  0  0  0  0
 23 38  1  0  0  0  0
M  END
> <s_m_source_file>
AV-unprocessed.smi

> <i_m_source_file_index>
2779

> <i_lp_mmshare_version>
43012

> <i_f3d_flags>
0

> <s_epik_input>
Tz1jMVtjSF1bY0hdYyhDKEYpKEYpRilubjFbQ0gyXVtDQEhdKFtPSF0pW0NIMl1PW0NIMl1jMltjSF1bY0hdW2NIXVtjSF1bY0hdMg==

> <s_epik_cmdline>
J2VwaWtfcHl0aG9uJywgJy1waCcsICc3LjAnLCAnLXRuJywgJzgnLCAnLW1hJywgJzIwMCcsICctbWV0YWxfYmluZGluZycsICctaW1hZScsICc8aW5maWxlLm1hZT4nLCAnLW9tYWUnLCAnPG91dGZpbGUubWFlPic=

> <r_lp_tautomer_probability>
1

> <r_epik_Ionization_Penalty>
6.7226e-08

> <r_epik_Ionization_Penalty_Charging>
6.11342e-09

> <r_epik_Ionization_Penalty_Neutral>
6.11126e-08

> <r_epik_State_Penalty>
-0

> <r_epik_Charging_Adjusted_Penalty>
6.11342e-09

> <i_epik_Tot_Q>
0

> <i_epik_Tot_abs_Q>
0

> <r_epik_Metal_State_Penalty>
-0

> <b_epik_Metal_Only>
0

> <s_lp_Force_Field>
OPLS_2005

> <r_lp_Energy>
32.3095

> <b_lp_Chiralities_Consistent>
1

> <s_lp_Variant>
AV-unprocessed.smi:2779-2

> <Gold.Version>
5.8.1

> <Gold.Id.Protein>
6NUR|6NUR_protein|mol2

> <Gold.PLP.Fitness>
46.6303

> <Gold.PLP.PLP>
-45.3797

> <Gold.PLP.part.hbond>
-1.5064

> <Gold.PLP.part.metal>
0.0000

> <Gold.PLP.part.buried>
-5.4732

> <Gold.PLP.part.nonpolar>
-39.0257

> <Gold.PLP.part.repulsive>
0.0359

> <Gold.PLP.ligand.clash>
0.0000

> <Gold.PLP.ligand.torsion>
0.7461

> <Gold.PLP.Chemscore.Hbond>
0.8632

> <Gold.PLP.Chemscore.CHOScore>
0.0000

> <Gold.PLP.Chemscore.Metal>
0.0000

> <Gold.Chemscore.Hbonds>
donor molecule, donor type, donor heavy atom, donor atom, acceptor molecule, acceptor atom, score
      P1  H  6931  6943       L1    10  0.71
      P1  H  6934  6947       L1    10  0.32

> <Gold.PLP.Chemscore.Internal.Correction>
0.1532

> <Gold.Rescore>
     Score         DG    S(hbond)    S(metal)    S(lipo)     H(rot)  DE(clash)    DE(int)     intcor
     11.64     -13.66       1.01        0.00     102.45       2.80       0.11       1.91       ----

> <Gold.Chemscore.Fitness>
11.6397

> <Gold.Chemscore.DG>
-13.6622

> <Gold.Chemscore.ZeroCoef>
-5.4800

> <Gold.Chemscore.Hbond>
1.0087

> <Gold.Chemscore.Metal>
0.0000

> <Gold.Chemscore.Lipo>
102.4519

> <Gold.Chemscore.Internal_Hbond>
0.0000

> <Gold.Chemscore.DEClash>
0.1083

> <Gold.Chemscore.DEInternal>
1.9142

> <Gold.Chemscore.Rot>
2.8022

> <Gold.Chemscore.Internal.Correction>
   9.000000E+99

> <Gold.Chemscore.Hbonds>
donor molecule, donor type, donor heavy atom, donor atom, acceptor molecule, acceptor atom, score
      P1  H  6931  6943       L1    10  0.54
      P1  H  6934  6947       L1    10  0.23

> <Gold.Chemscore.Hbond.Weighted>
-3.3689

> <Gold.Chemscore.Metal.Weighted>
-0.0000

> <Gold.Chemscore.Lipo.Weighted>
-11.9869

> <Gold.Chemscore.Internal_Hbond.Weighted>
0.0000

> <Gold.Chemscore.DEClash.Weighted>
0.1083

> <Gold.Chemscore.DEInternal.Weighted>
1.9142

> <Gold.Chemscore.Rot.Weighted>
7.1736

> <Gold.Chemscore.Internal.Correction.Weighted>
   9.000000E+99

> <Gold.Protein.RotatedTorsions>
[ 6907 6896 6895 6894 ] final  -91.03 input  -60.11 | X-H torsion
[ 7974 7965 7964 7962 ] final   42.38 input  175.53 | X-H torsion
[ 8008 7997 7996 7995 ] final -107.08 input   59.86 | X-H torsion
[ 10167 10162 10161 10158 ] final    8.06 input  -65.29 | X-H torsion
[ 10718 10713 10712 10709 ] final  172.98 input   66.30 | X-H torsion
[ 10763 10752 10751 10750 ] final   46.78 input  -60.55 | X-H torsion
[ 11005 11000 10999 10996 ] final  156.28 input  -57.11 | X-H torsion

> <Gold.Protein.ActiveResidues>
 VAL166  LYS551  ARG553  GLY616  TRP617  ASP618  TYR619  PRO620  LYS621  CYS622 
 ASP623  PHE694  ASN695  SER759  ASP760  ASP761  ALA762  ILE779  LEU786  VAL792 
 PHE793  MET794  SER795  GLU796  ALA797  LYS798  CYS799  TRP800  GLU811  SER814 

> <Gold.Protein.RotatedAtoms>
  150.6888  134.2340  159.4445 H   0  0  0  0  0  0  0  0  0  0  0  0  # atno 6907 bound_to 6896
  152.0288  134.9777  160.0581 H   0  0  0  0  0  0  0  0  0  0  0  0  # atno 6908 bound_to 6896
  152.1325  133.4381  159.4764 H   0  0  0  0  0  0  0  0  0  0  0  0  # atno 6909 bound_to 6896
  146.0745  139.5307  142.9576 H   0  0  0  0  0  0  0  0  0  0  0  0  # atno 7974 bound_to 7965
  154.9241  140.0406  157.2013 H   0  0  0  0  0  0  0  0  0  0  0  0  # atno 8008 bound_to 7997
  154.8225  140.2886  155.5755 H   0  0  0  0  0  0  0  0  0  0  0  0  # atno 8009 bound_to 7997
  156.2981  140.2516  156.3135 H   0  0  0  0  0  0  0  0  0  0  0  0  # atno 8010 bound_to 7997
  140.6336  143.7937  150.7329 H   0  0  0  0  0  0  0  0  0  0  0  0  # atno 10167 bound_to 10162
  156.9710  131.0090  151.2905 H   0  0  0  0  0  0  0  0  0  0  0  0  # atno 10718 bound_to 10713
  152.9807  135.5997  154.3656 H   0  0  0  0  0  0  0  0  0  0  0  0  # atno 10763 bound_to 10752
  154.3334  135.2768  155.2462 H   0  0  0  0  0  0  0  0  0  0  0  0  # atno 10764 bound_to 10752
  154.4576  135.5974  153.6289 H   0  0  0  0  0  0  0  0  0  0  0  0  # atno 10765 bound_to 10752
  140.1660  134.8576  157.2633 H   0  0  0  0  0  0  0  0  0  0  0  0  # atno 11005 bound_to 11000
  145.6331  141.0300  143.1852 LP  0  0  0  0  0  0  0  0  0  0  0  0  # atno 17320 bound_to 7965
  144.7253  139.7897  143.7367 LP  0  0  0  0  0  0  0  0  0  0  0  0  # atno 17321 bound_to 7965
  140.1554  143.4321  152.2103 LP  0  0  0  0  0  0  0  0  0  0  0  0  # atno 17342 bound_to 10162
  139.5548  144.7365  151.4327 LP  0  0  0  0  0  0  0  0  0  0  0  0  # atno 17343 bound_to 10162
  157.5592  130.8234  149.8244 LP  0  0  0  0  0  0  0  0  0  0  0  0  # atno 17370 bound_to 10713
  156.0283  130.3772  150.1761 LP  0  0  0  0  0  0  0  0  0  0  0  0  # atno 17371 bound_to 10713
  140.2433  134.3770  155.7472 LP  0  0  0  0  0  0  0  0  0  0  0  0  # atno 17394 bound_to 11000
  141.2213  133.7277  156.8822 LP  0  0  0  0  0  0  0  0  0  0  0  0  # atno 17395 bound_to 11000

$$$$
