AV-unprocessed.smi:2976|AV-procd|sdf|11361|dock10
  -GOLD-   2272016273D 1   1.00000     0.00000
 Structure written by MMmdl.
 40 41  0  0  0  0  0  0  0  0  1 V2000
  152.0050  145.1696  160.3919 C   0  0  0  0  0  0  0  0  0  0  0  0
  152.2688  144.0844  159.3316 C   0  0  2  0  0  0  0  0  0  0  0  0
  151.2924  144.2709  158.1527 C   0  0  0  0  0  0  0  0  0  0  0  0
  151.5254  143.2362  157.0466 C   0  0  0  0  0  0  0  0  0  0  0  0
  151.4052  141.8157  157.6059 C   0  0  0  0  0  0  0  0  0  0  0  0
  152.3841  141.5898  158.7714 C   0  0  2  0  0  0  0  0  0  0  0  0
  152.1941  140.2315  159.2798 N   0  0  0  0  0  0  0  0  0  0  0  0
  153.1185  139.2585  159.2945 C   0  0  0  0  0  0  0  0  0  0  0  0
  154.2566  139.3948  158.8437 O   0  0  0  0  0  0  0  0  0  0  0  0
  152.6785  137.9203  159.9045 C   0  0  0  0  0  0  0  0  0  0  0  0
  153.7826  137.1975  160.5525 N   0  0  0  0  0  0  0  0  0  0  0  0
  153.9831  135.9172  160.0664 N   0  0  0  0  0  0  0  0  0  0  0  0
  154.9418  135.2007  160.5434 C   0  0  0  0  0  0  0  0  0  0  0  0
  155.8228  135.6857  161.5830 C   0  0  0  0  0  0  0  0  0  0  0  0
  157.0933  134.6784  162.1824 Cl  0  0  0  0  0  0  0  0  0  0  0  0
  155.6120  136.9388  162.0589 C   0  0  0  0  0  0  0  0  0  0  0  0
  156.6236  137.5877  163.3042 Cl  0  0  0  0  0  0  0  0  0  0  0  0
  154.5288  137.7849  161.5385 C   0  0  0  0  0  0  0  0  0  0  0  0
  154.3040  138.9262  161.9446 O   0  0  0  0  0  0  0  0  0  0  0  0
  152.1929  142.6389  159.9016 C   0  0  1  0  0  0  0  0  0  0  0  0
  153.2052  142.4153  161.0472 C   0  0  0  0  0  0  0  0  0  0  0  0
  151.0432  145.0196  160.8830 H   0  0  0  0  0  0  0  0  0  0  0  0
  151.9933  146.1620  159.9399 H   0  0  0  0  0  0  0  0  0  0  0  0
  152.7775  145.1866  161.1599 H   0  0  0  0  0  0  0  0  0  0  0  0
  153.2784  144.2416  158.9486 H   0  0  0  0  0  0  0  0  0  0  0  0
  150.2640  144.1958  158.5090 H   0  0  0  0  0  0  0  0  0  0  0  0
  151.4002  145.2725  157.7346 H   0  0  0  0  0  0  0  0  0  0  0  0
  150.8039  143.3816  156.2422 H   0  0  0  0  0  0  0  0  0  0  0  0
  152.5138  143.3789  156.6079 H   0  0  0  0  0  0  0  0  0  0  0  0
  150.3810  141.6438  157.9406 H   0  0  0  0  0  0  0  0  0  0  0  0
  151.5968  141.0936  156.8111 H   0  0  0  0  0  0  0  0  0  0  0  0
  153.3960  141.7046  158.3776 H   0  0  0  0  0  0  0  0  0  0  0  0
  151.2866  140.0207  159.6690 H   0  0  0  0  0  0  0  0  0  0  0  0
  151.8715  138.0848  160.6215 H   0  0  0  0  0  0  0  0  0  0  0  0
  152.2430  137.3145  159.1078 H   0  0  0  0  0  0  0  0  0  0  0  0
  155.1402  134.1893  160.1884 H   0  0  0  0  0  0  0  0  0  0  0  0
  151.1940  142.4994  160.3184 H   0  0  0  0  0  0  0  0  0  0  0  0
  154.2283  142.5757  160.7056 H   0  0  0  0  0  0  0  0  0  0  0  0
  153.1481  141.4044  161.4502 H   0  0  0  0  0  0  0  0  0  0  0  0
  153.0238  143.0838  161.8875 H   0  0  0  0  0  0  0  0  0  0  0  0
  1  2  1  0  0  0  0
  1 22  1  0  0  0  0
  1 23  1  0  0  0  0
  1 24  1  0  0  0  0
  2 20  1  0  0  0  0
  2  3  1  0  0  0  0
  2 25  1  0  0  0  0
  3  4  1  0  0  0  0
  3 26  1  0  0  0  0
  3 27  1  0  0  0  0
  4  5  1  0  0  0  0
  4 28  1  0  0  0  0
  4 29  1  0  0  0  0
  5  6  1  0  0  0  0
  5 30  1  0  0  0  0
  5 31  1  0  0  0  0
  6  7  1  0  0  0  0
  6 20  1  0  0  0  0
  6 32  1  0  0  0  0
  7  8  1  0  0  0  0
  7 33  1  0  0  0  0
  8  9  2  0  0  0  0
  8 10  1  0  0  0  0
 10 11  1  0  0  0  0
 10 34  1  0  0  0  0
 10 35  1  0  0  0  0
 11 18  1  0  0  0  0
 11 12  1  0  0  0  0
 12 13  2  0  0  0  0
 13 14  1  0  0  0  0
 13 36  1  0  0  0  0
 14 15  1  0  0  0  0
 14 16  2  0  0  0  0
 16 17  1  0  0  0  0
 16 18  1  0  0  0  0
 18 19  2  0  0  0  0
 20 21  1  0  0  0  0
 20 37  1  0  0  0  0
 21 38  1  0  0  0  0
 21 39  1  0  0  0  0
 21 40  1  0  0  0  0
M  END
> <s_m_source_file>
AV-unprocessed.smi

> <i_m_source_file_index>
2976

> <i_lp_mmshare_version>
43012

> <i_f3d_flags>
0

> <s_epik_input>
W0NIM11bQ0BASF0xW0NIMl1bQ0gyXVtDSDJdW0NASF0oW0NASF0xW0NIM10pW05IXUMoPU8pW0NIMl1uMm5bY0hdYyhDbCljKENsKWMyPU8=

> <s_epik_cmdline>
J2VwaWtfcHl0aG9uJywgJy1waCcsICc3LjAnLCAnLXRuJywgJzgnLCAnLW1hJywgJzIwMCcsICctbWV0YWxfYmluZGluZycsICctaW1hZScsICc8aW5maWxlLm1hZT4nLCAnLW9tYWUnLCAnPG91dGZpbGUubWFlPic=

> <r_lp_tautomer_probability>
1

> <r_epik_Ionization_Penalty>
1.90777e-08

> <r_epik_Ionization_Penalty_Charging>
3.07942e-11

> <r_epik_Ionization_Penalty_Neutral>
1.90469e-08

> <r_epik_State_Penalty>
-0

> <r_epik_Charging_Adjusted_Penalty>
3.07942e-11

> <i_epik_Tot_Q>
0

> <i_epik_Tot_abs_Q>
0

> <r_epik_Metal_State_Penalty>
-0

> <b_epik_Metal_Only>
0

> <s_lp_Force_Field>
OPLS_2005

> <r_lp_Energy>
26.5415

> <b_lp_Chiralities_Consistent>
1

> <s_lp_Variant>
AV-unprocessed.smi:2976-3

> <Gold.Version>
5.8.1

> <Gold.Id.Protein>
6NUR|6NUR_protein|mol2

> <Gold.PLP.Fitness>
41.4126

> <Gold.PLP.PLP>
-36.1895

> <Gold.PLP.part.hbond>
-2.0000

> <Gold.PLP.part.metal>
0.0000

> <Gold.PLP.part.buried>
-4.9847

> <Gold.PLP.part.nonpolar>
-29.3435

> <Gold.PLP.part.repulsive>
0.1401

> <Gold.PLP.ligand.clash>
0.0000

> <Gold.PLP.ligand.torsion>
0.3918

> <Gold.PLP.Chemscore.Hbond>
2.0000

> <Gold.PLP.Chemscore.CHOScore>
0.0000

> <Gold.PLP.Chemscore.Metal>
0.0000

> <Gold.Chemscore.Hbonds>
donor molecule, donor type, donor heavy atom, donor atom, acceptor molecule, acceptor atom, score
      P1  H  6896  6908       L1    12  1.00
      P1  H  7997  8010       L1     9  1.00

> <Gold.PLP.Chemscore.Internal.Correction>
0.0067

> <Gold.Rescore>
     Score         DG    S(hbond)    S(metal)    S(lipo)     H(rot)  DE(clash)    DE(int)     intcor
     17.88     -19.57       1.78        0.00     102.14       1.49       0.03       1.66       ----

> <Gold.Chemscore.Fitness>
17.8789

> <Gold.Chemscore.DG>
-19.5704

> <Gold.Chemscore.ZeroCoef>
-5.4800

> <Gold.Chemscore.Hbond>
1.7800

> <Gold.Chemscore.Metal>
0.0000

> <Gold.Chemscore.Lipo>
102.1439

> <Gold.Chemscore.Internal_Hbond>
0.0000

> <Gold.Chemscore.DEClash>
0.0276

> <Gold.Chemscore.DEInternal>
1.6640

> <Gold.Chemscore.Rot>
1.4866

> <Gold.Chemscore.Internal.Correction>
   9.000000E+99

> <Gold.Chemscore.Hbonds>
donor molecule, donor type, donor heavy atom, donor atom, acceptor molecule, acceptor atom, score
      P1  H  6896  6908       L1    12  0.38
      P1  H  7997  8010       L1     9  0.98

> <Gold.Chemscore.Hbond.Weighted>
-5.9452

> <Gold.Chemscore.Metal.Weighted>
-0.0000

> <Gold.Chemscore.Lipo.Weighted>
-11.9508

> <Gold.Chemscore.Internal_Hbond.Weighted>
0.0000

> <Gold.Chemscore.DEClash.Weighted>
0.0276

> <Gold.Chemscore.DEInternal.Weighted>
1.6640

> <Gold.Chemscore.Rot.Weighted>
3.8057

> <Gold.Chemscore.Internal.Correction.Weighted>
   9.000000E+99

> <Gold.Protein.RotatedTorsions>
[ 6907 6896 6895 6894 ] final  -57.82 input  -60.11 | X-H torsion
[ 7974 7965 7964 7962 ] final  -26.81 input  175.53 | X-H torsion
[ 8008 7997 7996 7995 ] final   -5.72 input   59.86 | X-H torsion
[ 10167 10162 10161 10158 ] final   -5.77 input  -65.29 | X-H torsion
[ 10718 10713 10712 10709 ] final  104.91 input   66.30 | X-H torsion
[ 10763 10752 10751 10750 ] final   98.36 input  -60.55 | X-H torsion
[ 11005 11000 10999 10996 ] final   82.29 input  -57.11 | X-H torsion

> <Gold.Protein.ActiveResidues>
 VAL166  LYS551  ARG553  GLY616  TRP617  ASP618  TYR619  PRO620  LYS621  CYS622 
 ASP623  PHE694  ASN695  SER759  ASP760  ASP761  ALA762  ILE779  LEU786  VAL792 
 PHE793  MET794  SER795  GLU796  ALA797  LYS798  CYS799  TRP800  GLU811  SER814 

> <Gold.Protein.RotatedAtoms>
  150.8055  134.7178  159.6640 H   0  0  0  0  0  0  0  0  0  0  0  0  # atno 6907 bound_to 6896
  152.4174  134.6013  160.0010 H   0  0  0  0  0  0  0  0  0  0  0  0  # atno 6908 bound_to 6896
  151.6238  133.3300  159.3130 H   0  0  0  0  0  0  0  0  0  0  0  0  # atno 6909 bound_to 6896
  146.1400  140.5069  142.8656 H   0  0  0  0  0  0  0  0  0  0  0  0  # atno 7974 bound_to 7965
  154.6011  140.2451  155.7792 H   0  0  0  0  0  0  0  0  0  0  0  0  # atno 8008 bound_to 7997
  156.2311  140.2966  156.0143 H   0  0  0  0  0  0  0  0  0  0  0  0  # atno 8009 bound_to 7997
  155.2210  140.0400  157.2938 H   0  0  0  0  0  0  0  0  0  0  0  0  # atno 8010 bound_to 7997
  140.6974  143.6270  150.8559 H   0  0  0  0  0  0  0  0  0  0  0  0  # atno 10167 bound_to 10162
  157.6724  131.0815  150.5777 H   0  0  0  0  0  0  0  0  0  0  0  0  # atno 10718 bound_to 10713
  153.2881  135.4151  155.1142 H   0  0  0  0  0  0  0  0  0  0  0  0  # atno 10763 bound_to 10752
  154.8512  135.3512  154.6018 H   0  0  0  0  0  0  0  0  0  0  0  0  # atno 10764 bound_to 10752
  153.6440  135.7055  153.5289 H   0  0  0  0  0  0  0  0  0  0  0  0  # atno 10765 bound_to 10752
  139.9068  134.8060  156.2155 H   0  0  0  0  0  0  0  0  0  0  0  0  # atno 11005 bound_to 11000
  144.7782  140.5784  143.6623 LP  0  0  0  0  0  0  0  0  0  0  0  0  # atno 17320 bound_to 7965
  145.5068  139.1481  143.3627 LP  0  0  0  0  0  0  0  0  0  0  0  0  # atno 17321 bound_to 7965
  139.9989  143.5766  152.2883 LP  0  0  0  0  0  0  0  0  0  0  0  0  # atno 17342 bound_to 10162
  139.6448  144.7657  151.2266 LP  0  0  0  0  0  0  0  0  0  0  0  0  # atno 17343 bound_to 10162
  156.6078  130.4372  149.5871 LP  0  0  0  0  0  0  0  0  0  0  0  0  # atno 17370 bound_to 10713
  156.2454  130.6876  151.1595 LP  0  0  0  0  0  0  0  0  0  0  0  0  # atno 17371 bound_to 10713
  141.0438  133.6924  156.1646 LP  0  0  0  0  0  0  0  0  0  0  0  0  # atno 17394 bound_to 11000
  140.6915  134.4661  157.5588 LP  0  0  0  0  0  0  0  0  0  0  0  0  # atno 17395 bound_to 11000

$$$$
