#       Name:                AV-unprocessed.smi:224
#       Creating user name   scv26
#       Creation time:       Thu Mar 26 20:18:17 2020


#       File generated by GOLD software.
#

@<TRIPOS>MOLECULE
AV-unprocessed.smi:224
    65    68     1
SMALL
NO_CHARGES


@<TRIPOS>ATOM
      1 ****        -3.0074   5.4985  -3.3693 C.3            1 S1                 0.0000
      2 ****        -1.6335   4.8612  -3.1244 C.3            1 S1                 0.0000
      3 ****        -0.9562   4.8049  -4.3638 O.3            1 S1                 0.0000
      4 ****        -1.7603   3.4393  -2.5410 C.3            1 S1                 0.0000
      5 ****        -0.4472   2.8344  -2.1940 N.4            1 S1                 1.0000
      6 ****         0.1538   3.3714  -0.9431 C.3            1 S1                 0.0000
      7 ****         1.5720   2.8116  -0.7322 C.3            1 S1                 0.0000
      8 ****         1.5773   1.3510  -0.7877 N.pl3          1 S1                 0.0000
      9 ****         1.4340   0.6365   0.3617 C.ar           1 S1                 0.0000
     10 ****         0.9224   1.2411   1.4675 N.ar           1 S1                 0.0000
     11 ****         0.7621   0.5573   2.6036 C.ar           1 S1                 0.0000
     12 ****         1.0474  -0.7208   2.8535 N.ar           1 S1                 0.0000
     13 ****         1.5708  -1.3348   1.7547 C.ar           1 S1                 0.0000
     14 ****         1.7974  -0.7366   0.4819 C.ar           1 S1                 0.0000
     15 ****         2.3603  -1.6707  -0.3805 N.2            1 S1                 0.0000
     16 ****         2.4492  -2.7580   0.3354 C.2            1 S1                 0.0000
     17 ****         1.9939  -2.6465   1.6292 N.pl3          1 S1                 0.0000
     18 ****         1.9833  -3.6936   2.6393 C.3            1 S1                 0.0000
     19 ****         0.7326  -4.6003   2.5734 C.3            1 S1                 0.0000
     20 ****         0.7177  -5.2739   1.3261 O.3            1 S1                 0.0000
     21 ****        -0.5893  -3.8566   2.7402 C.3            1 S1                 0.0000
     22 ****        -1.4747  -4.8890   3.4235 C.3            1 S1                 0.0000
     23 ****        -0.5815  -5.5069   4.3339 O.3            1 S1                 0.0000
     24 ****         0.6839  -5.6546   3.6977 C.3            1 S1                 0.0000
     25 ****         0.9883   0.7959  -2.0053 C.3            1 S1                 0.0000
     26 ****        -0.4357   1.3418  -2.2558 C.3            1 S1                 0.0000
     27 ****        -1.4829   0.6822  -1.3323 C.3            1 S1                 0.0000
     28 ****        -3.5690   5.5876  -2.4391 H              1 S1                 0.0000
     29 ****        -3.6044   4.9052  -4.0629 H              1 S1                 0.0000
     30 ****        -2.9075   6.4998  -3.7895 H              1 S1                 0.0000
     31 ****        -1.0721   5.5113  -2.4544 H              1 S1                 0.0000
     32 ****        -0.0484   4.5944  -4.2094 H              1 S1                 0.0000
     33 ****        -2.3944   3.4506  -1.6531 H              1 S1                 0.0000
     34 ****        -2.2712   2.8117  -3.2734 H              1 S1                 0.0000
     35 ****         0.2111   4.4581  -0.9827 H              1 S1                 0.0000
     36 ****        -0.4832   3.1277  -0.0924 H              1 S1                 0.0000
     37 ****         2.2282   3.1791  -1.5221 H              1 S1                 0.0000
     38 ****         1.9990   3.1766   0.2028 H              1 S1                 0.0000
     39 ****         0.3455   1.1135   3.4304 H              1 S1                 0.0000
     40 ****         2.8516  -3.6784  -0.0627 H              1 S1                 0.0000
     41 ****         2.8882  -4.2914   2.5219 H              1 S1                 0.0000
     42 ****         2.0550  -3.2229   3.6206 H              1 S1                 0.0000
     43 ****        -0.0358  -5.8439   1.3033 H              1 S1                 0.0000
     44 ****        -0.4625  -3.0090   3.4142 H              1 S1                 0.0000
     45 ****        -1.0058  -3.4788   1.8055 H              1 S1                 0.0000
     46 ****        -2.3279  -4.4435   3.9353 H              1 S1                 0.0000
     47 ****        -1.8440  -5.6266   2.7093 H              1 S1                 0.0000
     48 ****         0.7841  -6.6713   3.3138 H              1 S1                 0.0000
     49 ****         1.4712  -5.5081   4.4379 H              1 S1                 0.0000
     50 ****         1.6342   1.0770  -2.8377 H              1 S1                 0.0000
     51 ****         0.9679  -0.2923  -2.0009 H              1 S1                 0.0000
     52 ****        -0.6992   1.0642  -3.2773 H              1 S1                 0.0000
     53 ****        -1.4209  -0.4046  -1.3954 H              1 S1                 0.0000
     54 ****        -2.4996   0.9585  -1.6108 H              1 S1                 0.0000
     55 ****        -1.3428   0.9534  -0.2868 H              1 S1                 0.0000
     56 ****         0.1772   3.1193  -2.9346 H              1 S1                 0.0000
     57 ****        -1.0215   5.6913  -4.8220 LP             1 S1                 0.0000
     58 ****        -1.3703   4.1004  -4.9403 LP             1 S1                 0.0000
     59 ****         0.6639   2.2063   1.4295 LP             1 S1                 0.0000
     60 ****         0.8968  -1.1711   3.7336 LP             1 S1                 0.0000
     61 ****         2.6347  -1.5392  -1.3331 LP             1 S1                 0.0000
     62 ****         1.5529  -5.8143   1.2242 LP             1 S1                 0.0000
     63 ****         0.6593  -4.6073   0.5830 LP             1 S1                 0.0000
     64 ****        -0.9344  -6.4054   4.5950 LP             1 S1                 0.0000
     65 ****        -0.4841  -4.9371   5.1498 LP             1 S1                 0.0000
@<TRIPOS>BOND
    1    1    2 1     
    2    1   28 1     
    3    1   29 1     
    4    1   30 1     
    5    2    3 1     
    6    2    4 1     
    7    2   31 1     
    8    3   32 1     
    9    4    5 1     
   10    4   33 1     
   11    4   34 1     
   12    5   26 1     
   13    5    6 1     
   14    5   56 1     
   15    6    7 1     
   16    6   35 1     
   17    6   36 1     
   18    7    8 1     
   19    7   37 1     
   20    7   38 1     
   21    8    9 1     
   22    8   25 1     
   23    9   14 ar    
   24    9   10 ar    
   25   10   11 ar    
   26   11   12 ar    
   27   11   39 1     
   28   12   13 ar    
   29   13   17 1     
   30   13   14 ar    
   31   14   15 1     
   32   15   16 2     
   33   16   17 1     
   34   16   40 1     
   35   17   18 1     
   36   18   19 1     
   37   18   41 1     
   38   18   42 1     
   39   19   24 1     
   40   19   20 1     
   41   19   21 1     
   42   20   43 1     
   43   21   22 1     
   44   21   44 1     
   45   21   45 1     
   46   22   23 1     
   47   22   46 1     
   48   22   47 1     
   49   23   24 1     
   50   24   48 1     
   51   24   49 1     
   52   25   26 1     
   53   25   50 1     
   54   25   51 1     
   55   26   27 1     
   56   26   52 1     
   57   27   53 1     
   58   27   54 1     
   59   27   55 1     
   60    3   57 1     
   61    3   58 1     
   62   10   59 1     
   63   12   60 1     
   64   15   61 1     
   65   20   62 1     
   66   20   63 1     
   67   23   64 1     
   68   23   65 1     
@<TRIPOS>SUBSTRUCTURE
      1 S1             1
@<TRIPOS>SET
LONE_PAIRS      STATIC     ATOMS    <user>   **** ""
9 57 58 59 60 61 62 63 64 65
DONOR_HYDROGENS      STATIC     ATOMS    <user>   **** ""
3 32 56 43
ATOM$BLUE        STATIC     ATOMS    COLORGROUP SYSTEM
9 57 58 59 60 61 62 63 64 65
ATOM$RED        STATIC     ATOMS    COLORGROUP SYSTEM
3 32 56 43
