AV-unprocessed.smi:1756|AV-procd|sdf|7074|dock3
  -GOLD-   22720 8293D 1   1.00000     0.00000
 Structure written by MMmdl.
 37 38  0  0  0  0  0  0  0  0  2 V2000
  151.0091  138.6668  158.1921 O   0  0  0  0  0  0  0  0  0  0  0  0
  149.8250  138.9769  158.0629 C   0  0  0  0  0  0  0  0  0  0  0  0
  149.4241  140.1382  157.5262 N   0  0  0  0  0  0  0  0  0  0  0  0
  150.3029  141.1893  157.0230 C   0  0  0  0  0  0  0  0  0  0  0  0
  150.8851  142.0517  158.1577 C   0  0  1  0  0  0  0  0  0  0  0  0
  152.0272  141.3609  158.9338 C   0  0  0  0  0  0  0  0  0  0  0  0
  152.6287  142.3115  159.9748 C   0  0  0  0  0  0  0  0  0  0  0  0
  153.0299  143.6286  159.3041 C   0  0  0  0  0  0  0  0  0  0  0  0
  151.8448  144.2068  158.5157 C   0  0  0  0  0  0  0  0  0  0  0  0
  151.3815  143.2510  157.5665 O   0  0  0  0  0  0  0  0  0  0  0  0
  148.7665  138.2403  158.4453 N   0  0  0  0  0  0  0  0  0  0  0  0
  148.7262  136.9661  159.0373 C   0  0  0  0  0  0  0  0  0  0  0  0
  148.1751  136.6853  160.2510 C   0  0  0  0  0  0  0  0  0  0  0  0
  148.1776  135.3422  160.8171 C   0  0  0  0  0  0  0  0  0  0  0  0
  147.4862  134.9770  162.1189 C   0  0  0  0  0  0  0  0  0  0  0  0
  147.6166  133.6770  162.3848 F   0  0  0  0  0  0  0  0  0  0  0  0
  148.0245  135.6631  163.1261 F   0  0  0  0  0  0  0  0  0  0  0  0
  146.1862  135.2675  162.0662 F   0  0  0  0  0  0  0  0  0  0  0  0
  148.7828  134.4225  159.9827 C   0  0  0  0  0  0  0  0  0  0  0  0
  149.3731  134.6211  158.7839 N   0  5  0  0  0  0  0  0  0  0  0  0
  149.3663  135.8812  158.2648 C   0  0  0  0  0  0  0  0  0  0  0  0
  149.8803  136.1301  157.1736 O   0  0  0  0  0  0  0  0  0  0  0  0
  148.4315  140.3112  157.4652 H   0  0  0  0  0  0  0  0  0  0  0  0
  151.1034  140.7765  156.4066 H   0  0  0  0  0  0  0  0  0  0  0  0
  149.7069  141.8185  156.3614 H   0  0  0  0  0  0  0  0  0  0  0  0
  150.0795  142.3112  158.8471 H   0  0  0  0  0  0  0  0  0  0  0  0
  151.6658  140.4614  159.4320 H   0  0  0  0  0  0  0  0  0  0  0  0
  152.8033  141.0413  158.2373 H   0  0  0  0  0  0  0  0  0  0  0  0
  151.8962  142.5061  160.7593 H   0  0  0  0  0  0  0  0  0  0  0  0
  153.4909  141.8504  160.4571 H   0  0  0  0  0  0  0  0  0  0  0  0
  153.3728  144.3444  160.0516 H   0  0  0  0  0  0  0  0  0  0  0  0
  153.8674  143.4555  158.6272 H   0  0  0  0  0  0  0  0  0  0  0  0
  151.0331  144.4938  159.1858 H   0  0  0  0  0  0  0  0  0  0  0  0
  152.1521  145.1082  157.9851 H   0  0  0  0  0  0  0  0  0  0  0  0
  147.8590  138.6655  158.3230 H   0  0  0  0  0  0  0  0  0  0  0  0
  147.7286  137.4603  160.8510 H   0  0  0  0  0  0  0  0  0  0  0  0
  148.7896  133.3666  160.3282 H   0  0  0  0  0  0  0  0  0  0  0  0
  1  2  2  0  0  0  0
  2  3  1  0  0  0  0
  2 11  1  0  0  0  0
  3  4  1  0  0  0  0
  3 23  1  0  0  0  0
  4  5  1  0  0  0  0
  4 24  1  0  0  0  0
  4 25  1  0  0  0  0
  5 10  1  0  0  0  0
  5  6  1  0  0  0  0
  5 26  1  0  0  0  0
  6  7  1  0  0  0  0
  6 27  1  0  0  0  0
  6 28  1  0  0  0  0
  7  8  1  0  0  0  0
  7 29  1  0  0  0  0
  7 30  1  0  0  0  0
  8  9  1  0  0  0  0
  8 31  1  0  0  0  0
  8 32  1  0  0  0  0
  9 10  1  0  0  0  0
  9 33  1  0  0  0  0
  9 34  1  0  0  0  0
 11 12  1  0  0  0  0
 11 35  1  0  0  0  0
 12 21  1  0  0  0  0
 12 13  2  0  0  0  0
 13 14  1  0  0  0  0
 13 36  1  0  0  0  0
 14 15  1  0  0  0  0
 14 19  2  0  0  0  0
 15 16  1  0  0  0  0
 15 17  1  0  0  0  0
 15 18  1  0  0  0  0
 19 20  1  0  0  0  0
 19 37  1  0  0  0  0
 20 21  1  0  0  0  0
 21 22  2  0  0  0  0
M  CHG  1  20  -1
M  END
> <s_m_source_file>
AV-unprocessed.smi

> <i_m_source_file_index>
1756

> <i_lp_mmshare_version>
43012

> <i_f3d_flags>
0

> <s_epik_input>
Tz1jMVtuSF1bY0hdYyhDKEYpKEYpRilbY0hdYzFbTkhdQyg9TylbTkhdW0NIMl1bQ0BASF0yW0NIMl1bQ0gyXVtDSDJdW0NIMl1PMg==

> <s_epik_cmdline>
J2VwaWtfcHl0aG9uJywgJy1waCcsICc3LjAnLCAnLXRuJywgJzgnLCAnLW1hJywgJzIwMCcsICctbWV0YWxfYmluZGluZycsICctaW1hZScsICc8aW5maWxlLm1hZT4nLCAnLW9tYWUnLCAnPG91dGZpbGUubWFlPic=

> <r_lp_tautomer_probability>
1

> <r_epik_Ionization_Penalty>
3.16985

> <r_epik_Ionization_Penalty_Charging>
0.174782

> <r_epik_Ionization_Penalty_Neutral>
2.99507

> <r_epik_State_Penalty>
2.99125

> <r_epik_Charging_Adjusted_Penalty>
3.16603

> <i_epik_Tot_Q>
-1

> <i_epik_Tot_abs_Q>
1

> <r_epik_Metal_State_Penalty>
0.453096

> <b_epik_Metal_Only>
1

> <s_lp_Force_Field>
OPLS_2005

> <r_lp_Energy>
20.8362

> <b_lp_Chiralities_Consistent>
1

> <s_lp_Variant>
AV-unprocessed.smi:1756-4

> <Gold.Version>
5.8.1

> <Gold.Id.Protein>
6NUR|6NUR_protein|mol2

> <Gold.PLP.Fitness>
43.9199

> <Gold.PLP.PLP>
-39.5457

> <Gold.PLP.part.hbond>
-1.0000

> <Gold.PLP.part.metal>
0.0000

> <Gold.PLP.part.buried>
-3.9689

> <Gold.PLP.part.nonpolar>
-35.7370

> <Gold.PLP.part.repulsive>
0.3886

> <Gold.PLP.ligand.clash>
0.0000

> <Gold.PLP.ligand.torsion>
0.8431

> <Gold.PLP.Chemscore.Hbond>
2.0000

> <Gold.PLP.Chemscore.CHOScore>
0.0000

> <Gold.PLP.Chemscore.Metal>
0.0000

> <Gold.Chemscore.Hbonds>
donor molecule, donor type, donor heavy atom, donor atom, acceptor molecule, acceptor atom, score
      P1  H  6896  6909       L1    20  0.82

> <Gold.PLP.Chemscore.Internal.Correction>
0.0604

> <Gold.Rescore>
     Score         DG    S(hbond)    S(metal)    S(lipo)     H(rot)  DE(clash)    DE(int)     intcor
     10.80     -14.57       0.68        0.00      87.33       1.32       0.23       3.54       ----

> <Gold.Chemscore.Fitness>
10.8011

> <Gold.Chemscore.DG>
-14.5715

> <Gold.Chemscore.ZeroCoef>
-5.4800

> <Gold.Chemscore.Hbond>
0.6783

> <Gold.Chemscore.Metal>
0.0000

> <Gold.Chemscore.Lipo>
87.3302

> <Gold.Chemscore.Internal_Hbond>
0.0000

> <Gold.Chemscore.DEClash>
0.2256

> <Gold.Chemscore.DEInternal>
3.5448

> <Gold.Chemscore.Rot>
1.3248

> <Gold.Chemscore.Internal.Correction>
   9.000000E+99

> <Gold.Chemscore.Hbonds>
donor molecule, donor type, donor heavy atom, donor atom, acceptor molecule, acceptor atom, score
      P1  H  6896  6909       L1    20  0.01

> <Gold.Chemscore.Hbond.Weighted>
-2.2654

> <Gold.Chemscore.Metal.Weighted>
-0.0000

> <Gold.Chemscore.Lipo.Weighted>
-10.2176

> <Gold.Chemscore.Internal_Hbond.Weighted>
0.0000

> <Gold.Chemscore.DEClash.Weighted>
0.2256

> <Gold.Chemscore.DEInternal.Weighted>
3.5448

> <Gold.Chemscore.Rot.Weighted>
3.3915

> <Gold.Chemscore.Internal.Correction.Weighted>
   9.000000E+99

> <Gold.Protein.RotatedTorsions>
[ 6907 6896 6895 6894 ] final   18.91 input  -60.11 | X-H torsion
[ 7974 7965 7964 7962 ] final   65.00 input  175.53 | X-H torsion
[ 8008 7997 7996 7995 ] final   91.99 input   59.86 | X-H torsion
[ 10167 10162 10161 10158 ] final  112.16 input  -65.29 | X-H torsion
[ 10718 10713 10712 10709 ] final  -77.89 input   66.30 | X-H torsion
[ 10763 10752 10751 10750 ] final  159.86 input  -60.55 | X-H torsion
[ 11005 11000 10999 10996 ] final  131.21 input  -57.11 | X-H torsion

> <Gold.Protein.ActiveResidues>
 VAL166  LYS551  ARG553  GLY616  TRP617  ASP618  TYR619  PRO620  LYS621  CYS622 
 ASP623  PHE694  ASN695  SER759  ASP760  ASP761  ALA762  ILE779  LEU786  VAL792 
 PHE793  MET794  SER795  GLU796  ALA797  LYS798  CYS799  TRP800  GLU811  SER814 

> <Gold.Protein.RotatedAtoms>
  151.8727  135.0483  160.0480 H   0  0  0  0  0  0  0  0  0  0  0  0  # atno 6907 bound_to 6896
  152.2576  133.5264  159.5370 H   0  0  0  0  0  0  0  0  0  0  0  0  # atno 6908 bound_to 6896
  150.7105  134.0791  159.3934 H   0  0  0  0  0  0  0  0  0  0  0  0  # atno 6909 bound_to 6896
  145.8436  139.3210  143.0917 H   0  0  0  0  0  0  0  0  0  0  0  0  # atno 7974 bound_to 7965
  156.0302  140.3331  155.7131 H   0  0  0  0  0  0  0  0  0  0  0  0  # atno 8008 bound_to 7997
  155.5896  140.0645  157.2780 H   0  0  0  0  0  0  0  0  0  0  0  0  # atno 8009 bound_to 7997
  154.4350  140.1829  156.1049 H   0  0  0  0  0  0  0  0  0  0  0  0  # atno 8010 bound_to 7997
  139.6556  144.7129  151.1963 H   0  0  0  0  0  0  0  0  0  0  0  0  # atno 10167 bound_to 10162
  156.0132  130.4503  150.3413 H   0  0  0  0  0  0  0  0  0  0  0  0  # atno 10718 bound_to 10713
  154.2385  135.2775  155.2863 H   0  0  0  0  0  0  0  0  0  0  0  0  # atno 10763 bound_to 10752
  154.5565  135.5659  153.6972 H   0  0  0  0  0  0  0  0  0  0  0  0  # atno 10764 bound_to 10752
  153.0005  135.6287  154.2528 H   0  0  0  0  0  0  0  0  0  0  0  0  # atno 10765 bound_to 10752
  139.9717  134.9575  156.9406 H   0  0  0  0  0  0  0  0  0  0  0  0  # atno 11005 bound_to 11000
  145.9437  140.8960  143.0294 LP  0  0  0  0  0  0  0  0  0  0  0  0  # atno 17320 bound_to 7965
  144.6732  140.1584  143.7424 LP  0  0  0  0  0  0  0  0  0  0  0  0  # atno 17321 bound_to 7965
  140.7557  143.6078  150.8636 LP  0  0  0  0  0  0  0  0  0  0  0  0  # atno 17342 bound_to 10162
  139.9730  143.6035  152.2967 LP  0  0  0  0  0  0  0  0  0  0  0  0  # atno 17343 bound_to 10162
  157.1508  131.0320  151.2886 LP  0  0  0  0  0  0  0  0  0  0  0  0  # atno 17370 bound_to 10713
  157.4393  130.7535  149.7056 LP  0  0  0  0  0  0  0  0  0  0  0  0  # atno 17371 bound_to 10713
  140.5279  134.0842  155.7308 LP  0  0  0  0  0  0  0  0  0  0  0  0  # atno 17394 bound_to 11000
  141.1396  133.9161  157.2356 LP  0  0  0  0  0  0  0  0  0  0  0  0  # atno 17395 bound_to 11000

$$$$
