AV-unprocessed.smi:1110|AV-procd|sdf|4791|dock7
  -GOLD-   22720 3333D 1   1.00000     0.00000
 Structure written by MMmdl.
 44 45  0  0  0  0  0  0  0  0  2 V2000
  149.5819  132.0257  154.5642 C   0  0  0  0  0  0  0  0  0  0  0  0
  148.9509  132.8103  153.4048 C   0  0  0  0  0  0  0  0  0  0  0  0
  147.7685  133.7300  153.8137 C   0  0  1  0  0  0  0  0  0  0  0  0
  148.1853  134.7431  154.9109 C   0  0  0  0  0  0  0  0  0  0  0  0
  149.1728  135.6935  154.4119 N   0  0  0  0  0  0  0  0  0  0  0  0
  149.9581  136.4785  155.1667 C   0  0  0  0  0  0  0  0  0  0  0  0
  149.9226  136.4702  156.3961 O   0  0  0  0  0  0  0  0  0  0  0  0
  150.9290  137.4336  154.4507 C   0  0  0  0  0  0  0  0  0  0  0  0
  150.7806  138.8545  154.8166 N   0  0  0  0  0  0  0  0  0  0  0  0
  149.6103  139.5055  154.3779 C   0  0  0  0  0  0  0  0  0  0  0  0
  149.3763  140.8006  154.6423 C   0  0  0  0  0  0  0  0  0  0  0  0
  150.3633  141.5308  155.4020 C   0  0  0  0  0  0  0  0  0  0  0  0
  151.4887  140.9192  155.8223 C   0  0  0  0  0  0  0  0  0  0  0  0
  151.7525  139.5061  155.5279 C   0  0  0  0  0  0  0  0  0  0  0  0
  152.7877  138.9457  155.8868 O   0  0  0  0  0  0  0  0  0  0  0  0
  147.2063  134.4203  152.6130 N   0  3  0  0  0  0  0  0  0  0  0  0
  146.7717  133.5259  151.5089 C   0  0  0  0  0  0  0  0  0  0  0  0
  145.4918  134.1262  150.9112 C   0  0  0  0  0  0  0  0  0  0  0  0
  145.3981  135.5209  151.5174 C   0  0  0  0  0  0  0  0  0  0  0  0
  146.0834  135.3503  152.8673 C   0  0  0  0  0  0  0  0  0  0  0  0
  150.3072  131.3038  154.1882 H   0  0  0  0  0  0  0  0  0  0  0  0
  148.8279  131.4742  155.1263 H   0  0  0  0  0  0  0  0  0  0  0  0
  150.1119  132.6800  155.2562 H   0  0  0  0  0  0  0  0  0  0  0  0
  149.7246  133.3916  152.9015 H   0  0  0  0  0  0  0  0  0  0  0  0
  148.6145  132.0754  152.6741 H   0  0  0  0  0  0  0  0  0  0  0  0
  146.9780  133.1030  154.2297 H   0  0  0  0  0  0  0  0  0  0  0  0
  147.3071  135.2662  155.2914 H   0  0  0  0  0  0  0  0  0  0  0  0
  148.6017  134.2308  155.7774 H   0  0  0  0  0  0  0  0  0  0  0  0
  149.2781  135.7541  153.4092 H   0  0  0  0  0  0  0  0  0  0  0  0
  151.9467  137.1010  154.6612 H   0  0  0  0  0  0  0  0  0  0  0  0
  150.8102  137.3024  153.3738 H   0  0  0  0  0  0  0  0  0  0  0  0
  148.9255  138.8888  153.8139 H   0  0  0  0  0  0  0  0  0  0  0  0
  148.4740  141.2836  154.2969 H   0  0  0  0  0  0  0  0  0  0  0  0
  150.1977  142.5721  155.6368 H   0  0  0  0  0  0  0  0  0  0  0  0
  152.2153  141.4813  156.3910 H   0  0  0  0  0  0  0  0  0  0  0  0
  147.5657  133.4677  150.7638 H   0  0  0  0  0  0  0  0  0  0  0  0
  146.5707  132.5132  151.8615 H   0  0  0  0  0  0  0  0  0  0  0  0
  145.5051  134.1448  149.8210 H   0  0  0  0  0  0  0  0  0  0  0  0
  144.6298  133.5338  151.2216 H   0  0  0  0  0  0  0  0  0  0  0  0
  145.9551  136.2312  150.9048 H   0  0  0  0  0  0  0  0  0  0  0  0
  144.3719  135.8801  151.6035 H   0  0  0  0  0  0  0  0  0  0  0  0
  145.3870  134.9031  153.5789 H   0  0  0  0  0  0  0  0  0  0  0  0
  146.4228  136.3038  153.2731 H   0  0  0  0  0  0  0  0  0  0  0  0
  147.9463  134.9918  152.2313 H   0  0  0  0  0  0  0  0  0  0  0  0
  1  2  1  0  0  0  0
  1 21  1  0  0  0  0
  1 22  1  0  0  0  0
  1 23  1  0  0  0  0
  2  3  1  0  0  0  0
  2 24  1  0  0  0  0
  2 25  1  0  0  0  0
  3  4  1  0  0  0  0
  3 16  1  0  0  0  0
  3 26  1  0  0  0  0
  4  5  1  0  0  0  0
  4 27  1  0  0  0  0
  4 28  1  0  0  0  0
  5  6  1  0  0  0  0
  5 29  1  0  0  0  0
  6  7  2  0  0  0  0
  6  8  1  0  0  0  0
  8  9  1  0  0  0  0
  8 30  1  0  0  0  0
  8 31  1  0  0  0  0
  9 14  1  0  0  0  0
  9 10  1  0  0  0  0
 10 11  2  0  0  0  0
 10 32  1  0  0  0  0
 11 12  1  0  0  0  0
 11 33  1  0  0  0  0
 12 13  2  0  0  0  0
 12 34  1  0  0  0  0
 13 14  1  0  0  0  0
 13 35  1  0  0  0  0
 14 15  2  0  0  0  0
 16 20  1  0  0  0  0
 16 17  1  0  0  0  0
 16 44  1  0  0  0  0
 17 18  1  0  0  0  0
 17 36  1  0  0  0  0
 17 37  1  0  0  0  0
 18 19  1  0  0  0  0
 18 38  1  0  0  0  0
 18 39  1  0  0  0  0
 19 20  1  0  0  0  0
 19 40  1  0  0  0  0
 19 41  1  0  0  0  0
 20 42  1  0  0  0  0
 20 43  1  0  0  0  0
M  CHG  1  16   1
M  END
> <s_m_source_file>
AV-unprocessed.smi

> <i_m_source_file_index>
1110

> <i_lp_mmshare_version>
43012

> <i_f3d_flags>
0

> <s_epik_input>
W0NIMl0xW0NIMl1bQ0gyXVtDSDJdTjFbQ0BIXShbQ0gyXVtDSDNdKVtDSDJdW05IXUMoPU8pW0NIMl1uMltjSF1bY0hdW2NIXVtjSF1jMj1P

> <s_epik_cmdline>
J2VwaWtfcHl0aG9uJywgJy1waCcsICc3LjAnLCAnLXRuJywgJzgnLCAnLW1hJywgJzIwMCcsICctbWV0YWxfYmluZGluZycsICctaW1hZScsICc8aW5maWxlLm1hZT4nLCAnLW9tYWUnLCAnPG91dGZpbGUubWFlPic=

> <r_lp_tautomer_probability>
1

> <r_epik_Ionization_Penalty>
0.00361135

> <r_epik_Ionization_Penalty_Charging>
0.00361127

> <r_epik_Ionization_Penalty_Neutral>
7.8489e-08

> <r_epik_State_Penalty>
0.00256751

> <r_epik_Charging_Adjusted_Penalty>
0.00617878

> <i_epik_Tot_Q>
1

> <i_epik_Tot_abs_Q>
1

> <r_epik_Metal_State_Penalty>
-0

> <b_epik_Metal_Only>
0

> <s_lp_Force_Field>
OPLS_2005

> <r_lp_Energy>
49.2182

> <b_lp_Chiralities_Consistent>
1

> <s_lp_Variant>
AV-unprocessed.smi:1110-2

> <Gold.Version>
5.8.1

> <Gold.Id.Protein>
6NUR|6NUR_protein|mol2

> <Gold.PLP.Fitness>
50.5628

> <Gold.PLP.PLP>
-38.8670

> <Gold.PLP.part.hbond>
-3.0000

> <Gold.PLP.part.metal>
0.0000

> <Gold.PLP.part.buried>
-2.8974

> <Gold.PLP.part.nonpolar>
-32.0062

> <Gold.PLP.part.repulsive>
0.0412

> <Gold.PLP.ligand.clash>
0.0000

> <Gold.PLP.ligand.torsion>
0.2337

> <Gold.PLP.Chemscore.Hbond>
4.0000

> <Gold.PLP.Chemscore.CHOScore>
0.0000

> <Gold.PLP.Chemscore.Metal>
0.0000

> <Gold.Chemscore.Hbonds>
donor molecule, donor type, donor heavy atom, donor atom, acceptor molecule, acceptor atom, score
      L1  H     5    29       P1  7948  1.00
      L1  H    16    44       P1  7948  2.00
      P1  H  7997  8010       L1    15  1.00

> <Gold.PLP.Chemscore.Internal.Correction>
0.1632

> <Gold.Rescore>
     Score         DG    S(hbond)    S(metal)    S(lipo)     H(rot)  DE(clash)    DE(int)     intcor
     17.96     -18.25       2.86        0.00      71.10       1.99       0.01       0.27       ----

> <Gold.Chemscore.Fitness>
17.9582

> <Gold.Chemscore.DG>
-18.2474

> <Gold.Chemscore.ZeroCoef>
-5.4800

> <Gold.Chemscore.Hbond>
2.8567

> <Gold.Chemscore.Metal>
0.0000

> <Gold.Chemscore.Lipo>
71.0990

> <Gold.Chemscore.Internal_Hbond>
0.0000

> <Gold.Chemscore.DEClash>
0.0149

> <Gold.Chemscore.DEInternal>
0.2744

> <Gold.Chemscore.Rot>
1.9893

> <Gold.Chemscore.Internal.Correction>
   9.000000E+99

> <Gold.Chemscore.Hbonds>
donor molecule, donor type, donor heavy atom, donor atom, acceptor molecule, acceptor atom, score
      L1  H     5    29       P1  7948  0.49
      L1  H    16    44       P1  7948  0.77
      P1  H  7997  8010       L1    15  0.89

> <Gold.Chemscore.Hbond.Weighted>
-9.5415

> <Gold.Chemscore.Metal.Weighted>
-0.0000

> <Gold.Chemscore.Lipo.Weighted>
-8.3186

> <Gold.Chemscore.Internal_Hbond.Weighted>
0.0000

> <Gold.Chemscore.DEClash.Weighted>
0.0149

> <Gold.Chemscore.DEInternal.Weighted>
0.2744

> <Gold.Chemscore.Rot.Weighted>
5.0927

> <Gold.Chemscore.Internal.Correction.Weighted>
   9.000000E+99

> <Gold.Protein.RotatedTorsions>
[ 6907 6896 6895 6894 ] final  147.92 input  -60.11 | X-H torsion
[ 7974 7965 7964 7962 ] final  -77.68 input  175.53 | X-H torsion
[ 8008 7997 7996 7995 ] final   67.52 input   59.86 | X-H torsion
[ 10167 10162 10161 10158 ] final   84.87 input  -65.29 | X-H torsion
[ 10718 10713 10712 10709 ] final  114.00 input   66.30 | X-H torsion
[ 10763 10752 10751 10750 ] final -139.34 input  -60.55 | X-H torsion
[ 11005 11000 10999 10996 ] final   51.56 input  -57.11 | X-H torsion

> <Gold.Protein.ActiveResidues>
 VAL166  LYS551  ARG553  GLY616  TRP617  ASP618  TYR619  PRO620  LYS621  CYS622 
 ASP623  PHE694  ASN695  SER759  ASP760  ASP761  ALA762  ILE779  LEU786  VAL792 
 PHE793  MET794  SER795  GLU796  ALA797  LYS798  CYS799  TRP800  GLU811  SER814 

> <Gold.Protein.RotatedAtoms>
  152.1484  133.4506  159.4800 H   0  0  0  0  0  0  0  0  0  0  0  0  # atno 6907 bound_to 6896
  150.6893  134.2219  159.4409 H   0  0  0  0  0  0  0  0  0  0  0  0  # atno 6908 bound_to 6896
  152.0115  134.9873  160.0619 H   0  0  0  0  0  0  0  0  0  0  0  0  # atno 6909 bound_to 6896
  145.5965  140.9418  143.1264 H   0  0  0  0  0  0  0  0  0  0  0  0  # atno 7974 bound_to 7965
  155.6942  140.3496  155.4906 H   0  0  0  0  0  0  0  0  0  0  0  0  # atno 8008 bound_to 7997
  155.9498  140.1117  157.1009 H   0  0  0  0  0  0  0  0  0  0  0  0  # atno 8009 bound_to 7997
  154.4119  140.1196  156.5023 H   0  0  0  0  0  0  0  0  0  0  0  0  # atno 8010 bound_to 7997
  139.9036  144.6314  150.8611 H   0  0  0  0  0  0  0  0  0  0  0  0  # atno 10167 bound_to 10162
  157.6306  131.0992  150.7122 H   0  0  0  0  0  0  0  0  0  0  0  0  # atno 10718 bound_to 10713
  154.8612  135.3585  154.5531 H   0  0  0  0  0  0  0  0  0  0  0  0  # atno 10763 bound_to 10752
  153.6149  135.7008  153.5337 H   0  0  0  0  0  0  0  0  0  0  0  0  # atno 10764 bound_to 10752
  153.3178  135.4160  155.1351 H   0  0  0  0  0  0  0  0  0  0  0  0  # atno 10765 bound_to 10752
  140.0922  134.5194  155.8841 H   0  0  0  0  0  0  0  0  0  0  0  0  # atno 11005 bound_to 11000
  144.7328  139.7674  143.7340 LP  0  0  0  0  0  0  0  0  0  0  0  0  # atno 17320 bound_to 7965
  146.1608  139.4721  142.9989 LP  0  0  0  0  0  0  0  0  0  0  0  0  # atno 17321 bound_to 7965
  140.7701  143.3418  151.2193 LP  0  0  0  0  0  0  0  0  0  0  0  0  # atno 17342 bound_to 10162
  139.7003  143.9543  152.2902 LP  0  0  0  0  0  0  0  0  0  0  0  0  # atno 17343 bound_to 10162
  156.7462  130.4754  149.5466 LP  0  0  0  0  0  0  0  0  0  0  0  0  # atno 17370 bound_to 10713
  156.1508  130.6308  151.0592 LP  0  0  0  0  0  0  0  0  0  0  0  0  # atno 17371 bound_to 10713
  141.2081  133.6670  156.6351 LP  0  0  0  0  0  0  0  0  0  0  0  0  # atno 17394 bound_to 11000
  140.3336  134.7908  157.4345 LP  0  0  0  0  0  0  0  0  0  0  0  0  # atno 17395 bound_to 11000

$$$$
