AV-unprocessed.smi:2936|AV-procd|sdf|11258|dock7
  -GOLD-   2272016153D 1   1.00000     0.00000
 Structure written by MMmdl.
 24 25  0  0  0  0  0  0  0  0  1 V2000
  153.1332  139.5707  157.1084 O   0  0  0  0  0  0  0  0  0  0  0  0
  152.4267  139.1482  156.1953 C   0  0  0  0  0  0  0  0  0  0  0  0
  152.7779  138.0536  155.4789 N   0  0  0  0  0  0  0  0  0  0  0  0
  152.0717  137.4905  154.4433 N   0  0  0  0  0  0  0  0  0  0  0  0
  150.9585  138.0383  154.0933 C   0  0  0  0  0  0  0  0  0  0  0  0
  150.4223  139.2223  154.7465 C   0  0  0  0  0  0  0  0  0  0  0  0
  149.2194  139.7653  154.3215 N   0  0  0  0  0  0  0  0  0  0  0  0
  149.0224  141.1867  154.0772 C   0  0  0  0  0  0  0  0  0  0  0  0
  147.8322  141.7095  154.9010 C   0  0  0  0  0  0  0  0  0  0  0  0
  146.6729  140.9335  154.6093 O   0  0  0  0  0  0  0  0  0  0  0  0
  146.8494  139.5570  154.9341 C   0  0  0  0  0  0  0  0  0  0  0  0
  148.0131  138.9789  154.1094 C   0  0  0  0  0  0  0  0  0  0  0  0
  151.1538  139.7471  155.7698 C   0  0  0  0  0  0  0  0  0  0  0  0
  150.6115  141.1529  156.6219 Cl  0  0  0  0  0  0  0  0  0  0  0  0
  153.6397  137.5759  155.7001 H   0  0  0  0  0  0  0  0  0  0  0  0
  150.3545  137.6372  153.2789 H   0  0  0  0  0  0  0  0  0  0  0  0
  149.9275  141.7398  154.3302 H   0  0  0  0  0  0  0  0  0  0  0  0
  148.8409  141.3403  153.0130 H   0  0  0  0  0  0  0  0  0  0  0  0
  148.0472  141.6736  155.9697 H   0  0  0  0  0  0  0  0  0  0  0  0
  147.6336  142.7522  154.6527 H   0  0  0  0  0  0  0  0  0  0  0  0
  147.0319  139.4451  156.0037 H   0  0  0  0  0  0  0  0  0  0  0  0
  145.9281  139.0185  154.7115 H   0  0  0  0  0  0  0  0  0  0  0  0
  147.7655  138.9902  153.0476 H   0  0  0  0  0  0  0  0  0  0  0  0
  148.1900  137.9387  154.3856 H   0  0  0  0  0  0  0  0  0  0  0  0
  1  2  2  0  0  0  0
  2 13  1  0  0  0  0
  2  3  1  0  0  0  0
  3 15  1  0  0  0  0
  3  4  1  0  0  0  0
  4  5  2  0  0  0  0
  5  6  1  0  0  0  0
  5 16  1  0  0  0  0
  6  7  1  0  0  0  0
  6 13  2  0  0  0  0
  7 12  1  0  0  0  0
  7  8  1  0  0  0  0
  8  9  1  0  0  0  0
  8 17  1  0  0  0  0
  8 18  1  0  0  0  0
  9 10  1  0  0  0  0
  9 19  1  0  0  0  0
  9 20  1  0  0  0  0
 10 11  1  0  0  0  0
 11 12  1  0  0  0  0
 11 21  1  0  0  0  0
 11 22  1  0  0  0  0
 12 23  1  0  0  0  0
 12 24  1  0  0  0  0
 13 14  1  0  0  0  0
M  END
> <s_m_source_file>
AV-unprocessed.smi

> <i_m_source_file_index>
2936

> <i_lp_mmshare_version>
43012

> <i_f3d_flags>
0

> <s_epik_input>
Tz1jMVtuSF1uW2NIXWMoYzFDbClOMltDSDJdW0NIMl1PW0NIMl1bQ0gyXTI=

> <s_epik_cmdline>
J2VwaWtfcHl0aG9uJywgJy1waCcsICc3LjAnLCAnLXRuJywgJzgnLCAnLW1hJywgJzIwMCcsICctbWV0YWxfYmluZGluZycsICctaW1hZScsICc8aW5maWxlLm1hZT4nLCAnLW9tYWUnLCAnPG91dGZpbGUubWFlPic=

> <r_lp_tautomer_probability>
0.986175

> <r_epik_Ionization_Penalty>
0.0102925

> <r_epik_Ionization_Penalty_Charging>
0.0102925

> <r_epik_Ionization_Penalty_Neutral>
4.87729e-09

> <r_epik_State_Penalty>
1.65855

> <r_epik_Charging_Adjusted_Penalty>
1.66884

> <i_epik_Tot_Q>
0

> <i_epik_Tot_abs_Q>
0

> <r_epik_Metal_State_Penalty>
3.9956

> <b_epik_Metal_Only>
0

> <s_lp_Force_Field>
OPLS_2005

> <r_lp_Energy>
35.1147

> <b_lp_Chiralities_Consistent>
1

> <s_lp_Variant>
AV-unprocessed.smi:2936-2

> <Gold.Version>
5.8.1

> <Gold.Id.Protein>
6NUR|6NUR_protein|mol2

> <Gold.PLP.Fitness>
32.2873

> <Gold.PLP.PLP>
-23.6242

> <Gold.PLP.part.hbond>
-1.8400

> <Gold.PLP.part.metal>
0.0000

> <Gold.PLP.part.buried>
0.0311

> <Gold.PLP.part.nonpolar>
-21.2712

> <Gold.PLP.part.repulsive>
0.4378

> <Gold.PLP.ligand.clash>
0.0000

> <Gold.PLP.ligand.torsion>
0.8246

> <Gold.PLP.Chemscore.Hbond>
1.8320

> <Gold.PLP.Chemscore.CHOScore>
1.0888

> <Gold.PLP.Chemscore.Metal>
0.0000

> <Gold.Chemscore.Hbonds>
donor molecule, donor type, donor heavy atom, donor atom, acceptor molecule, acceptor atom, score
      P1  H  7997  8008       L1     1  0.86
      P1  H 10752 10763       L1     4  0.83
      L1  C     5    16       P1  7948  0.77
      L1  C     5    16       P1  7949  0.31

> <Gold.PLP.Chemscore.Internal.Correction>
1.5501

> <Gold.Rescore>
     Score         DG    S(hbond)    S(metal)    S(lipo)     H(rot)  DE(clash)    DE(int)     intcor
     12.67     -14.66       1.00        0.00      49.97       0.00       0.11       1.87       ----

> <Gold.Chemscore.Fitness>
12.6742

> <Gold.Chemscore.DG>
-14.6577

> <Gold.Chemscore.ZeroCoef>
-5.4800

> <Gold.Chemscore.Hbond>
0.9973

> <Gold.Chemscore.Metal>
0.0000

> <Gold.Chemscore.Lipo>
49.9708

> <Gold.Chemscore.Internal_Hbond>
0.0000

> <Gold.Chemscore.DEClash>
0.1126

> <Gold.Chemscore.DEInternal>
1.8709

> <Gold.Chemscore.Rot>
0.0000

> <Gold.Chemscore.Internal.Correction>
   9.000000E+99

> <Gold.Chemscore.Hbonds>
donor molecule, donor type, donor heavy atom, donor atom, acceptor molecule, acceptor atom, score
      P1  H  7997  8008       L1     1  0.45
      P1  H 10752 10763       L1     4  0.23

> <Gold.Chemscore.Hbond.Weighted>
-3.3311

> <Gold.Chemscore.Metal.Weighted>
-0.0000

> <Gold.Chemscore.Lipo.Weighted>
-5.8466

> <Gold.Chemscore.Internal_Hbond.Weighted>
0.0000

> <Gold.Chemscore.DEClash.Weighted>
0.1126

> <Gold.Chemscore.DEInternal.Weighted>
1.8709

> <Gold.Chemscore.Rot.Weighted>
0.0000

> <Gold.Chemscore.Internal.Correction.Weighted>
   9.000000E+99

> <Gold.Protein.RotatedTorsions>
[ 6907 6896 6895 6894 ] final   91.81 input  -60.11 | X-H torsion
[ 7974 7965 7964 7962 ] final -136.30 input  175.53 | X-H torsion
[ 8008 7997 7996 7995 ] final  -48.39 input   59.86 | X-H torsion
[ 10167 10162 10161 10158 ] final   38.68 input  -65.29 | X-H torsion
[ 10718 10713 10712 10709 ] final -174.78 input   66.30 | X-H torsion
[ 10763 10752 10751 10750 ] final   42.95 input  -60.55 | X-H torsion
[ 11005 11000 10999 10996 ] final  176.31 input  -57.11 | X-H torsion

> <Gold.Protein.ActiveResidues>
 VAL166  LYS551  ARG553  GLY616  TRP617  ASP618  TYR619  PRO620  LYS621  CYS622 
 ASP623  PHE694  ASN695  SER759  ASP760  ASP761  ALA762  ILE779  LEU786  VAL792 
 PHE793  MET794  SER795  GLU796  ALA797  LYS798  CYS799  TRP800  GLU811  SER814 

> <Gold.Protein.RotatedAtoms>
  152.5451  134.1599  159.8553 H   0  0  0  0  0  0  0  0  0  0  0  0  # atno 6907 bound_to 6896
  151.1618  133.4833  159.2601 H   0  0  0  0  0  0  0  0  0  0  0  0  # atno 6908 bound_to 6896
  151.1365  135.0168  159.8661 H   0  0  0  0  0  0  0  0  0  0  0  0  # atno 6909 bound_to 6896
  144.8939  140.6680  143.5128 H   0  0  0  0  0  0  0  0  0  0  0  0  # atno 7974 bound_to 7965
  154.4028  140.1323  156.4331 H   0  0  0  0  0  0  0  0  0  0  0  0  # atno 8008 bound_to 7997
  155.7532  140.3487  155.5140 H   0  0  0  0  0  0  0  0  0  0  0  0  # atno 8009 bound_to 7997
  155.8930  140.1006  157.1395 H   0  0  0  0  0  0  0  0  0  0  0  0  # atno 8010 bound_to 7997
  140.3913  144.1848  150.6131 H   0  0  0  0  0  0  0  0  0  0  0  0  # atno 10167 bound_to 10162
  156.7901  130.9515  151.3120 H   0  0  0  0  0  0  0  0  0  0  0  0  # atno 10718 bound_to 10713
  152.9871  135.6116  154.3032 H   0  0  0  0  0  0  0  0  0  0  0  0  # atno 10763 bound_to 10752
  154.2751  135.2778  155.2723 H   0  0  0  0  0  0  0  0  0  0  0  0  # atno 10764 bound_to 10752
  154.5088  135.5847  153.6645 H   0  0  0  0  0  0  0  0  0  0  0  0  # atno 10765 bound_to 10752
  140.3717  134.7024  157.4396 H   0  0  0  0  0  0  0  0  0  0  0  0  # atno 11005 bound_to 11000
  145.3734  139.1653  143.4320 LP  0  0  0  0  0  0  0  0  0  0  0  0  # atno 17320 bound_to 7965
  146.3070  140.3808  142.8684 LP  0  0  0  0  0  0  0  0  0  0  0  0  # atno 17321 bound_to 7965
  140.4836  143.2370  151.8919 LP  0  0  0  0  0  0  0  0  0  0  0  0  # atno 17342 bound_to 10162
  139.4789  144.5242  151.8758 LP  0  0  0  0  0  0  0  0  0  0  0  0  # atno 17343 bound_to 10162
  157.6604  130.8961  149.9819 LP  0  0  0  0  0  0  0  0  0  0  0  0  # atno 17370 bound_to 10713
  156.1164  130.3647  149.9961 LP  0  0  0  0  0  0  0  0  0  0  0  0  # atno 17371 bound_to 10713
  140.0546  134.6081  155.8820 LP  0  0  0  0  0  0  0  0  0  0  0  0  # atno 17394 bound_to 11000
  141.1952  133.6586  156.5632 LP  0  0  0  0  0  0  0  0  0  0  0  0  # atno 17395 bound_to 11000

$$$$
