#       Name:                AV-unprocessed.smi:1830
#       Creating user name   scv26
#       Creation time:       Fri Mar 27 09:13:49 2020


#       File generated by GOLD software.
#

@<TRIPOS>MOLECULE
AV-unprocessed.smi:1830
    59    62     1
SMALL
NO_CHARGES


@<TRIPOS>ATOM
      1 ****         1.4726   3.3473   0.1081 O.2            1 S1                 0.0000
      2 ****         0.9221   2.2488   0.0455 C.2            1 S1                 0.0000
      3 ****         1.5903   1.0890   0.0695 N.am           1 S1                 0.0000
      4 ****         3.0415   0.9808   0.1658 C.3            1 S1                 0.0000
      5 ****         3.5204  -0.4762   0.0464 C.3            1 S1                 0.0000
      6 ****         3.0981  -1.1596  -1.2674 C.3            1 S1                 0.0000
      7 ****         3.5765  -2.5641  -1.3236 N.4            1 S1                 1.0000
      8 ****         2.9412  -3.3295  -2.4188 C.3            1 S1                 0.0000
      9 ****         1.7649  -4.1009  -1.7920 C.3            1 S1                 0.0000
     10 ****         1.8540  -3.8416  -0.2834 C.3            1 S1                 0.0000
     11 ****         3.2805  -3.3265  -0.0906 C.3            1 S1                 0.0000
     12 ****         3.5424  -2.5270   1.2023 C.3            1 S1                 0.0000
     13 ****         2.9804  -1.2241   1.1284 O.3            1 S1                 0.0000
     14 ****        -0.4034   2.0462  -0.0387 N.am           1 S1                 0.0000
     15 ****        -1.4490   3.0141  -0.0549 C.ar           1 S1                 0.0000
     16 ****        -1.2617   4.3438  -0.5137 C.ar           1 S1                 0.0000
     17 ****        -2.3467   5.2429  -0.5134 C.ar           1 S1                 0.0000
     18 ****        -3.6042   4.7992  -0.0651 C.ar           1 S1                 0.0000
     19 ****        -3.7545   3.5236   0.3485 N.pl3          1 S1                 1.0000
     20 ****        -2.7440   2.6199   0.3687 C.ar           1 S1                 0.0000
     21 ****        -3.0100   1.3120   0.8100 N.3            1 S1                 0.0000
     22 ****        -3.5161   1.1956   2.1675 C.3            1 S1                 0.0000
     23 ****        -4.0770  -0.2247   2.2700 C.3            1 S1                 0.0000
     24 ****        -4.3702  -0.6377   0.8223 C.3            1 S1                 0.0000
     25 ****        -3.9257   0.5557  -0.0278 C.3            1 S1                 0.0000
     26 ****         1.0664   0.2269   0.0289 H              1 S1                 0.0000
     27 ****         3.5005   1.5807  -0.6217 H              1 S1                 0.0000
     28 ****         3.3702   1.4018   1.1171 H              1 S1                 0.0000
     29 ****         4.6095  -0.4735   0.1203 H              1 S1                 0.0000
     30 ****         2.0111  -1.1451  -1.3607 H              1 S1                 0.0000
     31 ****         3.4949  -0.6130  -2.1237 H              1 S1                 0.0000
     32 ****         2.6309  -2.6941  -3.2499 H              1 S1                 0.0000
     33 ****         3.6738  -4.0364  -2.8100 H              1 S1                 0.0000
     34 ****         0.8063  -3.7638  -2.1878 H              1 S1                 0.0000
     35 ****         1.8538  -5.1661  -2.0094 H              1 S1                 0.0000
     36 ****         1.1329  -3.0750   0.0040 H              1 S1                 0.0000
     37 ****         1.6462  -4.7327   0.3099 H              1 S1                 0.0000
     38 ****         3.9403  -4.1960  -0.0878 H              1 S1                 0.0000
     39 ****         3.1233  -3.0504   2.0619 H              1 S1                 0.0000
     40 ****         4.6154  -2.4453   1.3833 H              1 S1                 0.0000
     41 ****        -0.7067   1.0840  -0.0002 H              1 S1                 0.0000
     42 ****        -0.3084   4.6911  -0.8804 H              1 S1                 0.0000
     43 ****        -2.2156   6.2585  -0.8576 H              1 S1                 0.0000
     44 ****        -4.4891   5.4183  -0.0321 H              1 S1                 0.0000
     45 ****        -2.7251   1.3682   2.8981 H              1 S1                 0.0000
     46 ****        -4.3074   1.9243   2.3486 H              1 S1                 0.0000
     47 ****        -3.3333  -0.8950   2.7030 H              1 S1                 0.0000
     48 ****        -4.9651  -0.2623   2.9016 H              1 S1                 0.0000
     49 ****        -3.7927  -1.5263   0.5646 H              1 S1                 0.0000
     50 ****        -5.4238  -0.8693   0.6634 H              1 S1                 0.0000
     51 ****        -4.7891   1.1652  -0.2982 H              1 S1                 0.0000
     52 ****        -3.4391   0.2335  -0.9490 H              1 S1                 0.0000
     53 ****         4.5770  -2.5392  -1.4624 H              1 S1                 0.0000
     54 ****        -4.6782   3.2243   0.6612 H              1 S1                 0.0000
     55 ****         2.4683   3.4041   0.1811 LP             1 S1                 0.0000
     56 ****         0.9243   4.1833   0.0860 LP             1 S1                 0.0000
     57 ****         1.9914  -1.3048   1.0043 LP             1 S1                 0.0000
     58 ****         3.1707  -0.7406   1.9828 LP             1 S1                 0.0000
     59 ****        -2.0886   0.9267   0.7591 LP             1 S1                 0.0000
@<TRIPOS>BOND
    1    1    2 2     
    2    2    3 am    
    3    2   14 am    
    4    3    4 1     
    5    3   26 1     
    6    4    5 1     
    7    4   27 1     
    8    4   28 1     
    9    5   13 1     
   10    5    6 1     
   11    5   29 1     
   12    6    7 1     
   13    6   30 1     
   14    6   31 1     
   15    7   11 1     
   16    7    8 1     
   17    7   53 1     
   18    8    9 1     
   19    8   32 1     
   20    8   33 1     
   21    9   10 1     
   22    9   34 1     
   23    9   35 1     
   24   10   11 1     
   25   10   36 1     
   26   10   37 1     
   27   11   12 1     
   28   11   38 1     
   29   12   13 1     
   30   12   39 1     
   31   12   40 1     
   32   14   15 1     
   33   14   41 1     
   34   15   20 ar    
   35   15   16 ar    
   36   16   17 ar    
   37   16   42 1     
   38   17   18 ar    
   39   17   43 1     
   40   18   19 ar    
   41   18   44 1     
   42   19   20 ar    
   43   19   54 1     
   44   20   21 1     
   45   21   25 1     
   46   21   22 1     
   47   22   23 1     
   48   22   45 1     
   49   22   46 1     
   50   23   24 1     
   51   23   47 1     
   52   23   48 1     
   53   24   25 1     
   54   24   49 1     
   55   24   50 1     
   56   25   51 1     
   57   25   52 1     
   58    1   55 1     
   59    1   56 1     
   60   13   57 1     
   61   13   58 1     
   62   21   59 1     
@<TRIPOS>SUBSTRUCTURE
      1 S1             1
@<TRIPOS>SET
LONE_PAIRS      STATIC     ATOMS    <user>   **** ""
5 55 56 57 58 59
DONOR_HYDROGENS      STATIC     ATOMS    <user>   **** ""
4 26 53 41 54
ATOM$BLUE        STATIC     ATOMS    COLORGROUP SYSTEM
5 55 56 57 58 59
ATOM$RED        STATIC     ATOMS    COLORGROUP SYSTEM
4 26 53 41 54
