#       Name:                AV-unprocessed.smi:86
#       Creating user name   scv26
#       Creation time:       Thu Mar 26 17:22:01 2020


#       File generated by GOLD software.
#

@<TRIPOS>MOLECULE
AV-unprocessed.smi:86
    60    64     1
SMALL
NO_CHARGES


@<TRIPOS>ATOM
      1 ****        -2.5169  -0.9324   2.9615 O.3            1 S1                 0.0000
      2 ****        -2.5522  -2.1255   3.7194 C.3            1 S1                 0.0000
      3 ****        -2.8036  -3.3730   2.8492 C.3            1 S1                 0.0000
      4 ****        -1.5027  -3.8112   2.1458 C.3            1 S1                 0.0000
      5 ****        -0.9394  -2.8149   1.2489 N.pl3          1 S1                 0.0000
      6 ****        -1.3853  -2.4914  -0.0112 C.2            1 S1                 0.0000
      7 ****        -0.7070  -1.5555  -0.6157 N.2            1 S1                 0.0000
      8 ****         0.2891  -1.2061   0.2907 C.ar           1 S1                 0.0000
      9 ****         1.3616  -0.2641   0.2907 C.ar           1 S1                 0.0000
     10 ****         1.6486   0.5814  -0.7328 N.pl3          1 S1                 0.0000
     11 ****         0.7899   0.7466  -1.9015 C.3            1 S1                 0.0000
     12 ****         1.4781   1.8521  -2.6990 C.3            1 S1                 0.0000
     13 ****         0.6495   2.6700  -3.6951 C.3            1 S1                 0.0000
     14 ****         1.5413   3.7749  -4.3052 C.3            1 S1                 0.0000
     15 ****         2.2623   4.6425  -3.2412 C.3            1 S1                 0.0000
     16 ****         1.3274   5.5093  -2.6295 O.3            1 S1                 0.0000
     17 ****         2.9791   3.7976  -2.1593 C.3            1 S1                 0.0000
     18 ****         2.0176   2.7446  -1.5911 C.3            1 S1                 0.0000
     19 ****         2.5506   1.7243  -0.5845 C.3            1 S1                 0.0000
     20 ****         2.1537  -0.2266   1.3949 N.ar           1 S1                 0.0000
     21 ****         1.9175  -1.0364   2.4302 C.ar           1 S1                 0.0000
     22 ****         0.9568  -1.9499   2.5711 N.ar           1 S1                 0.0000
     23 ****         0.1593  -2.0013   1.4664 C.ar           1 S1                 0.0000
     24 ****        -3.5386  -4.5061   3.5799 C.3            1 S1                 0.0000
     25 ****        -4.7908  -4.1911   2.9359 O.3            1 S1                 0.0000
     26 ****        -4.0847  -3.3501   1.9999 C.3            1 S1                 0.0000
     27 ****        -2.3538  -0.2086   3.5469 H              1 S1                 0.0000
     28 ****        -1.6183  -2.2166   4.2748 H              1 S1                 0.0000
     29 ****        -3.3408  -2.0092   4.4634 H              1 S1                 0.0000
     30 ****        -0.7461  -4.0811   2.8836 H              1 S1                 0.0000
     31 ****        -1.6732  -4.7154   1.5601 H              1 S1                 0.0000
     32 ****        -2.2365  -2.9704  -0.4720 H              1 S1                 0.0000
     33 ****         0.7121  -0.1729  -2.4820 H              1 S1                 0.0000
     34 ****        -0.2088   1.0520  -1.5863 H              1 S1                 0.0000
     35 ****         2.3186   1.4030  -3.2326 H              1 S1                 0.0000
     36 ****         0.2567   2.0251  -4.4815 H              1 S1                 0.0000
     37 ****        -0.2107   3.1159  -3.1944 H              1 S1                 0.0000
     38 ****         2.2967   3.3003  -4.9327 H              1 S1                 0.0000
     39 ****         0.9526   4.4053  -4.9725 H              1 S1                 0.0000
     40 ****         2.9960   5.2767  -3.7397 H              1 S1                 0.0000
     41 ****         1.7893   6.0731  -2.0279 H              1 S1                 0.0000
     42 ****         3.8429   3.2997  -2.6015 H              1 S1                 0.0000
     43 ****         3.3638   4.4361  -1.3632 H              1 S1                 0.0000
     44 ****         1.1785   3.2588  -1.1176 H              1 S1                 0.0000
     45 ****         2.5532   2.1376   0.4249 H              1 S1                 0.0000
     46 ****         3.5652   1.4122  -0.8345 H              1 S1                 0.0000
     47 ****         2.5953  -0.9373   3.2652 H              1 S1                 0.0000
     48 ****        -3.1902  -5.5059   3.3155 H              1 S1                 0.0000
     49 ****        -3.5818  -4.3876   4.6633 H              1 S1                 0.0000
     50 ****        -4.5417  -2.3656   1.8966 H              1 S1                 0.0000
     51 ****        -3.9821  -3.8332   1.0274 H              1 S1                 0.0000
     52 ****        -3.3937  -0.8008   2.4990 LP             1 S1                 0.0000
     53 ****        -1.7860  -0.9868   2.2811 LP             1 S1                 0.0000
     54 ****        -0.8670  -1.1746  -1.5264 LP             1 S1                 0.0000
     55 ****         0.6452   4.9729  -2.1327 LP             1 S1                 0.0000
     56 ****         0.8728   6.0619  -3.3280 LP             1 S1                 0.0000
     57 ****         2.9209   0.4138   1.4322 LP             1 S1                 0.0000
     58 ****         0.8367  -2.5230   3.3817 LP             1 S1                 0.0000
     59 ****        -5.4394  -3.7013   3.5184 LP             1 S1                 0.0000
     60 ****        -5.2459  -4.9773   2.5179 LP             1 S1                 0.0000
@<TRIPOS>BOND
    1    1    2 1     
    2    1   27 1     
    3    2    3 1     
    4    2   28 1     
    5    2   29 1     
    6    3   26 1     
    7    3    4 1     
    8    3   24 1     
    9    4    5 1     
   10    4   30 1     
   11    4   31 1     
   12    5   23 1     
   13    5    6 1     
   14    6    7 2     
   15    6   32 1     
   16    7    8 1     
   17    8   23 ar    
   18    8    9 ar    
   19    9   10 1     
   20    9   20 ar    
   21   10   19 1     
   22   10   11 1     
   23   11   12 1     
   24   11   33 1     
   25   11   34 1     
   26   12   18 1     
   27   12   13 1     
   28   12   35 1     
   29   13   14 1     
   30   13   36 1     
   31   13   37 1     
   32   14   15 1     
   33   14   38 1     
   34   14   39 1     
   35   15   16 1     
   36   15   17 1     
   37   15   40 1     
   38   16   41 1     
   39   17   18 1     
   40   17   42 1     
   41   17   43 1     
   42   18   19 1     
   43   18   44 1     
   44   19   45 1     
   45   19   46 1     
   46   20   21 ar    
   47   21   22 ar    
   48   21   47 1     
   49   22   23 ar    
   50   24   25 1     
   51   24   48 1     
   52   24   49 1     
   53   25   26 1     
   54   26   50 1     
   55   26   51 1     
   56    1   52 1     
   57    1   53 1     
   58    7   54 1     
   59   16   55 1     
   60   16   56 1     
   61   20   57 1     
   62   22   58 1     
   63   25   59 1     
   64   25   60 1     
@<TRIPOS>SUBSTRUCTURE
      1 S1             1
@<TRIPOS>SET
LONE_PAIRS      STATIC     ATOMS    <user>   **** ""
9 52 53 54 55 56 57 58 59 60
DONOR_HYDROGENS      STATIC     ATOMS    <user>   **** ""
2 27 41
ATOM$BLUE        STATIC     ATOMS    COLORGROUP SYSTEM
9 52 53 54 55 56 57 58 59 60
ATOM$RED        STATIC     ATOMS    COLORGROUP SYSTEM
2 27 41
