AV-unprocessed.smi:3037|AV-procd|sdf|11587|dock6
  -GOLD-   2272016563D 1   1.00000     0.00000
 Structure written by MMmdl.
 47 48  0  0  0  0  0  0  0  0  2 V2000
  151.5806  145.0162  158.7980 C   0  0  0  0  0  0  0  0  0  0  0  0
  151.7839  143.5522  159.0625 C   0  0  0  0  0  0  0  0  0  0  0  0
  152.7355  142.9426  159.9288 C   0  0  0  0  0  0  0  0  0  0  0  0
  152.6520  141.6221  159.9365 N   0  0  0  0  0  0  0  0  0  0  0  0
  151.6490  141.3430  159.0775 N   0  0  0  0  0  0  0  0  0  0  0  0
  151.2696  139.9636  158.8304 C   0  0  0  0  0  0  0  0  0  0  0  0
  150.0841  139.8337  157.8464 C   0  0  1  0  0  0  0  0  0  0  0  0
  150.3887  140.4368  156.4645 C   0  0  0  0  0  0  0  0  0  0  0  0
  149.6860  138.4180  157.6800 N   0  3  0  0  0  0  0  0  0  0  0  0
  149.7691  137.5870  158.8996 C   0  0  0  0  0  0  0  0  0  0  0  0
  148.3656  137.1585  159.3641 C   0  0  0  0  0  0  0  0  0  0  0  0
  148.2850  135.6950  159.8335 C   0  0  0  0  0  0  0  0  0  0  0  0
  148.5733  134.7997  159.0379 O   0  0  0  0  0  0  0  0  0  0  0  0
  147.9045  135.4342  161.1085 N   0  0  0  0  0  0  0  0  0  0  0  0
  147.4802  136.4881  162.0405 C   0  0  0  0  0  0  0  0  0  0  0  0
  145.9687  136.3464  162.2997 C   0  0  0  0  0  0  0  0  0  0  0  0
  145.6276  134.9379  162.8209 C   0  0  0  0  0  0  0  0  0  0  0  0
  146.2370  133.8400  161.9293 C   0  0  0  0  0  0  0  0  0  0  0  0
  147.7363  134.0959  161.6930 C   0  0  0  0  0  0  0  0  0  0  0  0
  151.1055  142.4891  158.5375 C   0  0  0  0  0  0  0  0  0  0  0  0
  152.3512  145.6248  159.2715 H   0  0  0  0  0  0  0  0  0  0  0  0
  150.6193  145.3630  159.1772 H   0  0  0  0  0  0  0  0  0  0  0  0
  151.6059  145.2395  157.7312 H   0  0  0  0  0  0  0  0  0  0  0  0
  153.4803  143.4188  160.5492 H   0  0  0  0  0  0  0  0  0  0  0  0
  152.1377  139.4237  158.4477 H   0  0  0  0  0  0  0  0  0  0  0  0
  151.0266  139.5143  159.7930 H   0  0  0  0  0  0  0  0  0  0  0  0
  149.2295  140.3770  158.2524 H   0  0  0  0  0  0  0  0  0  0  0  0
  150.5770  141.5089  156.5252 H   0  0  0  0  0  0  0  0  0  0  0  0
  149.5492  140.2984  155.7825 H   0  0  0  0  0  0  0  0  0  0  0  0
  151.2647  139.9698  156.0130 H   0  0  0  0  0  0  0  0  0  0  0  0
  148.7217  138.4085  157.3791 H   0  0  0  0  0  0  0  0  0  0  0  0
  150.3808  136.7061  158.7027 H   0  0  0  0  0  0  0  0  0  0  0  0
  150.2650  138.1596  159.6851 H   0  0  0  0  0  0  0  0  0  0  0  0
  148.0527  137.8046  160.1855 H   0  0  0  0  0  0  0  0  0  0  0  0
  147.6579  137.3027  158.5468 H   0  0  0  0  0  0  0  0  0  0  0  0
  148.0325  136.3870  162.9758 H   0  0  0  0  0  0  0  0  0  0  0  0
  147.6986  137.4925  161.6759 H   0  0  0  0  0  0  0  0  0  0  0  0
  145.6380  137.0993  163.0157 H   0  0  0  0  0  0  0  0  0  0  0  0
  145.4215  136.5364  161.3753 H   0  0  0  0  0  0  0  0  0  0  0  0
  146.0168  134.8297  163.8342 H   0  0  0  0  0  0  0  0  0  0  0  0
  144.5468  134.8120  162.8911 H   0  0  0  0  0  0  0  0  0  0  0  0
  146.0903  132.8625  162.3897 H   0  0  0  0  0  0  0  0  0  0  0  0
  145.7154  133.8136  160.9717 H   0  0  0  0  0  0  0  0  0  0  0  0
  148.1573  133.2939  161.0892 H   0  0  0  0  0  0  0  0  0  0  0  0
  148.2729  134.0525  162.6420 H   0  0  0  0  0  0  0  0  0  0  0  0
  150.2900  142.4540  157.8302 H   0  0  0  0  0  0  0  0  0  0  0  0
  150.2514  138.0032  156.9529 H   0  0  0  0  0  0  0  0  0  0  0  0
  1  2  1  0  0  0  0
  1 21  1  0  0  0  0
  1 22  1  0  0  0  0
  1 23  1  0  0  0  0
  2 20  2  0  0  0  0
  2  3  1  0  0  0  0
  3  4  2  0  0  0  0
  3 24  1  0  0  0  0
  4  5  1  0  0  0  0
  5  6  1  0  0  0  0
  5 20  1  0  0  0  0
  6  7  1  0  0  0  0
  6 25  1  0  0  0  0
  6 26  1  0  0  0  0
  7  8  1  0  0  0  0
  7  9  1  0  0  0  0
  7 27  1  0  0  0  0
  8 28  1  0  0  0  0
  8 29  1  0  0  0  0
  8 30  1  0  0  0  0
  9 10  1  0  0  0  0
  9 31  1  0  0  0  0
  9 47  1  0  0  0  0
 10 11  1  0  0  0  0
 10 32  1  0  0  0  0
 10 33  1  0  0  0  0
 11 12  1  0  0  0  0
 11 34  1  0  0  0  0
 11 35  1  0  0  0  0
 12 13  2  0  0  0  0
 12 14  1  0  0  0  0
 14 19  1  0  0  0  0
 14 15  1  0  0  0  0
 15 16  1  0  0  0  0
 15 36  1  0  0  0  0
 15 37  1  0  0  0  0
 16 17  1  0  0  0  0
 16 38  1  0  0  0  0
 16 39  1  0  0  0  0
 17 18  1  0  0  0  0
 17 40  1  0  0  0  0
 17 41  1  0  0  0  0
 18 19  1  0  0  0  0
 18 42  1  0  0  0  0
 18 43  1  0  0  0  0
 19 44  1  0  0  0  0
 19 45  1  0  0  0  0
 20 46  1  0  0  0  0
M  CHG  1   9   1
M  END
> <s_m_source_file>
AV-unprocessed.smi

> <i_m_source_file_index>
3037

> <i_lp_mmshare_version>
43012

> <i_f3d_flags>
0

> <s_epik_input>
W0NIM11jMVtjSF1ubihbY0hdMSlbQ0gyXVtDQEhdKFtDSDNdKVtOSF1bQ0gyXVtDSDJdQyg9TylOMltDSDJdW0NIMl1bQ0gyXVtDSDJdW0NIMl0y

> <s_epik_cmdline>
J2VwaWtfcHl0aG9uJywgJy1waCcsICc3LjAnLCAnLXRuJywgJzgnLCAnLW1hJywgJzIwMCcsICctbWV0YWxfYmluZGluZycsICctaW1hZScsICc8aW5maWxlLm1hZT4nLCAnLW9tYWUnLCAnPG91dGZpbGUubWFlPic=

> <r_lp_tautomer_probability>
1

> <r_epik_Ionization_Penalty>
0.00574983

> <r_epik_Ionization_Penalty_Charging>
0.00574185

> <r_epik_Ionization_Penalty_Neutral>
7.97936e-06

> <r_epik_State_Penalty>
0.00421386

> <r_epik_Charging_Adjusted_Penalty>
0.00995571

> <i_epik_Tot_Q>
1

> <i_epik_Tot_abs_Q>
1

> <r_epik_Metal_State_Penalty>
-0

> <b_epik_Metal_Only>
0

> <s_lp_Force_Field>
OPLS_2005

> <r_lp_Energy>
26.5412

> <b_lp_Chiralities_Consistent>
1

> <s_lp_Variant>
AV-unprocessed.smi:3037-2

> <Gold.Version>
5.8.1

> <Gold.Id.Protein>
6NUR|6NUR_protein|mol2

> <Gold.PLP.Fitness>
44.4410

> <Gold.PLP.PLP>
-43.0667

> <Gold.PLP.part.hbond>
-1.0000

> <Gold.PLP.part.metal>
0.0000

> <Gold.PLP.part.buried>
-5.3023

> <Gold.PLP.part.nonpolar>
-36.9469

> <Gold.PLP.part.repulsive>
0.0548

> <Gold.PLP.ligand.clash>
0.0000

> <Gold.PLP.ligand.torsion>
0.8653

> <Gold.PLP.Chemscore.Hbond>
1.0000

> <Gold.PLP.Chemscore.CHOScore>
0.0000

> <Gold.PLP.Chemscore.Metal>
0.0000

> <Gold.Chemscore.Hbonds>
donor molecule, donor type, donor heavy atom, donor atom, acceptor molecule, acceptor atom, score
      P1  H  6896  6907       L1    13  0.63

> <Gold.PLP.Chemscore.Internal.Correction>
0.1048

> <Gold.Rescore>
     Score         DG    S(hbond)    S(metal)    S(lipo)     H(rot)  DE(clash)    DE(int)     intcor
     15.52     -16.40       0.85        0.00     109.41       1.84       0.05       0.83       ----

> <Gold.Chemscore.Fitness>
15.5150

> <Gold.Chemscore.DG>
-16.3973

> <Gold.Chemscore.ZeroCoef>
-5.4800

> <Gold.Chemscore.Hbond>
0.8451

> <Gold.Chemscore.Metal>
0.0000

> <Gold.Chemscore.Lipo>
109.4097

> <Gold.Chemscore.Internal_Hbond>
0.0000

> <Gold.Chemscore.DEClash>
0.0543

> <Gold.Chemscore.DEInternal>
0.8280

> <Gold.Chemscore.Rot>
1.8383

> <Gold.Chemscore.Internal.Correction>
   9.000000E+99

> <Gold.Chemscore.Hbonds>
donor molecule, donor type, donor heavy atom, donor atom, acceptor molecule, acceptor atom, score
      P1  H  6896  6907       L1    13  0.41

> <Gold.Chemscore.Hbond.Weighted>
-2.8225

> <Gold.Chemscore.Metal.Weighted>
-0.0000

> <Gold.Chemscore.Lipo.Weighted>
-12.8009

> <Gold.Chemscore.Internal_Hbond.Weighted>
0.0000

> <Gold.Chemscore.DEClash.Weighted>
0.0543

> <Gold.Chemscore.DEInternal.Weighted>
0.8280

> <Gold.Chemscore.Rot.Weighted>
4.7062

> <Gold.Chemscore.Internal.Correction.Weighted>
   9.000000E+99

> <Gold.Protein.RotatedTorsions>
[ 6907 6896 6895 6894 ] final  -94.53 input  -60.11 | X-H torsion
[ 7974 7965 7964 7962 ] final  -51.56 input  175.53 | X-H torsion
[ 8008 7997 7996 7995 ] final  -47.40 input   59.86 | X-H torsion
[ 10167 10162 10161 10158 ] final   81.08 input  -65.29 | X-H torsion
[ 10718 10713 10712 10709 ] final  108.72 input   66.30 | X-H torsion
[ 10763 10752 10751 10750 ] final -179.68 input  -60.55 | X-H torsion
[ 11005 11000 10999 10996 ] final  -83.35 input  -57.11 | X-H torsion

> <Gold.Protein.ActiveResidues>
 VAL166  LYS551  ARG553  GLY616  TRP617  ASP618  TYR619  PRO620  LYS621  CYS622 
 ASP623  PHE694  ASN695  SER759  ASP760  ASP761  ALA762  ILE779  LEU786  VAL792 
 PHE793  MET794  SER795  GLU796  ALA797  LYS798  CYS799  TRP800  GLU811  SER814 

> <Gold.Protein.RotatedAtoms>
  150.6944  134.1798  159.4243 H   0  0  0  0  0  0  0  0  0  0  0  0  # atno 6907 bound_to 6896
  151.9773  135.0044  160.0565 H   0  0  0  0  0  0  0  0  0  0  0  0  # atno 6908 bound_to 6896
  152.1787  133.4658  159.4984 H   0  0  0  0  0  0  0  0  0  0  0  0  # atno 6909 bound_to 6896
  145.9176  140.7862  142.9664 H   0  0  0  0  0  0  0  0  0  0  0  0  # atno 7974 bound_to 7965
  154.4016  140.1347  156.4170 H   0  0  0  0  0  0  0  0  0  0  0  0  # atno 8008 bound_to 7997
  155.7679  140.3484  155.5211 H   0  0  0  0  0  0  0  0  0  0  0  0  # atno 8009 bound_to 7997
  155.8795  140.0985  157.1485 H   0  0  0  0  0  0  0  0  0  0  0  0  # atno 8010 bound_to 7997
  139.9430  144.6077  150.8234 H   0  0  0  0  0  0  0  0  0  0  0  0  # atno 10167 bound_to 10162
  157.6574  131.0899  150.6347 H   0  0  0  0  0  0  0  0  0  0  0  0  # atno 10718 bound_to 10713
  154.5319  135.2800  155.1172 H   0  0  0  0  0  0  0  0  0  0  0  0  # atno 10763 bound_to 10752
  154.2688  135.6307  153.5306 H   0  0  0  0  0  0  0  0  0  0  0  0  # atno 10764 bound_to 10752
  152.9959  135.5623  154.5835 H   0  0  0  0  0  0  0  0  0  0  0  0  # atno 10765 bound_to 10752
  141.1658  133.7290  156.8707 H   0  0  0  0  0  0  0  0  0  0  0  0  # atno 11005 bound_to 11000
  144.6749  140.1924  143.7395 LP  0  0  0  0  0  0  0  0  0  0  0  0  # atno 17320 bound_to 7965
  145.8592  139.2214  143.1727 LP  0  0  0  0  0  0  0  0  0  0  0  0  # atno 17321 bound_to 7965
  140.7605  143.3153  151.2747 LP  0  0  0  0  0  0  0  0  0  0  0  0  # atno 17342 bound_to 10162
  139.6689  144.0055  152.2741 LP  0  0  0  0  0  0  0  0  0  0  0  0  # atno 17343 bound_to 10162
  156.6653  130.4524  149.5674 LP  0  0  0  0  0  0  0  0  0  0  0  0  # atno 17370 bound_to 10713
  156.2037  130.6636  151.1195 LP  0  0  0  0  0  0  0  0  0  0  0  0  # atno 17371 bound_to 10713
  140.1783  134.9051  157.2918 LP  0  0  0  0  0  0  0  0  0  0  0  0  # atno 17394 bound_to 11000
  140.2423  134.3781  155.7475 LP  0  0  0  0  0  0  0  0  0  0  0  0  # atno 17395 bound_to 11000

$$$$
