AV-unprocessed.smi:243|AV-procd|sdf|1849|dock5
  -GOLD-   2262020473D 1   1.00000     0.00000
 Structure written by MMmdl.
 58 61  0  0  0  0  0  0  0  0  2 V2000
  146.6725  128.0949  151.5953 C   0  0  0  0  0  0  0  0  0  0  0  0
  145.8444  129.3730  151.3966 C   0  0  0  0  0  0  0  0  0  0  0  0
  146.5997  130.6047  151.7404 N   0  3  1  0  0  0  0  0  0  0  0  0
  145.9534  131.8239  151.1913 C   0  0  0  0  0  0  0  0  0  0  0  0
  146.7901  133.0915  151.4545 C   0  0  0  0  0  0  0  0  0  0  0  0
  147.2559  133.2599  152.9161 C   0  0  1  0  0  0  0  0  0  0  0  0
  146.2698  133.9340  153.7810 N   0  0  0  0  0  0  0  0  0  0  0  0
  145.0678  133.2948  154.3094 C   0  0  0  0  0  0  0  0  0  0  0  0
  146.5969  135.1471  154.2962 C   0  0  0  0  0  0  0  0  0  0  0  0
  147.2329  135.1893  155.4962 N   0  0  0  0  0  0  0  0  0  0  0  0
  147.5815  136.3613  156.0348 C   0  0  0  0  0  0  0  0  0  0  0  0
  147.3914  137.5903  155.5524 N   0  0  0  0  0  0  0  0  0  0  0  0
  146.7467  137.5569  154.3512 C   0  0  0  0  0  0  0  0  0  0  0  0
  146.3213  136.3899  153.6548 C   0  0  0  0  0  0  0  0  0  0  0  0
  145.6977  136.7533  152.4660 N   0  0  0  0  0  0  0  0  0  0  0  0
  145.7631  138.0561  152.4546 C   0  0  0  0  0  0  0  0  0  0  0  0
  146.3656  138.6229  153.5545 N   0  0  0  0  0  0  0  0  0  0  0  0
  146.5672  140.0419  153.8013 C   0  0  0  0  0  0  0  0  0  0  0  0
  148.0260  140.5178  153.5813 C   0  0  1  0  0  0  0  0  0  0  0  0
  148.4061  140.2920  152.2373 O   0  0  0  0  0  0  0  0  0  0  0  0
  148.2043  141.9890  153.9198 C   0  0  0  0  0  0  0  0  0  0  0  0
  148.4575  141.9672  155.4264 C   0  0  0  0  0  0  0  0  0  0  0  0
  149.0045  140.6839  155.7181 O   0  0  0  0  0  0  0  0  0  0  0  0
  149.0475  139.8902  154.5375 C   0  0  0  0  0  0  0  0  0  0  0  0
  147.8119  131.9283  153.4766 C   0  0  1  0  0  0  0  0  0  0  0  0
  148.2373  132.0137  154.9526 C   0  0  0  0  0  0  0  0  0  0  0  0
  146.8791  130.7342  153.1947 C   0  0  0  0  0  0  0  0  0  0  0  0
  146.1231  127.2247  151.2354 H   0  0  0  0  0  0  0  0  0  0  0  0
  146.9065  127.9147  152.6440 H   0  0  0  0  0  0  0  0  0  0  0  0
  147.6112  128.1430  151.0425 H   0  0  0  0  0  0  0  0  0  0  0  0
  145.5503  129.4142  150.3468 H   0  0  0  0  0  0  0  0  0  0  0  0
  144.9192  129.3266  151.9732 H   0  0  0  0  0  0  0  0  0  0  0  0
  145.8340  131.7105  150.1134 H   0  0  0  0  0  0  0  0  0  0  0  0
  144.9464  131.9174  151.5914 H   0  0  0  0  0  0  0  0  0  0  0  0
  147.6795  133.0346  150.8256 H   0  0  0  0  0  0  0  0  0  0  0  0
  146.2517  133.9797  151.1215 H   0  0  0  0  0  0  0  0  0  0  0  0
  148.1262  133.9149  152.8629 H   0  0  0  0  0  0  0  0  0  0  0  0
  144.3619  134.0377  154.6832 H   0  0  0  0  0  0  0  0  0  0  0  0
  145.3144  132.6250  155.1327 H   0  0  0  0  0  0  0  0  0  0  0  0
  144.5415  132.7270  153.5490 H   0  0  0  0  0  0  0  0  0  0  0  0
  148.0847  136.3073  156.9890 H   0  0  0  0  0  0  0  0  0  0  0  0
  145.3632  138.6447  151.6417 H   0  0  0  0  0  0  0  0  0  0  0  0
  145.8896  140.5987  153.1528 H   0  0  0  0  0  0  0  0  0  0  0  0
  146.2486  140.2527  154.8227 H   0  0  0  0  0  0  0  0  0  0  0  0
  149.2441  139.8555  152.2310 H   0  0  0  0  0  0  0  0  0  0  0  0
  149.0866  142.3905  153.4184 H   0  0  0  0  0  0  0  0  0  0  0  0
  147.3529  142.6092  153.6375 H   0  0  0  0  0  0  0  0  0  0  0  0
  149.1317  142.7647  155.7400 H   0  0  0  0  0  0  0  0  0  0  0  0
  147.5235  142.0806  155.9772 H   0  0  0  0  0  0  0  0  0  0  0  0
  148.8756  138.8363  154.7497 H   0  0  0  0  0  0  0  0  0  0  0  0
  150.0548  139.9753  154.1264 H   0  0  0  0  0  0  0  0  0  0  0  0
  148.7275  131.7274  152.9172 H   0  0  0  0  0  0  0  0  0  0  0  0
  147.3819  132.1404  155.6155 H   0  0  0  0  0  0  0  0  0  0  0  0
  148.9128  132.8535  155.1178 H   0  0  0  0  0  0  0  0  0  0  0  0
  148.7588  131.1077  155.2625 H   0  0  0  0  0  0  0  0  0  0  0  0
  145.9430  130.8218  153.7448 H   0  0  0  0  0  0  0  0  0  0  0  0
  147.3626  129.8278  153.5568 H   0  0  0  0  0  0  0  0  0  0  0  0
  147.4940  130.5296  151.2768 H   0  0  0  0  0  0  0  0  0  0  0  0
  1  2  1  0  0  0  0
  1 28  1  0  0  0  0
  1 29  1  0  0  0  0
  1 30  1  0  0  0  0
  2  3  1  0  0  0  0
  2 31  1  0  0  0  0
  2 32  1  0  0  0  0
  3 27  1  0  0  0  0
  3  4  1  0  0  0  0
  3 58  1  0  0  0  0
  4  5  1  0  0  0  0
  4 33  1  0  0  0  0
  4 34  1  0  0  0  0
  5  6  1  0  0  0  0
  5 35  1  0  0  0  0
  5 36  1  0  0  0  0
  6  7  1  0  0  0  0
  6 25  1  0  0  0  0
  6 37  1  0  0  0  0
  7  8  1  0  0  0  0
  7  9  1  0  0  0  0
  8 38  1  0  0  0  0
  8 39  1  0  0  0  0
  8 40  1  0  0  0  0
  9 14  1  0  0  0  0
  9 10  2  0  0  0  0
 10 11  1  0  0  0  0
 11 12  2  0  0  0  0
 11 41  1  0  0  0  0
 12 13  1  0  0  0  0
 13 17  1  0  0  0  0
 13 14  2  0  0  0  0
 14 15  1  0  0  0  0
 15 16  2  0  0  0  0
 16 17  1  0  0  0  0
 16 42  1  0  0  0  0
 17 18  1  0  0  0  0
 18 19  1  0  0  0  0
 18 43  1  0  0  0  0
 18 44  1  0  0  0  0
 19 24  1  0  0  0  0
 19 20  1  0  0  0  0
 19 21  1  0  0  0  0
 20 45  1  0  0  0  0
 21 22  1  0  0  0  0
 21 46  1  0  0  0  0
 21 47  1  0  0  0  0
 22 23  1  0  0  0  0
 22 48  1  0  0  0  0
 22 49  1  0  0  0  0
 23 24  1  0  0  0  0
 24 50  1  0  0  0  0
 24 51  1  0  0  0  0
 25 26  1  0  0  0  0
 25 27  1  0  0  0  0
 25 52  1  0  0  0  0
 26 53  1  0  0  0  0
 26 54  1  0  0  0  0
 26 55  1  0  0  0  0
 27 56  1  0  0  0  0
 27 57  1  0  0  0  0
M  CHG  1   3   1
M  END
> <s_m_source_file>
AV-unprocessed.smi

> <i_m_source_file_index>
243

> <i_lp_mmshare_version>
43012

> <i_f3d_flags>
0

> <s_epik_input>
W0NIM11bQ0gyXU4xW0NIMl1bQ0gyXVtDQEhdKFtDQEBIXShbQ0gzXSlbQ0gyXTEpTihbQ0gzXSljKG5bY0hdbjIpYyhjMjMpbltjSF1uM1tDSDJdW0NAQF00KFtPSF0pW0NIMl1bQ0gyXU9bQ0gyXTQ=

> <s_epik_cmdline>
J2VwaWtfcHl0aG9uJywgJy1waCcsICc3LjAnLCAnLXRuJywgJzgnLCAnLW1hJywgJzIwMCcsICctbWV0YWxfYmluZGluZycsICctaW1hZScsICc8aW5maWxlLm1hZT4nLCAnLW9tYWUnLCAnPG91dGZpbGUubWFlPic=

> <r_lp_tautomer_probability>
1

> <r_epik_Ionization_Penalty>
0.00253099

> <r_epik_Ionization_Penalty_Charging>
0.00137877

> <r_epik_Ionization_Penalty_Neutral>
0.00115221

> <r_epik_State_Penalty>
-0

> <r_epik_Charging_Adjusted_Penalty>
0.00137877

> <i_epik_Tot_Q>
1

> <i_epik_Tot_abs_Q>
1

> <r_epik_Metal_State_Penalty>
-0

> <b_epik_Metal_Only>
0

> <s_lp_Force_Field>
OPLS_2005

> <r_lp_Energy>
52.4655

> <b_lp_Chiralities_Consistent>
1

> <s_lp_Variant>
AV-unprocessed.smi:243-2

> <Gold.Version>
5.8.1

> <Gold.Id.Protein>
6NUR|6NUR_protein|mol2

> <Gold.PLP.Fitness>
40.6825

> <Gold.PLP.PLP>
-35.2053

> <Gold.PLP.part.hbond>
-1.7578

> <Gold.PLP.part.metal>
0.0000

> <Gold.PLP.part.buried>
-0.5859

> <Gold.PLP.part.nonpolar>
-33.4877

> <Gold.PLP.part.repulsive>
0.3221

> <Gold.PLP.ligand.clash>
0.0000

> <Gold.PLP.ligand.torsion>
1.9056

> <Gold.PLP.Chemscore.Hbond>
2.0000

> <Gold.PLP.Chemscore.CHOScore>
1.0000

> <Gold.PLP.Chemscore.Metal>
0.0000

> <Gold.Chemscore.Hbonds>
donor molecule, donor type, donor heavy atom, donor atom, acceptor molecule, acceptor atom, score
      L1  H     3    58       P1 10747  1.00
      L1  C    16    42       P1 10171  1.00
      L1  C    16    42       P1 10175  0.56

> <Gold.PLP.Chemscore.Internal.Correction>
0.2884

> <Gold.Rescore>
     Score         DG    S(hbond)    S(metal)    S(lipo)     H(rot)  DE(clash)    DE(int)     intcor
     14.40     -16.60       1.97        0.00      87.87       2.24       0.10       2.10       ----

> <Gold.Chemscore.Fitness>
14.4036

> <Gold.Chemscore.DG>
-16.6039

> <Gold.Chemscore.ZeroCoef>
-5.4800

> <Gold.Chemscore.Hbond>
1.9679

> <Gold.Chemscore.Metal>
0.0000

> <Gold.Chemscore.Lipo>
87.8651

> <Gold.Chemscore.Internal_Hbond>
0.0000

> <Gold.Chemscore.DEClash>
0.1027

> <Gold.Chemscore.DEInternal>
2.0976

> <Gold.Chemscore.Rot>
2.2379

> <Gold.Chemscore.Internal.Correction>
   9.000000E+99

> <Gold.Chemscore.Hbonds>
donor molecule, donor type, donor heavy atom, donor atom, acceptor molecule, acceptor atom, score
      L1  H     3    58       P1 10747  1.00
      L1  H    20    45       P1  7957  0.01

> <Gold.Chemscore.Hbond.Weighted>
-6.5728

> <Gold.Chemscore.Metal.Weighted>
-0.0000

> <Gold.Chemscore.Lipo.Weighted>
-10.2802

> <Gold.Chemscore.Internal_Hbond.Weighted>
0.0000

> <Gold.Chemscore.DEClash.Weighted>
0.1027

> <Gold.Chemscore.DEInternal.Weighted>
2.0976

> <Gold.Chemscore.Rot.Weighted>
5.7291

> <Gold.Chemscore.Internal.Correction.Weighted>
   9.000000E+99

> <Gold.Protein.RotatedTorsions>
[ 6907 6896 6895 6894 ] final -154.34 input  -60.11 | X-H torsion
[ 7974 7965 7964 7962 ] final -134.68 input  175.53 | X-H torsion
[ 8008 7997 7996 7995 ] final   38.81 input   59.86 | X-H torsion
[ 10167 10162 10161 10158 ] final   53.58 input  -65.29 | X-H torsion
[ 10718 10713 10712 10709 ] final   94.23 input   66.30 | X-H torsion
[ 10763 10752 10751 10750 ] final  125.44 input  -60.55 | X-H torsion
[ 11005 11000 10999 10996 ] final -130.31 input  -57.11 | X-H torsion

> <Gold.Protein.ActiveResidues>
 VAL166  LYS551  ARG553  GLY616  TRP617  ASP618  TYR619  PRO620  LYS621  CYS622 
 ASP623  PHE694  ASN695  SER759  ASP760  ASP761  ALA762  ILE779  LEU786  VAL792 
 PHE793  MET794  SER795  GLU796  ALA797  LYS798  CYS799  TRP800  GLU811  SER814 

> <Gold.Protein.RotatedAtoms>
  151.2561  133.4325  159.2613 H   0  0  0  0  0  0  0  0  0  0  0  0  # atno 6907 bound_to 6896
  151.0573  134.9713  159.8252 H   0  0  0  0  0  0  0  0  0  0  0  0  # atno 6908 bound_to 6896
  152.5392  134.2513  159.8952 H   0  0  0  0  0  0  0  0  0  0  0  0  # atno 6909 bound_to 6896
  144.9081  140.6859  143.5042 H   0  0  0  0  0  0  0  0  0  0  0  0  # atno 7974 bound_to 7965
  155.2263  140.3335  155.4309 H   0  0  0  0  0  0  0  0  0  0  0  0  # atno 8008 bound_to 7997
  156.2313  140.1852  156.7282 H   0  0  0  0  0  0  0  0  0  0  0  0  # atno 8009 bound_to 7997
  154.5983  140.0627  156.9318 H   0  0  0  0  0  0  0  0  0  0  0  0  # atno 8010 bound_to 7997
  140.2393  144.3601  150.6386 H   0  0  0  0  0  0  0  0  0  0  0  0  # atno 10167 bound_to 10162
  157.6949  131.0505  150.4155 H   0  0  0  0  0  0  0  0  0  0  0  0  # atno 10718 bound_to 10713
  153.6774  135.3320  155.3169 H   0  0  0  0  0  0  0  0  0  0  0  0  # atno 10763 bound_to 10752
  154.8475  135.4400  154.1642 H   0  0  0  0  0  0  0  0  0  0  0  0  # atno 10764 bound_to 10752
  153.2649  135.6995  153.7616 H   0  0  0  0  0  0  0  0  0  0  0  0  # atno 10765 bound_to 10752
  140.9357  134.1260  157.4196 H   0  0  0  0  0  0  0  0  0  0  0  0  # atno 11005 bound_to 11000
  145.3501  139.1708  143.4439 LP  0  0  0  0  0  0  0  0  0  0  0  0  # atno 17320 bound_to 7965
  146.3144  140.3552  142.8660 LP  0  0  0  0  0  0  0  0  0  0  0  0  # atno 17321 bound_to 7965
  140.6126  143.2170  151.6856 LP  0  0  0  0  0  0  0  0  0  0  0  0  # atno 17342 bound_to 10162
  139.5083  144.3617  152.0556 LP  0  0  0  0  0  0  0  0  0  0  0  0  # atno 17343 bound_to 10162
  156.4535  130.4016  149.6621 LP  0  0  0  0  0  0  0  0  0  0  0  0  # atno 17370 bound_to 10713
  156.3762  130.7555  151.2544 LP  0  0  0  0  0  0  0  0  0  0  0  0  # atno 17371 bound_to 10713
  139.8807  135.0020  156.6100 LP  0  0  0  0  0  0  0  0  0  0  0  0  # atno 17394 bound_to 11000
  140.7802  133.8666  155.8562 LP  0  0  0  0  0  0  0  0  0  0  0  0  # atno 17395 bound_to 11000

$$$$
