AV-unprocessed.smi:122|AV-procd|sdf|1141|dock1
  -GOLD-   2262018273D 1   1.00000     0.00000
 Structure written by MMmdl.
 48 50  0  0  0  0  0  0  0  0  1 V2000
  145.5965  136.3089  161.7773 C   0  0  0  0  0  0  0  0  0  0  0  0
  147.1983  136.5117  160.8960 S   0  0  0  0  0  0  0  0  0  0  0  0
  147.0343  137.5507  159.8679 O   0  0  0  0  0  0  0  0  0  0  0  0
  148.2685  136.6311  161.8980 O   0  0  0  0  0  0  0  0  0  0  0  0
  147.3883  134.9885  160.0902 N   0  0  0  0  0  0  0  0  0  0  0  0
  148.2658  134.9341  158.8983 C   0  0  0  0  0  0  0  0  0  0  0  0
  148.5885  133.4851  158.4906 C   0  0  0  0  0  0  0  0  0  0  0  0
  147.3345  132.7471  158.3449 N   0  0  0  0  0  0  0  0  0  0  0  0
  146.8311  132.3632  157.1479 C   0  0  0  0  0  0  0  0  0  0  0  0
  145.7364  131.8054  157.0483 O   0  0  0  0  0  0  0  0  0  0  0  0
  147.6591  132.6291  155.8733 C   0  0  0  0  0  0  0  0  0  0  0  0
  147.0981  131.9978  154.6579 N   0  0  0  0  0  0  0  0  0  0  0  0
  147.1133  130.5845  154.5557 C   0  0  0  0  0  0  0  0  0  0  0  0
  147.5742  129.8842  155.4582 O   0  0  0  0  0  0  0  0  0  0  0  0
  146.5623  130.0363  153.3215 C   0  0  0  0  0  0  0  0  0  0  0  0
  146.5350  128.7053  153.1391 F   0  0  0  0  0  0  0  0  0  0  0  0
  146.0800  130.8450  152.3554 C   0  0  0  0  0  0  0  0  0  0  0  0
  146.0738  132.2242  152.4675 N   0  0  0  0  0  0  0  0  0  0  0  0
  145.5445  133.1196  151.3669 C   0  0  2  0  0  0  0  0  0  0  0  0
  144.0638  132.8072  151.0780 C   0  0  0  0  0  0  0  0  0  0  0  0
  144.0491  132.6219  149.5738 C   0  0  0  0  0  0  0  0  0  0  0  0
  145.4518  132.0966  149.3093 C   0  0  0  0  0  0  0  0  0  0  0  0
  146.2507  132.8853  150.1815 O   0  0  0  0  0  0  0  0  0  0  0  0
  146.5982  132.8314  153.6293 C   0  0  0  0  0  0  0  0  0  0  0  0
  146.6214  134.0595  153.7393 O   0  0  0  0  0  0  0  0  0  0  0  0
  146.6660  132.6381  159.6420 C   0  0  0  0  0  0  0  0  0  0  0  0
  146.2461  134.0460  160.1005 C   0  0  0  0  0  0  0  0  0  0  0  0
  145.3636  137.2272  162.3158 H   0  0  0  0  0  0  0  0  0  0  0  0
  145.6689  135.4847  162.4863 H   0  0  0  0  0  0  0  0  0  0  0  0
  144.8047  136.1033  161.0577 H   0  0  0  0  0  0  0  0  0  0  0  0
  147.7723  135.4507  158.0743 H   0  0  0  0  0  0  0  0  0  0  0  0
  149.1932  135.4704  159.0990 H   0  0  0  0  0  0  0  0  0  0  0  0
  149.1893  133.4813  157.5802 H   0  0  0  0  0  0  0  0  0  0  0  0
  149.2074  133.0090  159.2527 H   0  0  0  0  0  0  0  0  0  0  0  0
  147.7531  133.7074  155.7374 H   0  0  0  0  0  0  0  0  0  0  0  0
  148.6816  132.2848  156.0369 H   0  0  0  0  0  0  0  0  0  0  0  0
  145.6901  130.3751  151.4656 H   0  0  0  0  0  0  0  0  0  0  0  0
  145.7298  134.1418  151.7018 H   0  0  0  0  0  0  0  0  0  0  0  0
  143.7681  131.8826  151.5770 H   0  0  0  0  0  0  0  0  0  0  0  0
  143.4182  133.6168  151.4197 H   0  0  0  0  0  0  0  0  0  0  0  0
  143.2668  131.9431  149.2333 H   0  0  0  0  0  0  0  0  0  0  0  0
  143.9112  133.5835  149.0772 H   0  0  0  0  0  0  0  0  0  0  0  0
  145.5284  131.0420  149.5781 H   0  0  0  0  0  0  0  0  0  0  0  0
  145.7583  132.2118  148.2695 H   0  0  0  0  0  0  0  0  0  0  0  0
  145.8025  131.9751  159.6361 H   0  0  0  0  0  0  0  0  0  0  0  0
  147.3545  132.2029  160.3680 H   0  0  0  0  0  0  0  0  0  0  0  0
  145.8241  133.9911  161.1039 H   0  0  0  0  0  0  0  0  0  0  0  0
  145.4632  134.4331  159.4474 H   0  0  0  0  0  0  0  0  0  0  0  0
  1  2  1  0  0  0  0
  1 28  1  0  0  0  0
  1 29  1  0  0  0  0
  1 30  1  0  0  0  0
  2  3  2  0  0  0  0
  2  4  2  0  0  0  0
  2  5  1  0  0  0  0
  5 27  1  0  0  0  0
  5  6  1  0  0  0  0
  6  7  1  0  0  0  0
  6 31  1  0  0  0  0
  6 32  1  0  0  0  0
  7  8  1  0  0  0  0
  7 33  1  0  0  0  0
  7 34  1  0  0  0  0
  8  9  1  0  0  0  0
  8 26  1  0  0  0  0
  9 10  2  0  0  0  0
  9 11  1  0  0  0  0
 11 12  1  0  0  0  0
 11 35  1  0  0  0  0
 11 36  1  0  0  0  0
 12 24  1  0  0  0  0
 12 13  1  0  0  0  0
 13 14  2  0  0  0  0
 13 15  1  0  0  0  0
 15 16  1  0  0  0  0
 15 17  2  0  0  0  0
 17 18  1  0  0  0  0
 17 37  1  0  0  0  0
 18 19  1  0  0  0  0
 18 24  1  0  0  0  0
 19 23  1  0  0  0  0
 19 20  1  0  0  0  0
 19 38  1  0  0  0  0
 20 21  1  0  0  0  0
 20 39  1  0  0  0  0
 20 40  1  0  0  0  0
 21 22  1  0  0  0  0
 21 41  1  0  0  0  0
 21 42  1  0  0  0  0
 22 23  1  0  0  0  0
 22 43  1  0  0  0  0
 22 44  1  0  0  0  0
 24 25  2  0  0  0  0
 26 27  1  0  0  0  0
 26 45  1  0  0  0  0
 26 46  1  0  0  0  0
 27 47  1  0  0  0  0
 27 48  1  0  0  0  0
M  END
> <s_m_source_file>
AV-unprocessed.smi

> <i_m_source_file_index>
122

> <i_lp_mmshare_version>
43012

> <i_f3d_flags>
0

> <s_epik_input>
W0NIM11TKD1PKSg9TylOMVtDSDJdW0NIMl1OKFtDSDJdW0NIMl0xKUMoPU8pW0NIMl1uMmMoPU8pYyhGKVtjSF1uKGMyPU8pW0NAQEhdM1tDSDJdW0NIMl1bQ0gyXU8z

> <s_epik_cmdline>
J2VwaWtfcHl0aG9uJywgJy1waCcsICc3LjAnLCAnLXRuJywgJzgnLCAnLW1hJywgJzIwMCcsICctbWV0YWxfYmluZGluZycsICctaW1hZScsICc8aW5maWxlLm1hZT4nLCAnLW9tYWUnLCAnPG91dGZpbGUubWFlPic=

> <r_lp_tautomer_probability>
1

> <r_epik_Ionization_Penalty>
4.55442e-09

> <r_epik_Ionization_Penalty_Charging>
4.02834e-09

> <r_epik_Ionization_Penalty_Neutral>
5.2608e-10

> <r_epik_State_Penalty>
-0

> <r_epik_Charging_Adjusted_Penalty>
4.02834e-09

> <i_epik_Tot_Q>
0

> <i_epik_Tot_abs_Q>
0

> <r_epik_Metal_State_Penalty>
-0

> <b_epik_Metal_Only>
0

> <s_epik_Chemistry_Notes>
This compound contains an acetal/aminal-like group ( X-CH(R)-Y where X, Y are N, S, or O) that may be acid/base labile, releasing an aldehyde.

> <s_lp_Force_Field>
OPLS_2005

> <r_lp_Energy>
39.2384

> <b_lp_Chiralities_Consistent>
1

> <s_lp_Variant>
AV-unprocessed.smi:122-1

> <Gold.Version>
5.8.1

> <Gold.Id.Protein>
6NUR|6NUR_protein|mol2

> <Gold.PLP.Fitness>
37.4990

> <Gold.PLP.PLP>
-32.0913

> <Gold.PLP.part.hbond>
-2.0000

> <Gold.PLP.part.metal>
0.0000

> <Gold.PLP.part.buried>
-6.3163

> <Gold.PLP.part.nonpolar>
-23.5940

> <Gold.PLP.part.repulsive>
0.4385

> <Gold.PLP.ligand.clash>
0.0000

> <Gold.PLP.ligand.torsion>
1.3482

> <Gold.PLP.Chemscore.Hbond>
2.0000

> <Gold.PLP.Chemscore.CHOScore>
0.0000

> <Gold.PLP.Chemscore.Metal>
0.0000

> <Gold.Chemscore.Hbonds>
donor molecule, donor type, donor heavy atom, donor atom, acceptor molecule, acceptor atom, score
      P1  H  6931  6943       L1     4  1.00
      P1  H  6934  6947       L1     3  1.00

> <Gold.PLP.Chemscore.Internal.Correction>
2.1041

> <Gold.Rescore>
     Score         DG    S(hbond)    S(metal)    S(lipo)     H(rot)  DE(clash)    DE(int)     intcor
     13.10     -14.55       1.76        0.00      64.25       1.69       0.01       1.43       ----

> <Gold.Chemscore.Fitness>
13.1043

> <Gold.Chemscore.DG>
-14.5469

> <Gold.Chemscore.ZeroCoef>
-5.4800

> <Gold.Chemscore.Hbond>
1.7587

> <Gold.Chemscore.Metal>
0.0000

> <Gold.Chemscore.Lipo>
64.2466

> <Gold.Chemscore.Internal_Hbond>
0.0000

> <Gold.Chemscore.DEClash>
0.0137

> <Gold.Chemscore.DEInternal>
1.4290

> <Gold.Chemscore.Rot>
1.6890

> <Gold.Chemscore.Internal.Correction>
   9.000000E+99

> <Gold.Chemscore.Hbonds>
donor molecule, donor type, donor heavy atom, donor atom, acceptor molecule, acceptor atom, score
      P1  H  6931  6943       L1     4  0.88
      P1  H  6934  6947       L1     3  0.24

> <Gold.Chemscore.Hbond.Weighted>
-5.8739

> <Gold.Chemscore.Metal.Weighted>
-0.0000

> <Gold.Chemscore.Lipo.Weighted>
-7.5169

> <Gold.Chemscore.Internal_Hbond.Weighted>
0.0000

> <Gold.Chemscore.DEClash.Weighted>
0.0137

> <Gold.Chemscore.DEInternal.Weighted>
1.4290

> <Gold.Chemscore.Rot.Weighted>
4.3239

> <Gold.Chemscore.Internal.Correction.Weighted>
   9.000000E+99

> <Gold.Protein.RotatedTorsions>
[ 6907 6896 6895 6894 ] final    2.12 input  -60.11 | X-H torsion
[ 7974 7965 7964 7962 ] final -121.19 input  175.53 | X-H torsion
[ 8008 7997 7996 7995 ] final   10.45 input   59.86 | X-H torsion
[ 10167 10162 10161 10158 ] final -168.21 input  -65.29 | X-H torsion
[ 10718 10713 10712 10709 ] final -133.05 input   66.30 | X-H torsion
[ 10763 10752 10751 10750 ] final  106.59 input  -60.55 | X-H torsion
[ 11005 11000 10999 10996 ] final  -24.04 input  -57.11 | X-H torsion

> <Gold.Protein.ActiveResidues>
 VAL166  LYS551  ARG553  GLY616  TRP617  ASP618  TYR619  PRO620  LYS621  CYS622 
 ASP623  PHE694  ASN695  SER759  ASP760  ASP761  ALA762  ILE779  LEU786  VAL792 
 PHE793  MET794  SER795  GLU796  ALA797  LYS798  CYS799  TRP800  GLU811  SER814 

> <Gold.Protein.RotatedAtoms>
  151.6037  135.1045  160.0065 H   0  0  0  0  0  0  0  0  0  0  0  0  # atno 6907 bound_to 6896
  152.4244  133.7167  159.6520 H   0  0  0  0  0  0  0  0  0  0  0  0  # atno 6908 bound_to 6896
  150.8133  133.8310  159.3194 H   0  0  0  0  0  0  0  0  0  0  0  0  # atno 6909 bound_to 6896
  145.0431  140.8160  143.4254 H   0  0  0  0  0  0  0  0  0  0  0  0  # atno 7974 bound_to 7965
  154.7936  140.2840  155.5973 H   0  0  0  0  0  0  0  0  0  0  0  0  # atno 8008 bound_to 7997
  156.2968  140.2600  156.2718 H   0  0  0  0  0  0  0  0  0  0  0  0  # atno 8009 bound_to 7997
  154.9641  140.0377  157.2193 H   0  0  0  0  0  0  0  0  0  0  0  0  # atno 8010 bound_to 7997
  139.5999  144.1032  152.1731 H   0  0  0  0  0  0  0  0  0  0  0  0  # atno 10167 bound_to 10162
  156.2409  130.7095  151.0955 H   0  0  0  0  0  0  0  0  0  0  0  0  # atno 10718 bound_to 10713
  153.3951  135.3872  155.1949 H   0  0  0  0  0  0  0  0  0  0  0  0  # atno 10763 bound_to 10752
  154.8723  135.3757  154.4689 H   0  0  0  0  0  0  0  0  0  0  0  0  # atno 10764 bound_to 10752
  153.5180  135.7087  153.5808 H   0  0  0  0  0  0  0  0  0  0  0  0  # atno 10765 bound_to 10752
  140.8808  133.7655  156.0300 H   0  0  0  0  0  0  0  0  0  0  0  0  # atno 11005 bound_to 11000
  145.1622  139.2452  143.5385 LP  0  0  0  0  0  0  0  0  0  0  0  0  # atno 17320 bound_to 7965
  146.3511  140.1352  142.8596 LP  0  0  0  0  0  0  0  0  0  0  0  0  # atno 17321 bound_to 7965
  140.0626  144.5844  150.7252 LP  0  0  0  0  0  0  0  0  0  0  0  0  # atno 17342 bound_to 10162
  140.7242  143.2619  151.4178 LP  0  0  0  0  0  0  0  0  0  0  0  0  # atno 17343 bound_to 10162
  157.7174  131.0701  150.6271 LP  0  0  0  0  0  0  0  0  0  0  0  0  # atno 17370 bound_to 10713
  156.6344  130.4441  149.5775 LP  0  0  0  0  0  0  0  0  0  0  0  0  # atno 17371 bound_to 10713
  140.8463  134.3007  157.5293 LP  0  0  0  0  0  0  0  0  0  0  0  0  # atno 17394 bound_to 11000
  139.8719  134.9443  156.3879 LP  0  0  0  0  0  0  0  0  0  0  0  0  # atno 17395 bound_to 11000

$$$$
