AV-unprocessed.smi:2451|AV-procd|sdf|9669|dock9
  -GOLD-   2272013303D 1   1.00000     0.00000
 Structure written by MMmdl.
 38 39  0  0  0  0  0  0  0  0  1 V2000
  151.7847  145.7168  160.3067 C   0  0  0  0  0  0  0  0  0  0  0  0
  152.0209  144.2062  160.4830 C   0  0  2  0  0  0  0  0  0  0  0  0
  152.6533  143.9311  161.8623 C   0  0  0  0  0  0  0  0  0  0  0  0
  152.8737  142.4322  162.1048 C   0  0  0  0  0  0  0  0  0  0  0  0
  153.7390  141.8074  161.0008 C   0  0  0  0  0  0  0  0  0  0  0  0
  153.1744  142.0885  159.5968 C   0  0  1  0  0  0  0  0  0  0  0  0
  151.9760  141.2717  159.3657 N   0  0  0  0  0  0  0  0  0  0  0  0
  152.1198  139.8236  158.4405 S   0  0  0  0  0  0  0  0  0  0  0  0
  153.5322  139.6848  158.0543 O   0  0  0  0  0  0  0  0  0  0  0  0
  151.4545  138.7472  159.1910 O   0  0  0  0  0  0  0  0  0  0  0  0
  151.1162  140.2032  156.9430 C   0  0  0  0  0  0  0  0  0  0  0  0
  151.1630  139.0373  155.9969 C   0  0  0  0  0  0  0  0  0  0  0  0
  150.7664  138.9885  154.6317 C   0  0  0  0  0  0  0  0  0  0  0  0
  151.0229  137.6972  154.2708 C   0  0  0  0  0  0  0  0  0  0  0  0
  151.5391  137.0053  155.3175 O   0  0  0  0  0  0  0  0  0  0  0  0
  151.6262  137.8697  156.4147 N   0  0  0  0  0  0  0  0  0  0  0  0
  152.8903  143.5925  159.3522 C   0  0  1  0  0  0  0  0  0  0  0  0
  152.3369  143.8403  157.9347 C   0  0  0  0  0  0  0  0  0  0  0  0
  152.7268  146.2624  160.2472 H   0  0  0  0  0  0  0  0  0  0  0  0
  151.2189  146.1245  161.1450 H   0  0  0  0  0  0  0  0  0  0  0  0
  151.2124  145.9337  159.4050 H   0  0  0  0  0  0  0  0  0  0  0  0
  151.0436  143.7217  160.4626 H   0  0  0  0  0  0  0  0  0  0  0  0
  153.6066  144.4555  161.9428 H   0  0  0  0  0  0  0  0  0  0  0  0
  152.0157  144.3317  162.6513 H   0  0  0  0  0  0  0  0  0  0  0  0
  153.3453  142.2782  163.0757 H   0  0  0  0  0  0  0  0  0  0  0  0
  151.9097  141.9238  162.1484 H   0  0  0  0  0  0  0  0  0  0  0  0
  154.7461  142.2208  161.0670 H   0  0  0  0  0  0  0  0  0  0  0  0
  153.8415  140.7336  161.1632 H   0  0  0  0  0  0  0  0  0  0  0  0
  153.9310  141.7758  158.8754 H   0  0  0  0  0  0  0  0  0  0  0  0
  151.2006  141.8460  159.0357 H   0  0  0  0  0  0  0  0  0  0  0  0
  150.0940  140.4147  157.2565 H   0  0  0  0  0  0  0  0  0  0  0  0
  151.5169  141.1063  156.4818 H   0  0  0  0  0  0  0  0  0  0  0  0
  150.3534  139.7748  154.0174 H   0  0  0  0  0  0  0  0  0  0  0  0
  150.8993  137.1446  153.3513 H   0  0  0  0  0  0  0  0  0  0  0  0
  153.8581  144.0955  159.3920 H   0  0  0  0  0  0  0  0  0  0  0  0
  151.3132  143.4789  157.8337 H   0  0  0  0  0  0  0  0  0  0  0  0
  152.9436  143.3319  157.1848 H   0  0  0  0  0  0  0  0  0  0  0  0
  152.3423  144.8996  157.6798 H   0  0  0  0  0  0  0  0  0  0  0  0
  1  2  1  0  0  0  0
  1 19  1  0  0  0  0
  1 20  1  0  0  0  0
  1 21  1  0  0  0  0
  2 17  1  0  0  0  0
  2  3  1  0  0  0  0
  2 22  1  0  0  0  0
  3  4  1  0  0  0  0
  3 23  1  0  0  0  0
  3 24  1  0  0  0  0
  4  5  1  0  0  0  0
  4 25  1  0  0  0  0
  4 26  1  0  0  0  0
  5  6  1  0  0  0  0
  5 27  1  0  0  0  0
  5 28  1  0  0  0  0
  6  7  1  0  0  0  0
  6 17  1  0  0  0  0
  6 29  1  0  0  0  0
  7  8  1  0  0  0  0
  7 30  1  0  0  0  0
  8  9  2  0  0  0  0
  8 10  2  0  0  0  0
  8 11  1  0  0  0  0
 11 12  1  0  0  0  0
 11 31  1  0  0  0  0
 11 32  1  0  0  0  0
 12 16  2  0  0  0  0
 12 13  1  0  0  0  0
 13 14  2  0  0  0  0
 13 33  1  0  0  0  0
 14 15  1  0  0  0  0
 14 34  1  0  0  0  0
 15 16  1  0  0  0  0
 17 18  1  0  0  0  0
 17 35  1  0  0  0  0
 18 36  1  0  0  0  0
 18 37  1  0  0  0  0
 18 38  1  0  0  0  0
M  END
> <s_m_source_file>
AV-unprocessed.smi

> <i_m_source_file_index>
2451

> <i_lp_mmshare_version>
43012

> <i_f3d_flags>
0

> <s_epik_input>
W0NIM11bQ0BASF0xW0NIMl1bQ0gyXVtDSDJdW0NASF0oW0NASF0xW0NIM10pW05IXVMoPU8pKD1PKVtDSDJdYzJbY0hdW2NIXW9uMg==

> <s_epik_cmdline>
J2VwaWtfcHl0aG9uJywgJy1waCcsICc3LjAnLCAnLXRuJywgJzgnLCAnLW1hJywgJzIwMCcsICctbWV0YWxfYmluZGluZycsICctaW1hZScsICc8aW5maWxlLm1hZT4nLCAnLW9tYWUnLCAnPG91dGZpbGUubWFlPic=

> <r_lp_tautomer_probability>
1

> <r_epik_Ionization_Penalty>
8.73668e-05

> <r_epik_Ionization_Penalty_Charging>
0

> <r_epik_Ionization_Penalty_Neutral>
8.73668e-05

> <r_epik_State_Penalty>
-0

> <r_epik_Charging_Adjusted_Penalty>
0

> <i_epik_Tot_Q>
0

> <i_epik_Tot_abs_Q>
0

> <r_epik_Metal_State_Penalty>
0.0716439

> <b_epik_Metal_Only>
0

> <s_lp_Force_Field>
OPLS_2005

> <r_lp_Energy>
9.22722

> <b_lp_Chiralities_Consistent>
1

> <s_lp_Variant>
AV-unprocessed.smi:2451-1

> <Gold.Version>
5.8.1

> <Gold.Id.Protein>
6NUR|6NUR_protein|mol2

> <Gold.PLP.Fitness>
51.6326

> <Gold.PLP.PLP>
-44.2434

> <Gold.PLP.part.hbond>
-2.0000

> <Gold.PLP.part.metal>
0.0000

> <Gold.PLP.part.buried>
-4.4726

> <Gold.PLP.part.nonpolar>
-38.2874

> <Gold.PLP.part.repulsive>
0.0747

> <Gold.PLP.ligand.clash>
0.0000

> <Gold.PLP.ligand.torsion>
0.8776

> <Gold.PLP.Chemscore.Hbond>
2.0000

> <Gold.PLP.Chemscore.CHOScore>
1.0000

> <Gold.PLP.Chemscore.Metal>
0.0000

> <Gold.Chemscore.Hbonds>
donor molecule, donor type, donor heavy atom, donor atom, acceptor molecule, acceptor atom, score
      P1  H  7997  8008       L1     9  0.99
      P1  H 10752 10765       L1    15  0.81
      L1  C    14    34       P1  7948  0.13
      L1  C    14    34       P1  7949  0.93

> <Gold.PLP.Chemscore.Internal.Correction>
0.1443

> <Gold.Rescore>
     Score         DG    S(hbond)    S(metal)    S(lipo)     H(rot)  DE(clash)    DE(int)     intcor
     17.99     -20.09       1.96        0.00     105.23       1.66       0.00       2.10       ----

> <Gold.Chemscore.Fitness>
17.9920

> <Gold.Chemscore.DG>
-20.0948

> <Gold.Chemscore.ZeroCoef>
-5.4800

> <Gold.Chemscore.Hbond>
1.9609

> <Gold.Chemscore.Metal>
0.0000

> <Gold.Chemscore.Lipo>
105.2302

> <Gold.Chemscore.Internal_Hbond>
0.0000

> <Gold.Chemscore.DEClash>
0.0015

> <Gold.Chemscore.DEInternal>
2.1013

> <Gold.Chemscore.Rot>
1.6588

> <Gold.Chemscore.Internal.Correction>
   9.000000E+99

> <Gold.Chemscore.Hbonds>
donor molecule, donor type, donor heavy atom, donor atom, acceptor molecule, acceptor atom, score
      P1  H  7997  8008       L1     9  0.92
      P1  H 10752 10765       L1    15  0.63

> <Gold.Chemscore.Hbond.Weighted>
-6.5495

> <Gold.Chemscore.Metal.Weighted>
-0.0000

> <Gold.Chemscore.Lipo.Weighted>
-12.3119

> <Gold.Chemscore.Internal_Hbond.Weighted>
0.0000

> <Gold.Chemscore.DEClash.Weighted>
0.0015

> <Gold.Chemscore.DEInternal.Weighted>
2.1013

> <Gold.Chemscore.Rot.Weighted>
4.2466

> <Gold.Chemscore.Internal.Correction.Weighted>
   9.000000E+99

> <Gold.Protein.RotatedTorsions>
[ 6907 6896 6895 6894 ] final   43.03 input  -60.11 | X-H torsion
[ 7974 7965 7964 7962 ] final -113.89 input  175.53 | X-H torsion
[ 8008 7997 7996 7995 ] final  -95.31 input   59.86 | X-H torsion
[ 10167 10162 10161 10158 ] final   85.70 input  -65.29 | X-H torsion
[ 10718 10713 10712 10709 ] final -112.39 input   66.30 | X-H torsion
[ 10763 10752 10751 10750 ] final -175.98 input  -60.55 | X-H torsion
[ 11005 11000 10999 10996 ] final  -36.14 input  -57.11 | X-H torsion

> <Gold.Protein.ActiveResidues>
 VAL166  LYS551  ARG553  GLY616  TRP617  ASP618  TYR619  PRO620  LYS621  CYS622 
 ASP623  PHE694  ASN695  SER759  ASP760  ASP761  ALA762  ILE779  LEU786  VAL792 
 PHE793  MET794  SER795  GLU796  ALA797  LYS798  CYS799  TRP800  GLU811  SER814 

> <Gold.Protein.RotatedAtoms>
  152.2152  134.8464  160.0492 H   0  0  0  0  0  0  0  0  0  0  0  0  # atno 6907 bound_to 6896
  151.9268  133.3595  159.3925 H   0  0  0  0  0  0  0  0  0  0  0  0  # atno 6908 bound_to 6896
  150.6986  134.4503  159.5377 H   0  0  0  0  0  0  0  0  0  0  0  0  # atno 6909 bound_to 6896
  145.1267  140.8701  143.3782 H   0  0  0  0  0  0  0  0  0  0  0  0  # atno 7974 bound_to 7965
  154.7597  140.0481  157.0963 H   0  0  0  0  0  0  0  0  0  0  0  0  # atno 8008 bound_to 7997
  154.9953  140.3118  155.4870 H   0  0  0  0  0  0  0  0  0  0  0  0  # atno 8009 bound_to 7997
  156.2901  140.2211  156.5060 H   0  0  0  0  0  0  0  0  0  0  0  0  # atno 8010 bound_to 7997
  139.8951  144.6363  150.8697 H   0  0  0  0  0  0  0  0  0  0  0  0  # atno 10167 bound_to 10162
  156.0703  130.5917  150.8502 H   0  0  0  0  0  0  0  0  0  0  0  0  # atno 10718 bound_to 10713
  154.5779  135.2833  155.0763 H   0  0  0  0  0  0  0  0  0  0  0  0  # atno 10763 bound_to 10752
  154.2110  135.6408  153.5119 H   0  0  0  0  0  0  0  0  0  0  0  0  # atno 10764 bound_to 10752
  153.0078  135.5492  154.6423 H   0  0  0  0  0  0  0  0  0  0  0  0  # atno 10765 bound_to 10752
  140.9851  133.7035  156.1751 H   0  0  0  0  0  0  0  0  0  0  0  0  # atno 11005 bound_to 11000
  145.0680  139.3053  143.5846 LP  0  0  0  0  0  0  0  0  0  0  0  0  # atno 17320 bound_to 7965
  146.3517  140.0145  142.8664 LP  0  0  0  0  0  0  0  0  0  0  0  0  # atno 17321 bound_to 7965
  140.7718  143.3480  151.2072 LP  0  0  0  0  0  0  0  0  0  0  0  0  # atno 17342 bound_to 10162
  139.7075  143.9431  152.2933 LP  0  0  0  0  0  0  0  0  0  0  0  0  # atno 17343 bound_to 10162
  157.5769  131.0946  150.9331 LP  0  0  0  0  0  0  0  0  0  0  0  0  # atno 17370 bound_to 10713
  156.9535  130.5429  149.5283 LP  0  0  0  0  0  0  0  0  0  0  0  0  # atno 17371 bound_to 10713
  140.7127  134.4444  157.5580 LP  0  0  0  0  0  0  0  0  0  0  0  0  # atno 17394 bound_to 11000
  139.8967  134.8653  156.2076 LP  0  0  0  0  0  0  0  0  0  0  0  0  # atno 17395 bound_to 11000

$$$$
