#       Name:                AV-unprocessed.smi:2552
#       Creating user name   scv26
#       Creation time:       Fri Mar 27 14:06:11 2020


#       File generated by GOLD software.
#

@<TRIPOS>MOLECULE
AV-unprocessed.smi:2552
    40    42     1
SMALL
NO_CHARGES


@<TRIPOS>ATOM
      1 ****        -1.1834   2.4492  -3.8543 C.3            1 S1                 0.0000
      2 ****        -1.4231   2.5245  -2.4150 N.am           1 S1                 0.0000
      3 ****        -2.0004   3.7229  -1.9786 N.2            1 S1                 0.0000
      4 ****        -2.2724   3.9236  -0.7269 C.2            1 S1                 0.0000
      5 ****        -1.9605   2.8628   0.2263 C.2            1 S1                 0.0000
      6 ****        -2.1001   2.6938   1.6314 C.2            1 S1                 0.0000
      7 ****        -1.6524   1.5074   2.0385 N.2            1 S1                 0.0000
      8 ****        -1.2075   0.8772   0.9203 N.pl3          1 S1                 0.0000
      9 ****        -0.6411  -0.4594   1.0147 C.3            1 S1                 0.0000
     10 ****         0.9004  -0.4598   0.9695 C.3            1 S1                 0.0000
     11 ****         1.4160   0.3225   2.0306 O.3            1 S1                 0.0000
     12 ****         1.4483  -1.8807   0.9765 C.ar           1 S1                 0.0000
     13 ****         1.5980  -2.5829   2.1938 C.ar           1 S1                 0.0000
     14 ****         2.0961  -3.9000   2.2003 C.ar           1 S1                 0.0000
     15 ****         2.4443  -4.5269   0.9891 C.ar           1 S1                 0.0000
     16 ****         2.2912  -3.8364  -0.2280 C.ar           1 S1                 0.0000
     17 ****         1.7932  -2.5186  -0.2371 C.ar           1 S1                 0.0000
     18 ****         1.6459  -1.8729  -1.4190 F              1 S1                 0.0000
     19 ****        -1.3987   1.6957  -0.1736 C.2            1 S1                 0.0000
     20 ****        -1.0908   1.4737  -1.6059 C.2            1 S1                 0.0000
     21 ****        -0.5822   0.4264  -2.0061 O.2            1 S1                 0.0000
     22 ****        -1.7253   1.6089  -4.2905 H              1 S1                 0.0000
     23 ****        -0.1207   2.3148  -4.0605 H              1 S1                 0.0000
     24 ****        -1.5086   3.3539  -4.3708 H              1 S1                 0.0000
     25 ****        -2.7216   4.8574  -0.3893 H              1 S1                 0.0000
     26 ****        -2.5055   3.3804   2.3599 H              1 S1                 0.0000
     27 ****        -0.9926  -0.9282   1.9354 H              1 S1                 0.0000
     28 ****        -1.0433  -1.0568   0.1958 H              1 S1                 0.0000
     29 ****         1.2271   0.0305   0.0523 H              1 S1                 0.0000
     30 ****         2.3514   0.3972   1.9204 H              1 S1                 0.0000
     31 ****         1.3284  -2.1148   3.1293 H              1 S1                 0.0000
     32 ****         2.2088  -4.4297   3.1348 H              1 S1                 0.0000
     33 ****         2.8258  -5.5374   0.9931 H              1 S1                 0.0000
     34 ****         2.5541  -4.3187  -1.1578 H              1 S1                 0.0000
     35 ****        -2.2071   4.4386  -2.6457 LP             1 S1                 0.0000
     36 ****        -1.6452   1.1537   2.9739 LP             1 S1                 0.0000
     37 ****         1.2134  -0.1190   2.9047 LP             1 S1                 0.0000
     38 ****         1.0004   1.2319   2.0123 LP             1 S1                 0.0000
     39 ****        -0.3871   0.3053  -2.9793 LP             1 S1                 0.0000
     40 ****        -0.3642  -0.3032  -1.3578 LP             1 S1                 0.0000
@<TRIPOS>BOND
    1    1    2 1     
    2    1   22 1     
    3    1   23 1     
    4    1   24 1     
    5    2   20 am    
    6    2    3 1     
    7    3    4 2     
    8    4    5 1     
    9    4   25 1     
   10    5   19 2     
   11    5    6 1     
   12    6    7 2     
   13    6   26 1     
   14    7    8 1     
   15    8    9 1     
   16    8   19 1     
   17    9   10 1     
   18    9   27 1     
   19    9   28 1     
   20   10   11 1     
   21   10   12 1     
   22   10   29 1     
   23   11   30 1     
   24   12   17 ar    
   25   12   13 ar    
   26   13   14 ar    
   27   13   31 1     
   28   14   15 ar    
   29   14   32 1     
   30   15   16 ar    
   31   15   33 1     
   32   16   17 ar    
   33   16   34 1     
   34   17   18 1     
   35   19   20 1     
   36   20   21 2     
   37    3   35 1     
   38    7   36 1     
   39   11   37 1     
   40   11   38 1     
   41   21   39 1     
   42   21   40 1     
@<TRIPOS>SUBSTRUCTURE
      1 S1             1
@<TRIPOS>SET
LONE_PAIRS      STATIC     ATOMS    <user>   **** ""
6 35 36 37 38 39 40
DONOR_HYDROGENS      STATIC     ATOMS    <user>   **** ""
1 30
ATOM$BLUE        STATIC     ATOMS    COLORGROUP SYSTEM
6 35 36 37 38 39 40
ATOM$RED        STATIC     ATOMS    COLORGROUP SYSTEM
1 30
