#       Name:                AV-unprocessed.smi:2478
#       Creating user name   scv26
#       Creation time:       Fri Mar 27 13:41:03 2020


#       File generated by GOLD software.
#

@<TRIPOS>MOLECULE
AV-unprocessed.smi:2478
    49    50     1
SMALL
NO_CHARGES


@<TRIPOS>ATOM
      1 ****        -2.1846  -0.1980  -3.3191 C.3            1 S1                 0.0000
      2 ****        -2.4625   0.4911  -1.9731 C.3            1 S1                 0.0000
      3 ****        -3.9323   0.9520  -1.8930 C.3            1 S1                 0.0000
      4 ****        -4.2471   1.6307  -0.5512 C.3            1 S1                 0.0000
      5 ****        -3.9053   0.7083   0.6269 C.3            1 S1                 0.0000
      6 ****        -2.4384   0.2603   0.5635 C.3            1 S1                 0.0000
      7 ****        -2.1126  -0.4262  -0.7795 C.3            1 S1                 0.0000
      8 ****        -0.7194  -0.7052  -0.8264 O.3            1 S1                 0.0000
      9 ****        -0.3565  -1.9510  -0.2480 C.3            1 S1                 0.0000
     10 ****         1.1657  -2.0586  -0.2370 C.2            1 S1                 0.0000
     11 ****         1.7125  -3.0153  -0.7854 O.2            1 S1                 0.0000
     12 ****         1.8083  -1.0690   0.4098 N.am           1 S1                 0.0000
     13 ****         3.2056  -0.8922   0.5994 C.ar           1 S1                 0.0000
     14 ****         4.1350  -1.7389   0.0900 N.ar           1 S1                 0.0000
     15 ****         5.4426  -1.4971   0.3127 C.ar           1 S1                 0.0000
     16 ****         5.9037  -0.3957   1.0537 C.ar           1 S1                 0.0000
     17 ****         4.9514   0.4892   1.5882 C.ar           1 S1                 0.0000
     18 ****         3.5755   0.2390   1.3698 C.ar           1 S1                 0.0000
     19 ****         2.5910   1.0742   1.8525 O.3            1 S1                 0.0000
     20 ****         2.7626   1.6682   3.0633 C.3            1 S1                 0.0000
     21 ****         3.3032   2.9022   2.9127 F              1 S1                 0.0000
     22 ****         1.5624   1.8171   3.6738 F              1 S1                 0.0000
     23 ****        -2.7799  -1.1049  -3.4295 H              1 S1                 0.0000
     24 ****        -1.1347  -0.4764  -3.4143 H              1 S1                 0.0000
     25 ****        -2.4246   0.4606  -4.1542 H              1 S1                 0.0000
     26 ****        -1.8297   1.3783  -1.9172 H              1 S1                 0.0000
     27 ****        -4.1516   1.6418  -2.7087 H              1 S1                 0.0000
     28 ****        -4.5945   0.0957  -2.0282 H              1 S1                 0.0000
     29 ****        -3.6789   2.5581  -0.4674 H              1 S1                 0.0000
     30 ****        -5.3007   1.9087  -0.5127 H              1 S1                 0.0000
     31 ****        -4.0972   1.2217   1.5695 H              1 S1                 0.0000
     32 ****        -4.5571  -0.1660   0.6110 H              1 S1                 0.0000
     33 ****        -1.7896   1.1274   0.6965 H              1 S1                 0.0000
     34 ****        -2.2294  -0.4094   1.3974 H              1 S1                 0.0000
     35 ****        -2.6897  -1.3487  -0.8723 H              1 S1                 0.0000
     36 ****        -0.7218  -2.0358   0.7757 H              1 S1                 0.0000
     37 ****        -0.7860  -2.7721  -0.8242 H              1 S1                 0.0000
     38 ****         1.2239  -0.3524   0.8154 H              1 S1                 0.0000
     39 ****         6.1411  -2.2009  -0.1154 H              1 S1                 0.0000
     40 ****         6.9604  -0.2324   1.2051 H              1 S1                 0.0000
     41 ****         5.2824   1.3483   2.1525 H              1 S1                 0.0000
     42 ****         3.3984   1.0725   3.7189 H              1 S1                 0.0000
     43 ****        -0.2373   0.0208  -0.3361 LP             1 S1                 0.0000
     44 ****        -0.4320  -0.7083  -1.7842 LP             1 S1                 0.0000
     45 ****         1.1596  -3.7168  -1.2350 LP             1 S1                 0.0000
     46 ****         2.7096  -3.0910  -0.7814 LP             1 S1                 0.0000
     47 ****         3.8529  -2.5349  -0.4457 LP             1 S1                 0.0000
     48 ****         1.7508   0.5347   1.9077 LP             1 S1                 0.0000
     49 ****         2.4735   1.8063   1.1815 LP             1 S1                 0.0000
@<TRIPOS>BOND
    1    1    2 1     
    2    1   23 1     
    3    1   24 1     
    4    1   25 1     
    5    2    7 1     
    6    2    3 1     
    7    2   26 1     
    8    3    4 1     
    9    3   27 1     
   10    3   28 1     
   11    4    5 1     
   12    4   29 1     
   13    4   30 1     
   14    5    6 1     
   15    5   31 1     
   16    5   32 1     
   17    6    7 1     
   18    6   33 1     
   19    6   34 1     
   20    7    8 1     
   21    7   35 1     
   22    8    9 1     
   23    9   10 1     
   24    9   36 1     
   25    9   37 1     
   26   10   11 2     
   27   10   12 am    
   28   12   13 1     
   29   12   38 1     
   30   13   18 ar    
   31   13   14 ar    
   32   14   15 ar    
   33   15   16 ar    
   34   15   39 1     
   35   16   17 ar    
   36   16   40 1     
   37   17   18 ar    
   38   17   41 1     
   39   18   19 1     
   40   19   20 1     
   41   20   21 1     
   42   20   22 1     
   43   20   42 1     
   44    8   43 1     
   45    8   44 1     
   46   11   45 1     
   47   11   46 1     
   48   14   47 1     
   49   19   48 1     
   50   19   49 1     
@<TRIPOS>SUBSTRUCTURE
      1 S1             1
@<TRIPOS>SET
LONE_PAIRS      STATIC     ATOMS    <user>   **** ""
7 43 44 45 46 47 48 49
DONOR_HYDROGENS      STATIC     ATOMS    <user>   **** ""
1 38
ATOM$BLUE        STATIC     ATOMS    COLORGROUP SYSTEM
7 43 44 45 46 47 48 49
ATOM$RED        STATIC     ATOMS    COLORGROUP SYSTEM
1 38
