AV-unprocessed.smi:1425|AV-procd|sdf|5804|dock10
  -GOLD-   22720 5453D 1   1.00000     0.00000
 Structure written by MMmdl.
 36 37  0  0  0  0  0  0  0  0  1 V2000
  152.6331  143.5815  162.4531 C   0  0  0  0  0  0  0  0  0  0  0  0
  152.4989  143.6823  160.9423 C   0  0  0  0  0  0  0  0  0  0  0  0
  152.0029  144.8737  160.3714 C   0  0  0  0  0  0  0  0  0  0  0  0
  151.8788  144.9651  158.9747 C   0  0  0  0  0  0  0  0  0  0  0  0
  152.2584  143.8537  158.2027 C   0  0  0  0  0  0  0  0  0  0  0  0
  152.7335  142.7114  158.7399 N   0  0  0  0  0  0  0  0  0  0  0  0
  152.8596  142.6068  160.0869 C   0  0  0  0  0  0  0  0  0  0  0  0
  153.3469  141.4314  160.7251 N   0  0  0  0  0  0  0  0  0  0  0  0
  153.7554  140.2802  160.1630 C   0  0  0  0  0  0  0  0  0  0  0  0
  153.8088  140.0557  158.9535 O   0  0  0  0  0  0  0  0  0  0  0  0
  154.1106  139.3872  161.0984 N   0  0  0  0  0  0  0  0  0  0  0  0
  154.5943  138.0339  160.8411 C   0  0  0  0  0  0  0  0  0  0  0  0
  154.9898  137.3086  162.1413 C   0  0  1  0  0  0  0  0  0  0  0  0
  153.8152  137.2078  163.1341 C   0  0  0  0  0  0  0  0  0  0  0  0
  154.2129  136.2603  164.2701 C   0  0  0  0  0  0  0  0  0  0  0  0
  155.2787  134.9873  163.4979 S   0  0  0  0  0  0  0  0  0  0  0  0
  156.5479  134.9139  164.2375 O   0  0  0  0  0  0  0  0  0  0  0  0
  154.4851  133.7777  163.2338 O   0  0  0  0  0  0  0  0  0  0  0  0
  155.5360  135.8868  161.9211 C   0  0  0  0  0  0  0  0  0  0  0  0
  152.3147  144.5023  162.9426 H   0  0  0  0  0  0  0  0  0  0  0  0
  153.6704  143.3949  162.7330 H   0  0  0  0  0  0  0  0  0  0  0  0
  152.0176  142.7678  162.8378 H   0  0  0  0  0  0  0  0  0  0  0  0
  151.7190  145.7095  160.9941 H   0  0  0  0  0  0  0  0  0  0  0  0
  151.5023  145.8629  158.5075 H   0  0  0  0  0  0  0  0  0  0  0  0
  152.1783  143.8816  157.1262 H   0  0  0  0  0  0  0  0  0  0  0  0
  153.3737  141.4694  161.7330 H   0  0  0  0  0  0  0  0  0  0  0  0
  154.0354  139.6624  162.0667 H   0  0  0  0  0  0  0  0  0  0  0  0
  153.7898  137.4868  160.3490 H   0  0  0  0  0  0  0  0  0  0  0  0
  155.4284  138.0413  160.1370 H   0  0  0  0  0  0  0  0  0  0  0  0
  155.7736  137.8873  162.6324 H   0  0  0  0  0  0  0  0  0  0  0  0
  153.5241  138.1863  163.5171 H   0  0  0  0  0  0  0  0  0  0  0  0
  152.9458  136.7956  162.6203 H   0  0  0  0  0  0  0  0  0  0  0  0
  154.8032  136.7837  165.0226 H   0  0  0  0  0  0  0  0  0  0  0  0
  153.3576  135.7932  164.7583 H   0  0  0  0  0  0  0  0  0  0  0  0
  154.9714  135.3657  161.1472 H   0  0  0  0  0  0  0  0  0  0  0  0
  156.5911  135.8715  161.6476 H   0  0  0  0  0  0  0  0  0  0  0  0
  1  2  1  0  0  0  0
  1 20  1  0  0  0  0
  1 21  1  0  0  0  0
  1 22  1  0  0  0  0
  2  7  1  0  0  0  0
  2  3  2  0  0  0  0
  3  4  1  0  0  0  0
  3 23  1  0  0  0  0
  4  5  2  0  0  0  0
  4 24  1  0  0  0  0
  5  6  1  0  0  0  0
  5 25  1  0  0  0  0
  6  7  2  0  0  0  0
  7  8  1  0  0  0  0
  8  9  1  0  0  0  0
  8 26  1  0  0  0  0
  9 10  2  0  0  0  0
  9 11  1  0  0  0  0
 11 12  1  0  0  0  0
 11 27  1  0  0  0  0
 12 13  1  0  0  0  0
 12 28  1  0  0  0  0
 12 29  1  0  0  0  0
 13 19  1  0  0  0  0
 13 14  1  0  0  0  0
 13 30  1  0  0  0  0
 14 15  1  0  0  0  0
 14 31  1  0  0  0  0
 14 32  1  0  0  0  0
 15 16  1  0  0  0  0
 15 33  1  0  0  0  0
 15 34  1  0  0  0  0
 16 17  2  0  0  0  0
 16 18  2  0  0  0  0
 16 19  1  0  0  0  0
 19 35  1  0  0  0  0
 19 36  1  0  0  0  0
M  END
> <s_m_source_file>
AV-unprocessed.smi

> <i_m_source_file_index>
1425

> <i_lp_mmshare_version>
43012

> <i_f3d_flags>
0

> <s_epik_input>
W0NIM11jMVtjSF1bY0hdW2NIXW5jMVtOSF1DKD1PKVtOSF1bQ0gyXVtDQEBIXShbQ0gyXTIpW0NIMl1bQ0gyXVMyKD1PKT1P

> <s_epik_cmdline>
J2VwaWtfcHl0aG9uJywgJy1waCcsICc3LjAnLCAnLXRuJywgJzgnLCAnLW1hJywgJzIwMCcsICctbWV0YWxfYmluZGluZycsICctaW1hZScsICc8aW5maWxlLm1hZT4nLCAnLW9tYWUnLCAnPG91dGZpbGUubWFlPic=

> <r_lp_tautomer_probability>
1

> <r_epik_Ionization_Penalty>
5.46275e-05

> <r_epik_Ionization_Penalty_Charging>
0

> <r_epik_Ionization_Penalty_Neutral>
5.46275e-05

> <r_epik_State_Penalty>
-0

> <r_epik_Charging_Adjusted_Penalty>
0

> <i_epik_Tot_Q>
0

> <i_epik_Tot_abs_Q>
0

> <r_epik_Metal_State_Penalty>
-0

> <b_epik_Metal_Only>
0

> <s_lp_Force_Field>
OPLS_2005

> <r_lp_Energy>
7.35863

> <b_lp_Chiralities_Consistent>
1

> <s_lp_Variant>
AV-unprocessed.smi:1425-2

> <Gold.Version>
5.8.1

> <Gold.Id.Protein>
6NUR|6NUR_protein|mol2

> <Gold.PLP.Fitness>
45.7522

> <Gold.PLP.PLP>
-42.7876

> <Gold.PLP.part.hbond>
-1.0000

> <Gold.PLP.part.metal>
0.0000

> <Gold.PLP.part.buried>
-4.9394

> <Gold.PLP.part.nonpolar>
-36.4052

> <Gold.PLP.part.repulsive>
0.1332

> <Gold.PLP.ligand.clash>
0.0000

> <Gold.PLP.ligand.torsion>
0.0069

> <Gold.PLP.Chemscore.Hbond>
0.9920

> <Gold.PLP.Chemscore.CHOScore>
0.0000

> <Gold.PLP.Chemscore.Metal>
0.0000

> <Gold.Chemscore.Hbonds>
donor molecule, donor type, donor heavy atom, donor atom, acceptor molecule, acceptor atom, score
      P1  H  7997  8010       L1    10  1.00

> <Gold.PLP.Chemscore.Internal.Correction>
0.0023

> <Gold.Rescore>
     Score         DG    S(hbond)    S(metal)    S(lipo)     H(rot)  DE(clash)    DE(int)     intcor
     15.44     -16.77       0.96        0.00      97.29       1.29       0.02       1.30       ----

> <Gold.Chemscore.Fitness>
15.4434

> <Gold.Chemscore.DG>
-16.7694

> <Gold.Chemscore.ZeroCoef>
-5.4800

> <Gold.Chemscore.Hbond>
0.9637

> <Gold.Chemscore.Metal>
0.0000

> <Gold.Chemscore.Lipo>
97.2885

> <Gold.Chemscore.Internal_Hbond>
0.0000

> <Gold.Chemscore.DEClash>
0.0215

> <Gold.Chemscore.DEInternal>
1.3045

> <Gold.Chemscore.Rot>
1.2939

> <Gold.Chemscore.Internal.Correction>
   9.000000E+99

> <Gold.Chemscore.Hbonds>
donor molecule, donor type, donor heavy atom, donor atom, acceptor molecule, acceptor atom, score
      P1  H  7997  8010       L1    10  0.90

> <Gold.Chemscore.Hbond.Weighted>
-3.2189

> <Gold.Chemscore.Metal.Weighted>
-0.0000

> <Gold.Chemscore.Lipo.Weighted>
-11.3827

> <Gold.Chemscore.Internal_Hbond.Weighted>
0.0000

> <Gold.Chemscore.DEClash.Weighted>
0.0215

> <Gold.Chemscore.DEInternal.Weighted>
1.3045

> <Gold.Chemscore.Rot.Weighted>
3.3123

> <Gold.Chemscore.Internal.Correction.Weighted>
   9.000000E+99

> <Gold.Protein.RotatedTorsions>
[ 6907 6896 6895 6894 ] final   86.33 input  -60.11 | X-H torsion
[ 7974 7965 7964 7962 ] final -124.69 input  175.53 | X-H torsion
[ 8008 7997 7996 7995 ] final   13.10 input   59.86 | X-H torsion
[ 10167 10162 10161 10158 ] final  111.73 input  -65.29 | X-H torsion
[ 10718 10713 10712 10709 ] final -110.13 input   66.30 | X-H torsion
[ 10763 10752 10751 10750 ] final   23.89 input  -60.55 | X-H torsion
[ 11005 11000 10999 10996 ] final   34.07 input  -57.11 | X-H torsion

> <Gold.Protein.ActiveResidues>
 VAL166  LYS551  ARG553  GLY616  TRP617  ASP618  TYR619  PRO620  LYS621  CYS622 
 ASP623  PHE694  ASN695  SER759  ASP760  ASP761  ALA762  ILE779  LEU786  VAL792 
 PHE793  MET794  SER795  GLU796  ALA797  LYS798  CYS799  TRP800  GLU811  SER814 

> <Gold.Protein.RotatedAtoms>
  152.5392  134.2447  159.8875 H   0  0  0  0  0  0  0  0  0  0  0  0  # atno 6907 bound_to 6896
  151.2413  133.4391  159.2615 H   0  0  0  0  0  0  0  0  0  0  0  0  # atno 6908 bound_to 6896
  151.0624  134.9759  159.8323 H   0  0  0  0  0  0  0  0  0  0  0  0  # atno 6909 bound_to 6896
  145.0054  140.7858  143.4471 H   0  0  0  0  0  0  0  0  0  0  0  0  # atno 7974 bound_to 7965
  154.8298  140.2897  155.5730 H   0  0  0  0  0  0  0  0  0  0  0  0  # atno 8008 bound_to 7997
  156.3004  140.2534  156.3152 H   0  0  0  0  0  0  0  0  0  0  0  0  # atno 8009 bound_to 7997
  154.9244  140.0385  157.2004 H   0  0  0  0  0  0  0  0  0  0  0  0  # atno 8010 bound_to 7997
  139.6589  144.7129  151.1903 H   0  0  0  0  0  0  0  0  0  0  0  0  # atno 10167 bound_to 10162
  156.0574  130.5799  150.8195 H   0  0  0  0  0  0  0  0  0  0  0  0  # atno 10718 bound_to 10713
  153.0804  135.6617  154.0056 H   0  0  0  0  0  0  0  0  0  0  0  0  # atno 10763 bound_to 10752
  153.9679  135.2967  155.3431 H   0  0  0  0  0  0  0  0  0  0  0  0  # atno 10764 bound_to 10752
  154.7203  135.5168  153.8872 H   0  0  0  0  0  0  0  0  0  0  0  0  # atno 10765 bound_to 10752
  140.2566  134.3241  155.7872 H   0  0  0  0  0  0  0  0  0  0  0  0  # atno 11005 bound_to 11000
  145.2095  139.2211  143.5150 LP  0  0  0  0  0  0  0  0  0  0  0  0  # atno 17320 bound_to 7965
  146.3460  140.1930  142.8589 LP  0  0  0  0  0  0  0  0  0  0  0  0  # atno 17321 bound_to 7965
  140.7571  143.6026  150.8684 LP  0  0  0  0  0  0  0  0  0  0  0  0  # atno 17342 bound_to 10162
  139.9682  143.6087  152.2982 LP  0  0  0  0  0  0  0  0  0  0  0  0  # atno 17343 bound_to 10162
  157.5555  131.0945  150.9634 LP  0  0  0  0  0  0  0  0  0  0  0  0  # atno 17370 bound_to 10713
  156.9884  130.5554  149.5301 LP  0  0  0  0  0  0  0  0  0  0  0  0  # atno 17371 bound_to 10713
  141.2195  133.7385  156.9121 LP  0  0  0  0  0  0  0  0  0  0  0  0  # atno 17394 bound_to 11000
  140.1506  134.9233  157.2587 LP  0  0  0  0  0  0  0  0  0  0  0  0  # atno 17395 bound_to 11000

$$$$
