AV-unprocessed.smi:3103|AV-procd|sdf|11814|dock9
  -GOLD-   2272017183D 1   1.00000     0.00000
 Structure written by MMmdl.
 32 32  0  0  0  0  0  0  0  0  1 V2000
  153.0503  142.6250  161.4304 C   0  0  0  0  0  0  0  0  0  0  0  0
  152.3362  142.7083  160.0952 C   0  0  0  0  0  0  0  0  0  0  0  0
  152.2511  141.5910  159.2376 C   0  0  0  0  0  0  0  0  0  0  0  0
  151.6211  141.6542  158.0446 N   0  0  0  0  0  0  0  0  0  0  0  0
  151.0778  142.8257  157.7066 C   0  0  0  0  0  0  0  0  0  0  0  0
  150.4504  142.8573  156.4762 N   0  0  0  0  0  0  0  0  0  0  0  0
  150.2302  141.6837  155.6450 C   0  0  0  0  0  0  0  0  0  0  0  0
  148.7973  141.6368  155.1059 C   0  0  0  0  0  0  0  0  0  0  0  0
  148.8411  141.3746  153.7132 O   0  0  0  0  0  0  0  0  0  0  0  0
  147.6093  140.8937  153.2023 C   0  0  0  0  0  0  0  0  0  0  0  0
  147.5435  139.3759  153.4110 C   0  0  0  0  0  0  0  0  0  0  0  0
  148.7890  138.7888  153.1002 O   0  0  0  0  0  0  0  0  0  0  0  0
  151.0928  143.9462  158.4383 N   0  0  0  0  0  0  0  0  0  0  0  0
  151.7205  143.8952  159.6342 C   0  0  0  0  0  0  0  0  0  0  0  0
  151.7289  145.1756  160.4474 C   0  0  0  0  0  0  0  0  0  0  0  0
  153.4961  141.6406  161.5771 H   0  0  0  0  0  0  0  0  0  0  0  0
  152.3513  142.8059  162.2473 H   0  0  0  0  0  0  0  0  0  0  0  0
  153.8462  143.3682  161.4844 H   0  0  0  0  0  0  0  0  0  0  0  0
  152.6899  140.6413  159.5062 H   0  0  0  0  0  0  0  0  0  0  0  0
  150.0172  143.7265  156.2003 H   0  0  0  0  0  0  0  0  0  0  0  0
  150.9331  141.7154  154.8118 H   0  0  0  0  0  0  0  0  0  0  0  0
  150.4468  140.7790  156.2145 H   0  0  0  0  0  0  0  0  0  0  0  0
  148.2116  140.8782  155.6277 H   0  0  0  0  0  0  0  0  0  0  0  0
  148.3145  142.5997  155.2782 H   0  0  0  0  0  0  0  0  0  0  0  0
  146.7946  141.3667  153.7528 H   0  0  0  0  0  0  0  0  0  0  0  0
  147.4832  141.1533  152.1495 H   0  0  0  0  0  0  0  0  0  0  0  0
  147.2475  139.1279  154.4309 H   0  0  0  0  0  0  0  0  0  0  0  0
  146.7983  138.9428  152.7434 H   0  0  0  0  0  0  0  0  0  0  0  0
  148.6328  137.9468  152.7007 H   0  0  0  0  0  0  0  0  0  0  0  0
  151.2939  145.0038  161.4322 H   0  0  0  0  0  0  0  0  0  0  0  0
  151.1535  145.9627  159.9580 H   0  0  0  0  0  0  0  0  0  0  0  0
  152.7501  145.5342  160.5778 H   0  0  0  0  0  0  0  0  0  0  0  0
  1  2  1  0  0  0  0
  1 16  1  0  0  0  0
  1 17  1  0  0  0  0
  1 18  1  0  0  0  0
  2 14  1  0  0  0  0
  2  3  2  0  0  0  0
  3  4  1  0  0  0  0
  3 19  1  0  0  0  0
  4  5  2  0  0  0  0
  5  6  1  0  0  0  0
  5 13  1  0  0  0  0
  6  7  1  0  0  0  0
  6 20  1  0  0  0  0
  7  8  1  0  0  0  0
  7 21  1  0  0  0  0
  7 22  1  0  0  0  0
  8  9  1  0  0  0  0
  8 23  1  0  0  0  0
  8 24  1  0  0  0  0
  9 10  1  0  0  0  0
 10 11  1  0  0  0  0
 10 25  1  0  0  0  0
 10 26  1  0  0  0  0
 11 12  1  0  0  0  0
 11 27  1  0  0  0  0
 11 28  1  0  0  0  0
 12 29  1  0  0  0  0
 13 14  2  0  0  0  0
 14 15  1  0  0  0  0
 15 30  1  0  0  0  0
 15 31  1  0  0  0  0
 15 32  1  0  0  0  0
M  END
> <s_m_source_file>
AV-unprocessed.smi

> <i_m_source_file_index>
3103

> <i_lp_mmshare_version>
43012

> <i_f3d_flags>
0

> <s_epik_input>
W0NIM11jMVtjSF1uYyhuYzFbQ0gzXSlbTkhdW0NIMl1bQ0gyXU9bQ0gyXVtDSDJdW09IXQ==

> <s_epik_cmdline>
J2VwaWtfcHl0aG9uJywgJy1waCcsICc3LjAnLCAnLXRuJywgJzgnLCAnLW1hJywgJzIwMCcsICctbWV0YWxfYmluZGluZycsICctaW1hZScsICc8aW5maWxlLm1hZT4nLCAnLW9tYWUnLCAnPG91dGZpbGUubWFlPic=

> <r_lp_tautomer_probability>
1

> <r_epik_Ionization_Penalty>
0.00815169

> <r_epik_Ionization_Penalty_Charging>
0

> <r_epik_Ionization_Penalty_Neutral>
0.00815169

> <r_epik_State_Penalty>
0.00530275

> <r_epik_Charging_Adjusted_Penalty>
0.00530275

> <i_epik_Tot_Q>
0

> <i_epik_Tot_abs_Q>
0

> <r_epik_Metal_State_Penalty>
-0

> <b_epik_Metal_Only>
0

> <s_lp_Force_Field>
OPLS_2005

> <r_lp_Energy>
-2.90403

> <b_lp_Chiralities_Consistent>
1

> <s_lp_Variant>
AV-unprocessed.smi:3103-1

> <Gold.Version>
5.8.1

> <Gold.Id.Protein>
6NUR|6NUR_protein|mol2

> <Gold.PLP.Fitness>
42.1807

> <Gold.PLP.PLP>
-35.2651

> <Gold.PLP.part.hbond>
-4.0000

> <Gold.PLP.part.metal>
0.0000

> <Gold.PLP.part.buried>
-4.3099

> <Gold.PLP.part.nonpolar>
-27.0395

> <Gold.PLP.part.repulsive>
0.9626

> <Gold.PLP.ligand.clash>
0.0000

> <Gold.PLP.ligand.torsion>
0.7294

> <Gold.PLP.Chemscore.Hbond>
2.7840

> <Gold.PLP.Chemscore.CHOScore>
0.0000

> <Gold.PLP.Chemscore.Metal>
0.0000

> <Gold.Chemscore.Hbonds>
donor molecule, donor type, donor heavy atom, donor atom, acceptor molecule, acceptor atom, score
      L1  H     6    20       P1  8028  1.00
      L1  H    12    29       P1  7948  1.00
      P1  H  8011  8017       L1     9  0.80

> <Gold.PLP.Chemscore.Internal.Correction>
0.0225

> <Gold.Rescore>
     Score         DG    S(hbond)    S(metal)    S(lipo)     H(rot)  DE(clash)    DE(int)     intcor
     16.16     -17.36       2.63        0.00      83.66       2.61       0.31       0.89       ----

> <Gold.Chemscore.Fitness>
16.1604

> <Gold.Chemscore.DG>
-17.3598

> <Gold.Chemscore.ZeroCoef>
-5.4800

> <Gold.Chemscore.Hbond>
2.6276

> <Gold.Chemscore.Metal>
0.0000

> <Gold.Chemscore.Lipo>
83.6632

> <Gold.Chemscore.Internal_Hbond>
0.0000

> <Gold.Chemscore.DEClash>
0.3067

> <Gold.Chemscore.DEInternal>
0.8928

> <Gold.Chemscore.Rot>
2.6113

> <Gold.Chemscore.Internal.Correction>
   9.000000E+99

> <Gold.Chemscore.Hbonds>
donor molecule, donor type, donor heavy atom, donor atom, acceptor molecule, acceptor atom, score
      L1  H     6    20       P1  8028  0.98
      L1  H    12    29       P1  7948  0.99
      P1  H  8011  8017       L1     9  0.58

> <Gold.Chemscore.Hbond.Weighted>
-8.7761

> <Gold.Chemscore.Metal.Weighted>
-0.0000

> <Gold.Chemscore.Lipo.Weighted>
-9.7886

> <Gold.Chemscore.Internal_Hbond.Weighted>
0.0000

> <Gold.Chemscore.DEClash.Weighted>
0.3067

> <Gold.Chemscore.DEInternal.Weighted>
0.8928

> <Gold.Chemscore.Rot.Weighted>
6.6849

> <Gold.Chemscore.Internal.Correction.Weighted>
   9.000000E+99

> <Gold.Protein.RotatedTorsions>
[ 6907 6896 6895 6894 ] final   69.26 input  -60.11 | X-H torsion
[ 7974 7965 7964 7962 ] final -165.38 input  175.53 | X-H torsion
[ 8008 7997 7996 7995 ] final  -72.62 input   59.86 | X-H torsion
[ 10167 10162 10161 10158 ] final   62.97 input  -65.29 | X-H torsion
[ 10718 10713 10712 10709 ] final -172.41 input   66.30 | X-H torsion
[ 10763 10752 10751 10750 ] final  102.18 input  -60.55 | X-H torsion
[ 11005 11000 10999 10996 ] final    4.47 input  -57.11 | X-H torsion

> <Gold.Protein.ActiveResidues>
 VAL166  LYS551  ARG553  GLY616  TRP617  ASP618  TYR619  PRO620  LYS621  CYS622 
 ASP623  PHE694  ASN695  SER759  ASP760  ASP761  ALA762  ILE779  LEU786  VAL792 
 PHE793  MET794  SER795  GLU796  ALA797  LYS798  CYS799  TRP800  GLU811  SER814 

> <Gold.Protein.RotatedAtoms>
  152.4674  134.5042  159.9733 H   0  0  0  0  0  0  0  0  0  0  0  0  # atno 6907 bound_to 6896
  151.5076  133.3485  159.2887 H   0  0  0  0  0  0  0  0  0  0  0  0  # atno 6908 bound_to 6896
  150.8666  134.8059  159.7185 H   0  0  0  0  0  0  0  0  0  0  0  0  # atno 6909 bound_to 6896
  144.7271  140.2822  143.6234 H   0  0  0  0  0  0  0  0  0  0  0  0  # atno 7974 bound_to 7965
  154.5181  140.0794  156.8119 H   0  0  0  0  0  0  0  0  0  0  0  0  # atno 8008 bound_to 7997
  155.3637  140.3419  155.4223 H   0  0  0  0  0  0  0  0  0  0  0  0  # atno 8009 bound_to 7997
  156.1650  140.1601  156.8534 H   0  0  0  0  0  0  0  0  0  0  0  0  # atno 8010 bound_to 7997
  140.1381  144.4579  150.6826 H   0  0  0  0  0  0  0  0  0  0  0  0  # atno 10167 bound_to 10162
  156.7552  130.9393  151.3116 H   0  0  0  0  0  0  0  0  0  0  0  0  # atno 10718 bound_to 10713
  153.3363  135.4019  155.1536 H   0  0  0  0  0  0  0  0  0  0  0  0  # atno 10763 bound_to 10752
  154.8634  135.3622  154.5405 H   0  0  0  0  0  0  0  0  0  0  0  0  # atno 10764 bound_to 10752
  153.5846  135.7075  153.5508 H   0  0  0  0  0  0  0  0  0  0  0  0  # atno 10765 bound_to 10752
  140.5816  134.0007  155.8050 H   0  0  0  0  0  0  0  0  0  0  0  0  # atno 11005 bound_to 11000
  145.7938  139.1937  143.2087 LP  0  0  0  0  0  0  0  0  0  0  0  0  # atno 17320 bound_to 7965
  146.0734  140.7844  142.9677 LP  0  0  0  0  0  0  0  0  0  0  0  0  # atno 17321 bound_to 7965
  140.6777  143.2312  151.5466 LP  0  0  0  0  0  0  0  0  0  0  0  0  # atno 17342 bound_to 10162
  139.5485  144.2456  152.1488 LP  0  0  0  0  0  0  0  0  0  0  0  0  # atno 17343 bound_to 10162
  157.6759  130.9094  150.0150 LP  0  0  0  0  0  0  0  0  0  0  0  0  # atno 17370 bound_to 10713
  156.1375  130.3642  149.9634 LP  0  0  0  0  0  0  0  0  0  0  0  0  # atno 17371 bound_to 10713
  141.0992  133.9794  157.3107 LP  0  0  0  0  0  0  0  0  0  0  0  0  # atno 17394 bound_to 11000
  139.9315  135.0199  156.8414 LP  0  0  0  0  0  0  0  0  0  0  0  0  # atno 17395 bound_to 11000

$$$$
