AV-unprocessed.smi:243|AV-procd|sdf|1854|dock3
  -GOLD-   2262020483D 1   1.00000     0.00000
 Structure written by MMmdl.
 58 61  0  0  0  0  0  0  0  0  2 V2000
  143.5879  136.3979  152.0986 C   0  0  0  0  0  0  0  0  0  0  0  0
  144.0244  136.9093  153.4790 C   0  0  0  0  0  0  0  0  0  0  0  0
  144.7446  138.2090  153.4071 N   0  3  2  0  0  0  0  0  0  0  0  0
  145.9979  138.1470  152.6128 C   0  0  0  0  0  0  0  0  0  0  0  0
  147.1197  137.4264  153.3776 C   0  0  0  0  0  0  0  0  0  0  0  0
  147.3816  138.0967  154.7424 C   0  0  2  0  0  0  0  0  0  0  0  0
  148.4533  137.4155  155.4829 N   0  0  0  0  0  0  0  0  0  0  0  0
  148.5172  135.9560  155.5164 C   0  0  0  0  0  0  0  0  0  0  0  0
  149.5861  138.0922  155.8207 C   0  0  0  0  0  0  0  0  0  0  0  0
  150.7335  137.3988  156.0513 N   0  0  0  0  0  0  0  0  0  0  0  0
  151.8569  138.0344  156.3952 C   0  0  0  0  0  0  0  0  0  0  0  0
  152.0571  139.3421  156.5596 N   0  0  0  0  0  0  0  0  0  0  0  0
  150.9177  140.0505  156.3182 C   0  0  0  0  0  0  0  0  0  0  0  0
  149.6506  139.5118  155.9511 C   0  0  0  0  0  0  0  0  0  0  0  0
  148.7349  140.5456  155.7870 N   0  0  0  0  0  0  0  0  0  0  0  0
  149.4156  141.6263  156.0524 C   0  0  0  0  0  0  0  0  0  0  0  0
  150.7388  141.4224  156.3705 N   0  0  0  0  0  0  0  0  0  0  0  0
  151.7234  142.4407  156.7038 C   0  0  0  0  0  0  0  0  0  0  0  0
  151.4281  143.1834  158.0289 C   0  0  2  0  0  0  0  0  0  0  0  0
  150.1892  143.8620  157.9160 O   0  0  0  0  0  0  0  0  0  0  0  0
  152.5021  144.2040  158.3842 C   0  0  0  0  0  0  0  0  0  0  0  0
  152.4432  144.2396  159.9052 C   0  0  0  0  0  0  0  0  0  0  0  0
  152.2444  142.8781  160.2447 O   0  0  0  0  0  0  0  0  0  0  0  0
  151.3789  142.2835  159.2816 C   0  0  0  0  0  0  0  0  0  0  0  0
  146.0706  138.2037  155.5615 C   0  0  1  0  0  0  0  0  0  0  0  0
  146.2750  138.9785  156.8752 C   0  0  0  0  0  0  0  0  0  0  0  0
  144.9653  138.8796  154.7172 C   0  0  0  0  0  0  0  0  0  0  0  0
  143.1633  135.3969  152.1792 H   0  0  0  0  0  0  0  0  0  0  0  0
  144.4334  136.3425  151.4125 H   0  0  0  0  0  0  0  0  0  0  0  0
  142.8262  137.0331  151.6475 H   0  0  0  0  0  0  0  0  0  0  0  0
  143.1671  136.9720  154.1488 H   0  0  0  0  0  0  0  0  0  0  0  0
  144.6919  136.1622  153.9103 H   0  0  0  0  0  0  0  0  0  0  0  0
  145.8152  137.6619  151.6533 H   0  0  0  0  0  0  0  0  0  0  0  0
  146.3125  139.1656  152.3819 H   0  0  0  0  0  0  0  0  0  0  0  0
  146.8560  136.3768  153.5075 H   0  0  0  0  0  0  0  0  0  0  0  0
  148.0291  137.4367  152.7763 H   0  0  0  0  0  0  0  0  0  0  0  0
  147.6920  139.1245  154.5497 H   0  0  0  0  0  0  0  0  0  0  0  0
  149.5178  135.5974  155.2719 H   0  0  0  0  0  0  0  0  0  0  0  0
  147.8286  135.5053  154.8028 H   0  0  0  0  0  0  0  0  0  0  0  0
  148.2513  135.5905  156.5085 H   0  0  0  0  0  0  0  0  0  0  0  0
  152.7190  137.4056  156.5620 H   0  0  0  0  0  0  0  0  0  0  0  0
  148.9665  142.6082  156.0186 H   0  0  0  0  0  0  0  0  0  0  0  0
  152.7015  141.9605  156.7535 H   0  0  0  0  0  0  0  0  0  0  0  0
  151.7749  143.1514  155.8777 H   0  0  0  0  0  0  0  0  0  0  0  0
  149.9172  143.8425  157.0112 H   0  0  0  0  0  0  0  0  0  0  0  0
  153.4843  143.8428  158.0761 H   0  0  0  0  0  0  0  0  0  0  0  0
  152.3497  145.1816  157.9246 H   0  0  0  0  0  0  0  0  0  0  0  0
  153.3526  144.6384  160.3550 H   0  0  0  0  0  0  0  0  0  0  0  0
  151.5955  144.8328  160.2517 H   0  0  0  0  0  0  0  0  0  0  0  0
  150.3698  142.1934  159.6875 H   0  0  0  0  0  0  0  0  0  0  0  0
  151.7422  141.2759  159.0829 H   0  0  0  0  0  0  0  0  0  0  0  0
  145.7291  137.2037  155.8272 H   0  0  0  0  0  0  0  0  0  0  0  0
  146.6354  139.9903  156.6871 H   0  0  0  0  0  0  0  0  0  0  0  0
  146.9980  138.4846  157.5249 H   0  0  0  0  0  0  0  0  0  0  0  0
  145.3415  139.0563  157.4328 H   0  0  0  0  0  0  0  0  0  0  0  0
  145.2482  139.9141  154.5165 H   0  0  0  0  0  0  0  0  0  0  0  0
  144.0341  138.9348  155.2799 H   0  0  0  0  0  0  0  0  0  0  0  0
  144.1289  138.8161  152.8850 H   0  0  0  0  0  0  0  0  0  0  0  0
  1  2  1  0  0  0  0
  1 28  1  0  0  0  0
  1 29  1  0  0  0  0
  1 30  1  0  0  0  0
  2  3  1  0  0  0  0
  2 31  1  0  0  0  0
  2 32  1  0  0  0  0
  3 27  1  0  0  0  0
  3  4  1  0  0  0  0
  3 58  1  0  0  0  0
  4  5  1  0  0  0  0
  4 33  1  0  0  0  0
  4 34  1  0  0  0  0
  5  6  1  0  0  0  0
  5 35  1  0  0  0  0
  5 36  1  0  0  0  0
  6  7  1  0  0  0  0
  6 25  1  0  0  0  0
  6 37  1  0  0  0  0
  7  8  1  0  0  0  0
  7  9  1  0  0  0  0
  8 38  1  0  0  0  0
  8 39  1  0  0  0  0
  8 40  1  0  0  0  0
  9 14  1  0  0  0  0
  9 10  2  0  0  0  0
 10 11  1  0  0  0  0
 11 12  2  0  0  0  0
 11 41  1  0  0  0  0
 12 13  1  0  0  0  0
 13 17  1  0  0  0  0
 13 14  2  0  0  0  0
 14 15  1  0  0  0  0
 15 16  2  0  0  0  0
 16 17  1  0  0  0  0
 16 42  1  0  0  0  0
 17 18  1  0  0  0  0
 18 19  1  0  0  0  0
 18 43  1  0  0  0  0
 18 44  1  0  0  0  0
 19 24  1  0  0  0  0
 19 20  1  0  0  0  0
 19 21  1  0  0  0  0
 20 45  1  0  0  0  0
 21 22  1  0  0  0  0
 21 46  1  0  0  0  0
 21 47  1  0  0  0  0
 22 23  1  0  0  0  0
 22 48  1  0  0  0  0
 22 49  1  0  0  0  0
 23 24  1  0  0  0  0
 24 50  1  0  0  0  0
 24 51  1  0  0  0  0
 25 26  1  0  0  0  0
 25 27  1  0  0  0  0
 25 52  1  0  0  0  0
 26 53  1  0  0  0  0
 26 54  1  0  0  0  0
 26 55  1  0  0  0  0
 27 56  1  0  0  0  0
 27 57  1  0  0  0  0
M  CHG  1   3   1
M  END
> <s_m_source_file>
AV-unprocessed.smi

> <i_m_source_file_index>
243

> <i_lp_mmshare_version>
43012

> <i_f3d_flags>
0

> <s_epik_input>
W0NIM11bQ0gyXU4xW0NIMl1bQ0gyXVtDQEhdKFtDQEBIXShbQ0gzXSlbQ0gyXTEpTihbQ0gzXSljKG5bY0hdbjIpYyhjMjMpbltjSF1uM1tDSDJdW0NAQF00KFtPSF0pW0NIMl1bQ0gyXU9bQ0gyXTQ=

> <s_epik_cmdline>
J2VwaWtfcHl0aG9uJywgJy1waCcsICc3LjAnLCAnLXRuJywgJzgnLCAnLW1hJywgJzIwMCcsICctbWV0YWxfYmluZGluZycsICctaW1hZScsICc8aW5maWxlLm1hZT4nLCAnLW9tYWUnLCAnPG91dGZpbGUubWFlPic=

> <r_lp_tautomer_probability>
1

> <r_epik_Ionization_Penalty>
0.00253099

> <r_epik_Ionization_Penalty_Charging>
0.00137877

> <r_epik_Ionization_Penalty_Neutral>
0.00115221

> <r_epik_State_Penalty>
-0

> <r_epik_Charging_Adjusted_Penalty>
0.00137877

> <i_epik_Tot_Q>
1

> <i_epik_Tot_abs_Q>
1

> <r_epik_Metal_State_Penalty>
-0

> <b_epik_Metal_Only>
0

> <s_lp_Force_Field>
OPLS_2005

> <r_lp_Energy>
46.0239

> <b_lp_Chiralities_Consistent>
1

> <s_lp_Variant>
AV-unprocessed.smi:243-7

> <Gold.Version>
5.8.1

> <Gold.Id.Protein>
6NUR|6NUR_protein|mol2

> <Gold.PLP.Fitness>
45.9547

> <Gold.PLP.PLP>
-31.5930

> <Gold.PLP.part.hbond>
-3.9086

> <Gold.PLP.part.metal>
0.0000

> <Gold.PLP.part.buried>
2.0450

> <Gold.PLP.part.nonpolar>
-29.4820

> <Gold.PLP.part.repulsive>
0.1210

> <Gold.PLP.ligand.clash>
0.0000

> <Gold.PLP.ligand.torsion>
0.4940

> <Gold.PLP.Chemscore.Hbond>
3.9520

> <Gold.PLP.Chemscore.CHOScore>
1.0000

> <Gold.PLP.Chemscore.Metal>
0.0000

> <Gold.Chemscore.Hbonds>
donor molecule, donor type, donor heavy atom, donor atom, acceptor molecule, acceptor atom, score
      L1  H     3    58       P1 10175  1.95
      L1  H    20    45       P1  8028  0.88
      L1  C    16    42       P1  8028  1.00

> <Gold.PLP.Chemscore.Internal.Correction>
0.4939

> <Gold.Rescore>
     Score         DG    S(hbond)    S(metal)    S(lipo)     H(rot)  DE(clash)    DE(int)     intcor
     11.02     -18.06       2.46        0.00      86.28       2.24       4.05       2.99       ----

> <Gold.Chemscore.Fitness>
11.0198

> <Gold.Chemscore.DG>
-18.0579

> <Gold.Chemscore.ZeroCoef>
-5.4800

> <Gold.Chemscore.Hbond>
2.4587

> <Gold.Chemscore.Metal>
0.0000

> <Gold.Chemscore.Lipo>
86.2807

> <Gold.Chemscore.Internal_Hbond>
0.0000

> <Gold.Chemscore.DEClash>
4.0482

> <Gold.Chemscore.DEInternal>
2.9899

> <Gold.Chemscore.Rot>
2.2379

> <Gold.Chemscore.Internal.Correction>
   9.000000E+99

> <Gold.Chemscore.Hbonds>
donor molecule, donor type, donor heavy atom, donor atom, acceptor molecule, acceptor atom, score
      L1  H     3    58       P1 10175  0.93
      L1  H    20    45       P1  8028  0.83
      P1  H  7997  8010       L1    12  0.04

> <Gold.Chemscore.Hbond.Weighted>
-8.2122

> <Gold.Chemscore.Metal.Weighted>
-0.0000

> <Gold.Chemscore.Lipo.Weighted>
-10.0948

> <Gold.Chemscore.Internal_Hbond.Weighted>
0.0000

> <Gold.Chemscore.DEClash.Weighted>
4.0482

> <Gold.Chemscore.DEInternal.Weighted>
2.9899

> <Gold.Chemscore.Rot.Weighted>
5.7291

> <Gold.Chemscore.Internal.Correction.Weighted>
   9.000000E+99

> <Gold.Protein.RotatedTorsions>
[ 6907 6896 6895 6894 ] final   69.78 input  -60.11 | X-H torsion
[ 7974 7965 7964 7962 ] final  -69.05 input  175.53 | X-H torsion
[ 8008 7997 7996 7995 ] final   87.66 input   59.86 | X-H torsion
[ 10167 10162 10161 10158 ] final   54.56 input  -65.29 | X-H torsion
[ 10718 10713 10712 10709 ] final   27.21 input   66.30 | X-H torsion
[ 10763 10752 10751 10750 ] final  160.54 input  -60.55 | X-H torsion
[ 11005 11000 10999 10996 ] final  -13.52 input  -57.11 | X-H torsion

> <Gold.Protein.ActiveResidues>
 VAL166  LYS551  ARG553  GLY616  TRP617  ASP618  TYR619  PRO620  LYS621  CYS622 
 ASP623  PHE694  ASN695  SER759  ASP760  ASP761  ALA762  ILE779  LEU786  VAL792 
 PHE793  MET794  SER795  GLU796  ALA797  LYS798  CYS799  TRP800  GLU811  SER814 

> <Gold.Protein.RotatedAtoms>
  152.4708  134.4965  159.9711 H   0  0  0  0  0  0  0  0  0  0  0  0  # atno 6907 bound_to 6896
  151.4992  133.3502  159.2874 H   0  0  0  0  0  0  0  0  0  0  0  0  # atno 6908 bound_to 6896
  150.8717  134.8120  159.7221 H   0  0  0  0  0  0  0  0  0  0  0  0  # atno 6909 bound_to 6896
  145.7087  140.9087  143.0692 H   0  0  0  0  0  0  0  0  0  0  0  0  # atno 7974 bound_to 7965
  155.9781  140.3380  155.6637 H   0  0  0  0  0  0  0  0  0  0  0  0  # atno 8008 bound_to 7997
  155.6585  140.0713  157.2580 H   0  0  0  0  0  0  0  0  0  0  0  0  # atno 8009 bound_to 7997
  154.4184  140.1713  156.1738 H   0  0  0  0  0  0  0  0  0  0  0  0  # atno 8010 bound_to 7997
  140.2289  144.3709  150.6422 H   0  0  0  0  0  0  0  0  0  0  0  0  # atno 10167 bound_to 10162
  157.2172  130.6962  149.6254 H   0  0  0  0  0  0  0  0  0  0  0  0  # atno 10718 bound_to 10713
  154.2490  135.2772  155.2824 H   0  0  0  0  0  0  0  0  0  0  0  0  # atno 10763 bound_to 10752
  154.5481  135.5683  153.6901 H   0  0  0  0  0  0  0  0  0  0  0  0  # atno 10764 bound_to 10752
  152.9984  135.6267  154.2636 H   0  0  0  0  0  0  0  0  0  0  0  0  # atno 10765 bound_to 10752
  140.7769  133.8394  155.9257 H   0  0  0  0  0  0  0  0  0  0  0  0  # atno 11005 bound_to 11000
  144.6948  139.9045  143.7460 LP  0  0  0  0  0  0  0  0  0  0  0  0  # atno 17320 bound_to 7965
  146.0732  139.3721  143.0510 LP  0  0  0  0  0  0  0  0  0  0  0  0  # atno 17321 bound_to 7965
  140.6200  143.2175  151.6713 LP  0  0  0  0  0  0  0  0  0  0  0  0  # atno 17342 bound_to 10162
  139.5117  144.3500  152.0661 LP  0  0  0  0  0  0  0  0  0  0  0  0  # atno 17343 bound_to 10162
  155.9685  130.4532  150.5802 LP  0  0  0  0  0  0  0  0  0  0  0  0  # atno 17370 bound_to 10713
  157.3613  131.0750  151.1634 LP  0  0  0  0  0  0  0  0  0  0  0  0  # atno 17371 bound_to 10713
  140.9520  134.1767  157.4720 LP  0  0  0  0  0  0  0  0  0  0  0  0  # atno 17394 bound_to 11000
  139.8748  134.9912  156.5541 LP  0  0  0  0  0  0  0  0  0  0  0  0  # atno 17395 bound_to 11000

$$$$
