#       Name:                AV-unprocessed.smi:3281
#       Creating user name   scv26
#       Creation time:       Fri Mar 27 18:47:54 2020


#       File generated by GOLD software.
#

@<TRIPOS>MOLECULE
AV-unprocessed.smi:3281
    38    39     1
SMALL
NO_CHARGES


@<TRIPOS>ATOM
      1 ****        -4.6220   1.5897  -0.8715 C.3            1 S1                 0.0000
      2 ****        -4.1291   1.3710  -2.3061 C.3            1 S1                 0.0000
      3 ****        -2.6916   0.9740  -2.3788 C.2            1 S1                 0.0000
      4 ****        -2.1793  -0.2763  -2.6224 C.2            1 S1                 0.0000
      5 ****        -0.7837  -0.3261  -2.6163 N.2            1 S1                 0.0000
      6 ****        -0.2312   0.8679  -2.3866 C.2            1 S1                 0.0000
      7 ****         1.2432   1.0947  -2.2862 C.3            1 S1                 0.0000
      8 ****         1.7735   1.0090  -0.8462 C.3            1 S1                 0.0000
      9 ****         1.6157  -0.3414  -0.3225 N.3            1 S1                 0.0000
     10 ****         2.0168  -0.4446   1.0745 C.3            1 S1                 0.0000
     11 ****         2.3739  -1.9182   1.3499 C.3            1 S1                 0.0000
     12 ****         2.8686  -2.1460   2.7871 C.3            1 S1                 0.0000
     13 ****         1.8068  -1.7832   3.8342 C.3            1 S1                 0.0000
     14 ****         1.3669  -0.0268   3.7407 S.3            1 S1                 0.0000
     15 ****         0.8770   0.0393   1.9958 C.3            1 S1                 0.0000
     16 ****        -1.4180   2.1420  -2.1350 S.3            1 S1                 0.0000
     17 ****        -5.6747   1.8726  -0.8614 H              1 S1                 0.0000
     18 ****        -4.0597   2.3824  -0.3771 H              1 S1                 0.0000
     19 ****        -4.5150   0.6821  -0.2768 H              1 S1                 0.0000
     20 ****        -4.7430   0.6069  -2.7841 H              1 S1                 0.0000
     21 ****        -4.2809   2.2837  -2.8831 H              1 S1                 0.0000
     22 ****        -2.7335  -1.1852  -2.8044 H              1 S1                 0.0000
     23 ****         1.7594   0.3756  -2.9240 H              1 S1                 0.0000
     24 ****         1.4640   2.0807  -2.6956 H              1 S1                 0.0000
     25 ****         2.8307   1.2754  -0.8248 H              1 S1                 0.0000
     26 ****         1.2469   1.7313  -0.2231 H              1 S1                 0.0000
     27 ****         0.6602  -0.6516  -0.4317 H              1 S1                 0.0000
     28 ****         2.9092   0.1626   1.2349 H              1 S1                 0.0000
     29 ****         1.5099  -2.5562   1.1576 H              1 S1                 0.0000
     30 ****         3.1514  -2.2414   0.6562 H              1 S1                 0.0000
     31 ****         3.1491  -3.1927   2.9087 H              1 S1                 0.0000
     32 ****         3.7745  -1.5646   2.9633 H              1 S1                 0.0000
     33 ****         0.9081  -2.3834   3.6889 H              1 S1                 0.0000
     34 ****         2.1766  -1.9981   4.8370 H              1 S1                 0.0000
     35 ****         0.5924   1.0672   1.7730 H              1 S1                 0.0000
     36 ****        -0.0148  -0.5733   1.8576 H              1 S1                 0.0000
     37 ****        -0.2567  -1.1625  -2.7672 LP             1 S1                 0.0000
     38 ****         2.2222  -0.9339  -0.8527 LP             1 S1                 0.0000
@<TRIPOS>BOND
    1    1    2 1     
    2    1   17 1     
    3    1   18 1     
    4    1   19 1     
    5    2    3 1     
    6    2   20 1     
    7    2   21 1     
    8    3   16 1     
    9    3    4 2     
   10    4    5 1     
   11    4   22 1     
   12    5    6 2     
   13    6    7 1     
   14    6   16 1     
   15    7    8 1     
   16    7   23 1     
   17    7   24 1     
   18    8    9 1     
   19    8   25 1     
   20    8   26 1     
   21    9   10 1     
   22    9   27 1     
   23   10   15 1     
   24   10   11 1     
   25   10   28 1     
   26   11   12 1     
   27   11   29 1     
   28   11   30 1     
   29   12   13 1     
   30   12   31 1     
   31   12   32 1     
   32   13   14 1     
   33   13   33 1     
   34   13   34 1     
   35   14   15 1     
   36   15   35 1     
   37   15   36 1     
   38    5   37 1     
   39    9   38 1     
@<TRIPOS>SUBSTRUCTURE
      1 S1             1
@<TRIPOS>SET
LONE_PAIRS      STATIC     ATOMS    <user>   **** ""
2 37 38
DONOR_HYDROGENS      STATIC     ATOMS    <user>   **** ""
1 27
ATOM$BLUE        STATIC     ATOMS    COLORGROUP SYSTEM
2 37 38
ATOM$RED        STATIC     ATOMS    COLORGROUP SYSTEM
1 27
