#       Name:                AV-unprocessed.smi:1763
#       Creating user name   scv26
#       Creation time:       Fri Mar 27 08:36:45 2020


#       File generated by GOLD software.
#

@<TRIPOS>MOLECULE
AV-unprocessed.smi:1763
    48    49     1
SMALL
NO_CHARGES


@<TRIPOS>ATOM
      1 ****        -4.3813   3.8778  -2.5709 C.3            1 S1                 0.0000
      2 ****        -4.2162   2.4752  -2.2076 N.pl3          1 S1                -1.0000
      3 ****        -4.7515   1.9224  -1.0840 C.2            1 S1                 0.0000
      4 ****        -5.4431   2.4219  -0.1910 O.2            1 S1                 0.0000
      5 ****        -4.3910   0.4356  -0.9768 C.3            1 S1                 0.0000
      6 ****        -2.9209   0.2592  -0.8591 N.4            1 S1                 1.0000
      7 ****        -2.4652  -1.0665  -1.3462 C.3            1 S1                 0.0000
      8 ****        -0.9297  -1.1522  -1.3616 C.3            1 S1                 0.0000
      9 ****        -0.3425  -0.8563   0.0278 C.3            1 S1                 0.0000
     10 ****         1.1161  -0.8575  -0.0380 N.am           1 S1                 0.0000
     11 ****         1.9347  -1.1127   0.9933 C.2            1 S1                 0.0000
     12 ****         1.5333  -1.3912   2.1238 O.2            1 S1                 0.0000
     13 ****         3.2250  -1.0177   0.6262 N.am           1 S1                 0.0000
     14 ****         4.3817  -1.1957   1.4314 C.ar           1 S1                 0.0000
     15 ****         5.6117  -0.9967   0.7645 C.ar           1 S1                 0.0000
     16 ****         6.8178  -1.1461   1.4763 C.ar           1 S1                 0.0000
     17 ****         6.7627  -1.4928   2.8381 C.ar           1 S1                 0.0000
     18 ****         5.4970  -1.6741   3.4255 C.ar           1 S1                 0.0000
     19 ****         4.3400  -1.5303   2.7455 N.ar           1 S1                 0.0000
     20 ****        -0.8638   0.5028   0.5297 C.3            1 S1                 0.0000
     21 ****        -2.4000   0.5543   0.5021 C.3            1 S1                 0.0000
     22 ****        -3.9141   4.1053  -3.5288 H              1 S1                 0.0000
     23 ****        -3.9299   4.5501  -1.8407 H              1 S1                 0.0000
     24 ****        -5.4290   4.1658  -2.6614 H              1 S1                 0.0000
     25 ****        -4.8991  -0.0269  -0.1289 H              1 S1                 0.0000
     26 ****        -4.7649  -0.0640  -1.8723 H              1 S1                 0.0000
     27 ****        -2.8826  -1.8515  -0.7135 H              1 S1                 0.0000
     28 ****        -2.8418  -1.2367  -2.3554 H              1 S1                 0.0000
     29 ****        -0.6200  -2.1429  -1.6967 H              1 S1                 0.0000
     30 ****        -0.5369  -0.4418  -2.0910 H              1 S1                 0.0000
     31 ****        -0.6736  -1.6403   0.7120 H              1 S1                 0.0000
     32 ****         1.5315  -0.6365  -0.9313 H              1 S1                 0.0000
     33 ****         3.4013  -0.7789  -0.3383 H              1 S1                 0.0000
     34 ****         5.6363  -0.7303  -0.2823 H              1 S1                 0.0000
     35 ****         7.7679  -0.9969   0.9851 H              1 S1                 0.0000
     36 ****         7.6658  -1.6164   3.4173 H              1 S1                 0.0000
     37 ****         5.4104  -1.9402   4.4686 H              1 S1                 0.0000
     38 ****        -0.5098   0.6916   1.5439 H              1 S1                 0.0000
     39 ****        -0.4649   1.3063  -0.0914 H              1 S1                 0.0000
     40 ****        -2.7285   1.5426   0.8250 H              1 S1                 0.0000
     41 ****        -2.8119  -0.1628   1.2140 H              1 S1                 0.0000
     42 ****        -2.5225   0.9461  -1.4844 H              1 S1                 0.0000
     43 ****        -3.6816   1.8882  -2.8156 LP             1 S1                 0.0000
     44 ****        -5.6914   3.3896  -0.2331 LP             1 S1                 0.0000
     45 ****        -5.7547   1.8586   0.5743 LP             1 S1                 0.0000
     46 ****         0.5516  -1.4359   2.3089 LP             1 S1                 0.0000
     47 ****         2.1891  -1.5726   2.8567 LP             1 S1                 0.0000
     48 ****         3.4626  -1.6688   3.2048 LP             1 S1                 0.0000
@<TRIPOS>BOND
    1    1    2 1     
    2    1   22 1     
    3    1   23 1     
    4    1   24 1     
    5    2    3 1     
    6    3    4 2     
    7    3    5 1     
    8    5    6 1     
    9    5   25 1     
   10    5   26 1     
   11    6   21 1     
   12    6    7 1     
   13    6   42 1     
   14    7    8 1     
   15    7   27 1     
   16    7   28 1     
   17    8    9 1     
   18    8   29 1     
   19    8   30 1     
   20    9   10 1     
   21    9   20 1     
   22    9   31 1     
   23   10   11 am    
   24   10   32 1     
   25   11   12 2     
   26   11   13 am    
   27   13   14 1     
   28   13   33 1     
   29   14   19 ar    
   30   14   15 ar    
   31   15   16 ar    
   32   15   34 1     
   33   16   17 ar    
   34   16   35 1     
   35   17   18 ar    
   36   17   36 1     
   37   18   19 ar    
   38   18   37 1     
   39   20   21 1     
   40   20   38 1     
   41   20   39 1     
   42   21   40 1     
   43   21   41 1     
   44    2   43 1     
   45    4   44 1     
   46    4   45 1     
   47   12   46 1     
   48   12   47 1     
   49   19   48 1     
@<TRIPOS>SUBSTRUCTURE
      1 S1             1
@<TRIPOS>SET
LONE_PAIRS      STATIC     ATOMS    <user>   **** ""
6 43 44 45 46 47 48
DONOR_HYDROGENS      STATIC     ATOMS    <user>   **** ""
3 42 32 33
ATOM$BLUE        STATIC     ATOMS    COLORGROUP SYSTEM
6 43 44 45 46 47 48
ATOM$RED        STATIC     ATOMS    COLORGROUP SYSTEM
3 42 32 33
