AV-unprocessed.smi:2803|AV-procd|sdf|10807|dock2
  -GOLD-   2272015243D 1   1.00000     0.00000
 Structure written by MMmdl.
 42 43  0  0  0  0  0  0  0  0  1 V2000
  152.4328  139.6694  158.1420 C   0  0  0  0  0  0  0  0  0  0  0  0
  151.4342  139.6101  156.9695 C   0  0  1  0  0  0  0  0  0  0  0  0
  152.1654  139.6419  155.6890 C   0  0  0  0  0  0  0  0  0  0  0  0
  152.7404  139.6669  154.6850 N   0  0  0  0  0  0  0  0  0  0  0  0
  150.6378  138.3851  157.0686 N   0  0  0  0  0  0  0  0  0  0  0  0
  151.0617  137.1089  157.0786 C   0  0  0  0  0  0  0  0  0  0  0  0
  152.2494  136.7957  157.0239 O   0  0  0  0  0  0  0  0  0  0  0  0
  149.9969  136.0000  157.1472 C   0  0  0  0  0  0  0  0  0  0  0  0
  149.3117  135.8852  158.4399 N   0  0  0  0  0  0  0  0  0  0  0  0
  148.9249  136.9742  159.1827 C   0  0  0  0  0  0  0  0  0  0  0  0
  148.3940  136.6244  160.3019 N   0  0  0  0  0  0  0  0  0  0  0  0
  148.4419  135.2594  160.2700 N   0  0  0  0  0  0  0  0  0  0  0  0
  147.9324  134.4689  161.4199 C   0  0  0  0  0  0  0  0  0  0  0  0
  148.4578  135.0745  162.7394 C   0  0  0  0  0  0  0  0  0  0  0  0
  148.3954  132.9920  161.3582 C   0  0  0  0  0  0  0  0  0  0  0  0
  146.3883  134.4806  161.4157 C   0  0  0  0  0  0  0  0  0  0  0  0
  148.9977  134.7948  159.1342 C   0  0  0  0  0  0  0  0  0  0  0  0
  149.2034  133.6268  158.8060 O   0  0  0  0  0  0  0  0  0  0  0  0
  150.5630  140.8631  157.0038 C   0  0  0  0  0  0  0  0  0  0  0  0
  149.9818  141.4812  155.7512 C   0  0  0  0  0  0  0  0  0  0  0  0
  151.0648  142.2063  156.5191 C   0  0  0  0  0  0  0  0  0  0  0  0
  153.0188  140.5886  158.1125 H   0  0  0  0  0  0  0  0  0  0  0  0
  153.1398  138.8399  158.1194 H   0  0  0  0  0  0  0  0  0  0  0  0
  151.9171  139.6387  159.1025 H   0  0  0  0  0  0  0  0  0  0  0  0
  149.6396  138.5255  157.1224 H   0  0  0  0  0  0  0  0  0  0  0  0
  149.2687  136.1670  156.3517 H   0  0  0  0  0  0  0  0  0  0  0  0
  150.4796  135.0489  156.9183 H   0  0  0  0  0  0  0  0  0  0  0  0
  149.0921  137.9810  158.7964 H   0  0  0  0  0  0  0  0  0  0  0  0
  148.1422  134.4820  163.5988 H   0  0  0  0  0  0  0  0  0  0  0  0
  148.0930  136.0884  162.9033 H   0  0  0  0  0  0  0  0  0  0  0  0
  149.5479  135.1106  162.7498 H   0  0  0  0  0  0  0  0  0  0  0  0
  149.4828  132.9079  161.3784 H   0  0  0  0  0  0  0  0  0  0  0  0
  148.0364  132.4926  160.4572 H   0  0  0  0  0  0  0  0  0  0  0  0
  148.0163  132.4245  162.2087 H   0  0  0  0  0  0  0  0  0  0  0  0
  145.9878  133.8706  162.2263 H   0  0  0  0  0  0  0  0  0  0  0  0
  145.9937  134.0809  160.4809 H   0  0  0  0  0  0  0  0  0  0  0  0
  145.9810  135.4833  161.5442 H   0  0  0  0  0  0  0  0  0  0  0  0
  149.9189  140.9057  157.8808 H   0  0  0  0  0  0  0  0  0  0  0  0
  150.2502  141.0469  154.7904 H   0  0  0  0  0  0  0  0  0  0  0  0
  148.9713  141.8797  155.8122 H   0  0  0  0  0  0  0  0  0  0  0  0
  150.7721  143.0852  157.0898 H   0  0  0  0  0  0  0  0  0  0  0  0
  152.0516  142.2582  156.0632 H   0  0  0  0  0  0  0  0  0  0  0  0
  1  2  1  0  0  0  0
  1 22  1  0  0  0  0
  1 23  1  0  0  0  0
  1 24  1  0  0  0  0
  2  3  1  0  0  0  0
  2  5  1  0  0  0  0
  2 19  1  0  0  0  0
  3  4  3  0  0  0  0
  5  6  1  0  0  0  0
  5 25  1  0  0  0  0
  6  7  2  0  0  0  0
  6  8  1  0  0  0  0
  8  9  1  0  0  0  0
  8 26  1  0  0  0  0
  8 27  1  0  0  0  0
  9 17  1  0  0  0  0
  9 10  1  0  0  0  0
 10 11  2  0  0  0  0
 10 28  1  0  0  0  0
 11 12  1  0  0  0  0
 12 13  1  0  0  0  0
 12 17  1  0  0  0  0
 13 14  1  0  0  0  0
 13 15  1  0  0  0  0
 13 16  1  0  0  0  0
 14 29  1  0  0  0  0
 14 30  1  0  0  0  0
 14 31  1  0  0  0  0
 15 32  1  0  0  0  0
 15 33  1  0  0  0  0
 15 34  1  0  0  0  0
 16 35  1  0  0  0  0
 16 36  1  0  0  0  0
 16 37  1  0  0  0  0
 17 18  2  0  0  0  0
 19 21  1  0  0  0  0
 19 20  1  0  0  0  0
 19 38  1  0  0  0  0
 20 21  1  0  0  0  0
 20 39  1  0  0  0  0
 20 40  1  0  0  0  0
 21 41  1  0  0  0  0
 21 42  1  0  0  0  0
M  END
> <s_m_source_file>
AV-unprocessed.smi

> <i_m_source_file_index>
2803

> <i_lp_mmshare_version>
43012

> <i_f3d_flags>
0

> <s_epik_input>
W0NIMl0xW0NIMl1bQ0hdMVtDQF0oW0NIM10pKEMjTilbTkhdQyg9TylbQ0gyXW4yW2NIXW5uKGMyPU8pQyhbQ0gzXSkoW0NIM10pW0NIM10=

> <s_epik_cmdline>
J2VwaWtfcHl0aG9uJywgJy1waCcsICc3LjAnLCAnLXRuJywgJzgnLCAnLW1hJywgJzIwMCcsICctbWV0YWxfYmluZGluZycsICctaW1hZScsICc8aW5maWxlLm1hZT4nLCAnLW9tYWUnLCAnPG91dGZpbGUubWFlPic=

> <r_lp_tautomer_probability>
1

> <r_epik_Ionization_Penalty>
4.88615e-06

> <r_epik_Ionization_Penalty_Charging>
4.80261e-08

> <r_epik_Ionization_Penalty_Neutral>
4.83813e-06

> <r_epik_State_Penalty>
-0

> <r_epik_Charging_Adjusted_Penalty>
4.80261e-08

> <i_epik_Tot_Q>
0

> <i_epik_Tot_abs_Q>
0

> <r_epik_Metal_State_Penalty>
-0

> <b_epik_Metal_Only>
0

> <s_lp_Force_Field>
OPLS_2005

> <r_lp_Energy>
32.3619

> <b_lp_Chiralities_Consistent>
1

> <s_lp_Variant>
AV-unprocessed.smi:2803-1

> <Gold.Version>
5.8.1

> <Gold.Id.Protein>
6NUR|6NUR_protein|mol2

> <Gold.PLP.Fitness>
43.7227

> <Gold.PLP.PLP>
-34.7028

> <Gold.PLP.part.hbond>
-5.0000

> <Gold.PLP.part.metal>
0.0000

> <Gold.PLP.part.buried>
-2.8953

> <Gold.PLP.part.nonpolar>
-26.6507

> <Gold.PLP.part.repulsive>
0.0211

> <Gold.PLP.ligand.clash>
0.0000

> <Gold.PLP.ligand.torsion>
1.6393

> <Gold.PLP.Chemscore.Hbond>
3.5754

> <Gold.PLP.Chemscore.CHOScore>
0.0000

> <Gold.PLP.Chemscore.Metal>
0.0000

> <Gold.Chemscore.Hbonds>
donor molecule, donor type, donor heavy atom, donor atom, acceptor molecule, acceptor atom, score
      P1  H  6896  6909       L1    18  0.10
      P1  H  6931  6943       L1    11  0.14
      P1  H  7989  7998       L1     4  0.48
      P1  H  7997  8009       L1     4  0.32

> <Gold.PLP.Chemscore.Internal.Correction>
1.5723

> <Gold.Rescore>
     Score         DG    S(hbond)    S(metal)    S(lipo)     H(rot)  DE(clash)    DE(int)     intcor
     10.49     -14.98       2.16        0.00      64.30       2.05       1.97       2.51       ----

> <Gold.Chemscore.Fitness>
10.4882

> <Gold.Chemscore.DG>
-14.9759

> <Gold.Chemscore.ZeroCoef>
-5.4800

> <Gold.Chemscore.Hbond>
2.1585

> <Gold.Chemscore.Metal>
0.0000

> <Gold.Chemscore.Lipo>
64.3047

> <Gold.Chemscore.Internal_Hbond>
0.0000

> <Gold.Chemscore.DEClash>
1.9729

> <Gold.Chemscore.DEInternal>
2.5148

> <Gold.Chemscore.Rot>
2.0457

> <Gold.Chemscore.Internal.Correction>
   9.000000E+99

> <Gold.Chemscore.Hbonds>
donor molecule, donor type, donor heavy atom, donor atom, acceptor molecule, acceptor atom, score
      P1  H  6931  6943       L1    11  0.09
      P1  H  7989  7998       L1     4  0.26
      P1  H  7997  8009       L1     4  0.01

> <Gold.Chemscore.Hbond.Weighted>
-7.2093

> <Gold.Chemscore.Metal.Weighted>
-0.0000

> <Gold.Chemscore.Lipo.Weighted>
-7.5236

> <Gold.Chemscore.Internal_Hbond.Weighted>
0.0000

> <Gold.Chemscore.DEClash.Weighted>
1.9729

> <Gold.Chemscore.DEInternal.Weighted>
2.5148

> <Gold.Chemscore.Rot.Weighted>
5.2370

> <Gold.Chemscore.Internal.Correction.Weighted>
   9.000000E+99

> <Gold.Protein.RotatedTorsions>
[ 6907 6896 6895 6894 ] final   12.89 input  -60.11 | X-H torsion
[ 7974 7965 7964 7962 ] final  -15.35 input  175.53 | X-H torsion
[ 8008 7997 7996 7995 ] final -123.93 input   59.86 | X-H torsion
[ 10167 10162 10161 10158 ] final    1.49 input  -65.29 | X-H torsion
[ 10718 10713 10712 10709 ] final  122.13 input   66.30 | X-H torsion
[ 10763 10752 10751 10750 ] final  151.99 input  -60.55 | X-H torsion
[ 11005 11000 10999 10996 ] final -136.25 input  -57.11 | X-H torsion

> <Gold.Protein.ActiveResidues>
 VAL166  LYS551  ARG553  GLY616  TRP617  ASP618  TYR619  PRO620  LYS621  CYS622 
 ASP623  PHE694  ASN695  SER759  ASP760  ASP761  ALA762  ILE779  LEU786  VAL792 
 PHE793  MET794  SER795  GLU796  ALA797  LYS798  CYS799  TRP800  GLU811  SER814 

> <Gold.Protein.RotatedAtoms>
  151.7775  135.0770  160.0368 H   0  0  0  0  0  0  0  0  0  0  0  0  # atno 6907 bound_to 6896
  152.3246  133.5886  159.5776 H   0  0  0  0  0  0  0  0  0  0  0  0  # atno 6908 bound_to 6896
  150.7388  133.9876  159.3638 H   0  0  0  0  0  0  0  0  0  0  0  0  # atno 6909 bound_to 6896
  146.2036  140.3480  142.8415 H   0  0  0  0  0  0  0  0  0  0  0  0  # atno 7974 bound_to 7965
  155.1885  140.0412  157.2896 H   0  0  0  0  0  0  0  0  0  0  0  0  # atno 8008 bound_to 7997
  154.6155  140.2487  155.7587 H   0  0  0  0  0  0  0  0  0  0  0  0  # atno 8009 bound_to 7997
  156.2404  140.2906  156.0438 H   0  0  0  0  0  0  0  0  0  0  0  0  # atno 8010 bound_to 7997
  140.6680  143.7126  150.7866 H   0  0  0  0  0  0  0  0  0  0  0  0  # atno 10167 bound_to 10162
  157.5766  131.1079  150.8268 H   0  0  0  0  0  0  0  0  0  0  0  0  # atno 10718 bound_to 10713
  154.1127  135.2838  155.3227 H   0  0  0  0  0  0  0  0  0  0  0  0  # atno 10763 bound_to 10752
  154.6478  135.5379  153.7869 H   0  0  0  0  0  0  0  0  0  0  0  0  # atno 10764 bound_to 10752
  153.0340  135.6502  154.1285 H   0  0  0  0  0  0  0  0  0  0  0  0  # atno 10765 bound_to 10752
  140.8823  134.1916  157.4583 H   0  0  0  0  0  0  0  0  0  0  0  0  # atno 11005 bound_to 11000
  144.8739  140.7310  143.6029 LP  0  0  0  0  0  0  0  0  0  0  0  0  # atno 17320 bound_to 7965
  145.3400  139.1735  143.4491 LP  0  0  0  0  0  0  0  0  0  0  0  0  # atno 17321 bound_to 7965
  140.0806  143.4972  152.2532 LP  0  0  0  0  0  0  0  0  0  0  0  0  # atno 17342 bound_to 10162
  139.5937  144.7559  151.3339 LP  0  0  0  0  0  0  0  0  0  0  0  0  # atno 17343 bound_to 10162
  156.8725  130.5151  149.5296 LP  0  0  0  0  0  0  0  0  0  0  0  0  # atno 17370 bound_to 10713
  156.0810  130.5821  150.9563 LP  0  0  0  0  0  0  0  0  0  0  0  0  # atno 17371 bound_to 10713
  139.8721  134.9822  156.5149 LP  0  0  0  0  0  0  0  0  0  0  0  0  # atno 17394 bound_to 11000
  140.8447  133.8178  155.9109 LP  0  0  0  0  0  0  0  0  0  0  0  0  # atno 17395 bound_to 11000

$$$$
