AV-unprocessed.smi:21|AV-procd|sdf|122|dock2
  -GOLD-   2262015293D 1   1.00000     0.00000
 Structure written by MMmdl.
 62 65  0  0  0  0  0  0  0  0  2 V2000
  149.2136  130.2934  153.8001 C   0  0  0  0  0  0  0  0  0  0  0  0
  148.2482  131.1377  153.1943 O   0  0  0  0  0  0  0  0  0  0  0  0
  148.5307  132.5212  153.3429 C   0  0  2  0  0  0  0  0  0  0  0  0
  148.5555  132.9037  154.8191 C   0  0  0  0  0  0  0  0  0  0  0  0
  148.1917  134.4003  154.8510 C   0  0  1  0  0  0  0  0  0  0  0  0
  149.4034  135.3289  155.0929 C   0  0  0  0  0  0  0  0  0  0  0  0
  149.0395  136.6451  155.6201 N   0  0  0  0  0  0  0  0  0  0  0  0
  147.6385  136.9140  155.9374 C   0  0  0  0  0  0  0  0  0  0  0  0
  149.8963  137.6972  155.4802 C   0  0  0  0  0  0  0  0  0  0  0  0
  151.0535  137.5051  154.7911 N   0  0  0  0  0  0  0  0  0  0  0  0
  151.9446  138.4910  154.6595 C   0  0  0  0  0  0  0  0  0  0  0  0
  151.8849  139.7357  155.1325 N   0  0  0  0  0  0  0  0  0  0  0  0
  150.7232  139.9475  155.8122 C   0  0  0  0  0  0  0  0  0  0  0  0
  149.6802  138.9999  156.0259 C   0  0  0  0  0  0  0  0  0  0  0  0
  148.6540  139.6005  156.7494 N   0  0  0  0  0  0  0  0  0  0  0  0
  149.0697  140.8185  156.9607 C   0  0  0  0  0  0  0  0  0  0  0  0
  150.3113  141.1060  156.4452 N   0  0  0  0  0  0  0  0  0  0  0  0
  151.0279  142.3640  156.5443 C   0  0  0  0  0  0  0  0  0  0  0  0
  151.3225  142.8003  158.0046 C   0  0  2  0  0  0  0  0  0  0  0  0
  151.6324  144.3158  158.1166 C   0  0  0  0  0  0  0  0  0  0  0  0
  150.4592  145.1031  158.1573 O   0  0  0  0  0  0  0  0  0  0  0  0
  152.4767  141.9513  158.6004 C   0  0  2  0  0  0  0  0  0  0  0  0
  152.1438  140.4848  158.8245 C   0  0  0  0  0  0  0  0  0  0  0  0
  153.2240  140.0525  159.8081 C   0  0  0  0  0  0  0  0  0  0  0  0
  153.4703  141.1914  160.6224 O   0  0  0  0  0  0  0  0  0  0  0  0
  152.9093  142.3527  160.0177 C   0  0  0  0  0  0  0  0  0  0  0  0
  147.5832  134.6996  153.5310 N   0  3  2  0  0  0  0  0  0  0  0  0
  146.3474  135.5095  153.5920 C   0  0  0  0  0  0  0  0  0  0  0  0
  147.4311  133.4286  152.7950 C   0  0  0  0  0  0  0  0  0  0  0  0
  149.4924  132.7754  152.8928 H   0  0  0  0  0  0  0  0  0  0  0  0
  147.4441  134.5535  155.6308 H   0  0  0  0  0  0  0  0  0  0  0  0
  148.9167  129.2523  153.6729 H   0  0  0  0  0  0  0  0  0  0  0  0
  149.2950  130.4904  154.8696 H   0  0  0  0  0  0  0  0  0  0  0  0
  150.1967  130.4169  153.3449 H   0  0  0  0  0  0  0  0  0  0  0  0
  147.7883  132.3411  155.3533 H   0  0  0  0  0  0  0  0  0  0  0  0
  149.5097  132.6677  155.2881 H   0  0  0  0  0  0  0  0  0  0  0  0
  150.0897  134.8429  155.7873 H   0  0  0  0  0  0  0  0  0  0  0  0
  149.9808  135.4553  154.1787 H   0  0  0  0  0  0  0  0  0  0  0  0
  147.5610  137.5332  156.8319 H   0  0  0  0  0  0  0  0  0  0  0  0
  147.0926  135.9902  156.1293 H   0  0  0  0  0  0  0  0  0  0  0  0
  147.1439  137.4328  155.1156 H   0  0  0  0  0  0  0  0  0  0  0  0
  152.8354  138.2452  154.1003 H   0  0  0  0  0  0  0  0  0  0  0  0
  148.4859  141.5401  157.5133 H   0  0  0  0  0  0  0  0  0  0  0  0
  151.9531  142.2469  155.9804 H   0  0  0  0  0  0  0  0  0  0  0  0
  150.4503  143.1338  156.0311 H   0  0  0  0  0  0  0  0  0  0  0  0
  150.4339  142.5959  158.6046 H   0  0  0  0  0  0  0  0  0  0  0  0
  152.1766  144.5405  159.0327 H   0  0  0  0  0  0  0  0  0  0  0  0
  152.2649  144.6437  157.2909 H   0  0  0  0  0  0  0  0  0  0  0  0
  149.8975  144.8379  157.4449 H   0  0  0  0  0  0  0  0  0  0  0  0
  153.3459  142.0089  157.9429 H   0  0  0  0  0  0  0  0  0  0  0  0
  151.1584  140.3822  159.2818 H   0  0  0  0  0  0  0  0  0  0  0  0
  152.1606  139.8911  157.9101 H   0  0  0  0  0  0  0  0  0  0  0  0
  152.9269  139.1899  160.4048 H   0  0  0  0  0  0  0  0  0  0  0  0
  154.1423  139.7987  159.2771 H   0  0  0  0  0  0  0  0  0  0  0  0
  153.6315  143.1694  160.0176 H   0  0  0  0  0  0  0  0  0  0  0  0
  152.0497  142.6637  160.6129 H   0  0  0  0  0  0  0  0  0  0  0  0
  145.5623  134.9912  154.1441 H   0  0  0  0  0  0  0  0  0  0  0  0
  145.9796  135.7190  152.5872 H   0  0  0  0  0  0  0  0  0  0  0  0
  146.5397  136.4628  154.0844 H   0  0  0  0  0  0  0  0  0  0  0  0
  147.5026  133.5790  151.7175 H   0  0  0  0  0  0  0  0  0  0  0  0
  146.4540  132.9932  153.0127 H   0  0  0  0  0  0  0  0  0  0  0  0
  148.2708  135.2380  153.0235 H   0  0  0  0  0  0  0  0  0  0  0  0
  1  2  1  0  0  0  0
  1 32  1  0  0  0  0
  1 33  1  0  0  0  0
  1 34  1  0  0  0  0
  2  3  1  0  0  0  0
  3 30  1  0  0  0  0
  3 29  1  0  0  0  0
  3  4  1  0  0  0  0
  4  5  1  0  0  0  0
  4 35  1  0  0  0  0
  4 36  1  0  0  0  0
  5 31  1  0  0  0  0
  5  6  1  0  0  0  0
  5 27  1  0  0  0  0
  6  7  1  0  0  0  0
  6 37  1  0  0  0  0
  6 38  1  0  0  0  0
  7  8  1  0  0  0  0
  7  9  1  0  0  0  0
  8 39  1  0  0  0  0
  8 40  1  0  0  0  0
  8 41  1  0  0  0  0
  9 14  1  0  0  0  0
  9 10  2  0  0  0  0
 10 11  1  0  0  0  0
 11 12  2  0  0  0  0
 11 42  1  0  0  0  0
 12 13  1  0  0  0  0
 13 17  1  0  0  0  0
 13 14  2  0  0  0  0
 14 15  1  0  0  0  0
 15 16  2  0  0  0  0
 16 17  1  0  0  0  0
 16 43  1  0  0  0  0
 17 18  1  0  0  0  0
 18 19  1  0  0  0  0
 18 44  1  0  0  0  0
 18 45  1  0  0  0  0
 19 20  1  0  0  0  0
 19 22  1  0  0  0  0
 19 46  1  0  0  0  0
 20 21  1  0  0  0  0
 20 47  1  0  0  0  0
 20 48  1  0  0  0  0
 21 49  1  0  0  0  0
 22 26  1  0  0  0  0
 22 23  1  0  0  0  0
 22 50  1  0  0  0  0
 23 24  1  0  0  0  0
 23 51  1  0  0  0  0
 23 52  1  0  0  0  0
 24 25  1  0  0  0  0
 24 53  1  0  0  0  0
 24 54  1  0  0  0  0
 25 26  1  0  0  0  0
 26 55  1  0  0  0  0
 26 56  1  0  0  0  0
 27 28  1  0  0  0  0
 27 29  1  0  0  0  0
 27 62  1  0  0  0  0
 28 57  1  0  0  0  0
 28 58  1  0  0  0  0
 28 59  1  0  0  0  0
 29 60  1  0  0  0  0
 29 61  1  0  0  0  0
M  CHG  1  27   1
M  END
> <s_m_source_file>
AV-unprocessed.smi

> <i_m_source_file_index>
21

> <i_lp_mmshare_version>
43012

> <i_f3d_flags>
0

> <s_epik_input>
W0NIM11PW0NASF0xW0NIMl1bQ0BIXShOKFtDSDNdKVtDSDJdMSlbQ0gyXU4oW0NIM10pYyhuW2NIXW4yKWMoYzIzKW5bY0hdbjNbQ0gyXVtDQEhdKFtDSDJdW09IXSlbQ0BASF00W0NIMl1bQ0gyXU9bQ0gyXTQ=

> <s_epik_cmdline>
J2VwaWtfcHl0aG9uJywgJy1waCcsICc3LjAnLCAnLXRuJywgJzgnLCAnLW1hJywgJzIwMCcsICctbWV0YWxfYmluZGluZycsICctaW1hZScsICc8aW5maWxlLm1hZT4nLCAnLW9tYWUnLCAnPG91dGZpbGUubWFlPic=

> <r_lp_tautomer_probability>
1

> <r_epik_Ionization_Penalty>
0.0157465

> <r_epik_Ionization_Penalty_Charging>
0.015354

> <r_epik_Ionization_Penalty_Neutral>
0.000392529

> <r_epik_State_Penalty>
0.0120612

> <r_epik_Charging_Adjusted_Penalty>
0.0274152

> <i_epik_Tot_Q>
1

> <i_epik_Tot_abs_Q>
1

> <r_epik_Metal_State_Penalty>
0.0121253

> <b_epik_Metal_Only>
0

> <s_lp_Force_Field>
OPLS_2005

> <r_lp_Energy>
59.339

> <b_lp_Chiralities_Consistent>
1

> <s_lp_Variant>
AV-unprocessed.smi:21-2

> <Gold.Version>
5.8.1

> <Gold.Id.Protein>
6NUR|6NUR_protein|mol2

> <Gold.PLP.Fitness>
55.0932

> <Gold.PLP.PLP>
-45.5149

> <Gold.PLP.part.hbond>
-4.0000

> <Gold.PLP.part.metal>
0.0000

> <Gold.PLP.part.buried>
-6.9710

> <Gold.PLP.part.nonpolar>
-35.8371

> <Gold.PLP.part.repulsive>
1.1227

> <Gold.PLP.ligand.clash>
0.0000

> <Gold.PLP.ligand.torsion>
0.9864

> <Gold.PLP.Chemscore.Hbond>
3.5940

> <Gold.PLP.Chemscore.CHOScore>
0.0000

> <Gold.PLP.Chemscore.Metal>
0.0000

> <Gold.Chemscore.Hbonds>
donor molecule, donor type, donor heavy atom, donor atom, acceptor molecule, acceptor atom, score
      L1  H    21    49       P1  8028  0.60
      L1  H    27    62       P1  7948  2.00
      P1  H  7989  7998       L1    12  0.96

> <Gold.PLP.Chemscore.Internal.Correction>
0.7691

> <Gold.Rescore>
     Score         DG    S(hbond)    S(metal)    S(lipo)     H(rot)  DE(clash)    DE(int)     intcor
     10.33     -13.59       1.28        0.00      99.96       3.08       0.02       3.24       ----

> <Gold.Chemscore.Fitness>
10.3301

> <Gold.Chemscore.DG>
-13.5883

> <Gold.Chemscore.ZeroCoef>
-5.4800

> <Gold.Chemscore.Hbond>
1.2836

> <Gold.Chemscore.Metal>
0.0000

> <Gold.Chemscore.Lipo>
99.9582

> <Gold.Chemscore.Internal_Hbond>
0.0000

> <Gold.Chemscore.DEClash>
0.0156

> <Gold.Chemscore.DEInternal>
3.2427

> <Gold.Chemscore.Rot>
3.0758

> <Gold.Chemscore.Internal.Correction>
   9.000000E+99

> <Gold.Chemscore.Hbonds>
donor molecule, donor type, donor heavy atom, donor atom, acceptor molecule, acceptor atom, score
      L1  H    21    49       P1  8028  0.04
      L1  H    27    62       P1  7948  0.96
      P1  H  7989  7998       L1    12  0.16

> <Gold.Chemscore.Hbond.Weighted>
-4.2873

> <Gold.Chemscore.Metal.Weighted>
-0.0000

> <Gold.Chemscore.Lipo.Weighted>
-11.6951

> <Gold.Chemscore.Internal_Hbond.Weighted>
0.0000

> <Gold.Chemscore.DEClash.Weighted>
0.0156

> <Gold.Chemscore.DEInternal.Weighted>
3.2427

> <Gold.Chemscore.Rot.Weighted>
7.8741

> <Gold.Chemscore.Internal.Correction.Weighted>
   9.000000E+99

> <Gold.Protein.RotatedTorsions>
[ 6907 6896 6895 6894 ] final  -96.85 input  -60.11 | X-H torsion
[ 7974 7965 7964 7962 ] final  175.64 input  175.53 | X-H torsion
[ 8008 7997 7996 7995 ] final  116.03 input   59.86 | X-H torsion
[ 10167 10162 10161 10158 ] final  -57.45 input  -65.29 | X-H torsion
[ 10718 10713 10712 10709 ] final -104.26 input   66.30 | X-H torsion
[ 10763 10752 10751 10750 ] final  -77.83 input  -60.55 | X-H torsion
[ 11005 11000 10999 10996 ] final   -1.37 input  -57.11 | X-H torsion

> <Gold.Protein.ActiveResidues>
 VAL166  LYS551  ARG553  GLY616  TRP617  ASP618  TYR619  PRO620  LYS621  CYS622 
 ASP623  PHE694  ASN695  SER759  ASP760  ASP761  ALA762  ILE779  LEU786  VAL792 
 PHE793  MET794  SER795  GLU796  ALA797  LYS798  CYS799  TRP800  GLU811  SER814 

> <Gold.Protein.RotatedAtoms>
  150.7000  134.1440  159.4115 H   0  0  0  0  0  0  0  0  0  0  0  0  # atno 6907 bound_to 6896
  151.9424  135.0205  160.0546 H   0  0  0  0  0  0  0  0  0  0  0  0  # atno 6908 bound_to 6896
  152.2082  133.4856  159.5132 H   0  0  0  0  0  0  0  0  0  0  0  0  # atno 6909 bound_to 6896
  144.7198  139.9977  143.6440 H   0  0  0  0  0  0  0  0  0  0  0  0  # atno 7974 bound_to 7965
  156.2416  140.2926  156.0460 H   0  0  0  0  0  0  0  0  0  0  0  0  # atno 8008 bound_to 7997
  155.1934  140.0407  157.2921 H   0  0  0  0  0  0  0  0  0  0  0  0  # atno 8009 bound_to 7997
  154.6179  140.2468  155.7593 H   0  0  0  0  0  0  0  0  0  0  0  0  # atno 8010 bound_to 7997
  140.6257  143.2437  151.5369 H   0  0  0  0  0  0  0  0  0  0  0  0  # atno 10167 bound_to 10162
  156.0297  130.5507  150.7372 H   0  0  0  0  0  0  0  0  0  0  0  0  # atno 10718 bound_to 10713
  154.5181  135.5750  153.6658 H   0  0  0  0  0  0  0  0  0  0  0  0  # atno 10763 bound_to 10752
  152.9911  135.6175  154.2791 H   0  0  0  0  0  0  0  0  0  0  0  0  # atno 10764 bound_to 10752
  154.2710  135.2853  155.2718 H   0  0  0  0  0  0  0  0  0  0  0  0  # atno 10765 bound_to 10752
  140.6465  133.9442  155.8356 H   0  0  0  0  0  0  0  0  0  0  0  0  # atno 11005 bound_to 11000
  146.0360  139.3378  143.0726 LP  0  0  0  0  0  0  0  0  0  0  0  0  # atno 17320 bound_to 7965
  145.8394  140.9589  143.0807 LP  0  0  0  0  0  0  0  0  0  0  0  0  # atno 17321 bound_to 7965
  139.5478  144.2475  152.1475 LP  0  0  0  0  0  0  0  0  0  0  0  0  # atno 17342 bound_to 10162
  140.1706  144.4939  150.6582 LP  0  0  0  0  0  0  0  0  0  0  0  0  # atno 17343 bound_to 10162
  157.4949  131.0914  151.0383 LP  0  0  0  0  0  0  0  0  0  0  0  0  # atno 17370 bound_to 10713
  157.0779  130.5891  149.5415 LP  0  0  0  0  0  0  0  0  0  0  0  0  # atno 17371 bound_to 10713
  141.0568  134.0405  157.3712 LP  0  0  0  0  0  0  0  0  0  0  0  0  # atno 17394 bound_to 11000
  139.9061  135.0179  156.7491 LP  0  0  0  0  0  0  0  0  0  0  0  0  # atno 17395 bound_to 11000

$$$$
