#       Name:                AV-unprocessed.smi:71
#       Creating user name   scv26
#       Creation time:       Thu Mar 26 16:56:19 2020


#       File generated by GOLD software.
#

@<TRIPOS>MOLECULE
AV-unprocessed.smi:71
    36    37     1
SMALL
NO_CHARGES


@<TRIPOS>ATOM
      1 ****        -3.7399  -2.6039  -1.8347 N.pl3          1 S1                 0.0000
      2 ****        -3.1204  -1.3966  -1.5233 C.ar           1 S1                 0.0000
      3 ****        -3.8916  -0.2302  -1.3473 C.ar           1 S1                 0.0000
      4 ****        -3.2264   0.9716  -1.0394 C.ar           1 S1                 0.0000
      5 ****        -1.8240   0.9588  -0.9159 C.ar           1 S1                 0.0000
      6 ****        -1.1385  -0.2641  -1.0971 C.ar           1 S1                 0.0000
      7 ****         0.3575  -0.3225  -0.9966 C.2            1 S1                 0.0000
      8 ****         1.0146  -0.6281  -1.9921 O.2            1 S1                 0.0000
      9 ****         0.9215  -0.0403   0.2016 N.am           1 S1                 0.0000
     10 ****         0.1976   0.1210   1.4663 C.3            1 S1                 0.0000
     11 ****         1.2587   0.3729   2.5361 C.3            1 S1                 0.0000
     12 ****         2.5284  -0.2253   1.9511 C.3            1 S1                 0.0000
     13 ****         2.3711  -0.0568   0.4342 C.3            1 S1                 0.0000
     14 ****         3.0248   1.2353  -0.1000 C.3            1 S1                 0.0000
     15 ****         4.4319   1.1288  -0.0549 O.3            1 S1                 0.0000
     16 ****        -1.7759  -1.4167  -1.4060 N.ar           1 S1                 0.0000
     17 ****        -3.2090  -3.4528  -1.9663 H              1 S1                 0.0000
     18 ****        -4.7446  -2.6748  -1.9058 H              1 S1                 0.0000
     19 ****        -4.9668  -0.2514  -1.4496 H              1 S1                 0.0000
     20 ****        -3.7819   1.8877  -0.9038 H              1 S1                 0.0000
     21 ****        -1.2883   1.8695  -0.6900 H              1 S1                 0.0000
     22 ****        -0.5142   0.9456   1.4398 H              1 S1                 0.0000
     23 ****        -0.3519  -0.7963   1.6844 H              1 S1                 0.0000
     24 ****         1.3920   1.4468   2.6741 H              1 S1                 0.0000
     25 ****         0.9949  -0.0566   3.5030 H              1 S1                 0.0000
     26 ****         3.4327   0.2348   2.3505 H              1 S1                 0.0000
     27 ****         2.5691  -1.2880   2.1941 H              1 S1                 0.0000
     28 ****         2.8164  -0.9180  -0.0686 H              1 S1                 0.0000
     29 ****         2.7408   1.4136  -1.1373 H              1 S1                 0.0000
     30 ****         2.7044   2.1053   0.4741 H              1 S1                 0.0000
     31 ****         4.8052   1.9191  -0.4143 H              1 S1                 0.0000
     32 ****         0.5506  -0.8336  -2.8538 LP             1 S1                 0.0000
     33 ****         2.0123  -0.6708  -1.9389 LP             1 S1                 0.0000
     34 ****         4.7278   0.3406  -0.5946 LP             1 S1                 0.0000
     35 ****         4.7312   1.0153   0.8925 LP             1 S1                 0.0000
     36 ****        -1.2628  -2.2639  -1.5442 LP             1 S1                 0.0000
@<TRIPOS>BOND
    1    1    2 1     
    2    1   17 1     
    3    1   18 1     
    4    2   16 ar    
    5    2    3 ar    
    6    3    4 ar    
    7    3   19 1     
    8    4    5 ar    
    9    4   20 1     
   10    5    6 ar    
   11    5   21 1     
   12    6    7 1     
   13    6   16 ar    
   14    7    8 2     
   15    7    9 am    
   16    9   13 1     
   17    9   10 1     
   18   10   11 1     
   19   10   22 1     
   20   10   23 1     
   21   11   12 1     
   22   11   24 1     
   23   11   25 1     
   24   12   13 1     
   25   12   26 1     
   26   12   27 1     
   27   13   14 1     
   28   13   28 1     
   29   14   15 1     
   30   14   29 1     
   31   14   30 1     
   32   15   31 1     
   33    8   32 1     
   34    8   33 1     
   35   15   34 1     
   36   15   35 1     
   37   16   36 1     
@<TRIPOS>SUBSTRUCTURE
      1 S1             1
@<TRIPOS>SET
LONE_PAIRS      STATIC     ATOMS    <user>   **** ""
5 32 33 34 35 36
DONOR_HYDROGENS      STATIC     ATOMS    <user>   **** ""
3 17 18 31
ATOM$BLUE        STATIC     ATOMS    COLORGROUP SYSTEM
5 32 33 34 35 36
ATOM$RED        STATIC     ATOMS    COLORGROUP SYSTEM
3 17 18 31
