#       Name:                AV-unprocessed.smi:2274
#       Creating user name   scv26
#       Creation time:       Fri Mar 27 12:38:07 2020


#       File generated by GOLD software.
#

@<TRIPOS>MOLECULE
AV-unprocessed.smi:2274
    52    53     1
SMALL
NO_CHARGES


@<TRIPOS>ATOM
      1 ****        -6.8661   1.7918   1.0900 C.3            1 S1                 0.0000
      2 ****        -6.0117   1.3099   2.2684 C.3            1 S1                 0.0000
      3 ****        -4.7016   0.8611   1.8301 N.pl3          1 S1                 0.0000
      4 ****        -4.5505  -0.4252   1.4330 N.2            1 S1                 0.0000
      5 ****        -3.2752  -0.5484   1.0962 C.2            1 S1                 0.0000
      6 ****        -2.7641  -1.8971   0.6714 C.3            1 S1                 0.0000
      7 ****        -2.6001   0.7000   1.2455 C.2            1 S1                 0.0000
      8 ****        -1.2335   1.0065   1.0295 N.am           1 S1                 0.0000
      9 ****        -0.4637   0.5694   0.0214 C.2            1 S1                 0.0000
     10 ****        -0.8516  -0.1495  -0.8994 O.2            1 S1                 0.0000
     11 ****         0.7900   1.0318   0.1260 N.am           1 S1                 0.0000
     12 ****         1.8701   0.7379  -0.8086 C.3            1 S1                 0.0000
     13 ****         2.4717  -0.6564  -0.5588 C.3            1 S1                 0.0000
     14 ****         3.6355  -0.9844  -1.5072 C.3            1 S1                 0.0000
     15 ****         4.1222  -2.4373  -1.3384 C.3            1 S1                 0.0000
     16 ****         5.3349  -2.7089  -2.2357 C.3            1 S1                 0.0000
     17 ****         6.4134  -1.6511  -1.9804 C.3            1 S1                 0.0000
     18 ****         5.8185  -0.2404  -2.1114 C.3            1 S1                 0.0000
     19 ****         4.7143  -0.0952  -1.2233 O.3            1 S1                 0.0000
     20 ****        -3.5199   1.5767   1.7437 C.2            1 S1                 0.0000
     21 ****        -3.4059   3.0158   2.1331 C.3            1 S1                 0.0000
     22 ****        -7.8463   2.1237   1.4320 H              1 S1                 0.0000
     23 ****        -7.0200   0.9937   0.3629 H              1 S1                 0.0000
     24 ****        -6.3920   2.6281   0.5753 H              1 S1                 0.0000
     25 ****        -5.8888   2.1098   2.9991 H              1 S1                 0.0000
     26 ****        -6.5116   0.4895   2.7857 H              1 S1                 0.0000
     27 ****        -1.7288  -2.0425   0.9801 H              1 S1                 0.0000
     28 ****        -2.8124  -2.0103  -0.4117 H              1 S1                 0.0000
     29 ****        -3.3504  -2.7033   1.1139 H              1 S1                 0.0000
     30 ****        -0.8292   1.6942   1.6478 H              1 S1                 0.0000
     31 ****         1.0169   1.6233   0.9120 H              1 S1                 0.0000
     32 ****         1.5097   0.8224  -1.8353 H              1 S1                 0.0000
     33 ****         2.6361   1.5038  -0.6852 H              1 S1                 0.0000
     34 ****         2.8100  -0.7332   0.4754 H              1 S1                 0.0000
     35 ****         1.6925  -1.4098  -0.6824 H              1 S1                 0.0000
     36 ****         3.3045  -0.8326  -2.5363 H              1 S1                 0.0000
     37 ****         4.3926  -2.6168  -0.2970 H              1 S1                 0.0000
     38 ****         3.3196  -3.1357  -1.5777 H              1 S1                 0.0000
     39 ****         5.7299  -3.7082  -2.0502 H              1 S1                 0.0000
     40 ****         5.0314  -2.6796  -3.2829 H              1 S1                 0.0000
     41 ****         6.8245  -1.7808  -0.9786 H              1 S1                 0.0000
     42 ****         7.2415  -1.7796  -2.6781 H              1 S1                 0.0000
     43 ****         6.5709   0.5079  -1.8620 H              1 S1                 0.0000
     44 ****         5.5025  -0.0445  -3.1373 H              1 S1                 0.0000
     45 ****        -2.4333   3.4235   1.8580 H              1 S1                 0.0000
     46 ****        -3.5275   3.1352   3.2098 H              1 S1                 0.0000
     47 ****        -4.1697   3.6147   1.6368 H              1 S1                 0.0000
     48 ****        -5.2550  -1.1342   1.4008 LP             1 S1                 0.0000
     49 ****        -1.8048  -0.4500  -0.9316 LP             1 S1                 0.0000
     50 ****        -0.2135  -0.4331  -1.6152 LP             1 S1                 0.0000
     51 ****         5.0323  -0.2705  -0.2915 LP             1 S1                 0.0000
     52 ****         4.3764   0.8437  -1.2891 LP             1 S1                 0.0000
@<TRIPOS>BOND
    1    1    2 1     
    2    1   22 1     
    3    1   23 1     
    4    1   24 1     
    5    2    3 1     
    6    2   25 1     
    7    2   26 1     
    8    3   20 1     
    9    3    4 1     
   10    4    5 2     
   11    5    6 1     
   12    5    7 1     
   13    6   27 1     
   14    6   28 1     
   15    6   29 1     
   16    7    8 1     
   17    7   20 2     
   18    8    9 am    
   19    8   30 1     
   20    9   10 2     
   21    9   11 am    
   22   11   12 1     
   23   11   31 1     
   24   12   13 1     
   25   12   32 1     
   26   12   33 1     
   27   13   14 1     
   28   13   34 1     
   29   13   35 1     
   30   14   19 1     
   31   14   15 1     
   32   14   36 1     
   33   15   16 1     
   34   15   37 1     
   35   15   38 1     
   36   16   17 1     
   37   16   39 1     
   38   16   40 1     
   39   17   18 1     
   40   17   41 1     
   41   17   42 1     
   42   18   19 1     
   43   18   43 1     
   44   18   44 1     
   45   20   21 1     
   46   21   45 1     
   47   21   46 1     
   48   21   47 1     
   49    4   48 1     
   50   10   49 1     
   51   10   50 1     
   52   19   51 1     
   53   19   52 1     
@<TRIPOS>SUBSTRUCTURE
      1 S1             1
@<TRIPOS>SET
LONE_PAIRS      STATIC     ATOMS    <user>   **** ""
5 48 49 50 51 52
DONOR_HYDROGENS      STATIC     ATOMS    <user>   **** ""
2 30 31
ATOM$BLUE        STATIC     ATOMS    COLORGROUP SYSTEM
5 48 49 50 51 52
ATOM$RED        STATIC     ATOMS    COLORGROUP SYSTEM
2 30 31
