#       Name:                AV-unprocessed.smi:1048
#       Creating user name   scv26
#       Creation time:       Fri Mar 27 03:09:57 2020


#       File generated by GOLD software.
#

@<TRIPOS>MOLECULE
AV-unprocessed.smi:1048
    51    52     1
SMALL
NO_CHARGES


@<TRIPOS>ATOM
      1 ****        -4.4845   4.4423   1.4493 C.3            1 S1                 0.0000
      2 ****        -3.9932   2.9946   1.5880 C.3            1 S1                 0.0000
      3 ****        -2.4621   2.9215   1.7160 C.3            1 S1                 0.0000
      4 ****        -1.9787   1.4653   1.8224 C.3            1 S1                 0.0000
      5 ****        -2.4431   0.6599   0.6619 N.4            1 S1                 1.0000
      6 ****        -1.8940  -0.7205   0.6480 C.3            1 S1                 0.0000
      7 ****        -0.4514  -0.7743   0.1049 C.3            1 S1                 0.0000
      8 ****        -0.5090  -0.3774  -1.2513 O.3            1 S1                 0.0000
      9 ****         0.1263  -2.2031   0.1723 C.3            1 S1                 0.0000
     10 ****         1.5857  -2.2046   0.1648 N.am           1 S1                 0.0000
     11 ****         2.3500  -2.1882  -0.9361 C.2            1 S1                 0.0000
     12 ****         1.8918  -2.1461  -2.0773 O.2            1 S1                 0.0000
     13 ****         3.6566  -2.1977  -0.6224 N.am           1 S1                 0.0000
     14 ****         4.7746  -2.2237  -1.4994 C.ar           1 S1                 0.0000
     15 ****         6.0215  -1.7999  -0.9954 C.ar           1 S1                 0.0000
     16 ****         7.1501  -1.8361  -1.8362 C.ar           1 S1                 0.0000
     17 ****         6.9886  -2.3070  -3.1535 C.ar           1 S1                 0.0000
     18 ****         5.8064  -2.7303  -3.6481 N.ar           1 S1                 0.0000
     19 ****         4.7273  -2.6905  -2.8368 C.ar           1 S1                 0.0000
     20 ****        -3.9230   0.6833   0.5393 C.3            1 S1                 0.0000
     21 ****        -4.4446   2.1237   0.4035 C.3            1 S1                 0.0000
     22 ****        -4.0831   4.9147   0.5522 H              1 S1                 0.0000
     23 ****        -4.1801   5.0435   2.3066 H              1 S1                 0.0000
     24 ****        -5.5724   4.4833   1.3882 H              1 S1                 0.0000
     25 ****        -4.4306   2.5824   2.4987 H              1 S1                 0.0000
     26 ****        -1.9941   3.3981   0.8533 H              1 S1                 0.0000
     27 ****        -2.1342   3.4810   2.5930 H              1 S1                 0.0000
     28 ****        -0.8908   1.4566   1.8789 H              1 S1                 0.0000
     29 ****        -2.3451   1.0173   2.7475 H              1 S1                 0.0000
     30 ****        -1.9441  -1.1355   1.6558 H              1 S1                 0.0000
     31 ****        -2.5196  -1.3643   0.0270 H              1 S1                 0.0000
     32 ****         0.1927  -0.0906   0.6581 H              1 S1                 0.0000
     33 ****         0.3462  -0.5011  -1.6374 H              1 S1                 0.0000
     34 ****        -0.1654  -2.6680   1.1144 H              1 S1                 0.0000
     35 ****        -0.2800  -2.8412  -0.6151 H              1 S1                 0.0000
     36 ****         2.0464  -2.2355   1.0627 H              1 S1                 0.0000
     37 ****         3.8794  -2.1397   0.3605 H              1 S1                 0.0000
     38 ****         6.1149  -1.4468   0.0212 H              1 S1                 0.0000
     39 ****         8.1167  -1.5123  -1.4796 H              1 S1                 0.0000
     40 ****         7.8329  -2.3509  -3.8254 H              1 S1                 0.0000
     41 ****         3.8184  -3.0667  -3.2795 H              1 S1                 0.0000
     42 ****        -4.2294   0.1108  -0.3371 H              1 S1                 0.0000
     43 ****        -4.3699   0.1986   1.4086 H              1 S1                 0.0000
     44 ****        -5.5332   2.1146   0.3395 H              1 S1                 0.0000
     45 ****        -4.0843   2.5541  -0.5323 H              1 S1                 0.0000
     46 ****        -2.0886   1.1078  -0.1716 H              1 S1                 0.0000
     47 ****        -0.7692   0.5863  -1.3099 LP             1 S1                 0.0000
     48 ****        -1.1822  -0.9346  -1.7375 LP             1 S1                 0.0000
     49 ****         0.9021  -2.1222  -2.2182 LP             1 S1                 0.0000
     50 ****         2.5092  -2.1358  -2.8640 LP             1 S1                 0.0000
     51 ****         5.7316  -3.0637  -4.5880 LP             1 S1                 0.0000
@<TRIPOS>BOND
    1    1    2 1     
    2    1   22 1     
    3    1   23 1     
    4    1   24 1     
    5    2   21 1     
    6    2    3 1     
    7    2   25 1     
    8    3    4 1     
    9    3   26 1     
   10    3   27 1     
   11    4    5 1     
   12    4   28 1     
   13    4   29 1     
   14    5    6 1     
   15    5   20 1     
   16    5   46 1     
   17    6    7 1     
   18    6   30 1     
   19    6   31 1     
   20    7    8 1     
   21    7    9 1     
   22    7   32 1     
   23    8   33 1     
   24    9   10 1     
   25    9   34 1     
   26    9   35 1     
   27   10   11 am    
   28   10   36 1     
   29   11   12 2     
   30   11   13 am    
   31   13   14 1     
   32   13   37 1     
   33   14   19 ar    
   34   14   15 ar    
   35   15   16 ar    
   36   15   38 1     
   37   16   17 ar    
   38   16   39 1     
   39   17   18 ar    
   40   17   40 1     
   41   18   19 ar    
   42   19   41 1     
   43   20   21 1     
   44   20   42 1     
   45   20   43 1     
   46   21   44 1     
   47   21   45 1     
   48    8   47 1     
   49    8   48 1     
   50   12   49 1     
   51   12   50 1     
   52   18   51 1     
@<TRIPOS>SUBSTRUCTURE
      1 S1             1
@<TRIPOS>SET
LONE_PAIRS      STATIC     ATOMS    <user>   **** ""
5 47 48 49 50 51
DONOR_HYDROGENS      STATIC     ATOMS    <user>   **** ""
4 46 33 36 37
ATOM$BLUE        STATIC     ATOMS    COLORGROUP SYSTEM
5 47 48 49 50 51
ATOM$RED        STATIC     ATOMS    COLORGROUP SYSTEM
4 46 33 36 37
