AV-unprocessed.smi:3234|AV-procd|sdf|12358|dock1
  -GOLD-   2272018213D 1   1.00000     0.00000
 Structure written by MMmdl.
 37 39  0  0  0  0  0  0  0  0  4 V2000
  144.9818  138.3808  153.4272 O   0  0  0  0  0  0  0  0  0  0  0  0
  145.9144  137.8638  152.8009 C   0  0  0  0  0  0  0  0  0  0  0  0
  147.1412  138.4138  152.8348 N   0  0  0  0  0  0  0  0  0  0  0  0
  147.5640  139.6046  153.4838 C   0  0  0  0  0  0  0  0  0  0  0  0
  148.8528  139.6200  154.0609 C   0  0  0  0  0  0  0  0  0  0  0  0
  149.3153  140.7913  154.6942 C   0  0  0  0  0  0  0  0  0  0  0  0
  148.5312  141.8902  154.7319 N   0  3  0  0  0  0  0  0  0  0  0  0
  147.3005  141.9286  154.1773 C   0  0  0  0  0  0  0  0  0  0  0  0
  146.7842  140.7875  153.5309 C   0  0  0  0  0  0  0  0  0  0  0  0
  145.8779  136.7326  152.0457 N   0  5  0  0  0  0  0  0  0  0  0  0
  144.6578  136.0024  151.6962 C   0  0  2  0  0  0  0  0  0  0  0  0
  144.2605  135.0091  152.7892 C   0  0  0  0  0  0  0  0  0  0  0  0
  143.4781  133.9161  152.0451 C   0  0  0  0  0  0  0  0  0  0  0  0
  143.7734  134.0881  150.6032 N   0  3  2  0  0  0  0  0  0  0  0  0
  144.0313  132.8270  149.8755 C   0  0  0  0  0  0  0  0  0  0  0  0
  144.4972  131.7010  150.7673 C   0  0  0  0  0  0  0  0  0  0  0  0
  145.4849  132.4194  149.8733 C   0  0  0  0  0  0  0  0  0  0  0  0
  144.8549  135.0852  150.4885 C   0  0  0  0  0  0  0  0  0  0  0  0
  147.8705  137.8721  152.3943 H   0  0  0  0  0  0  0  0  0  0  0  0
  149.4796  138.7404  154.0270 H   0  0  0  0  0  0  0  0  0  0  0  0
  150.2829  140.8820  155.1658 H   0  0  0  0  0  0  0  0  0  0  0  0
  146.7710  142.8664  154.2596 H   0  0  0  0  0  0  0  0  0  0  0  0
  145.8081  140.8391  153.0724 H   0  0  0  0  0  0  0  0  0  0  0  0
  143.8122  136.6650  151.5036 H   0  0  0  0  0  0  0  0  0  0  0  0
  145.1473  134.5655  153.2457 H   0  0  0  0  0  0  0  0  0  0  0  0
  143.6776  135.4742  153.5846 H   0  0  0  0  0  0  0  0  0  0  0  0
  143.7689  132.9272  152.4036 H   0  0  0  0  0  0  0  0  0  0  0  0
  142.4028  134.0169  152.2001 H   0  0  0  0  0  0  0  0  0  0  0  0
  143.3961  132.6235  149.0150 H   0  0  0  0  0  0  0  0  0  0  0  0
  144.5614  131.8854  151.8384 H   0  0  0  0  0  0  0  0  0  0  0  0
  144.2144  130.6887  150.4863 H   0  0  0  0  0  0  0  0  0  0  0  0
  145.8535  131.8800  149.0032 H   0  0  0  0  0  0  0  0  0  0  0  0
  146.2060  133.0806  150.3506 H   0  0  0  0  0  0  0  0  0  0  0  0
  144.8051  135.6212  149.5402 H   0  0  0  0  0  0  0  0  0  0  0  0
  145.8221  134.5812  150.5434 H   0  0  0  0  0  0  0  0  0  0  0  0
  142.9543  134.5169  150.1970 H   0  0  0  0  0  0  0  0  0  0  0  0
  148.8856  142.7281  155.1936 H   0  0  0  0  0  0  0  0  0  0  0  0
  1  2  2  0  0  0  0
  2  3  1  0  0  0  0
  2 10  1  0  0  0  0
  3  4  1  0  0  0  0
  3 19  1  0  0  0  0
  4  9  1  0  0  0  0
  4  5  2  0  0  0  0
  5  6  1  0  0  0  0
  5 20  1  0  0  0  0
  6  7  2  0  0  0  0
  6 21  1  0  0  0  0
  7  8  1  0  0  0  0
  7 37  1  0  0  0  0
  8  9  2  0  0  0  0
  8 22  1  0  0  0  0
  9 23  1  0  0  0  0
 10 11  1  0  0  0  0
 11 18  1  0  0  0  0
 11 12  1  0  0  0  0
 11 24  1  0  0  0  0
 12 13  1  0  0  0  0
 12 25  1  0  0  0  0
 12 26  1  0  0  0  0
 13 14  1  0  0  0  0
 13 27  1  0  0  0  0
 13 28  1  0  0  0  0
 14 15  1  0  0  0  0
 14 18  1  0  0  0  0
 14 36  1  0  0  0  0
 15 17  1  0  0  0  0
 15 16  1  0  0  0  0
 15 29  1  0  0  0  0
 16 17  1  0  0  0  0
 16 30  1  0  0  0  0
 16 31  1  0  0  0  0
 17 32  1  0  0  0  0
 17 33  1  0  0  0  0
 18 34  1  0  0  0  0
 18 35  1  0  0  0  0
M  CHG  1   7   1
M  CHG  1  10  -1
M  CHG  1  14   1
M  END
> <s_m_source_file>
AV-unprocessed.smi

> <i_m_source_file_index>
3234

> <i_lp_mmshare_version>
43012

> <i_f3d_flags>
0

> <s_epik_input>
W2NIXTFbY0hdbltjSF1bY0hdYzFbTkhdQyg9TylbTkhdW0NAQEhdMltDSDJdW0NIMl1OKFtDSDJdMilbQ0hdM1tDSDJdW0NIMl0z

> <s_epik_cmdline>
J2VwaWtfcHl0aG9uJywgJy1waCcsICc3LjAnLCAnLXRuJywgJzgnLCAnLW1hJywgJzIwMCcsICctbWV0YWxfYmluZGluZycsICctaW1hZScsICc8aW5maWxlLm1hZT4nLCAnLW9tYWUnLCAnPG91dGZpbGUubWFlPic=

> <r_epik_Ionization_Penalty>
8.3234

> <r_epik_Ionization_Penalty_Charging>
8.3234

> <r_epik_Ionization_Penalty_Neutral>
3.58513e-06

> <r_epik_State_Penalty>
7.99376

> <r_epik_Charging_Adjusted_Penalty>
16.3172

> <i_epik_Tot_Q>
1

> <i_epik_Tot_abs_Q>
3

> <r_epik_Metal_State_Penalty>
3.98956

> <b_epik_Metal_Only>
1

> <s_lp_Force_Field>
OPLS_2005

> <r_lp_Energy>
39.7431

> <b_lp_Chiralities_Consistent>
1

> <s_lp_Variant>
AV-unprocessed.smi:3234-11

> <Gold.Version>
5.8.1

> <Gold.Id.Protein>
6NUR|6NUR_protein|mol2

> <Gold.PLP.Fitness>
45.8271

> <Gold.PLP.PLP>
-32.4895

> <Gold.PLP.part.hbond>
-3.0000

> <Gold.PLP.part.metal>
0.0000

> <Gold.PLP.part.buried>
-3.6445

> <Gold.PLP.part.nonpolar>
-30.1002

> <Gold.PLP.part.repulsive>
3.9603

> <Gold.PLP.ligand.clash>
0.0000

> <Gold.PLP.ligand.torsion>
1.4756

> <Gold.PLP.Chemscore.Hbond>
5.0000

> <Gold.PLP.Chemscore.CHOScore>
0.0000

> <Gold.PLP.Chemscore.Metal>
0.0000

> <Gold.Chemscore.Hbonds>
donor molecule, donor type, donor heavy atom, donor atom, acceptor molecule, acceptor atom, score
      L1  H     3    19       P1  7948  1.00
      L1  H     7    37       P1  8028  1.98
      L1  H    14    36       P1 10186  1.92

> <Gold.PLP.Chemscore.Internal.Correction>
1.2888

> <Gold.Rescore>
     Score         DG    S(hbond)    S(metal)    S(lipo)     H(rot)  DE(clash)    DE(int)     intcor
     16.53     -21.02       2.58        0.00      85.66       1.21       1.91       2.58       ----

> <Gold.Chemscore.Fitness>
16.5297

> <Gold.Chemscore.DG>
-21.0193

> <Gold.Chemscore.ZeroCoef>
-5.4800

> <Gold.Chemscore.Hbond>
2.5800

> <Gold.Chemscore.Metal>
0.0000

> <Gold.Chemscore.Lipo>
85.6555

> <Gold.Chemscore.Internal_Hbond>
0.0000

> <Gold.Chemscore.DEClash>
1.9138

> <Gold.Chemscore.DEInternal>
2.5758

> <Gold.Chemscore.Rot>
1.2108

> <Gold.Chemscore.Internal.Correction>
   9.000000E+99

> <Gold.Chemscore.Hbonds>
donor molecule, donor type, donor heavy atom, donor atom, acceptor molecule, acceptor atom, score
      L1  H     3    19       P1  7948  0.94
      L1  H     7    37       P1  8028  0.90
      L1  H    14    36       P1 10186  0.65

> <Gold.Chemscore.Hbond.Weighted>
-8.6172

> <Gold.Chemscore.Metal.Weighted>
-0.0000

> <Gold.Chemscore.Lipo.Weighted>
-10.0217

> <Gold.Chemscore.Internal_Hbond.Weighted>
0.0000

> <Gold.Chemscore.DEClash.Weighted>
1.9138

> <Gold.Chemscore.DEInternal.Weighted>
2.5758

> <Gold.Chemscore.Rot.Weighted>
3.0996

> <Gold.Chemscore.Internal.Correction.Weighted>
   9.000000E+99

> <Gold.Protein.RotatedTorsions>
[ 6907 6896 6895 6894 ] final   13.99 input  -60.11 | X-H torsion
[ 7974 7965 7964 7962 ] final   -8.38 input  175.53 | X-H torsion
[ 8008 7997 7996 7995 ] final    7.95 input   59.86 | X-H torsion
[ 10167 10162 10161 10158 ] final  130.98 input  -65.29 | X-H torsion
[ 10718 10713 10712 10709 ] final   45.20 input   66.30 | X-H torsion
[ 10763 10752 10751 10750 ] final -103.50 input  -60.55 | X-H torsion
[ 11005 11000 10999 10996 ] final  129.43 input  -57.11 | X-H torsion

> <Gold.Protein.ActiveResidues>
 VAL166  LYS551  ARG553  GLY616  TRP617  ASP618  TYR619  PRO620  LYS621  CYS622 
 ASP623  PHE694  ASN695  SER759  ASP760  ASP761  ALA762  ILE779  LEU786  VAL792 
 PHE793  MET794  SER795  GLU796  ALA797  LYS798  CYS799  TRP800  GLU811  SER814 

> <Gold.Protein.RotatedAtoms>
  151.7951  135.0725  160.0392 H   0  0  0  0  0  0  0  0  0  0  0  0  # atno 6907 bound_to 6896
  152.3129  133.5767  159.5701 H   0  0  0  0  0  0  0  0  0  0  0  0  # atno 6908 bound_to 6896
  150.7329  134.0042  159.3690 H   0  0  0  0  0  0  0  0  0  0  0  0  # atno 6909 bound_to 6896
  146.2282  140.2459  142.8345 H   0  0  0  0  0  0  0  0  0  0  0  0  # atno 7974 bound_to 7965
  154.7604  140.2783  155.6218 H   0  0  0  0  0  0  0  0  0  0  0  0  # atno 8008 bound_to 7997
  156.2914  140.2661  156.2309 H   0  0  0  0  0  0  0  0  0  0  0  0  # atno 8009 bound_to 7997
  155.0024  140.0372  157.2355 H   0  0  0  0  0  0  0  0  0  0  0  0  # atno 8010 bound_to 7997
  139.5405  144.6726  151.4641 H   0  0  0  0  0  0  0  0  0  0  0  0  # atno 10167 bound_to 10162
  157.4350  130.8047  149.7639 H   0  0  0  0  0  0  0  0  0  0  0  0  # atno 10718 bound_to 10713
  154.7811  135.4821  153.9847 H   0  0  0  0  0  0  0  0  0  0  0  0  # atno 10763 bound_to 10752
  153.1496  135.6788  153.8910 H   0  0  0  0  0  0  0  0  0  0  0  0  # atno 10764 bound_to 10752
  153.8559  135.3161  155.3413 H   0  0  0  0  0  0  0  0  0  0  0  0  # atno 10765 bound_to 10752
  139.9615  134.9601  156.9147 H   0  0  0  0  0  0  0  0  0  0  0  0  # atno 11005 bound_to 11000
  144.9449  140.8117  143.5608 LP  0  0  0  0  0  0  0  0  0  0  0  0  # atno 17320 bound_to 7965
  145.2414  139.2071  143.4991 LP  0  0  0  0  0  0  0  0  0  0  0  0  # atno 17321 bound_to 7965
  140.6632  143.8453  150.6912 LP  0  0  0  0  0  0  0  0  0  0  0  0  # atno 17342 bound_to 10162
  140.1854  143.4080  152.1902 LP  0  0  0  0  0  0  0  0  0  0  0  0  # atno 17343 bound_to 10162
  155.9927  130.3929  150.2930 LP  0  0  0  0  0  0  0  0  0  0  0  0  # atno 17370 bound_to 10713
  157.1090  131.0216  151.3055 LP  0  0  0  0  0  0  0  0  0  0  0  0  # atno 17371 bound_to 10713
  140.5489  134.0646  155.7363 LP  0  0  0  0  0  0  0  0  0  0  0  0  # atno 17394 bound_to 11000
  141.1292  133.9330  157.2570 LP  0  0  0  0  0  0  0  0  0  0  0  0  # atno 17395 bound_to 11000

$$$$
