AV-unprocessed.smi:2436|AV-procd|sdf|9593|dock2
  -GOLD-   2272013223D 1   1.00000     0.00000
 Structure written by MMmdl.
 36 37  0  0  0  0  0  0  0  0  1 V2000
  144.9040  132.1089  150.0062 C   0  0  0  0  0  0  0  0  0  0  0  0
  146.1735  132.6888  150.6490 C   0  0  0  0  0  0  0  0  0  0  0  0
  145.9267  133.9160  151.5465 C   0  0  0  0  0  0  0  0  0  0  0  0
  147.1398  134.2626  152.2938 N   0  0  0  0  0  0  0  0  0  0  0  0
  147.6180  133.6319  153.3785 C   0  0  0  0  0  0  0  0  0  0  0  0
  147.0792  132.6489  153.8883 O   0  0  0  0  0  0  0  0  0  0  0  0
  148.7457  134.2159  153.8200 N   0  0  0  0  0  0  0  0  0  0  0  0
  149.5449  133.8461  154.9341 C   0  0  0  0  0  0  0  0  0  0  0  0
  150.4431  134.8327  155.3992 C   0  0  0  0  0  0  0  0  0  0  0  0
  151.2576  134.5046  156.5025 C   0  0  0  0  0  0  0  0  0  0  0  0
  152.1498  135.4391  156.9856 O   0  0  0  0  0  0  0  0  0  0  0  0
  151.8186  136.8165  156.8498 C   0  0  0  0  0  0  0  0  0  0  0  0
  151.1805  133.2890  157.0961 N   0  0  0  0  0  0  0  0  0  0  0  0
  150.3013  132.4263  156.5855 C   0  0  0  0  0  0  0  0  0  0  0  0
  149.4894  132.6382  155.5480 N   0  0  0  0  0  0  0  0  0  0  0  0
  145.2659  135.1616  150.9161 C   0  0  0  0  0  0  0  0  0  0  0  0
  143.9202  134.6416  151.4275 C   0  0  0  0  0  0  0  0  0  0  0  0
  144.7140  133.8893  152.4990 C   0  0  0  0  0  0  0  0  0  0  0  0
  145.1528  131.2734  149.3520 H   0  0  0  0  0  0  0  0  0  0  0  0
  144.3854  132.8549  149.4043 H   0  0  0  0  0  0  0  0  0  0  0  0
  144.2062  131.7381  150.7573 H   0  0  0  0  0  0  0  0  0  0  0  0
  146.6732  131.9020  151.2145 H   0  0  0  0  0  0  0  0  0  0  0  0
  146.8691  132.9505  149.8512 H   0  0  0  0  0  0  0  0  0  0  0  0
  147.6571  135.0596  151.9529 H   0  0  0  0  0  0  0  0  0  0  0  0
  149.0712  135.0161  153.2983 H   0  0  0  0  0  0  0  0  0  0  0  0
  150.5106  135.8040  154.9310 H   0  0  0  0  0  0  0  0  0  0  0  0
  152.6129  137.4234  157.2842 H   0  0  0  0  0  0  0  0  0  0  0  0
  150.8936  137.0580  157.3753 H   0  0  0  0  0  0  0  0  0  0  0  0
  151.7201  137.1016  155.8014 H   0  0  0  0  0  0  0  0  0  0  0  0
  150.2407  131.4580  157.0595 H   0  0  0  0  0  0  0  0  0  0  0  0
  145.5523  136.1038  151.3879 H   0  0  0  0  0  0  0  0  0  0  0  0
  145.3443  135.2208  149.8300 H   0  0  0  0  0  0  0  0  0  0  0  0
  143.2487  135.4106  151.8102 H   0  0  0  0  0  0  0  0  0  0  0  0
  143.4193  133.9780  150.7207 H   0  0  0  0  0  0  0  0  0  0  0  0
  144.3259  132.8972  152.7302 H   0  0  0  0  0  0  0  0  0  0  0  0
  144.8509  134.4828  153.4053 H   0  0  0  0  0  0  0  0  0  0  0  0
  1  2  1  0  0  0  0
  1 19  1  0  0  0  0
  1 20  1  0  0  0  0
  1 21  1  0  0  0  0
  2  3  1  0  0  0  0
  2 22  1  0  0  0  0
  2 23  1  0  0  0  0
  3 18  1  0  0  0  0
  3  4  1  0  0  0  0
  3 16  1  0  0  0  0
  4  5  1  0  0  0  0
  4 24  1  0  0  0  0
  5  6  2  0  0  0  0
  5  7  1  0  0  0  0
  7  8  1  0  0  0  0
  7 25  1  0  0  0  0
  8 15  1  0  0  0  0
  8  9  2  0  0  0  0
  9 10  1  0  0  0  0
  9 26  1  0  0  0  0
 10 11  1  0  0  0  0
 10 13  2  0  0  0  0
 11 12  1  0  0  0  0
 12 27  1  0  0  0  0
 12 28  1  0  0  0  0
 12 29  1  0  0  0  0
 13 14  1  0  0  0  0
 14 15  2  0  0  0  0
 14 30  1  0  0  0  0
 16 17  1  0  0  0  0
 16 31  1  0  0  0  0
 16 32  1  0  0  0  0
 17 18  1  0  0  0  0
 17 33  1  0  0  0  0
 17 34  1  0  0  0  0
 18 35  1  0  0  0  0
 18 36  1  0  0  0  0
M  END
> <s_m_source_file>
AV-unprocessed.smi

> <i_m_source_file_index>
2436

> <i_lp_mmshare_version>
43012

> <i_f3d_flags>
0

> <s_epik_input>
W0NIMl0xW0NIMl1bQ0gyXUMxKFtDSDJdW0NIM10pW05IXUMoPU8pW05IXWMyW2NIXWMoT1tDSDNdKW5bY0hdbjI=

> <s_epik_cmdline>
J2VwaWtfcHl0aG9uJywgJy1waCcsICc3LjAnLCAnLXRuJywgJzgnLCAnLW1hJywgJzIwMCcsICctbWV0YWxfYmluZGluZycsICctaW1hZScsICc8aW5maWxlLm1hZT4nLCAnLW9tYWUnLCAnPG91dGZpbGUubWFlPic=

> <r_lp_tautomer_probability>
1

> <r_epik_Ionization_Penalty>
2.8431e-05

> <r_epik_Ionization_Penalty_Charging>
0

> <r_epik_Ionization_Penalty_Neutral>
2.8431e-05

> <r_epik_State_Penalty>
-0

> <r_epik_Charging_Adjusted_Penalty>
0

> <i_epik_Tot_Q>
0

> <i_epik_Tot_abs_Q>
0

> <r_epik_Metal_State_Penalty>
-0

> <b_epik_Metal_Only>
0

> <s_lp_Force_Field>
OPLS_2005

> <r_lp_Energy>
14.8333

> <b_lp_Chiralities_Consistent>
1

> <s_lp_Variant>
AV-unprocessed.smi:2436-1

> <Gold.Version>
5.8.1

> <Gold.Id.Protein>
6NUR|6NUR_protein|mol2

> <Gold.PLP.Fitness>
37.0854

> <Gold.PLP.PLP>
-29.7276

> <Gold.PLP.part.hbond>
-4.0544

> <Gold.PLP.part.metal>
0.0000

> <Gold.PLP.part.buried>
-4.8655

> <Gold.PLP.part.nonpolar>
-20.6625

> <Gold.PLP.part.repulsive>
0.0970

> <Gold.PLP.ligand.clash>
0.0000

> <Gold.PLP.ligand.torsion>
0.8465

> <Gold.PLP.Chemscore.Hbond>
2.8724

> <Gold.PLP.Chemscore.CHOScore>
0.0000

> <Gold.PLP.Chemscore.Metal>
0.0000

> <Gold.Chemscore.Hbonds>
donor molecule, donor type, donor heavy atom, donor atom, acceptor molecule, acceptor atom, score
      L1  H     4    24       P1  7948  1.00
      L1  H     7    25       P1  7948  0.90
      P1  H  6896  6909       L1    13  0.62
      P1  H 10752 10765       L1    11  0.35

> <Gold.PLP.Chemscore.Internal.Correction>
0.4336

> <Gold.Rescore>
     Score         DG    S(hbond)    S(metal)    S(lipo)     H(rot)  DE(clash)    DE(int)     intcor
     11.01     -14.82       2.29        0.00      49.00       1.57       0.00       3.81       ----

> <Gold.Chemscore.Fitness>
11.0101

> <Gold.Chemscore.DG>
-14.8214

> <Gold.Chemscore.ZeroCoef>
-5.4800

> <Gold.Chemscore.Hbond>
2.2860

> <Gold.Chemscore.Metal>
0.0000

> <Gold.Chemscore.Lipo>
49.0039

> <Gold.Chemscore.Internal_Hbond>
0.0000

> <Gold.Chemscore.DEClash>
0.0000

> <Gold.Chemscore.DEInternal>
3.8112

> <Gold.Chemscore.Rot>
1.5732

> <Gold.Chemscore.Internal.Correction>
   9.000000E+99

> <Gold.Chemscore.Hbonds>
donor molecule, donor type, donor heavy atom, donor atom, acceptor molecule, acceptor atom, score
      L1  H     4    24       P1  7948  0.85
      L1  H     7    25       P1  7948  0.17
      P1  H  6896  6909       L1    13  0.46

> <Gold.Chemscore.Hbond.Weighted>
-7.6353

> <Gold.Chemscore.Metal.Weighted>
-0.0000

> <Gold.Chemscore.Lipo.Weighted>
-5.7335

> <Gold.Chemscore.Internal_Hbond.Weighted>
0.0000

> <Gold.Chemscore.DEClash.Weighted>
0.0000

> <Gold.Chemscore.DEInternal.Weighted>
3.8112

> <Gold.Chemscore.Rot.Weighted>
4.0274

> <Gold.Chemscore.Internal.Correction.Weighted>
   9.000000E+99

> <Gold.Protein.RotatedTorsions>
[ 6907 6896 6895 6894 ] final  -32.17 input  -60.11 | X-H torsion
[ 7974 7965 7964 7962 ] final    2.32 input  175.53 | X-H torsion
[ 8008 7997 7996 7995 ] final   88.53 input   59.86 | X-H torsion
[ 10167 10162 10161 10158 ] final -116.14 input  -65.29 | X-H torsion
[ 10718 10713 10712 10709 ] final  118.93 input   66.30 | X-H torsion
[ 10763 10752 10751 10750 ] final -137.10 input  -60.55 | X-H torsion
[ 11005 11000 10999 10996 ] final  144.09 input  -57.11 | X-H torsion

> <Gold.Protein.ActiveResidues>
 VAL166  LYS551  ARG553  GLY616  TRP617  ASP618  TYR619  PRO620  LYS621  CYS622 
 ASP623  PHE694  ASN695  SER759  ASP760  ASP761  ALA762  ILE779  LEU786  VAL792 
 PHE793  MET794  SER795  GLU796  ALA797  LYS798  CYS799  TRP800  GLU811  SER814 

> <Gold.Protein.RotatedAtoms>
  151.0823  134.9865  159.8361 H   0  0  0  0  0  0  0  0  0  0  0  0  # atno 6907 bound_to 6896
  152.5421  134.2167  159.8781 H   0  0  0  0  0  0  0  0  0  0  0  0  # atno 6908 bound_to 6896
  151.2198  133.4465  159.2634 H   0  0  0  0  0  0  0  0  0  0  0  0  # atno 6909 bound_to 6896
  146.2443  140.0854  142.8355 H   0  0  0  0  0  0  0  0  0  0  0  0  # atno 7974 bound_to 7965
  155.9889  140.3370  155.6734 H   0  0  0  0  0  0  0  0  0  0  0  0  # atno 8008 bound_to 7997
  155.6447  140.0699  157.2625 H   0  0  0  0  0  0  0  0  0  0  0  0  # atno 8009 bound_to 7997
  154.4213  140.1736  156.1598 H   0  0  0  0  0  0  0  0  0  0  0  0  # atno 8010 bound_to 7997
  140.0825  143.4775  152.1917 H   0  0  0  0  0  0  0  0  0  0  0  0  # atno 10167 bound_to 10162
  157.5996  131.1053  150.7825 H   0  0  0  0  0  0  0  0  0  0  0  0  # atno 10718 bound_to 10713
  154.8669  135.3652  154.5168 H   0  0  0  0  0  0  0  0  0  0  0  0  # atno 10763 bound_to 10752
  153.5800  135.7018  153.5472 H   0  0  0  0  0  0  0  0  0  0  0  0  # atno 10764 bound_to 10752
  153.3465  135.4083  155.1575 H   0  0  0  0  0  0  0  0  0  0  0  0  # atno 10765 bound_to 10752
  140.0605  134.9207  157.1175 H   0  0  0  0  0  0  0  0  0  0  0  0  # atno 11005 bound_to 11000
  145.0696  140.9146  143.4890 LP  0  0  0  0  0  0  0  0  0  0  0  0  # atno 17320 bound_to 7965
  145.0986  139.2839  143.5698 LP  0  0  0  0  0  0  0  0  0  0  0  0  # atno 17321 bound_to 7965
  139.5771  144.7493  151.3736 LP  0  0  0  0  0  0  0  0  0  0  0  0  # atno 17342 bound_to 10162
  140.7070  143.7487  150.7500 LP  0  0  0  0  0  0  0  0  0  0  0  0  # atno 17343 bound_to 10162
  156.8228  130.4989  149.5341 LP  0  0  0  0  0  0  0  0  0  0  0  0  # atno 17370 bound_to 10713
  156.1067  130.6009  150.9981 LP  0  0  0  0  0  0  0  0  0  0  0  0  # atno 17371 bound_to 10713
  140.3778  134.2320  155.7173 LP  0  0  0  0  0  0  0  0  0  0  0  0  # atno 17394 bound_to 11000
  141.1971  133.8067  157.0643 LP  0  0  0  0  0  0  0  0  0  0  0  0  # atno 17395 bound_to 11000

$$$$
