AV-unprocessed.smi:242|AV-procd|sdf|1844|dock8
  -GOLD-   2262020463D 1   1.00000     0.00000
 Structure written by MMmdl.
 58 61  0  0  0  0  0  0  0  0  2 V2000
  146.0418  134.3907  151.8029 C   0  0  0  0  0  0  0  0  0  0  0  0
  146.7578  133.3488  150.9210 C   0  0  0  0  0  0  0  0  0  0  0  0
  145.8431  132.9666  149.7411 C   0  0  0  0  0  0  0  0  0  0  0  0
  147.1584  132.1434  151.7011 N   0  3  2  0  0  0  0  0  0  0  0  0
  146.0455  131.3561  152.2883 C   0  0  0  0  0  0  0  0  0  0  0  0
  146.6322  130.6548  153.5110 C   0  0  0  0  0  0  0  0  0  0  0  0
  147.5646  131.7342  154.0504 C   0  0  1  0  0  0  0  0  0  0  0  0
  148.5685  131.2777  155.0183 N   0  0  0  0  0  0  0  0  0  0  0  0
  148.6011  129.8817  155.4475 C   0  0  0  0  0  0  0  0  0  0  0  0
  149.1364  132.1779  155.8657 C   0  0  0  0  0  0  0  0  0  0  0  0
  149.7085  131.7435  157.0207 N   0  0  0  0  0  0  0  0  0  0  0  0
  150.2759  132.6090  157.8653 C   0  0  0  0  0  0  0  0  0  0  0  0
  150.3773  133.9343  157.7570 N   0  0  0  0  0  0  0  0  0  0  0  0
  149.8025  134.3817  156.6045 C   0  0  0  0  0  0  0  0  0  0  0  0
  149.1658  133.5809  155.6134 C   0  0  0  0  0  0  0  0  0  0  0  0
  148.6826  134.3934  154.5937 N   0  0  0  0  0  0  0  0  0  0  0  0
  149.0156  135.6006  154.9591 C   0  0  0  0  0  0  0  0  0  0  0  0
  149.6998  135.6851  156.1502 N   0  0  0  0  0  0  0  0  0  0  0  0
  150.1803  136.8976  156.7947 C   0  0  0  0  0  0  0  0  0  0  0  0
  151.3384  137.6077  156.0412 C   0  0  0  0  0  0  0  0  0  0  0  0
  152.5244  136.8782  156.2937 O   0  0  0  0  0  0  0  0  0  0  0  0
  151.1534  137.6749  154.5103 C   0  0  0  0  0  0  0  0  0  0  0  0
  150.0578  138.6836  154.1250 C   0  0  0  0  0  0  0  0  0  0  0  0
  150.3814  139.9685  154.6456 O   0  0  0  0  0  0  0  0  0  0  0  0
  150.4544  139.9974  156.0673 C   0  0  0  0  0  0  0  0  0  0  0  0
  151.5562  139.0419  156.5623 C   0  0  0  0  0  0  0  0  0  0  0  0
  148.1426  132.3884  152.7879 C   0  0  0  0  0  0  0  0  0  0  0  0
  145.7172  135.2458  151.2091 H   0  0  0  0  0  0  0  0  0  0  0  0
  146.6900  134.7829  152.5864 H   0  0  0  0  0  0  0  0  0  0  0  0
  145.1575  133.9669  152.2804 H   0  0  0  0  0  0  0  0  0  0  0  0
  147.6629  133.8092  150.5218 H   0  0  0  0  0  0  0  0  0  0  0  0
  145.5355  133.8520  149.1837 H   0  0  0  0  0  0  0  0  0  0  0  0
  144.9383  132.4667  150.0882 H   0  0  0  0  0  0  0  0  0  0  0  0
  146.3354  132.3034  149.0305 H   0  0  0  0  0  0  0  0  0  0  0  0
  145.2480  132.0279  152.6117 H   0  0  0  0  0  0  0  0  0  0  0  0
  145.6250  130.6519  151.5698 H   0  0  0  0  0  0  0  0  0  0  0  0
  145.8708  130.3501  154.2295 H   0  0  0  0  0  0  0  0  0  0  0  0
  147.1859  129.7671  153.2038 H   0  0  0  0  0  0  0  0  0  0  0  0
  146.9451  132.4985  154.5229 H   0  0  0  0  0  0  0  0  0  0  0  0
  148.6009  129.7998  156.5354 H   0  0  0  0  0  0  0  0  0  0  0  0
  149.4974  129.3925  155.0661 H   0  0  0  0  0  0  0  0  0  0  0  0
  147.7378  129.3274  155.0803 H   0  0  0  0  0  0  0  0  0  0  0  0
  150.7100  132.1788  158.7557 H   0  0  0  0  0  0  0  0  0  0  0  0
  148.7721  136.4685  154.3638 H   0  0  0  0  0  0  0  0  0  0  0  0
  149.3272  137.5651  156.9125 H   0  0  0  0  0  0  0  0  0  0  0  0
  150.4953  136.6409  157.8072 H   0  0  0  0  0  0  0  0  0  0  0  0
  153.2579  137.4726  156.2551 H   0  0  0  0  0  0  0  0  0  0  0  0
  152.0866  137.9956  154.0448 H   0  0  0  0  0  0  0  0  0  0  0  0
  150.9370  136.6937  154.0889 H   0  0  0  0  0  0  0  0  0  0  0  0
  149.9839  138.7562  153.0401 H   0  0  0  0  0  0  0  0  0  0  0  0
  149.0790  138.3658  154.4859 H   0  0  0  0  0  0  0  0  0  0  0  0
  150.6784  141.0161  156.3833 H   0  0  0  0  0  0  0  0  0  0  0  0
  149.4844  139.7451  156.4967 H   0  0  0  0  0  0  0  0  0  0  0  0
  151.6048  139.0533  157.6518 H   0  0  0  0  0  0  0  0  0  0  0  0
  152.5177  139.4190  156.2101 H   0  0  0  0  0  0  0  0  0  0  0  0
  149.0898  131.9441  152.4829 H   0  0  0  0  0  0  0  0  0  0  0  0
  148.3225  133.4483  152.9711 H   0  0  0  0  0  0  0  0  0  0  0  0
  147.6193  131.5213  151.0525 H   0  0  0  0  0  0  0  0  0  0  0  0
  1  2  1  0  0  0  0
  1 28  1  0  0  0  0
  1 29  1  0  0  0  0
  1 30  1  0  0  0  0
  2  3  1  0  0  0  0
  2  4  1  0  0  0  0
  2 31  1  0  0  0  0
  3 32  1  0  0  0  0
  3 33  1  0  0  0  0
  3 34  1  0  0  0  0
  4 27  1  0  0  0  0
  4  5  1  0  0  0  0
  4 58  1  0  0  0  0
  5  6  1  0  0  0  0
  5 35  1  0  0  0  0
  5 36  1  0  0  0  0
  6  7  1  0  0  0  0
  6 37  1  0  0  0  0
  6 38  1  0  0  0  0
  7  8  1  0  0  0  0
  7 27  1  0  0  0  0
  7 39  1  0  0  0  0
  8  9  1  0  0  0  0
  8 10  1  0  0  0  0
  9 40  1  0  0  0  0
  9 41  1  0  0  0  0
  9 42  1  0  0  0  0
 10 15  1  0  0  0  0
 10 11  2  0  0  0  0
 11 12  1  0  0  0  0
 12 13  2  0  0  0  0
 12 43  1  0  0  0  0
 13 14  1  0  0  0  0
 14 18  1  0  0  0  0
 14 15  2  0  0  0  0
 15 16  1  0  0  0  0
 16 17  2  0  0  0  0
 17 18  1  0  0  0  0
 17 44  1  0  0  0  0
 18 19  1  0  0  0  0
 19 20  1  0  0  0  0
 19 45  1  0  0  0  0
 19 46  1  0  0  0  0
 20 26  1  0  0  0  0
 20 21  1  0  0  0  0
 20 22  1  0  0  0  0
 21 47  1  0  0  0  0
 22 23  1  0  0  0  0
 22 48  1  0  0  0  0
 22 49  1  0  0  0  0
 23 24  1  0  0  0  0
 23 50  1  0  0  0  0
 23 51  1  0  0  0  0
 24 25  1  0  0  0  0
 25 26  1  0  0  0  0
 25 52  1  0  0  0  0
 25 53  1  0  0  0  0
 26 54  1  0  0  0  0
 26 55  1  0  0  0  0
 27 56  1  0  0  0  0
 27 57  1  0  0  0  0
M  CHG  1   4   1
M  END
> <s_m_source_file>
AV-unprocessed.smi

> <i_m_source_file_index>
242

> <i_lp_mmshare_version>
43012

> <i_f3d_flags>
0

> <s_epik_input>
W0NIM11bQ0hdKFtDSDNdKU4xW0NIMl1bQ0gyXVtDQEhdKFtDSDJdMSlOKFtDSDNdKWMobltjSF1uMiljKGMyMyluW2NIXW4zW0NIMl1DNChbT0hdKVtDSDJdW0NIMl1PW0NIMl1bQ0gyXTQ=

> <s_epik_cmdline>
J2VwaWtfcHl0aG9uJywgJy1waCcsICc3LjAnLCAnLXRuJywgJzgnLCAnLW1hJywgJzIwMCcsICctbWV0YWxfYmluZGluZycsICctaW1hZScsICc8aW5maWxlLm1hZT4nLCAnLW9tYWUnLCAnPG91dGZpbGUubWFlPic=

> <r_lp_tautomer_probability>
1

> <r_epik_Ionization_Penalty>
0.000825961

> <r_epik_Ionization_Penalty_Charging>
0.00034898

> <r_epik_Ionization_Penalty_Neutral>
0.000476981

> <r_epik_State_Penalty>
-0

> <r_epik_Charging_Adjusted_Penalty>
0.00034898

> <i_epik_Tot_Q>
1

> <i_epik_Tot_abs_Q>
1

> <r_epik_Metal_State_Penalty>
-0

> <b_epik_Metal_Only>
0

> <s_lp_Force_Field>
OPLS_2005

> <r_lp_Energy>
46.8911

> <b_lp_Chiralities_Consistent>
1

> <s_lp_Variant>
AV-unprocessed.smi:242-1

> <Gold.Version>
5.8.1

> <Gold.Id.Protein>
6NUR|6NUR_protein|mol2

> <Gold.PLP.Fitness>
51.8011

> <Gold.PLP.PLP>
-44.4480

> <Gold.PLP.part.hbond>
-3.6671

> <Gold.PLP.part.metal>
0.0000

> <Gold.PLP.part.buried>
-4.2430

> <Gold.PLP.part.nonpolar>
-37.0407

> <Gold.PLP.part.repulsive>
0.4387

> <Gold.PLP.ligand.clash>
0.0000

> <Gold.PLP.ligand.torsion>
0.6687

> <Gold.PLP.Chemscore.Hbond>
2.2160

> <Gold.PLP.Chemscore.CHOScore>
0.4366

> <Gold.PLP.Chemscore.Metal>
0.0000

> <Gold.Chemscore.Hbonds>
donor molecule, donor type, donor heavy atom, donor atom, acceptor molecule, acceptor atom, score
      L1  H     4    58       P1 10747  1.00
      P1  H  6896  6907       L1    13  0.45
      P1  H  7989  7998       L1    24  1.00
      P1  H 10752 10765       L1    21  0.91
      L1  C    17    44       P1  7948  0.73

> <Gold.PLP.Chemscore.Internal.Correction>
0.7326

> <Gold.Rescore>
     Score         DG    S(hbond)    S(metal)    S(lipo)     H(rot)  DE(clash)    DE(int)     intcor
     11.81     -16.41       1.76        0.00      91.91       2.22       1.43       3.17       ----

> <Gold.Chemscore.Fitness>
11.8120

> <Gold.Chemscore.DG>
-16.4090

> <Gold.Chemscore.ZeroCoef>
-5.4800

> <Gold.Chemscore.Hbond>
1.7566

> <Gold.Chemscore.Metal>
0.0000

> <Gold.Chemscore.Lipo>
91.9136

> <Gold.Chemscore.Internal_Hbond>
0.0000

> <Gold.Chemscore.DEClash>
1.4300

> <Gold.Chemscore.DEInternal>
3.1670

> <Gold.Chemscore.Rot>
2.2234

> <Gold.Chemscore.Internal.Correction>
   9.000000E+99

> <Gold.Chemscore.Hbonds>
donor molecule, donor type, donor heavy atom, donor atom, acceptor molecule, acceptor atom, score
      L1  H     4    58       P1 10747  0.98
      P1  H  6896  6907       L1    13  0.05
      P1  H  7989  7998       L1    24  0.78
      P1  H 10752 10765       L1    21  0.22

> <Gold.Chemscore.Hbond.Weighted>
-5.8670

> <Gold.Chemscore.Metal.Weighted>
-0.0000

> <Gold.Chemscore.Lipo.Weighted>
-10.7539

> <Gold.Chemscore.Internal_Hbond.Weighted>
0.0000

> <Gold.Chemscore.DEClash.Weighted>
1.4300

> <Gold.Chemscore.DEInternal.Weighted>
3.1670

> <Gold.Chemscore.Rot.Weighted>
5.6919

> <Gold.Chemscore.Internal.Correction.Weighted>
   9.000000E+99

> <Gold.Protein.RotatedTorsions>
[ 6907 6896 6895 6894 ] final  -94.50 input  -60.11 | X-H torsion
[ 7974 7965 7964 7962 ] final  110.76 input  175.53 | X-H torsion
[ 8008 7997 7996 7995 ] final   75.29 input   59.86 | X-H torsion
[ 10167 10162 10161 10158 ] final  -27.49 input  -65.29 | X-H torsion
[ 10718 10713 10712 10709 ] final   68.23 input   66.30 | X-H torsion
[ 10763 10752 10751 10750 ] final -155.30 input  -60.55 | X-H torsion
[ 11005 11000 10999 10996 ] final   93.00 input  -57.11 | X-H torsion

> <Gold.Protein.ActiveResidues>
 VAL166  LYS551  ARG553  GLY616  TRP617  ASP618  TYR619  PRO620  LYS621  CYS622 
 ASP623  PHE694  ASN695  SER759  ASP760  ASP761  ALA762  ILE779  LEU786  VAL792 
 PHE793  MET794  SER795  GLU796  ALA797  LYS798  CYS799  TRP800  GLU811  SER814 

> <Gold.Protein.RotatedAtoms>
  150.6943  134.1803  159.4245 H   0  0  0  0  0  0  0  0  0  0  0  0  # atno 6907 bound_to 6896
  151.9778  135.0042  160.0565 H   0  0  0  0  0  0  0  0  0  0  0  0  # atno 6908 bound_to 6896
  152.1783  133.4655  159.4981 H   0  0  0  0  0  0  0  0  0  0  0  0  # atno 6909 bound_to 6896
  145.2509  139.2740  143.4068 H   0  0  0  0  0  0  0  0  0  0  0  0  # atno 7974 bound_to 7965
  155.8108  140.3473  155.5456 H   0  0  0  0  0  0  0  0  0  0  0  0  # atno 8008 bound_to 7997
  155.8443  140.0946  157.1735 H   0  0  0  0  0  0  0  0  0  0  0  0  # atno 8009 bound_to 7997
  154.4006  140.1388  156.3753 H   0  0  0  0  0  0  0  0  0  0  0  0  # atno 8010 bound_to 7997
  140.7277  143.4089  151.1139 H   0  0  0  0  0  0  0  0  0  0  0  0  # atno 10167 bound_to 10162
  157.6277  130.9363  150.0350 H   0  0  0  0  0  0  0  0  0  0  0  0  # atno 10718 bound_to 10713
  154.7797  135.3171  154.8016 H   0  0  0  0  0  0  0  0  0  0  0  0  # atno 10763 bound_to 10752
  153.8730  135.6842  153.4777 H   0  0  0  0  0  0  0  0  0  0  0  0  # atno 10764 bound_to 10752
  153.1430  135.4731  154.9461 H   0  0  0  0  0  0  0  0  0  0  0  0  # atno 10765 bound_to 10752
  139.8816  134.8765  156.3654 H   0  0  0  0  0  0  0  0  0  0  0  0  # atno 11005 bound_to 11000
  146.3303  140.2899  142.8614 LP  0  0  0  0  0  0  0  0  0  0  0  0  # atno 17320 bound_to 7965
  144.9504  140.8172  143.5575 LP  0  0  0  0  0  0  0  0  0  0  0  0  # atno 17321 bound_to 7965
  139.7719  143.8482  152.3122 LP  0  0  0  0  0  0  0  0  0  0  0  0  # atno 17342 bound_to 10162
  139.8403  144.7213  150.9339 LP  0  0  0  0  0  0  0  0  0  0  0  0  # atno 17343 bound_to 10162
  156.1460  130.3642  149.9510 LP  0  0  0  0  0  0  0  0  0  0  0  0  # atno 17370 bound_to 10713
  156.7540  130.9126  151.3638 LP  0  0  0  0  0  0  0  0  0  0  0  0  # atno 17371 bound_to 10713
  140.9500  133.7457  156.0260 LP  0  0  0  0  0  0  0  0  0  0  0  0  # atno 17394 bound_to 11000
  140.8116  134.3392  157.5410 LP  0  0  0  0  0  0  0  0  0  0  0  0  # atno 17395 bound_to 11000

$$$$
