#       Name:                AV-unprocessed.smi:2076
#       Creating user name   scv26
#       Creation time:       Fri Mar 27 11:15:59 2020


#       File generated by GOLD software.
#

@<TRIPOS>MOLECULE
AV-unprocessed.smi:2076
    50    51     1
SMALL
NO_CHARGES


@<TRIPOS>ATOM
      1 ****        -4.2604   4.0290   0.1899 C.3            1 S1                 0.0000
      2 ****        -3.8163   3.0287  -0.8360 C.2            1 S1                 0.0000
      3 ****        -3.6471   3.2188  -2.2357 C.2            1 S1                 0.0000
      4 ****        -3.2307   2.0009  -2.6943 C.2            1 S1                 0.0000
      5 ****        -2.8852   1.5601  -4.0789 C.3            1 S1                 0.0000
      6 ****        -3.1680   1.1594  -1.5977 N.pl3          1 S1                 0.0000
      7 ****        -2.7725  -0.2389  -1.5355 C.3            1 S1                 0.0000
      8 ****        -1.2554  -0.3764  -1.4002 C.2            1 S1                 0.0000
      9 ****        -0.5742  -0.6749  -2.3805 O.2            1 S1                 0.0000
     10 ****        -0.7416  -0.1597  -0.1789 N.am           1 S1                 0.0000
     11 ****         0.6790  -0.1795   0.1616 C.3            1 S1                 0.0000
     12 ****         1.1065  -1.4382   0.9685 C.3            1 S1                 0.0000
     13 ****         0.7103  -2.7329   0.2161 C.3            1 S1                 0.0000
     14 ****         2.5713  -1.4205   1.3044 N.4            1 S1                 1.0000
     15 ****         3.0150  -0.1825   2.0066 C.3            1 S1                 0.0000
     16 ****         4.5191  -0.2169   2.3259 C.3            1 S1                 0.0000
     17 ****         4.8197  -1.3661   3.1002 O.3            1 S1                 0.0000
     18 ****         4.5296  -2.5547   2.3833 C.3            1 S1                 0.0000
     19 ****         3.0256  -2.6174   2.0684 C.3            1 S1                 0.0000
     20 ****        -3.5268   1.7938  -0.4598 N.2            1 S1                 0.0000
     21 ****        -4.5676   4.9639  -0.2792 H              1 S1                 0.0000
     22 ****        -3.4550   4.2574   0.8883 H              1 S1                 0.0000
     23 ****        -5.1067   3.6540   0.7658 H              1 S1                 0.0000
     24 ****        -3.8072   4.1154  -2.8160 H              1 S1                 0.0000
     25 ****        -2.9669   2.3884  -4.7828 H              1 S1                 0.0000
     26 ****        -3.5562   0.7687  -4.4132 H              1 S1                 0.0000
     27 ****        -1.8637   1.1828  -4.1249 H              1 S1                 0.0000
     28 ****        -3.2688  -0.7209  -0.6914 H              1 S1                 0.0000
     29 ****        -3.1167  -0.7483  -2.4361 H              1 S1                 0.0000
     30 ****        -1.3846   0.0787   0.5630 H              1 S1                 0.0000
     31 ****         1.2994  -0.0719  -0.7298 H              1 S1                 0.0000
     32 ****         0.8238   0.7259   0.7482 H              1 S1                 0.0000
     33 ****         0.5561  -1.4264   1.9109 H              1 S1                 0.0000
     34 ****        -0.3392  -2.7356  -0.0740 H              1 S1                 0.0000
     35 ****         0.8294  -3.6245   0.8296 H              1 S1                 0.0000
     36 ****         1.3016  -2.8605  -0.6912 H              1 S1                 0.0000
     37 ****         2.8448   0.7001   1.3934 H              1 S1                 0.0000
     38 ****         2.4412  -0.0576   2.9263 H              1 S1                 0.0000
     39 ****         5.1130  -0.2104   1.4103 H              1 S1                 0.0000
     40 ****         4.8011   0.6712   2.8920 H              1 S1                 0.0000
     41 ****         5.1232  -2.6008   1.4686 H              1 S1                 0.0000
     42 ****         4.8200  -3.4111   2.9921 H              1 S1                 0.0000
     43 ****         2.4542  -2.6980   2.9945 H              1 S1                 0.0000
     44 ****         2.8584  -3.5320   1.5028 H              1 S1                 0.0000
     45 ****         3.0664  -1.4404   0.4241 H              1 S1                 0.0000
     46 ****        -1.0125  -0.8277  -3.2662 LP             1 S1                 0.0000
     47 ****         0.4178  -0.7647  -2.2914 LP             1 S1                 0.0000
     48 ****         4.2732  -1.3480   3.9375 LP             1 S1                 0.0000
     49 ****         5.7914  -1.3559   3.3362 LP             1 S1                 0.0000
     50 ****        -3.5651   1.4132   0.4642 LP             1 S1                 0.0000
@<TRIPOS>BOND
    1    1    2 1     
    2    1   21 1     
    3    1   22 1     
    4    1   23 1     
    5    2   20 2     
    6    2    3 1     
    7    3    4 2     
    8    3   24 1     
    9    4    5 1     
   10    4    6 1     
   11    5   25 1     
   12    5   26 1     
   13    5   27 1     
   14    6    7 1     
   15    6   20 1     
   16    7    8 1     
   17    7   28 1     
   18    7   29 1     
   19    8    9 2     
   20    8   10 am    
   21   10   11 1     
   22   10   30 1     
   23   11   12 1     
   24   11   31 1     
   25   11   32 1     
   26   12   13 1     
   27   12   14 1     
   28   12   33 1     
   29   13   34 1     
   30   13   35 1     
   31   13   36 1     
   32   14   19 1     
   33   14   15 1     
   34   14   45 1     
   35   15   16 1     
   36   15   37 1     
   37   15   38 1     
   38   16   17 1     
   39   16   39 1     
   40   16   40 1     
   41   17   18 1     
   42   18   19 1     
   43   18   41 1     
   44   18   42 1     
   45   19   43 1     
   46   19   44 1     
   47    9   46 1     
   48    9   47 1     
   49   17   48 1     
   50   17   49 1     
   51   20   50 1     
@<TRIPOS>SUBSTRUCTURE
      1 S1             1
@<TRIPOS>SET
LONE_PAIRS      STATIC     ATOMS    <user>   **** ""
5 46 47 48 49 50
DONOR_HYDROGENS      STATIC     ATOMS    <user>   **** ""
2 30 45
ATOM$BLUE        STATIC     ATOMS    COLORGROUP SYSTEM
5 46 47 48 49 50
ATOM$RED        STATIC     ATOMS    COLORGROUP SYSTEM
2 30 45
