AV-unprocessed.smi:16|AV-procd|sdf|93|dock6
  -GOLD-   2262015233D 1   1.00000     0.00000
 Structure written by MMmdl.
 60 64  0  0  0  0  0  0  0  0  2 V2000
  150.8066  136.2041  156.0176 C   0  0  0  0  0  0  0  0  0  0  0  0
  151.4257  137.6051  156.1604 C   0  0  0  0  0  0  0  0  0  0  0  0
  150.5260  138.7144  155.7535 N   0  3  1  0  0  0  0  0  0  0  0  0
  151.0412  140.0689  156.0741 C   0  0  0  0  0  0  0  0  0  0  0  0
  149.9371  141.1192  155.8790 C   0  0  0  0  0  0  0  0  0  0  0  0
  149.3523  141.0525  154.4502 C   0  0  2  0  0  0  0  0  0  0  0  0
  148.2984  141.9951  154.2431 O   0  0  0  0  0  0  0  0  0  0  0  0
  147.0875  141.6989  154.9361 C   0  0  0  0  0  0  0  0  0  0  0  0
  146.5986  140.2922  154.5632 C   0  0  0  0  0  0  0  0  0  0  0  0
  147.6475  139.3099  154.8132 N   0  0  0  0  0  0  0  0  0  0  0  0
  147.2141  138.0350  154.6980 C   0  0  0  0  0  0  0  0  0  0  0  0
  147.3467  137.1702  155.7373 N   0  0  0  0  0  0  0  0  0  0  0  0
  146.8813  135.9220  155.6262 C   0  0  0  0  0  0  0  0  0  0  0  0
  146.2599  135.3516  154.5909 N   0  0  0  0  0  0  0  0  0  0  0  0
  146.1281  136.2210  153.5476 C   0  0  0  0  0  0  0  0  0  0  0  0
  146.5712  137.5718  153.5212 C   0  0  0  0  0  0  0  0  0  0  0  0
  146.2435  138.1623  152.3078 N   0  0  0  0  0  0  0  0  0  0  0  0
  145.6401  137.2099  151.6495 C   0  0  0  0  0  0  0  0  0  0  0  0
  145.5490  136.0044  152.3091 N   0  0  0  0  0  0  0  0  0  0  0  0
  144.8948  134.8203  151.8354 C   0  0  0  0  0  0  0  0  0  0  0  0
  145.5576  133.4449  151.9413 C   0  0  0  0  0  0  0  0  0  0  0  0
  144.8539  133.0140  150.6349 C   0  0  0  0  0  0  0  0  0  0  0  0
  145.7306  132.1746  149.6894 C   0  0  0  0  0  0  0  0  0  0  0  0
  147.0965  132.5213  149.7864 O   0  0  0  0  0  0  0  0  0  0  0  0
  143.5096  132.2897  150.8605 C   0  0  0  0  0  0  0  0  0  0  0  0
  142.8042  132.0832  149.6542 O   0  0  0  0  0  0  0  0  0  0  0  0
  144.7794  134.5296  150.3380 C   0  0  0  0  0  0  0  0  0  0  0  0
  148.8863  139.6208  154.0917 C   0  0  2  0  0  0  0  0  0  0  0  0
  150.0423  138.6216  154.3524 C   0  0  0  0  0  0  0  0  0  0  0  0
  150.1484  141.3312  153.7587 H   0  0  0  0  0  0  0  0  0  0  0  0
  148.6524  139.5952  153.0261 H   0  0  0  0  0  0  0  0  0  0  0  0
  151.5223  135.4411  156.3244 H   0  0  0  0  0  0  0  0  0  0  0  0
  150.5255  135.9863  154.9876 H   0  0  0  0  0  0  0  0  0  0  0  0
  149.9226  136.0848  156.6437 H   0  0  0  0  0  0  0  0  0  0  0  0
  151.7267  137.7658  157.1965 H   0  0  0  0  0  0  0  0  0  0  0  0
  152.3409  137.6621  155.5702 H   0  0  0  0  0  0  0  0  0  0  0  0
  151.3911  140.0962  157.1067 H   0  0  0  0  0  0  0  0  0  0  0  0
  151.8960  140.3059  155.4396 H   0  0  0  0  0  0  0  0  0  0  0  0
  149.1645  140.9425  156.6264 H   0  0  0  0  0  0  0  0  0  0  0  0
  150.3319  142.1167  156.0737 H   0  0  0  0  0  0  0  0  0  0  0  0
  147.2229  141.7914  156.0133 H   0  0  0  0  0  0  0  0  0  0  0  0
  146.3366  142.4384  154.6579 H   0  0  0  0  0  0  0  0  0  0  0  0
  145.7072  140.0439  155.1410 H   0  0  0  0  0  0  0  0  0  0  0  0
  146.3163  140.2710  153.5095 H   0  0  0  0  0  0  0  0  0  0  0  0
  147.0240  135.2908  156.4909 H   0  0  0  0  0  0  0  0  0  0  0  0
  145.2440  137.3609  150.6557 H   0  0  0  0  0  0  0  0  0  0  0  0
  143.9101  134.8127  152.3059 H   0  0  0  0  0  0  0  0  0  0  0  0
  146.6440  133.5007  151.8487 H   0  0  0  0  0  0  0  0  0  0  0  0
  145.2733  132.8755  152.8270 H   0  0  0  0  0  0  0  0  0  0  0  0
  145.6485  131.1135  149.9262 H   0  0  0  0  0  0  0  0  0  0  0  0
  145.4109  132.2815  148.6523 H   0  0  0  0  0  0  0  0  0  0  0  0
  147.5899  131.7430  149.9953 H   0  0  0  0  0  0  0  0  0  0  0  0
  143.6596  131.3254  151.3468 H   0  0  0  0  0  0  0  0  0  0  0  0
  142.8605  132.8621  151.5232 H   0  0  0  0  0  0  0  0  0  0  0  0
  142.1532  132.7624  149.5657 H   0  0  0  0  0  0  0  0  0  0  0  0
  143.8482  134.8689  149.8837 H   0  0  0  0  0  0  0  0  0  0  0  0
  145.6413  134.8919  149.7742 H   0  0  0  0  0  0  0  0  0  0  0  0
  150.8659  138.8473  153.6741 H   0  0  0  0  0  0  0  0  0  0  0  0
  149.7406  137.5990  154.1236 H   0  0  0  0  0  0  0  0  0  0  0  0
  149.7024  138.5982  156.3277 H   0  0  0  0  0  0  0  0  0  0  0  0
  1  2  1  0  0  0  0
  1 32  1  0  0  0  0
  1 33  1  0  0  0  0
  1 34  1  0  0  0  0
  2  3  1  0  0  0  0
  2 35  1  0  0  0  0
  2 36  1  0  0  0  0
  3 29  1  0  0  0  0
  3  4  1  0  0  0  0
  3 60  1  0  0  0  0
  4  5  1  0  0  0  0
  4 37  1  0  0  0  0
  4 38  1  0  0  0  0
  5  6  1  0  0  0  0
  5 39  1  0  0  0  0
  5 40  1  0  0  0  0
  6 30  1  0  0  0  0
  6 28  1  0  0  0  0
  6  7  1  0  0  0  0
  7  8  1  0  0  0  0
  8  9  1  0  0  0  0
  8 41  1  0  0  0  0
  8 42  1  0  0  0  0
  9 10  1  0  0  0  0
  9 43  1  0  0  0  0
  9 44  1  0  0  0  0
 10 11  1  0  0  0  0
 10 28  1  0  0  0  0
 11 16  1  0  0  0  0
 11 12  2  0  0  0  0
 12 13  1  0  0  0  0
 13 14  2  0  0  0  0
 13 45  1  0  0  0  0
 14 15  1  0  0  0  0
 15 19  1  0  0  0  0
 15 16  2  0  0  0  0
 16 17  1  0  0  0  0
 17 18  2  0  0  0  0
 18 19  1  0  0  0  0
 18 46  1  0  0  0  0
 19 20  1  0  0  0  0
 20 27  1  0  0  0  0
 20 21  1  0  0  0  0
 20 47  1  0  0  0  0
 21 22  1  0  0  0  0
 21 48  1  0  0  0  0
 21 49  1  0  0  0  0
 22 23  1  0  0  0  0
 22 25  1  0  0  0  0
 22 27  1  0  0  0  0
 23 24  1  0  0  0  0
 23 50  1  0  0  0  0
 23 51  1  0  0  0  0
 24 52  1  0  0  0  0
 25 26  1  0  0  0  0
 25 53  1  0  0  0  0
 25 54  1  0  0  0  0
 26 55  1  0  0  0  0
 27 56  1  0  0  0  0
 27 57  1  0  0  0  0
 28 31  1  0  0  0  0
 28 29  1  0  0  0  0
 29 58  1  0  0  0  0
 29 59  1  0  0  0  0
M  CHG  1   3   1
M  END
> <s_m_source_file>
AV-unprocessed.smi

> <i_m_source_file_index>
16

> <i_lp_mmshare_version>
43012

> <i_f3d_flags>
0

> <s_epik_input>
W0NIM11bQ0gyXU4oW0NIMl1bQ0gyXTEpW0NIMl1bQ0BASF0oW0NAQEhdMTIpTihbQ0gyXVtDSDJdTzIpYyhuW2NIXW4zKWMoYzM0KW5bY0hdbjRbQ0hdKFtDSDJdNSlbQ0gyXUM1KFtDSDJdW09IXSlbQ0gyXVtPSF0=

> <s_epik_cmdline>
J2VwaWtfcHl0aG9uJywgJy1waCcsICc3LjAnLCAnLXRuJywgJzgnLCAnLW1hJywgJzIwMCcsICctbWV0YWxfYmluZGluZycsICctaW1hZScsICc8aW5maWxlLm1hZT4nLCAnLW9tYWUnLCAnPG91dGZpbGUubWFlPic=

> <r_lp_tautomer_probability>
1

> <r_epik_Ionization_Penalty>
0.0135603

> <r_epik_Ionization_Penalty_Charging>
0.0131385

> <r_epik_Ionization_Penalty_Neutral>
0.000421734

> <r_epik_State_Penalty>
0.0102091

> <r_epik_Charging_Adjusted_Penalty>
0.0233476

> <i_epik_Tot_Q>
1

> <i_epik_Tot_abs_Q>
1

> <r_epik_Metal_State_Penalty>
0.0103746

> <b_epik_Metal_Only>
0

> <s_lp_Force_Field>
OPLS_2005

> <r_lp_Energy>
64.3007

> <b_lp_Chiralities_Consistent>
1

> <s_lp_Variant>
AV-unprocessed.smi:16-7

> <Gold.Version>
5.8.1

> <Gold.Id.Protein>
6NUR|6NUR_protein|mol2

> <Gold.PLP.Fitness>
50.9991

> <Gold.PLP.PLP>
-41.2502

> <Gold.PLP.part.hbond>
-5.2509

> <Gold.PLP.part.metal>
0.0000

> <Gold.PLP.part.buried>
-0.4161

> <Gold.PLP.part.nonpolar>
-37.2758

> <Gold.PLP.part.repulsive>
0.7020

> <Gold.PLP.ligand.clash>
0.0000

> <Gold.PLP.ligand.torsion>
1.0539

> <Gold.PLP.Chemscore.Hbond>
2.7297

> <Gold.PLP.Chemscore.CHOScore>
0.9949

> <Gold.PLP.Chemscore.Metal>
0.0000

> <Gold.Chemscore.Hbonds>
donor molecule, donor type, donor heavy atom, donor atom, acceptor molecule, acceptor atom, score
      L1  H    24    52       P1 10747  1.00
      L1  H    26    55       P1 10186  1.00
      P1  H 10785 10796       L1    26  0.63
      L1  C    18    46       P1 10171  0.98

> <Gold.PLP.Chemscore.Internal.Correction>
0.6831

> <Gold.Rescore>
     Score         DG    S(hbond)    S(metal)    S(lipo)     H(rot)  DE(clash)    DE(int)     intcor
     14.37     -16.78       2.47        0.00      98.80       3.33       1.39       1.02       ----

> <Gold.Chemscore.Fitness>
14.3697

> <Gold.Chemscore.DG>
-16.7775

> <Gold.Chemscore.ZeroCoef>
-5.4800

> <Gold.Chemscore.Hbond>
2.4699

> <Gold.Chemscore.Metal>
0.0000

> <Gold.Chemscore.Lipo>
98.8045

> <Gold.Chemscore.Internal_Hbond>
0.0000

> <Gold.Chemscore.DEClash>
1.3908

> <Gold.Chemscore.DEInternal>
1.0170

> <Gold.Chemscore.Rot>
3.3251

> <Gold.Chemscore.Internal.Correction>
   9.000000E+99

> <Gold.Chemscore.Hbonds>
donor molecule, donor type, donor heavy atom, donor atom, acceptor molecule, acceptor atom, score
      L1  H    24    52       P1 10747  0.98
      L1  H    26    55       P1 10186  0.95
      P1  H 10785 10796       L1    26  0.55

> <Gold.Chemscore.Hbond.Weighted>
-8.2495

> <Gold.Chemscore.Metal.Weighted>
-0.0000

> <Gold.Chemscore.Lipo.Weighted>
-11.5601

> <Gold.Chemscore.Internal_Hbond.Weighted>
0.0000

> <Gold.Chemscore.DEClash.Weighted>
1.3908

> <Gold.Chemscore.DEInternal.Weighted>
1.0170

> <Gold.Chemscore.Rot.Weighted>
8.5122

> <Gold.Chemscore.Internal.Correction.Weighted>
   9.000000E+99

> <Gold.Protein.RotatedTorsions>
[ 6907 6896 6895 6894 ] final -118.60 input  -60.11 | X-H torsion
[ 7974 7965 7964 7962 ] final  124.74 input  175.53 | X-H torsion
[ 8008 7997 7996 7995 ] final   57.71 input   59.86 | X-H torsion
[ 10167 10162 10161 10158 ] final   94.57 input  -65.29 | X-H torsion
[ 10718 10713 10712 10709 ] final  -82.95 input   66.30 | X-H torsion
[ 10763 10752 10751 10750 ] final  -27.32 input  -60.55 | X-H torsion
[ 11005 11000 10999 10996 ] final   51.35 input  -57.11 | X-H torsion

> <Gold.Protein.ActiveResidues>
 VAL166  LYS551  ARG553  GLY616  TRP617  ASP618  TYR619  PRO620  LYS621  CYS622 
 ASP623  PHE694  ASN695  SER759  ASP760  ASP761  ALA762  ILE779  LEU786  VAL792 
 PHE793  MET794  SER795  GLU796  ALA797  LYS798  CYS799  TRP800  GLU811  SER814 

> <Gold.Protein.RotatedAtoms>
  150.8234  133.8214  159.3128 H   0  0  0  0  0  0  0  0  0  0  0  0  # atno 6907 bound_to 6896
  151.5965  135.1048  160.0060 H   0  0  0  0  0  0  0  0  0  0  0  0  # atno 6908 bound_to 6896
  152.4321  133.7255  159.6614 H   0  0  0  0  0  0  0  0  0  0  0  0  # atno 6909 bound_to 6896
  145.0810  139.3657  143.4909 H   0  0  0  0  0  0  0  0  0  0  0  0  # atno 7974 bound_to 7965
  155.5382  140.3483  155.4441 H   0  0  0  0  0  0  0  0  0  0  0  0  # atno 8008 bound_to 7997
  156.0670  140.1354  156.9900 H   0  0  0  0  0  0  0  0  0  0  0  0  # atno 8009 bound_to 7997
  154.4508  140.0973  156.6587 H   0  0  0  0  0  0  0  0  0  0  0  0  # atno 8010 bound_to 7997
  139.8071  144.6789  150.9689 H   0  0  0  0  0  0  0  0  0  0  0  0  # atno 10167 bound_to 10162
  156.0025  130.4650  150.4183 H   0  0  0  0  0  0  0  0  0  0  0  0  # atno 10718 bound_to 10713
  153.7302  135.6939  153.4991 H   0  0  0  0  0  0  0  0  0  0  0  0  # atno 10763 bound_to 10752
  153.2141  135.4392  155.0413 H   0  0  0  0  0  0  0  0  0  0  0  0  # atno 10764 bound_to 10752
  154.8255  135.3444  154.6832 H   0  0  0  0  0  0  0  0  0  0  0  0  # atno 10765 bound_to 10752
  140.0940  134.5170  155.8825 H   0  0  0  0  0  0  0  0  0  0  0  0  # atno 11005 bound_to 11000
  146.3531  140.0600  142.8630 LP  0  0  0  0  0  0  0  0  0  0  0  0  # atno 17320 bound_to 7965
  145.1178  140.9444  143.4618 LP  0  0  0  0  0  0  0  0  0  0  0  0  # atno 17321 bound_to 7965
  140.7819  143.4223  151.0822 LP  0  0  0  0  0  0  0  0  0  0  0  0  # atno 17342 bound_to 10162
  139.7892  143.8244  152.3149 LP  0  0  0  0  0  0  0  0  0  0  0  0  # atno 17343 bound_to 10162
  157.2241  131.0489  151.2529 LP  0  0  0  0  0  0  0  0  0  0  0  0  # atno 17370 bound_to 10713
  157.3772  130.7212  149.6605 LP  0  0  0  0  0  0  0  0  0  0  0  0  # atno 17371 bound_to 10713
  141.2086  133.6676  156.6385 LP  0  0  0  0  0  0  0  0  0  0  0  0  # atno 17394 bound_to 11000
  140.3312  134.7927  157.4327 LP  0  0  0  0  0  0  0  0  0  0  0  0  # atno 17395 bound_to 11000

$$$$
