#       Name:                AV-unprocessed.smi:2732
#       Creating user name   scv26
#       Creation time:       Fri Mar 27 14:58:03 2020


#       File generated by GOLD software.
#

@<TRIPOS>MOLECULE
AV-unprocessed.smi:2732
    39    40     1
SMALL
NO_CHARGES


@<TRIPOS>ATOM
      1 ****        -0.4370  -2.7601   1.9994 C.3            1 S1                 0.0000
      2 ****         0.0374  -1.9684   0.7723 C.3            1 S1                 0.0000
      3 ****         1.4616  -1.9547   0.7991 O.3            1 S1                 0.0000
      4 ****         2.0942  -1.5319  -0.4049 C.3            1 S1                 0.0000
      5 ****         3.6052  -1.6074  -0.2837 C.3            1 S1                 0.0000
      6 ****         4.2730  -2.6825   0.5493 C.3            1 S1                 0.0000
      7 ****         4.2976  -1.2520   1.0157 C.3            1 S1                 0.0000
      8 ****        -0.5073  -0.5313   0.7930 C.2            1 S1                 0.0000
      9 ****        -0.2783   0.1928   1.7616 O.2            1 S1                 0.0000
     10 ****        -1.2223  -0.1600  -0.2852 N.am           1 S1                 0.0000
     11 ****        -1.8196   1.1001  -0.5580 C.ar           1 S1                 0.0000
     12 ****        -2.8716   1.1420  -1.4990 C.ar           1 S1                 0.0000
     13 ****        -3.4785   2.3749  -1.8160 C.ar           1 S1                 0.0000
     14 ****        -3.0134   3.5501  -1.1916 C.ar           1 S1                 0.0000
     15 ****        -3.5670   4.8001  -1.4610 N.pl3          1 S1                 0.0000
     16 ****        -1.9962   3.4777  -0.3063 N.pl3          1 S1                 1.0000
     17 ****        -1.3896   2.3171   0.0267 C.ar           1 S1                 0.0000
     18 ****        -1.5256  -2.8058   2.0456 H              1 S1                 0.0000
     19 ****        -0.0799  -2.3146   2.9289 H              1 S1                 0.0000
     20 ****        -0.0666  -3.7847   1.9638 H              1 S1                 0.0000
     21 ****        -0.3041  -2.4873  -0.1256 H              1 S1                 0.0000
     22 ****         1.7795  -2.1670  -1.2340 H              1 S1                 0.0000
     23 ****         1.8231  -0.5055  -0.6535 H              1 S1                 0.0000
     24 ****         4.1291  -1.3180  -1.1926 H              1 S1                 0.0000
     25 ****         3.6390  -3.3772   1.0964 H              1 S1                 0.0000
     26 ****         5.2025  -3.1033   0.1713 H              1 S1                 0.0000
     27 ****         5.2431  -0.7177   0.9492 H              1 S1                 0.0000
     28 ****         3.6782  -0.9928   1.8721 H              1 S1                 0.0000
     29 ****        -1.4004  -0.8841  -0.9663 H              1 S1                 0.0000
     30 ****        -3.2173   0.2354  -1.9743 H              1 S1                 0.0000
     31 ****        -4.2879   2.4130  -2.5307 H              1 S1                 0.0000
     32 ****        -4.3266   4.9108  -2.1177 H              1 S1                 0.0000
     33 ****        -3.2300   5.6379  -1.0085 H              1 S1                 0.0000
     34 ****        -0.5791   2.4149   0.7332 H              1 S1                 0.0000
     35 ****        -1.6652   4.3383   0.1307 H              1 S1                 0.0000
     36 ****         1.7747  -2.8824   1.0021 LP             1 S1                 0.0000
     37 ****         1.7499  -1.3378   1.5315 LP             1 S1                 0.0000
     38 ****         0.2596  -0.1547   2.5296 LP             1 S1                 0.0000
     39 ****        -0.6302   1.1287   1.7805 LP             1 S1                 0.0000
@<TRIPOS>BOND
    1    1    2 1     
    2    1   18 1     
    3    1   19 1     
    4    1   20 1     
    5    2    3 1     
    6    2    8 1     
    7    2   21 1     
    8    3    4 1     
    9    4    5 1     
   10    4   22 1     
   11    4   23 1     
   12    5    7 1     
   13    5    6 1     
   14    5   24 1     
   15    6    7 1     
   16    6   25 1     
   17    6   26 1     
   18    7   27 1     
   19    7   28 1     
   20    8    9 2     
   21    8   10 am    
   22   10   11 1     
   23   10   29 1     
   24   11   17 ar    
   25   11   12 ar    
   26   12   13 ar    
   27   12   30 1     
   28   13   14 ar    
   29   13   31 1     
   30   14   15 1     
   31   14   16 ar    
   32   15   32 1     
   33   15   33 1     
   34   16   17 ar    
   35   16   35 1     
   36   17   34 1     
   37    3   36 1     
   38    3   37 1     
   39    9   38 1     
   40    9   39 1     
@<TRIPOS>SUBSTRUCTURE
      1 S1             1
@<TRIPOS>SET
LONE_PAIRS      STATIC     ATOMS    <user>   **** ""
4 36 37 38 39
DONOR_HYDROGENS      STATIC     ATOMS    <user>   **** ""
4 29 32 33 35
ATOM$BLUE        STATIC     ATOMS    COLORGROUP SYSTEM
4 36 37 38 39
ATOM$RED        STATIC     ATOMS    COLORGROUP SYSTEM
4 29 32 33 35
