AV-unprocessed.smi:2952|AV-procd|sdf|11292|dock1
  -GOLD-   2272016183D 1   1.00000     0.00000
 Structure written by MMmdl.
 39 41  0  0  0  0  0  0  0  0  2 V2000
  151.2284  146.5037  160.5643 O   0  0  0  0  0  0  0  0  0  0  0  0
  151.9142  145.5202  159.8179 C   0  0  0  0  0  0  0  0  0  0  0  0
  150.9980  144.3291  159.4939 C   0  0  0  0  0  0  0  0  0  0  0  0
  151.7388  143.0670  159.3313 N   0  0  0  0  0  0  0  0  0  0  0  0
  151.7998  142.2150  158.2669 C   0  0  0  0  0  0  0  0  0  0  0  0
  151.1045  142.3667  156.9501 C   0  0  0  0  0  0  0  0  0  0  0  0
  150.7302  141.0960  156.3346 N   0  0  0  0  0  0  0  0  0  0  0  0
  151.8831  140.3496  155.8362 C   0  0  0  0  0  0  0  0  0  0  0  0
  151.4634  139.0208  155.1840 C   0  0  0  0  0  0  0  0  0  0  0  0
  150.5285  139.2752  154.1404 O   0  0  0  0  0  0  0  0  0  0  0  0
  149.3678  139.9631  154.5963 C   0  0  0  0  0  0  0  0  0  0  0  0
  149.7811  141.2952  155.2455 C   0  0  0  0  0  0  0  0  0  0  0  0
  152.6206  141.1859  158.6194 N   0  3  0  0  0  0  0  0  0  0  0  0
  153.0934  141.3819  159.9173 C   0  0  0  0  0  0  0  0  0  0  0  0
  153.9489  140.6128  160.6997 C   0  0  0  0  0  0  0  0  0  0  0  0
  154.2381  141.1029  161.9900 C   0  0  0  0  0  0  0  0  0  0  0  0
  153.6854  142.3128  162.4588 C   0  0  0  0  0  0  0  0  0  0  0  0
  154.0785  142.8647  164.0451 Cl  0  0  0  0  0  0  0  0  0  0  0  0
  152.8178  143.0818  161.6552 C   0  0  0  0  0  0  0  0  0  0  0  0
  152.5341  142.5904  160.3810 C   0  0  0  0  0  0  0  0  0  0  0  0
  150.3696  146.6217  160.1873 H   0  0  0  0  0  0  0  0  0  0  0  0
  152.2819  145.9709  158.8960 H   0  0  0  0  0  0  0  0  0  0  0  0
  152.7864  145.1900  160.3827 H   0  0  0  0  0  0  0  0  0  0  0  0
  150.2302  144.2052  160.2572 H   0  0  0  0  0  0  0  0  0  0  0  0
  150.4637  144.5197  158.5634 H   0  0  0  0  0  0  0  0  0  0  0  0
  150.2110  142.9691  157.1171 H   0  0  0  0  0  0  0  0  0  0  0  0
  151.7393  142.9401  156.2730 H   0  0  0  0  0  0  0  0  0  0  0  0
  152.4274  140.9525  155.1077 H   0  0  0  0  0  0  0  0  0  0  0  0
  152.5775  140.1393  156.6498 H   0  0  0  0  0  0  0  0  0  0  0  0
  152.3324  138.5109  154.7683 H   0  0  0  0  0  0  0  0  0  0  0  0
  151.0209  138.3505  155.9227 H   0  0  0  0  0  0  0  0  0  0  0  0
  148.7035  140.1427  153.7510 H   0  0  0  0  0  0  0  0  0  0  0  0
  148.8224  139.3399  155.3067 H   0  0  0  0  0  0  0  0  0  0  0  0
  148.8918  141.8052  155.6176 H   0  0  0  0  0  0  0  0  0  0  0  0
  150.2190  141.9456  154.4867 H   0  0  0  0  0  0  0  0  0  0  0  0
  154.3764  139.6870  160.3438 H   0  0  0  0  0  0  0  0  0  0  0  0
  154.8998  140.5396  162.6321 H   0  0  0  0  0  0  0  0  0  0  0  0
  152.4056  144.0103  162.0214 H   0  0  0  0  0  0  0  0  0  0  0  0
  152.8408  140.4072  158.0121 H   0  0  0  0  0  0  0  0  0  0  0  0
  1  2  1  0  0  0  0
  1 21  1  0  0  0  0
  2  3  1  0  0  0  0
  2 22  1  0  0  0  0
  2 23  1  0  0  0  0
  3  4  1  0  0  0  0
  3 24  1  0  0  0  0
  3 25  1  0  0  0  0
  4 20  1  0  0  0  0
  4  5  1  0  0  0  0
  5  6  1  0  0  0  0
  5 13  2  0  0  0  0
  6  7  1  0  0  0  0
  6 26  1  0  0  0  0
  6 27  1  0  0  0  0
  7 12  1  0  0  0  0
  7  8  1  0  0  0  0
  8  9  1  0  0  0  0
  8 28  1  0  0  0  0
  8 29  1  0  0  0  0
  9 10  1  0  0  0  0
  9 30  1  0  0  0  0
  9 31  1  0  0  0  0
 10 11  1  0  0  0  0
 11 12  1  0  0  0  0
 11 32  1  0  0  0  0
 11 33  1  0  0  0  0
 12 34  1  0  0  0  0
 12 35  1  0  0  0  0
 13 14  1  0  0  0  0
 13 39  1  0  0  0  0
 14 20  2  0  0  0  0
 14 15  1  0  0  0  0
 15 16  2  0  0  0  0
 15 36  1  0  0  0  0
 16 17  1  0  0  0  0
 16 37  1  0  0  0  0
 17 18  1  0  0  0  0
 17 19  2  0  0  0  0
 19 20  1  0  0  0  0
 19 38  1  0  0  0  0
M  CHG  1  13   1
M  END
> <s_m_source_file>
AV-unprocessed.smi

> <i_m_source_file_index>
2952

> <i_lp_mmshare_version>
43012

> <i_f3d_flags>
0

> <s_epik_input>
W2NIXTFbY0hdYyhDbClbY0hdYyhjMTIpbihbQ0gyXVtDSDJdW09IXSljKG4yKVtDSDJdTjNbQ0gyXVtDSDJdT1tDSDJdW0NIMl0z

> <s_epik_cmdline>
J2VwaWtfcHl0aG9uJywgJy1waCcsICc3LjAnLCAnLXRuJywgJzgnLCAnLW1hJywgJzIwMCcsICctbWV0YWxfYmluZGluZycsICctaW1hZScsICc8aW5maWxlLm1hZT4nLCAnLW9tYWUnLCAnPG91dGZpbGUubWFlPic=

> <r_epik_Ionization_Penalty>
1.17151

> <r_epik_Ionization_Penalty_Charging>
1.1712

> <r_epik_Ionization_Penalty_Neutral>
0.000312352

> <r_epik_State_Penalty>
1.2343

> <r_epik_Charging_Adjusted_Penalty>
2.4055

> <i_epik_Tot_Q>
1

> <i_epik_Tot_abs_Q>
1

> <r_epik_Metal_State_Penalty>
5.24833

> <b_epik_Metal_Only>
0

> <s_lp_Force_Field>
OPLS_2005

> <r_lp_Energy>
24.7886

> <b_lp_Chiralities_Consistent>
1

> <s_lp_Variant>
AV-unprocessed.smi:2952-2

> <Gold.Version>
5.8.1

> <Gold.Id.Protein>
6NUR|6NUR_protein|mol2

> <Gold.PLP.Fitness>
53.0171

> <Gold.PLP.PLP>
-52.4843

> <Gold.PLP.part.hbond>
-4.6466

> <Gold.PLP.part.metal>
0.0000

> <Gold.PLP.part.buried>
-2.1030

> <Gold.PLP.part.nonpolar>
-44.6372

> <Gold.PLP.part.repulsive>
0.3259

> <Gold.PLP.ligand.clash>
0.0568

> <Gold.PLP.ligand.torsion>
0.6219

> <Gold.PLP.Chemscore.Hbond>
0.6000

> <Gold.PLP.Chemscore.CHOScore>
0.0000

> <Gold.PLP.Chemscore.Metal>
0.0000

> <Gold.Chemscore.Hbonds>
donor molecule, donor type, donor heavy atom, donor atom, acceptor molecule, acceptor atom, score
      P1  H  7989  7998       L1    10  0.55

> <Gold.PLP.Chemscore.Internal.Correction>
0.0335

> <Gold.Rescore>
     Score         DG    S(hbond)    S(metal)    S(lipo)     H(rot)  DE(clash)    DE(int)     intcor
     13.55     -14.44       0.00        0.00     124.32       2.18       0.22       0.68       ----

> <Gold.Chemscore.Fitness>
13.5472

> <Gold.Chemscore.DG>
-14.4393

> <Gold.Chemscore.ZeroCoef>
-5.4800

> <Gold.Chemscore.Hbond>
0.0000

> <Gold.Chemscore.Metal>
0.0000

> <Gold.Chemscore.Lipo>
124.3217

> <Gold.Chemscore.Internal_Hbond>
0.0000

> <Gold.Chemscore.DEClash>
0.2161

> <Gold.Chemscore.DEInternal>
0.6760

> <Gold.Chemscore.Rot>
2.1822

> <Gold.Chemscore.Internal.Correction>
   9.000000E+99

> <Gold.Chemscore.Hbonds>
donor molecule, donor type, donor heavy atom, donor atom, acceptor molecule, acceptor atom, score
      P1  H  7989  7998       L1    10  0.01

> <Gold.Chemscore.Hbond.Weighted>
-0.0000

> <Gold.Chemscore.Metal.Weighted>
-0.0000

> <Gold.Chemscore.Lipo.Weighted>
-14.5456

> <Gold.Chemscore.Internal_Hbond.Weighted>
0.0000

> <Gold.Chemscore.DEClash.Weighted>
0.2161

> <Gold.Chemscore.DEInternal.Weighted>
0.6760

> <Gold.Chemscore.Rot.Weighted>
5.5863

> <Gold.Chemscore.Internal.Correction.Weighted>
   9.000000E+99

> <Gold.Protein.RotatedTorsions>
[ 6907 6896 6895 6894 ] final  -57.77 input  -60.11 | X-H torsion
[ 7974 7965 7964 7962 ] final  117.53 input  175.53 | X-H torsion
[ 8008 7997 7996 7995 ] final -164.27 input   59.86 | X-H torsion
[ 10167 10162 10161 10158 ] final  169.74 input  -65.29 | X-H torsion
[ 10718 10713 10712 10709 ] final  -63.47 input   66.30 | X-H torsion
[ 10763 10752 10751 10750 ] final   12.09 input  -60.55 | X-H torsion
[ 11005 11000 10999 10996 ] final  151.95 input  -57.11 | X-H torsion

> <Gold.Protein.ActiveResidues>
 VAL166  LYS551  ARG553  GLY616  TRP617  ASP618  TYR619  PRO620  LYS621  CYS622 
 ASP623  PHE694  ASN695  SER759  ASP760  ASP761  ALA762  ILE779  LEU786  VAL792 
 PHE793  MET794  SER795  GLU796  ALA797  LYS798  CYS799  TRP800  GLU811  SER814 

> <Gold.Protein.RotatedAtoms>
  150.8059  134.7184  159.6643 H   0  0  0  0  0  0  0  0  0  0  0  0  # atno 6907 bound_to 6896
  152.4179  134.6006  160.0009 H   0  0  0  0  0  0  0  0  0  0  0  0  # atno 6908 bound_to 6896
  151.6230  133.3300  159.3128 H   0  0  0  0  0  0  0  0  0  0  0  0  # atno 6909 bound_to 6896
  145.1662  139.3127  143.4491 H   0  0  0  0  0  0  0  0  0  0  0  0  # atno 7974 bound_to 7965
  155.8332  140.0937  157.1780 H   0  0  0  0  0  0  0  0  0  0  0  0  # atno 8008 bound_to 7997
  154.3980  140.1415  156.3699 H   0  0  0  0  0  0  0  0  0  0  0  0  # atno 8009 bound_to 7997
  155.8144  140.3448  155.5479 H   0  0  0  0  0  0  0  0  0  0  0  0  # atno 8010 bound_to 7997
  139.5000  144.3673  151.9762 H   0  0  0  0  0  0  0  0  0  0  0  0  # atno 10167 bound_to 10162
  156.0789  130.4221  150.1281 H   0  0  0  0  0  0  0  0  0  0  0  0  # atno 10718 bound_to 10713
  153.1859  135.6835  153.8416 H   0  0  0  0  0  0  0  0  0  0  0  0  # atno 10763 bound_to 10752
  153.7732  135.3193  155.3356 H   0  0  0  0  0  0  0  0  0  0  0  0  # atno 10764 bound_to 10752
  154.8088  135.4731  154.0558 H   0  0  0  0  0  0  0  0  0  0  0  0  # atno 10765 bound_to 10752
  140.1264  134.8830  157.2144 H   0  0  0  0  0  0  0  0  0  0  0  0  # atno 11005 bound_to 11000
  146.3475  140.1791  142.8589 LP  0  0  0  0  0  0  0  0  0  0  0  0  # atno 17320 bound_to 7965
  145.0279  140.8847  143.5127 LP  0  0  0  0  0  0  0  0  0  0  0  0  # atno 17321 bound_to 7965
  140.3109  144.3539  150.6034 LP  0  0  0  0  0  0  0  0  0  0  0  0  # atno 17342 bound_to 10162
  140.5799  143.2173  151.7447 LP  0  0  0  0  0  0  0  0  0  0  0  0  # atno 17343 bound_to 10162
  156.9316  130.9716  151.3532 LP  0  0  0  0  0  0  0  0  0  0  0  0  # atno 17370 bound_to 10713
  157.5897  130.8435  149.8642 LP  0  0  0  0  0  0  0  0  0  0  0  0  # atno 17371 bound_to 10713
  140.2898  134.3254  155.7318 LP  0  0  0  0  0  0  0  0  0  0  0  0  # atno 17394 bound_to 11000
  141.2162  133.7528  156.9486 LP  0  0  0  0  0  0  0  0  0  0  0  0  # atno 17395 bound_to 11000

$$$$
